MODEL 1
REMARK VINA RESULT:      -8.2      0.000      0.000
REMARK SMILES CC[N@@H+]1CCC[C@H]1CN(C)C(=O)N1CCC[C@@H]1CC(=O)NCCCCCCNC(=O)c1ccc(-c2c3nc(c(-c4c(F)c(F)c(F)c(F)c4F)c4ccc([nH]4)c(-c4c(F)c(F)c(F)c(F)c4F)c4nc(c(-c5c(F)c(F)c(F)c(F)c5F)c5ccc2[nH]5)C=C4)C=C3)cc1
REMARK SMILES IDX 22 1 21 2 19 3 20 4 18 6 17 7 13 8 14 9 15 10 16 11 11 12
REMARK SMILES IDX 12 13 9 14 10 15 8 16 7 17 3 18 4 19 5 21 6 22 2 23 1 24
REMARK SMILES IDX 23 25 24 26 25 27 26 28 27 29 28 30 29 31 30 33 31 34 32 35
REMARK SMILES IDX 93 36 33 37 92 38 34 39 35 40 36 41 86 42 37 43 91 44 85 45
REMARK SMILES IDX 87 46 38 47 90 48 84 49 83 50 39 52 71 53 51 54 70 55 52 56
REMARK SMILES IDX 55 57 69 58 88 59 53 60 54 61 68 63 89 64 56 65 40 66 41 67
REMARK SMILES IDX 49 68 42 69 43 70 47 71 50 72 44 73 45 74 48 75 46 76 72 77
REMARK SMILES IDX 73 78 81 79 74 80 75 81 79 82 82 83 76 84 77 85 80 86 78 87
REMARK SMILES IDX 57 88 58 89 66 90 59 91 60 92 64 93 67 94 61 95 62 96 65 97
REMARK SMILES IDX 63 98
REMARK H PARENT 21 5 3 20 28 32 87 51 55 62
REMARK Flexibility Score: inf
ROOT
ATOM      1  C   UNL A   1      38.000  33.142  32.996  1.00  0.00     0.116 C 
ENDROOT
BRANCH   1   2
ATOM      2  N   UNL A   1      39.099  33.495  33.873  1.00  0.00    -0.356 N 
ATOM      3  C   UNL A   1      40.207  32.778  34.217  1.00  0.00     0.222 C 
ATOM      4  O   UNL A   1      40.941  33.225  35.098  1.00  0.00    -0.275 OA
ATOM      5  H   UNL A   1      39.036  34.388  34.283  1.00  0.00     0.163 HD
BRANCH   3   6
ATOM      6  C   UNL A   1      40.529  31.485  33.503  1.00  0.00     0.125 C 
BRANCH   6   7
ATOM      7  C   UNL A   1      39.896  30.252  34.154  1.00  0.00     0.096 C 
ATOM      8  N   UNL A   1      40.928  29.213  34.277  1.00  0.00    -0.321 N 
ATOM      9  C   UNL A   1      40.590  28.033  33.499  1.00  0.00     0.122 C 
ATOM     10  C   UNL A   1      39.567  28.540  32.498  1.00  0.00     0.024 C 
ATOM     11  C   UNL A   1      38.805  29.565  33.327  1.00  0.00     0.027 C 
BRANCH   8  12
ATOM     12  C   UNL A   1      41.676  29.130  35.429  1.00  0.00     0.320 C 
ATOM     13  O   UNL A   1      41.253  29.604  36.480  1.00  0.00    -0.248 OA
BRANCH  12  14
ATOM     14  N   UNL A   1      42.933  28.564  35.289  1.00  0.00    -0.322 N 
ATOM     15  C   UNL A   1      44.099  29.245  34.748  1.00  0.00     0.149 C 
BRANCH  14  16
ATOM     16  C   UNL A   1      43.167  27.246  35.888  1.00  0.00     0.185 C 
BRANCH  16  17
ATOM     17  C   UNL A   1      42.981  26.093  34.856  1.00  0.00     0.204 C 
ATOM     18  N   UNL A   1      44.267  25.414  34.587  1.00  0.00    -0.331 N 
ATOM     19  C   UNL A   1      44.214  24.106  35.245  1.00  0.00     0.262 C 
ATOM     20  H   UNL A   1      45.033  25.968  34.969  1.00  0.00     0.348 HD
ATOM     21  C   UNL A   1      42.759  23.700  35.154  1.00  0.00     0.068 C 
ATOM     22  C   UNL A   1      42.029  25.009  35.381  1.00  0.00     0.073 C 
BRANCH  18  23
ATOM     23  C   UNL A   1      44.595  25.326  33.161  1.00  0.00     0.259 C 
ATOM     24  C   UNL A   1      44.265  26.638  32.455  1.00  0.00     0.071 C 
ENDBRANCH  18  23
ENDBRANCH  16  17
ENDBRANCH  14  16
ENDBRANCH  12  14
ENDBRANCH   8  12
ENDBRANCH   6   7
ENDBRANCH   3   6
ENDBRANCH   1   2
BRANCH   1  25
ATOM     25  C   UNL A   1      38.154  33.826  31.638  1.00  0.00     0.021 C 
BRANCH  25  26
ATOM     26  C   UNL A   1      37.244  33.269  30.543  1.00  0.00     0.002 C 
BRANCH  26  27
ATOM     27  C   UNL A   1      36.084  32.399  31.035  1.00  0.00     0.002 C 
BRANCH  27  28
ATOM     28  C   UNL A   1      34.745  32.605  30.321  1.00  0.00     0.021 C 
BRANCH  28  29
ATOM     29  C   UNL A   1      34.776  32.447  28.801  1.00  0.00     0.116 C 
BRANCH  29  30
ATOM     30  N   UNL A   1      34.143  31.218  28.357  1.00  0.00    -0.352 N 
ATOM     31  C   UNL A   1      34.703  30.014  28.016  1.00  0.00     0.251 C 
ATOM     32  H   UNL A   1      33.162  31.254  28.289  1.00  0.00     0.163 HD
ATOM     33  O   UNL A   1      34.011  29.136  27.505  1.00  0.00    -0.269 OA
BRANCH  31  34
ATOM     34  C   UNL A   1      36.144  29.767  28.238  1.00  0.00     0.039 A 
ATOM     35  C   UNL A   1      36.551  29.259  29.476  1.00  0.00     0.014 A 
ATOM     36  C   UNL A   1      37.093  30.061  27.255  1.00  0.00     0.014 A 
ATOM     37  C   UNL A   1      37.902  28.992  29.707  1.00  0.00     0.010 A 
ATOM     38  C   UNL A   1      38.434  29.741  27.466  1.00  0.00     0.010 A 
ATOM     39  C   UNL A   1      38.851  29.204  28.694  1.00  0.00    -0.014 A 
BRANCH  39  40
ATOM     40  C   UNL A   1      40.282  28.865  28.904  1.00  0.00     0.031 A 
ATOM     41  C   UNL A   1      41.220  29.871  29.506  1.00  0.00     0.074 A 
ATOM     42  C   UNL A   1      40.747  27.668  28.495  1.00  0.00     0.049 A 
ATOM     43  N   UNL A   1      42.512  29.781  29.707  1.00  0.00    -0.248 NA
ATOM     44  C   UNL A   1      40.638  31.158  29.916  1.00  0.00     0.031 C 
ATOM     45  C   UNL A   1      39.947  26.625  27.851  1.00  0.00     0.029 A 
ATOM     46  N   UNL A   1      42.010  27.133  28.545  1.00  0.00    -0.354 N 
ATOM     47  C   UNL A   1      42.897  31.002  30.245  1.00  0.00     0.074 A 
ATOM     48  C   UNL A   1      41.712  31.829  30.308  1.00  0.00     0.031 C 
ATOM     49  C   UNL A   1      40.734  25.574  27.576  1.00  0.00     0.029 A 
ATOM     50  C   UNL A   1      42.099  25.876  27.997  1.00  0.00     0.049 A 
ATOM     51  H   UNL A   1      42.779  27.605  28.938  1.00  0.00     0.167 HD
ATOM     52  C   UNL A   1      44.125  31.389  30.666  1.00  0.00     0.037 A 
ATOM     53  C   UNL A   1      43.161  25.065  27.845  1.00  0.00     0.037 A 
ATOM     54  C   UNL A   1      45.295  30.550  30.641  1.00  0.00     0.049 A 
ATOM     55  C   UNL A   1      44.508  25.511  28.346  1.00  0.00     0.074 A 
ATOM     56  C   UNL A   1      46.565  30.828  31.117  1.00  0.00     0.029 A 
ATOM     57  N   UNL A   1      45.337  29.269  30.112  1.00  0.00    -0.354 N 
ATOM     58  N   UNL A   1      44.843  26.641  28.919  1.00  0.00    -0.248 NA
ATOM     59  C   UNL A   1      45.622  24.566  28.186  1.00  0.00     0.031 C 
ATOM     60  C   UNL A   1      47.385  29.728  30.844  1.00  0.00     0.029 A 
ATOM     61  C   UNL A   1      46.617  28.751  30.233  1.00  0.00     0.049 A 
ATOM     62  H   UNL A   1      44.572  28.799  29.710  1.00  0.00     0.167 HD
ATOM     63  C   UNL A   1      46.197  26.533  29.209  1.00  0.00     0.074 A 
ATOM     64  C   UNL A   1      46.618  25.222  28.763  1.00  0.00     0.031 C 
ATOM     65  C   UNL A   1      47.017  27.442  29.790  1.00  0.00     0.037 A 
BRANCH  52  66
ATOM     66  C   UNL A   1      44.272  32.782  31.201  1.00  0.00     0.064 A 
ATOM     67  C   UNL A   1      44.092  33.067  32.563  1.00  0.00     0.173 A 
ATOM     68  C   UNL A   1      44.655  33.831  30.354  1.00  0.00     0.173 A 
ATOM     69  F   UNL A   1      43.716  32.098  33.412  1.00  0.00    -0.203 F 
ATOM     70  C   UNL A   1      44.273  34.357  33.054  1.00  0.00     0.198 A 
ATOM     71  C   UNL A   1      44.859  35.116  30.853  1.00  0.00     0.198 A 
ATOM     72  F   UNL A   1      44.844  33.610  29.045  1.00  0.00    -0.203 F 
ATOM     73  F   UNL A   1      44.063  34.614  34.352  1.00  0.00    -0.200 F 
ATOM     74  C   UNL A   1      44.664  35.378  32.200  1.00  0.00     0.200 A 
ATOM     75  F   UNL A   1      45.247  36.099  30.028  1.00  0.00    -0.200 F 
ATOM     76  F   UNL A   1      44.849  36.618  32.676  1.00  0.00    -0.200 F 
ENDBRANCH  52  66
BRANCH  53  77
ATOM     77  C   UNL A   1      42.995  23.737  27.203  1.00  0.00     0.064 A 
ATOM     78  C   UNL A   1      43.347  23.537  25.860  1.00  0.00     0.173 A 
ATOM     79  C   UNL A   1      42.471  22.646  27.911  1.00  0.00     0.173 A 
ATOM     80  F   UNL A   1      43.832  24.556  25.137  1.00  0.00    -0.203 F 
ATOM     81  C   UNL A   1      43.161  22.300  25.246  1.00  0.00     0.198 A 
ATOM     82  C   UNL A   1      42.309  21.404  27.301  1.00  0.00     0.198 A 
ATOM     83  F   UNL A   1      42.124  22.786  29.199  1.00  0.00    -0.203 F 
ATOM     84  F   UNL A   1      43.463  22.149  23.948  1.00  0.00    -0.200 F 
ATOM     85  C   UNL A   1      42.646  21.234  25.967  1.00  0.00     0.200 A 
ATOM     86  F   UNL A   1      41.823  20.373  28.005  1.00  0.00    -0.200 F 
ATOM     87  F   UNL A   1      42.468  20.046  25.375  1.00  0.00    -0.200 F 
ENDBRANCH  53  77
BRANCH  65  88
ATOM     88  C   UNL A   1      48.446  27.038  30.001  1.00  0.00     0.064 A 
ATOM     89  C   UNL A   1      49.445  27.367  29.073  1.00  0.00     0.173 A 
ATOM     90  C   UNL A   1      48.826  26.347  31.161  1.00  0.00     0.173 A 
ATOM     91  F   UNL A   1      49.126  28.013  27.941  1.00  0.00    -0.203 F 
ATOM     92  C   UNL A   1      50.769  26.998  29.289  1.00  0.00     0.198 A 
ATOM     93  C   UNL A   1      50.155  26.002  31.385  1.00  0.00     0.198 A 
ATOM     94  F   UNL A   1      47.908  26.014  32.081  1.00  0.00    -0.203 F 
ATOM     95  F   UNL A   1      51.700  27.285  28.369  1.00  0.00    -0.200 F 
ATOM     96  C   UNL A   1      51.124  26.323  30.447  1.00  0.00     0.200 A 
ATOM     97  F   UNL A   1      50.499  25.358  32.509  1.00  0.00    -0.200 F 
ATOM     98  F   UNL A   1      52.401  25.972  30.654  1.00  0.00    -0.200 F 
ENDBRANCH  65  88
ENDBRANCH  39  40
ENDBRANCH  31  34
ENDBRANCH  29  30
ENDBRANCH  28  29
ENDBRANCH  27  28
ENDBRANCH  26  27
ENDBRANCH  25  26
ENDBRANCH   1  25
TORSDOF 19
ENDMDL
MODEL 2
REMARK VINA RESULT:      -8.0      4.509      8.533
REMARK SMILES CC[N@@H+]1CCC[C@H]1CN(C)C(=O)N1CCC[C@@H]1CC(=O)NCCCCCCNC(=O)c1ccc(-c2c3nc(c(-c4c(F)c(F)c(F)c(F)c4F)c4ccc([nH]4)c(-c4c(F)c(F)c(F)c(F)c4F)c4nc(c(-c5c(F)c(F)c(F)c(F)c5F)c5ccc2[nH]5)C=C4)C=C3)cc1
REMARK SMILES IDX 22 1 21 2 19 3 20 4 18 6 17 7 13 8 14 9 15 10 16 11 11 12
REMARK SMILES IDX 12 13 9 14 10 15 8 16 7 17 3 18 4 19 5 21 6 22 2 23 1 24
REMARK SMILES IDX 23 25 24 26 25 27 26 28 27 29 28 30 29 31 30 33 31 34 32 35
REMARK SMILES IDX 93 36 33 37 92 38 34 39 35 40 36 41 86 42 37 43 91 44 85 45
REMARK SMILES IDX 87 46 38 47 90 48 84 49 83 50 39 52 71 53 51 54 70 55 52 56
REMARK SMILES IDX 55 57 69 58 88 59 53 60 54 61 68 63 89 64 56 65 40 66 41 67
REMARK SMILES IDX 49 68 42 69 43 70 47 71 50 72 44 73 45 74 48 75 46 76 72 77
REMARK SMILES IDX 73 78 81 79 74 80 75 81 79 82 82 83 76 84 77 85 80 86 78 87
REMARK SMILES IDX 57 88 58 89 66 90 59 91 60 92 64 93 67 94 61 95 62 96 65 97
REMARK SMILES IDX 63 98
REMARK H PARENT 21 5 3 20 28 32 87 51 55 62
REMARK Flexibility Score: inf
ROOT
ATOM      1  C   UNL A   1      39.197  29.499  28.144  1.00  0.00     0.116 C 
ENDROOT
BRANCH   1   2
ATOM      2  N   UNL A   1      37.862  29.762  27.641  1.00  0.00    -0.356 N 
ATOM      3  C   UNL A   1      36.907  30.617  28.106  1.00  0.00     0.222 C 
ATOM      4  O   UNL A   1      35.785  30.569  27.601  1.00  0.00    -0.275 OA
ATOM      5  H   UNL A   1      37.608  29.246  26.843  1.00  0.00     0.163 HD
BRANCH   3   6
ATOM      6  C   UNL A   1      37.240  31.613  29.193  1.00  0.00     0.125 C 
BRANCH   6   7
ATOM      7  C   UNL A   1      36.532  31.330  30.521  1.00  0.00     0.096 C 
ATOM      8  N   UNL A   1      37.330  31.922  31.605  1.00  0.00    -0.321 N 
ATOM      9  C   UNL A   1      37.817  30.907  32.523  1.00  0.00     0.122 C 
ATOM     10  C   UNL A   1      37.720  29.620  31.724  1.00  0.00     0.024 C 
ATOM     11  C   UNL A   1      36.451  29.853  30.916  1.00  0.00     0.027 C 
BRANCH   8  12
ATOM     12  C   UNL A   1      37.064  33.207  32.021  1.00  0.00     0.320 C 
ATOM     13  O   UNL A   1      37.676  34.156  31.539  1.00  0.00    -0.248 OA
BRANCH  12  14
ATOM     14  N   UNL A   1      36.141  33.327  33.048  1.00  0.00    -0.322 N 
ATOM     15  C   UNL A   1      36.475  33.447  34.458  1.00  0.00     0.149 C 
BRANCH  14  16
ATOM     16  C   UNL A   1      34.733  33.527  32.691  1.00  0.00     0.185 C 
BRANCH  16  17
ATOM     17  C   UNL A   1      34.501  34.890  31.970  1.00  0.00     0.204 C 
ATOM     18  N   UNL A   1      33.160  34.935  31.348  1.00  0.00    -0.331 N 
ATOM     19  C   UNL A   1      32.337  35.839  32.155  1.00  0.00     0.262 C 
ATOM     20  H   UNL A   1      32.753  34.000  31.343  1.00  0.00     0.348 HD
ATOM     21  C   UNL A   1      33.310  36.883  32.658  1.00  0.00     0.068 C 
ATOM     22  C   UNL A   1      34.555  36.069  32.951  1.00  0.00     0.073 C 
BRANCH  18  23
ATOM     23  C   UNL A   1      33.186  35.298  29.928  1.00  0.00     0.259 C 
ATOM     24  C   UNL A   1      33.944  34.248  29.121  1.00  0.00     0.071 C 
ENDBRANCH  18  23
ENDBRANCH  16  17
ENDBRANCH  14  16
ENDBRANCH  12  14
ENDBRANCH   8  12
ENDBRANCH   6   7
ENDBRANCH   3   6
ENDBRANCH   1   2
BRANCH   1  25
ATOM     25  C   UNL A   1      40.082  28.917  27.042  1.00  0.00     0.021 C 
BRANCH  25  26
ATOM     26  C   UNL A   1      40.760  27.596  27.407  1.00  0.00     0.002 C 
BRANCH  26  27
ATOM     27  C   UNL A   1      40.051  26.772  28.486  1.00  0.00     0.002 C 
BRANCH  27  28
ATOM     28  C   UNL A   1      39.549  25.393  28.050  1.00  0.00     0.021 C 
BRANCH  28  29
ATOM     29  C   UNL A   1      39.775  25.041  26.581  1.00  0.00     0.116 C 
BRANCH  29  30
ATOM     30  N   UNL A   1      40.521  23.806  26.411  1.00  0.00    -0.352 N 
ATOM     31  C   UNL A   1      41.863  23.611  26.216  1.00  0.00     0.251 C 
ATOM     32  H   UNL A   1      39.980  22.985  26.441  1.00  0.00     0.163 HD
ATOM     33  O   UNL A   1      42.286  22.492  25.931  1.00  0.00    -0.269 OA
BRANCH  31  34
ATOM     34  C   UNL A   1      42.810  24.741  26.324  1.00  0.00     0.039 A 
ATOM     35  C   UNL A   1      43.393  25.008  27.566  1.00  0.00     0.014 A 
ATOM     36  C   UNL A   1      43.101  25.555  25.225  1.00  0.00     0.014 A 
ATOM     37  C   UNL A   1      44.310  26.053  27.695  1.00  0.00     0.010 A 
ATOM     38  C   UNL A   1      44.059  26.561  25.340  1.00  0.00     0.010 A 
ATOM     39  C   UNL A   1      44.672  26.820  26.576  1.00  0.00    -0.014 A 
BRANCH  39  40
ATOM     40  C   UNL A   1      45.694  27.893  26.684  1.00  0.00     0.031 A 
ATOM     41  C   UNL A   1      45.281  29.308  26.973  1.00  0.00     0.074 A 
ATOM     42  C   UNL A   1      46.990  27.600  26.460  1.00  0.00     0.049 A 
ATOM     43  N   UNL A   1      46.019  30.388  27.040  1.00  0.00    -0.248 NA
ATOM     44  C   UNL A   1      43.847  29.548  27.193  1.00  0.00     0.031 C 
ATOM     45  C   UNL A   1      47.511  26.275  26.121  1.00  0.00     0.029 A 
ATOM     46  N   UNL A   1      48.104  28.402  26.468  1.00  0.00    -0.354 N 
ATOM     47  C   UNL A   1      45.140  31.433  27.289  1.00  0.00     0.074 A 
ATOM     48  C   UNL A   1      43.810  30.866  27.327  1.00  0.00     0.031 C 
ATOM     49  C   UNL A   1      48.842  26.353  25.964  1.00  0.00     0.029 A 
ATOM     50  C   UNL A   1      49.266  27.736  26.163  1.00  0.00     0.049 A 
ATOM     51  H   UNL A   1      48.073  29.364  26.674  1.00  0.00     0.167 HD
ATOM     52  C   UNL A   1      45.421  32.744  27.486  1.00  0.00     0.037 A 
ATOM     53  C   UNL A   1      50.527  28.190  26.049  1.00  0.00     0.037 A 
ATOM     54  C   UNL A   1      46.749  33.300  27.490  1.00  0.00     0.049 A 
ATOM     55  C   UNL A   1      50.812  29.645  26.300  1.00  0.00     0.074 A 
ATOM     56  C   UNL A   1      47.138  34.601  27.757  1.00  0.00     0.029 A 
ATOM     57  N   UNL A   1      47.904  32.585  27.213  1.00  0.00    -0.354 N 
ATOM     58  N   UNL A   1      49.979  30.610  26.606  1.00  0.00    -0.248 NA
ATOM     59  C   UNL A   1      52.215  30.074  26.198  1.00  0.00     0.031 C 
ATOM     60  C   UNL A   1      48.526  34.682  27.608  1.00  0.00     0.029 A 
ATOM     61  C   UNL A   1      49.005  33.423  27.285  1.00  0.00     0.049 A 
ATOM     62  H   UNL A   1      47.937  31.626  26.997  1.00  0.00     0.167 HD
ATOM     63  C   UNL A   1      50.756  31.751  26.756  1.00  0.00     0.074 A 
ATOM     64  C   UNL A   1      52.130  31.356  26.523  1.00  0.00     0.031 C 
ATOM     65  C   UNL A   1      50.366  33.013  27.057  1.00  0.00     0.037 A 
BRANCH  52  66
ATOM     66  C   UNL A   1      44.270  33.674  27.727  1.00  0.00     0.064 A 
ATOM     67  C   UNL A   1      43.659  33.776  28.986  1.00  0.00     0.173 A 
ATOM     68  C   UNL A   1      43.813  34.517  26.704  1.00  0.00     0.173 A 
ATOM     69  F   UNL A   1      44.055  32.984  29.994  1.00  0.00    -0.203 F 
ATOM     70  C   UNL A   1      42.620  34.676  29.206  1.00  0.00     0.198 A 
ATOM     71  C   UNL A   1      42.789  35.433  26.935  1.00  0.00     0.198 A 
ATOM     72  F   UNL A   1      44.367  34.463  25.484  1.00  0.00    -0.203 F 
ATOM     73  F   UNL A   1      42.027  34.732  30.407  1.00  0.00    -0.200 F 
ATOM     74  C   UNL A   1      42.191  35.508  28.183  1.00  0.00     0.200 A 
ATOM     75  F   UNL A   1      42.383  36.245  25.947  1.00  0.00    -0.200 F 
ATOM     76  F   UNL A   1      41.198  36.382  28.400  1.00  0.00    -0.200 F 
ENDBRANCH  52  66
BRANCH  53  77
ATOM     77  C   UNL A   1      51.624  27.254  25.695  1.00  0.00     0.064 A 
ATOM     78  C   UNL A   1      51.934  26.983  24.354  1.00  0.00     0.173 A 
ATOM     79  C   UNL A   1      52.374  26.603  26.684  1.00  0.00     0.173 A 
ATOM     80  F   UNL A   1      51.230  27.566  23.373  1.00  0.00    -0.203 F 
ATOM     81  C   UNL A   1      52.941  26.080  24.018  1.00  0.00     0.198 A 
ATOM     82  C   UNL A   1      53.397  25.720  26.346  1.00  0.00     0.198 A 
ATOM     83  F   UNL A   1      52.119  26.833  27.980  1.00  0.00    -0.203 F 
ATOM     84  F   UNL A   1      53.186  25.804  22.730  1.00  0.00    -0.200 F 
ATOM     85  C   UNL A   1      53.674  25.452  25.014  1.00  0.00     0.200 A 
ATOM     86  F   UNL A   1      54.111  25.125  27.311  1.00  0.00    -0.200 F 
ATOM     87  F   UNL A   1      54.641  24.584  24.690  1.00  0.00    -0.200 F 
ENDBRANCH  53  77
BRANCH  65  88
ATOM     88  C   UNL A   1      51.440  34.052  27.178  1.00  0.00     0.064 A 
ATOM     89  C   UNL A   1      51.833  34.831  26.080  1.00  0.00     0.173 A 
ATOM     90  C   UNL A   1      52.058  34.296  28.414  1.00  0.00     0.173 A 
ATOM     91  F   UNL A   1      51.282  34.622  24.874  1.00  0.00    -0.203 F 
ATOM     92  C   UNL A   1      52.822  35.801  26.210  1.00  0.00     0.198 A 
ATOM     93  C   UNL A   1      53.027  35.285  28.546  1.00  0.00     0.198 A 
ATOM     94  F   UNL A   1      51.712  33.581  29.495  1.00  0.00    -0.203 F 
ATOM     95  F   UNL A   1      53.212  36.504  25.138  1.00  0.00    -0.200 F 
ATOM     96  C   UNL A   1      53.413  36.032  27.443  1.00  0.00     0.200 A 
ATOM     97  F   UNL A   1      53.592  35.513  29.740  1.00  0.00    -0.200 F 
ATOM     98  F   UNL A   1      54.362  36.970  27.567  1.00  0.00    -0.200 F 
ENDBRANCH  65  88
ENDBRANCH  39  40
ENDBRANCH  31  34
ENDBRANCH  29  30
ENDBRANCH  28  29
ENDBRANCH  27  28
ENDBRANCH  26  27
ENDBRANCH  25  26
ENDBRANCH   1  25
TORSDOF 19
ENDMDL
MODEL 3
REMARK VINA RESULT:      -8.0      5.025     11.552
REMARK SMILES CC[N@@H+]1CCC[C@H]1CN(C)C(=O)N1CCC[C@@H]1CC(=O)NCCCCCCNC(=O)c1ccc(-c2c3nc(c(-c4c(F)c(F)c(F)c(F)c4F)c4ccc([nH]4)c(-c4c(F)c(F)c(F)c(F)c4F)c4nc(c(-c5c(F)c(F)c(F)c(F)c5F)c5ccc2[nH]5)C=C4)C=C3)cc1
REMARK SMILES IDX 22 1 21 2 19 3 20 4 18 6 17 7 13 8 14 9 15 10 16 11 11 12
REMARK SMILES IDX 12 13 9 14 10 15 8 16 7 17 3 18 4 19 5 21 6 22 2 23 1 24
REMARK SMILES IDX 23 25 24 26 25 27 26 28 27 29 28 30 29 31 30 33 31 34 32 35
REMARK SMILES IDX 93 36 33 37 92 38 34 39 35 40 36 41 86 42 37 43 91 44 85 45
REMARK SMILES IDX 87 46 38 47 90 48 84 49 83 50 39 52 71 53 51 54 70 55 52 56
REMARK SMILES IDX 55 57 69 58 88 59 53 60 54 61 68 63 89 64 56 65 40 66 41 67
REMARK SMILES IDX 49 68 42 69 43 70 47 71 50 72 44 73 45 74 48 75 46 76 72 77
REMARK SMILES IDX 73 78 81 79 74 80 75 81 79 82 82 83 76 84 77 85 80 86 78 87
REMARK SMILES IDX 57 88 58 89 66 90 59 91 60 92 64 93 67 94 61 95 62 96 65 97
REMARK SMILES IDX 63 98
REMARK H PARENT 21 5 3 20 28 32 87 51 55 62
REMARK Flexibility Score: inf
ROOT
ATOM      1  C   UNL A   1      37.933  22.336  25.781  1.00  0.00     0.116 C 
ENDROOT
BRANCH   1   2
ATOM      2  N   UNL A   1      37.469  22.965  24.560  1.00  0.00    -0.356 N 
ATOM      3  C   UNL A   1      36.330  22.747  23.843  1.00  0.00     0.222 C 
ATOM      4  O   UNL A   1      36.212  23.301  22.750  1.00  0.00    -0.275 OA
ATOM      5  H   UNL A   1      38.067  23.656  24.192  1.00  0.00     0.163 HD
BRANCH   3   6
ATOM      6  C   UNL A   1      35.235  21.868  24.403  1.00  0.00     0.125 C 
BRANCH   6   7
ATOM      7  C   UNL A   1      33.828  22.442  24.205  1.00  0.00     0.096 C 
ATOM      8  N   UNL A   1      33.011  22.071  25.369  1.00  0.00    -0.321 N 
ATOM      9  C   UNL A   1      31.893  21.225  24.987  1.00  0.00     0.122 C 
ATOM     10  C   UNL A   1      32.304  20.671  23.635  1.00  0.00     0.024 C 
ATOM     11  C   UNL A   1      33.044  21.855  23.028  1.00  0.00     0.027 C 
BRANCH   8  12
ATOM     12  C   UNL A   1      32.938  22.924  26.447  1.00  0.00     0.320 C 
ATOM     13  O   UNL A   1      33.646  22.739  27.434  1.00  0.00    -0.248 OA
BRANCH  12  14
ATOM     14  N   UNL A   1      31.978  23.919  26.363  1.00  0.00    -0.322 N 
ATOM     15  C   UNL A   1      30.547  23.712  26.511  1.00  0.00     0.149 C 
BRANCH  14  16
ATOM     16  C   UNL A   1      32.432  25.312  26.298  1.00  0.00     0.185 C 
BRANCH  16  17
ATOM     17  C   UNL A   1      32.402  25.871  24.844  1.00  0.00     0.204 C 
ATOM     18  N   UNL A   1      31.716  27.181  24.796  1.00  0.00    -0.331 N 
ATOM     19  C   UNL A   1      32.745  28.203  24.590  1.00  0.00     0.262 C 
ATOM     20  H   UNL A   1      31.230  27.345  25.677  1.00  0.00     0.348 HD
ATOM     21  C   UNL A   1      33.787  27.517  23.732  1.00  0.00     0.068 C 
ATOM     22  C   UNL A   1      33.816  26.111  24.298  1.00  0.00     0.073 C 
BRANCH  18  23
ATOM     23  C   UNL A   1      30.640  27.241  23.803  1.00  0.00     0.259 C 
ATOM     24  C   UNL A   1      29.583  26.180  24.093  1.00  0.00     0.071 C 
ENDBRANCH  18  23
ENDBRANCH  16  17
ENDBRANCH  14  16
ENDBRANCH  12  14
ENDBRANCH   8  12
ENDBRANCH   6   7
ENDBRANCH   3   6
ENDBRANCH   1   2
BRANCH   1  25
ATOM     25  C   UNL A   1      39.194  23.030  26.298  1.00  0.00     0.021 C 
BRANCH  25  26
ATOM     26  C   UNL A   1      40.033  22.184  27.256  1.00  0.00     0.002 C 
BRANCH  26  27
ATOM     27  C   UNL A   1      41.546  22.398  27.165  1.00  0.00     0.002 C 
BRANCH  27  28
ATOM     28  C   UNL A   1      42.180  22.114  25.800  1.00  0.00     0.021 C 
BRANCH  28  29
ATOM     29  C   UNL A   1      43.114  23.198  25.266  1.00  0.00     0.116 C 
BRANCH  29  30
ATOM     30  N   UNL A   1      44.502  22.963  25.625  1.00  0.00    -0.352 N 
ATOM     31  C   UNL A   1      45.286  23.588  26.559  1.00  0.00     0.251 C 
ATOM     32  H   UNL A   1      44.948  22.246  25.119  1.00  0.00     0.163 HD
ATOM     33  O   UNL A   1      46.493  23.356  26.604  1.00  0.00    -0.269 OA
BRANCH  31  34
ATOM     34  C   UNL A   1      44.697  24.560  27.505  1.00  0.00     0.039 A 
ATOM     35  C   UNL A   1      43.953  24.074  28.584  1.00  0.00     0.014 A 
ATOM     36  C   UNL A   1      44.844  25.938  27.319  1.00  0.00     0.014 A 
ATOM     37  C   UNL A   1      43.404  24.966  29.509  1.00  0.00     0.010 A 
ATOM     38  C   UNL A   1      44.345  26.824  28.273  1.00  0.00     0.010 A 
ATOM     39  C   UNL A   1      43.620  26.347  29.376  1.00  0.00    -0.014 A 
BRANCH  39  40
ATOM     40  C   UNL A   1      43.098  27.302  30.386  1.00  0.00     0.031 A 
ATOM     41  C   UNL A   1      43.762  27.428  31.728  1.00  0.00     0.074 A 
ATOM     42  C   UNL A   1      41.985  28.012  30.115  1.00  0.00     0.049 A 
ATOM     43  N   UNL A   1      43.413  28.156  32.759  1.00  0.00    -0.248 NA
ATOM     44  C   UNL A   1      44.965  26.610  31.951  1.00  0.00     0.031 C 
ATOM     45  C   UNL A   1      41.220  27.943  28.869  1.00  0.00     0.029 A 
ATOM     46  N   UNL A   1      41.295  28.922  30.877  1.00  0.00    -0.354 N 
ATOM     47  C   UNL A   1      44.338  27.870  33.755  1.00  0.00     0.074 A 
ATOM     48  C   UNL A   1      45.242  26.876  33.219  1.00  0.00     0.031 C 
ATOM     49  C   UNL A   1      40.174  28.779  28.948  1.00  0.00     0.029 A 
ATOM     50  C   UNL A   1      40.177  29.425  30.258  1.00  0.00     0.049 A 
ATOM     51  H   UNL A   1      41.576  29.189  31.782  1.00  0.00     0.167 HD
ATOM     52  C   UNL A   1      44.433  28.403  34.997  1.00  0.00     0.037 A 
ATOM     53  C   UNL A   1      39.255  30.300  30.699  1.00  0.00     0.037 A 
ATOM     54  C   UNL A   1      43.557  29.422  35.514  1.00  0.00     0.049 A 
ATOM     55  C   UNL A   1      39.402  30.895  32.073  1.00  0.00     0.074 A 
ATOM     56  C   UNL A   1      43.623  30.078  36.731  1.00  0.00     0.029 A 
ATOM     57  N   UNL A   1      42.457  29.932  34.842  1.00  0.00    -0.354 N 
ATOM     58  N   UNL A   1      40.323  30.669  32.978  1.00  0.00    -0.248 NA
ATOM     59  C   UNL A   1      38.385  31.874  32.484  1.00  0.00     0.031 C 
ATOM     60  C   UNL A   1      42.541  30.961  36.810  1.00  0.00     0.029 A 
ATOM     61  C   UNL A   1      41.825  30.883  35.628  1.00  0.00     0.049 A 
ATOM     62  H   UNL A   1      42.169  29.660  33.941  1.00  0.00     0.167 HD
ATOM     63  C   UNL A   1      40.011  31.492  34.052  1.00  0.00     0.074 A 
ATOM     64  C   UNL A   1      38.825  32.235  33.681  1.00  0.00     0.031 C 
ATOM     65  C   UNL A   1      40.650  31.618  35.240  1.00  0.00     0.037 A 
BRANCH  52  66
ATOM     66  C   UNL A   1      45.530  27.902  35.888  1.00  0.00     0.064 A 
ATOM     67  C   UNL A   1      46.793  28.513  35.911  1.00  0.00     0.173 A 
ATOM     68  C   UNL A   1      45.298  26.839  36.772  1.00  0.00     0.173 A 
ATOM     69  F   UNL A   1      47.066  29.528  35.076  1.00  0.00    -0.203 F 
ATOM     70  C   UNL A   1      47.789  28.066  36.774  1.00  0.00     0.198 A 
ATOM     71  C   UNL A   1      46.289  26.410  37.651  1.00  0.00     0.198 A 
ATOM     72  F   UNL A   1      44.106  26.224  36.793  1.00  0.00    -0.203 F 
ATOM     73  F   UNL A   1      48.999  28.641  36.754  1.00  0.00    -0.200 F 
ATOM     74  C   UNL A   1      47.534  27.019  37.648  1.00  0.00     0.200 A 
ATOM     75  F   UNL A   1      46.037  25.406  38.504  1.00  0.00    -0.200 F 
ATOM     76  F   UNL A   1      48.490  26.597  38.487  1.00  0.00    -0.200 F 
ENDBRANCH  52  66
BRANCH  53  77
ATOM     77  C   UNL A   1      38.117  30.683  29.826  1.00  0.00     0.064 A 
ATOM     78  C   UNL A   1      38.050  31.958  29.248  1.00  0.00     0.173 A 
ATOM     79  C   UNL A   1      37.070  29.789  29.562  1.00  0.00     0.173 A 
ATOM     80  F   UNL A   1      39.018  32.854  29.490  1.00  0.00    -0.203 F 
ATOM     81  C   UNL A   1      36.967  32.332  28.455  1.00  0.00     0.198 A 
ATOM     82  C   UNL A   1      36.000  30.156  28.748  1.00  0.00     0.198 A 
ATOM     83  F   UNL A   1      37.090  28.556  30.087  1.00  0.00    -0.203 F 
ATOM     84  F   UNL A   1      36.905  33.573  27.953  1.00  0.00    -0.200 F 
ATOM     85  C   UNL A   1      35.945  31.430  28.203  1.00  0.00     0.200 A 
ATOM     86  F   UNL A   1      35.020  29.278  28.496  1.00  0.00    -0.200 F 
ATOM     87  F   UNL A   1      34.904  31.790  27.440  1.00  0.00    -0.200 F 
ENDBRANCH  53  77
BRANCH  65  88
ATOM     88  C   UNL A   1      40.094  32.613  36.214  1.00  0.00     0.064 A 
ATOM     89  C   UNL A   1      40.643  33.897  36.344  1.00  0.00     0.173 A 
ATOM     90  C   UNL A   1      38.978  32.291  37.001  1.00  0.00     0.173 A 
ATOM     91  F   UNL A   1      41.721  34.245  35.624  1.00  0.00    -0.203 F 
ATOM     92  C   UNL A   1      40.108  34.815  37.243  1.00  0.00     0.198 A 
ATOM     93  C   UNL A   1      38.430  33.220  37.880  1.00  0.00     0.198 A 
ATOM     94  F   UNL A   1      38.414  31.078  36.909  1.00  0.00    -0.203 F 
ATOM     95  F   UNL A   1      40.675  36.021  37.381  1.00  0.00    -0.200 F 
ATOM     96  C   UNL A   1      38.999  34.479  38.004  1.00  0.00     0.200 A 
ATOM     97  F   UNL A   1      37.353  32.898  38.609  1.00  0.00    -0.200 F 
ATOM     98  F   UNL A   1      38.483  35.366  38.866  1.00  0.00    -0.200 F 
ENDBRANCH  65  88
ENDBRANCH  39  40
ENDBRANCH  31  34
ENDBRANCH  29  30
ENDBRANCH  28  29
ENDBRANCH  27  28
ENDBRANCH  26  27
ENDBRANCH  25  26
ENDBRANCH   1  25
TORSDOF 19
ENDMDL
