MODEL 1
REMARK VINA RESULT:     -12.1      0.000      0.000
REMARK SMILES Cn1ncc(C(=O)NCCCCCCNC(=O)c2ccc(-c3c4nc(c(-c5c(F)c(F)c(F)c(F)c5F)c5ccc([nH]5)c(-c5c(F)c(F)c(F)c(F)c5F)c5nc(c(-c6c(F)c(F)c(F)c(F)c6F)c6ccc3[nH]6)C=C5)C=C4)cc2)c1C(=O)Nc1ccccn1
REMARK SMILES IDX 11 1 10 2 9 3 8 4 6 5 7 6 5 8 1 9 2 10 3 11 81 12 4 13 82 14
REMARK SMILES IDX 83 15 84 16 85 18 86 19 90 20 87 21 89 22 88 23 12 24 13 25
REMARK SMILES IDX 14 26 15 27 16 28 17 30 18 31 19 32 80 33 20 34 79 35 21 36
REMARK SMILES IDX 22 37 23 38 73 39 24 40 78 41 72 42 74 43 25 44 77 45 71 46
REMARK SMILES IDX 70 47 26 49 58 50 38 51 57 52 39 53 42 54 56 55 75 56 40 57
REMARK SMILES IDX 41 58 55 60 76 61 43 62 27 63 28 64 36 65 29 66 30 67 34 68
REMARK SMILES IDX 37 69 31 70 32 71 35 72 33 73 59 74 60 75 68 76 61 77 62 78
REMARK SMILES IDX 66 79 69 80 63 81 64 82 67 83 65 84 44 85 45 86 53 87 46 88
REMARK SMILES IDX 47 89 51 90 54 91 48 92 49 93 52 94 50 95
REMARK H PARENT 8 7 84 17 15 29 74 48 42 59
REMARK Flexibility Score: inf
ROOT
ATOM      1  C   UNL A   1      32.032  29.708  27.057  1.00  0.00     0.002 C 
ENDROOT
BRANCH   1   2
ATOM      2  C   UNL A   1      33.373  29.037  26.748  1.00  0.00     0.021 C 
BRANCH   2   3
ATOM      3  C   UNL A   1      33.328  27.553  26.405  1.00  0.00     0.116 C 
BRANCH   3   4
ATOM      4  N   UNL A   1      32.029  26.956  26.580  1.00  0.00    -0.352 N 
ATOM      5  C   UNL A   1      31.546  25.719  26.252  1.00  0.00     0.255 C 
ATOM      6  O   UNL A   1      30.349  25.532  26.490  1.00  0.00    -0.269 OA
ATOM      7  H   UNL A   1      31.370  27.546  27.013  1.00  0.00     0.163 HD
BRANCH   5   8
ATOM      8  C   UNL A   1      32.326  24.672  25.598  1.00  0.00     0.090 A 
ATOM      9  C   UNL A   1      34.145  22.838  23.091  1.00  0.00     0.174 C 
ATOM     10  N   UNL A   1      33.459  23.342  24.259  1.00  0.00    -0.262 N 
ATOM     11  N   UNL A   1      34.118  23.250  25.427  1.00  0.00    -0.180 NA
ATOM     12  C   UNL A   1      32.278  24.053  24.341  1.00  0.00     0.139 A 
ATOM     13  C   UNL A   1      33.487  24.126  26.203  1.00  0.00     0.149 A 
BRANCH  12  14
ATOM     14  C   UNL A   1      31.366  24.304  23.254  1.00  0.00     0.275 C 
ATOM     15  O   UNL A   1      30.330  23.650  23.121  1.00  0.00    -0.267 OA
ATOM     16  N   UNL A   1      31.664  25.193  22.238  1.00  0.00    -0.305 N 
ATOM     17  H   UNL A   1      31.508  24.885  21.316  1.00  0.00     0.171 HD
BRANCH  16  18
ATOM     18  C   UNL A   1      32.162  26.480  22.395  1.00  0.00     0.132 A 
ATOM     19  C   UNL A   1      33.480  26.833  22.155  1.00  0.00     0.047 A 
ATOM     20  N   UNL A   1      31.229  27.354  22.821  1.00  0.00    -0.239 NA
ATOM     21  C   UNL A   1      33.866  28.145  22.447  1.00  0.00     0.005 A 
ATOM     22  C   UNL A   1      31.632  28.605  23.123  1.00  0.00     0.113 A 
ATOM     23  C   UNL A   1      32.934  29.040  22.967  1.00  0.00     0.020 A 
ENDBRANCH  16  18
ENDBRANCH  12  14
ENDBRANCH   5   8
ENDBRANCH   3   4
ENDBRANCH   2   3
ENDBRANCH   1   2
BRANCH   1  24
ATOM     24  C   UNL A   1      31.568  30.803  26.092  1.00  0.00     0.002 C 
BRANCH  24  25
ATOM     25  C   UNL A   1      31.364  32.197  26.687  1.00  0.00     0.021 C 
BRANCH  25  26
ATOM     26  C   UNL A   1      32.625  32.904  27.171  1.00  0.00     0.116 C 
BRANCH  26  27
ATOM     27  N   UNL A   1      32.377  34.268  27.606  1.00  0.00    -0.352 N 
ATOM     28  C   UNL A   1      32.982  34.989  28.601  1.00  0.00     0.251 C 
ATOM     29  H   UNL A   1      31.671  34.744  27.112  1.00  0.00     0.163 HD
ATOM     30  O   UNL A   1      32.534  36.091  28.923  1.00  0.00    -0.269 OA
BRANCH  28  31
ATOM     31  C   UNL A   1      34.156  34.446  29.313  1.00  0.00     0.039 A 
ATOM     32  C   UNL A   1      33.959  33.773  30.521  1.00  0.00     0.014 A 
ATOM     33  C   UNL A   1      35.450  34.608  28.805  1.00  0.00     0.014 A 
ATOM     34  C   UNL A   1      35.049  33.214  31.191  1.00  0.00     0.010 A 
ATOM     35  C   UNL A   1      36.525  33.986  29.435  1.00  0.00     0.010 A 
ATOM     36  C   UNL A   1      36.337  33.287  30.637  1.00  0.00    -0.014 A 
BRANCH  36  37
ATOM     37  C   UNL A   1      37.496  32.637  31.301  1.00  0.00     0.031 A 
ATOM     38  C   UNL A   1      38.218  31.504  30.627  1.00  0.00     0.074 A 
ATOM     39  C   UNL A   1      37.861  33.032  32.536  1.00  0.00     0.049 A 
ATOM     40  N   UNL A   1      39.209  30.773  31.071  1.00  0.00    -0.248 NA
ATOM     41  C   UNL A   1      37.748  31.126  29.286  1.00  0.00     0.031 C 
ATOM     42  C   UNL A   1      37.212  34.090  33.313  1.00  0.00     0.029 A 
ATOM     43  N   UNL A   1      38.861  32.581  33.362  1.00  0.00    -0.354 N 
ATOM     44  C   UNL A   1      39.470  29.844  30.073  1.00  0.00     0.074 A 
ATOM     45  C   UNL A   1      38.499  30.066  29.024  1.00  0.00     0.031 C 
ATOM     46  C   UNL A   1      37.844  34.224  34.489  1.00  0.00     0.029 A 
ATOM     47  C   UNL A   1      38.915  33.235  34.570  1.00  0.00     0.049 A 
ATOM     48  H   UNL A   1      39.481  31.859  33.114  1.00  0.00     0.167 HD
ATOM     49  C   UNL A   1      40.447  28.906  30.025  1.00  0.00     0.037 A 
ATOM     50  C   UNL A   1      39.730  33.051  35.626  1.00  0.00     0.037 A 
ATOM     51  C   UNL A   1      41.423  28.702  31.063  1.00  0.00     0.049 A 
ATOM     52  C   UNL A   1      40.795  31.990  35.554  1.00  0.00     0.074 A 
ATOM     53  C   UNL A   1      42.488  27.818  31.085  1.00  0.00     0.029 A 
ATOM     54  N   UNL A   1      41.452  29.390  32.268  1.00  0.00    -0.354 N 
ATOM     55  N   UNL A   1      41.076  31.163  34.575  1.00  0.00    -0.248 NA
ATOM     56  C   UNL A   1      41.659  31.840  36.732  1.00  0.00     0.031 C 
ATOM     57  C   UNL A   1      43.127  27.931  32.323  1.00  0.00     0.029 A 
ATOM     58  C   UNL A   1      42.499  28.930  33.051  1.00  0.00     0.049 A 
ATOM     59  H   UNL A   1      40.821  30.100  32.528  1.00  0.00     0.167 HD
ATOM     60  C   UNL A   1      42.167  30.420  35.006  1.00  0.00     0.074 A 
ATOM     61  C   UNL A   1      42.506  30.903  36.328  1.00  0.00     0.031 C 
ATOM     62  C   UNL A   1      42.829  29.427  34.362  1.00  0.00     0.037 A 
BRANCH  49  63
ATOM     63  C   UNL A   1      40.507  28.024  28.809  1.00  0.00     0.064 A 
ATOM     64  C   UNL A   1      41.282  28.363  27.689  1.00  0.00     0.173 A 
ATOM     65  C   UNL A   1      39.812  26.804  28.780  1.00  0.00     0.173 A 
ATOM     66  F   UNL A   1      41.957  29.521  27.662  1.00  0.00    -0.203 F 
ATOM     67  C   UNL A   1      41.333  27.530  26.574  1.00  0.00     0.198 A 
ATOM     68  C   UNL A   1      39.893  25.959  27.676  1.00  0.00     0.198 A 
ATOM     69  F   UNL A   1      39.062  26.427  29.826  1.00  0.00    -0.203 F 
ATOM     70  F   UNL A   1      42.038  27.901  25.495  1.00  0.00    -0.200 F 
ATOM     71  C   UNL A   1      40.645  26.326  26.571  1.00  0.00     0.200 A 
ATOM     72  F   UNL A   1      39.240  24.789  27.682  1.00  0.00    -0.200 F 
ATOM     73  F   UNL A   1      40.703  25.522  25.500  1.00  0.00    -0.200 F 
ENDBRANCH  49  63
BRANCH  50  74
ATOM     74  C   UNL A   1      39.585  33.903  36.836  1.00  0.00     0.064 A 
ATOM     75  C   UNL A   1      38.818  33.477  37.929  1.00  0.00     0.173 A 
ATOM     76  C   UNL A   1      40.199  35.162  36.921  1.00  0.00     0.173 A 
ATOM     77  F   UNL A   1      38.193  32.292  37.886  1.00  0.00    -0.203 F 
ATOM     78  C   UNL A   1      38.649  34.287  39.050  1.00  0.00     0.198 A 
ATOM     79  C   UNL A   1      40.056  35.956  38.057  1.00  0.00     0.198 A 
ATOM     80  F   UNL A   1      40.948  35.615  35.905  1.00  0.00    -0.203 F 
ATOM     81  F   UNL A   1      37.867  33.877  40.058  1.00  0.00    -0.200 F 
ATOM     82  C   UNL A   1      39.273  35.523  39.116  1.00  0.00     0.200 A 
ATOM     83  F   UNL A   1      40.674  37.145  38.122  1.00  0.00    -0.200 F 
ATOM     84  F   UNL A   1      39.113  36.301  40.196  1.00  0.00    -0.200 F 
ENDBRANCH  50  74
BRANCH  62  85
ATOM     85  C   UNL A   1      44.012  28.821  35.063  1.00  0.00     0.064 A 
ATOM     86  C   UNL A   1      45.303  29.351  34.926  1.00  0.00     0.173 A 
ATOM     87  C   UNL A   1      43.841  27.717  35.914  1.00  0.00     0.173 A 
ATOM     88  F   UNL A   1      45.522  30.396  34.114  1.00  0.00    -0.203 F 
ATOM     89  C   UNL A   1      46.385  28.781  35.593  1.00  0.00     0.198 A 
ATOM     90  C   UNL A   1      44.919  27.172  36.605  1.00  0.00     0.198 A 
ATOM     91  F   UNL A   1      42.626  27.176  36.086  1.00  0.00    -0.203 F 
ATOM     92  F   UNL A   1      47.618  29.271  35.407  1.00  0.00    -0.200 F 
ATOM     93  C   UNL A   1      46.191  27.698  36.438  1.00  0.00     0.200 A 
ATOM     94  F   UNL A   1      44.727  26.137  37.434  1.00  0.00    -0.200 F 
ATOM     95  F   UNL A   1      47.232  27.157  37.086  1.00  0.00    -0.200 F 
ENDBRANCH  62  85
ENDBRANCH  36  37
ENDBRANCH  28  31
ENDBRANCH  26  27
ENDBRANCH  25  26
ENDBRANCH  24  25
ENDBRANCH   1  24
TORSDOF 15
ENDMDL
MODEL 2
REMARK VINA RESULT:     -12.0      1.089      2.691
REMARK SMILES Cn1ncc(C(=O)NCCCCCCNC(=O)c2ccc(-c3c4nc(c(-c5c(F)c(F)c(F)c(F)c5F)c5ccc([nH]5)c(-c5c(F)c(F)c(F)c(F)c5F)c5nc(c(-c6c(F)c(F)c(F)c(F)c6F)c6ccc3[nH]6)C=C5)C=C4)cc2)c1C(=O)Nc1ccccn1
REMARK SMILES IDX 11 1 10 2 9 3 8 4 6 5 7 6 5 8 1 9 2 10 3 11 81 12 4 13 82 14
REMARK SMILES IDX 83 15 84 16 85 18 86 19 90 20 87 21 89 22 88 23 12 24 13 25
REMARK SMILES IDX 14 26 15 27 16 28 17 30 18 31 19 32 80 33 20 34 79 35 21 36
REMARK SMILES IDX 22 37 23 38 73 39 24 40 78 41 72 42 74 43 25 44 77 45 71 46
REMARK SMILES IDX 70 47 26 49 58 50 38 51 57 52 39 53 42 54 56 55 75 56 40 57
REMARK SMILES IDX 41 58 55 60 76 61 43 62 27 63 28 64 36 65 29 66 30 67 34 68
REMARK SMILES IDX 37 69 31 70 32 71 35 72 33 73 59 74 60 75 68 76 61 77 62 78
REMARK SMILES IDX 66 79 69 80 63 81 64 82 67 83 65 84 44 85 45 86 53 87 46 88
REMARK SMILES IDX 47 89 51 90 54 91 48 92 49 93 52 94 50 95
REMARK H PARENT 8 7 84 17 15 29 74 48 42 59
REMARK Flexibility Score: inf
ROOT
ATOM      1  C   UNL A   1      31.932  29.637  26.819  1.00  0.00     0.002 C 
ENDROOT
BRANCH   1   2
ATOM      2  C   UNL A   1      33.077  28.729  26.361  1.00  0.00     0.021 C 
BRANCH   2   3
ATOM      3  C   UNL A   1      32.680  27.403  25.724  1.00  0.00     0.116 C 
BRANCH   3   4
ATOM      4  N   UNL A   1      31.420  26.888  26.192  1.00  0.00    -0.352 N 
ATOM      5  C   UNL A   1      30.805  25.681  26.002  1.00  0.00     0.255 C 
ATOM      6  O   UNL A   1      29.680  25.570  26.501  1.00  0.00    -0.269 OA
ATOM      7  H   UNL A   1      30.909  27.519  26.750  1.00  0.00     0.163 HD
BRANCH   5   8
ATOM      8  C   UNL A   1      31.357  24.585  25.212  1.00  0.00     0.090 A 
ATOM      9  C   UNL A   1      32.402  21.285  24.222  1.00  0.00     0.174 C 
ATOM     10  N   UNL A   1      32.101  22.691  24.372  1.00  0.00    -0.262 N 
ATOM     11  N   UNL A   1      31.520  23.295  23.322  1.00  0.00    -0.180 NA
ATOM     12  C   UNL A   1      32.180  23.487  25.498  1.00  0.00     0.139 A 
ATOM     13  C   UNL A   1      30.990  24.391  23.855  1.00  0.00     0.149 A 
BRANCH  12  14
ATOM     14  C   UNL A   1      32.759  23.107  26.762  1.00  0.00     0.275 C 
ATOM     15  O   UNL A   1      32.058  22.734  27.704  1.00  0.00    -0.267 OA
ATOM     16  N   UNL A   1      34.106  23.263  27.026  1.00  0.00    -0.305 N 
ATOM     17  H   UNL A   1      34.347  23.679  27.885  1.00  0.00     0.171 HD
BRANCH  16  18
ATOM     18  C   UNL A   1      35.154  22.888  26.194  1.00  0.00     0.132 A 
ATOM     19  C   UNL A   1      35.953  23.787  25.505  1.00  0.00     0.047 A 
ATOM     20  N   UNL A   1      35.307  21.552  26.113  1.00  0.00    -0.239 NA
ATOM     21  C   UNL A   1      36.909  23.267  24.627  1.00  0.00     0.005 A 
ATOM     22  C   UNL A   1      36.216  21.076  25.239  1.00  0.00     0.113 A 
ATOM     23  C   UNL A   1      37.025  21.888  24.469  1.00  0.00     0.020 A 
ENDBRANCH  16  18
ENDBRANCH  12  14
ENDBRANCH   5   8
ENDBRANCH   3   4
ENDBRANCH   2   3
ENDBRANCH   1   2
BRANCH   1  24
ATOM     24  C   UNL A   1      31.555  30.796  25.891  1.00  0.00     0.002 C 
BRANCH  24  25
ATOM     25  C   UNL A   1      31.324  32.154  26.554  1.00  0.00     0.021 C 
BRANCH  25  26
ATOM     26  C   UNL A   1      32.537  32.773  27.241  1.00  0.00     0.116 C 
BRANCH  26  27
ATOM     27  N   UNL A   1      32.324  34.158  27.626  1.00  0.00    -0.352 N 
ATOM     28  C   UNL A   1      32.953  34.902  28.589  1.00  0.00     0.251 C 
ATOM     29  H   UNL A   1      31.626  34.632  27.119  1.00  0.00     0.163 HD
ATOM     30  O   UNL A   1      32.533  36.026  28.871  1.00  0.00    -0.269 OA
BRANCH  28  31
ATOM     31  C   UNL A   1      34.119  34.358  29.314  1.00  0.00     0.039 A 
ATOM     32  C   UNL A   1      33.906  33.668  30.510  1.00  0.00     0.014 A 
ATOM     33  C   UNL A   1      35.420  34.537  28.831  1.00  0.00     0.014 A 
ATOM     34  C   UNL A   1      34.989  33.109  31.191  1.00  0.00     0.010 A 
ATOM     35  C   UNL A   1      36.489  33.915  29.471  1.00  0.00     0.010 A 
ATOM     36  C   UNL A   1      36.285  33.199  30.660  1.00  0.00    -0.014 A 
BRANCH  36  37
ATOM     37  C   UNL A   1      37.438  32.550  31.336  1.00  0.00     0.031 A 
ATOM     38  C   UNL A   1      38.161  31.410  30.673  1.00  0.00     0.074 A 
ATOM     39  C   UNL A   1      37.797  32.950  32.571  1.00  0.00     0.049 A 
ATOM     40  N   UNL A   1      39.147  30.678  31.128  1.00  0.00    -0.248 NA
ATOM     41  C   UNL A   1      37.698  31.024  29.332  1.00  0.00     0.031 C 
ATOM     42  C   UNL A   1      37.146  34.016  33.336  1.00  0.00     0.029 A 
ATOM     43  N   UNL A   1      38.790  32.502  33.406  1.00  0.00    -0.354 N 
ATOM     44  C   UNL A   1      39.411  29.742  30.138  1.00  0.00     0.074 A 
ATOM     45  C   UNL A   1      38.447  29.961  29.081  1.00  0.00     0.031 C 
ATOM     46  C   UNL A   1      37.771  34.156  34.516  1.00  0.00     0.029 A 
ATOM     47  C   UNL A   1      38.838  33.163  34.610  1.00  0.00     0.049 A 
ATOM     48  H   UNL A   1      39.409  31.776  33.166  1.00  0.00     0.167 HD
ATOM     49  C   UNL A   1      40.385  28.800  30.102  1.00  0.00     0.037 A 
ATOM     50  C   UNL A   1      39.646  32.983  35.672  1.00  0.00     0.037 A 
ATOM     51  C   UNL A   1      41.354  28.600  31.147  1.00  0.00     0.049 A 
ATOM     52  C   UNL A   1      40.708  31.918  35.614  1.00  0.00     0.074 A 
ATOM     53  C   UNL A   1      42.416  27.712  31.181  1.00  0.00     0.029 A 
ATOM     54  N   UNL A   1      41.377  29.295  32.348  1.00  0.00    -0.354 N 
ATOM     55  N   UNL A   1      40.993  31.084  34.642  1.00  0.00    -0.248 NA
ATOM     56  C   UNL A   1      41.565  31.772  36.798  1.00  0.00     0.031 C 
ATOM     57  C   UNL A   1      43.047  27.831  32.423  1.00  0.00     0.029 A 
ATOM     58  C   UNL A   1      42.418  28.836  33.141  1.00  0.00     0.049 A 
ATOM     59  H   UNL A   1      40.747  30.009  32.600  1.00  0.00     0.167 HD
ATOM     60  C   UNL A   1      42.078  30.340  35.084  1.00  0.00     0.074 A 
ATOM     61  C   UNL A   1      42.411  30.831  36.405  1.00  0.00     0.031 C 
ATOM     62  C   UNL A   1      42.741  29.340  34.451  1.00  0.00     0.037 A 
BRANCH  49  63
ATOM     63  C   UNL A   1      40.449  27.911  28.892  1.00  0.00     0.064 A 
ATOM     64  C   UNL A   1      39.722  26.712  28.818  1.00  0.00     0.173 A 
ATOM     65  C   UNL A   1      41.217  28.281  27.777  1.00  0.00     0.173 A 
ATOM     66  F   UNL A   1      38.981  26.307  29.859  1.00  0.00    -0.203 F 
ATOM     67  C   UNL A   1      39.787  25.903  27.686  1.00  0.00     0.198 A 
ATOM     68  C   UNL A   1      41.252  27.486  26.634  1.00  0.00     0.198 A 
ATOM     69  F   UNL A   1      41.926  29.419  27.791  1.00  0.00    -0.203 F 
ATOM     70  F   UNL A   1      39.125  24.738  27.659  1.00  0.00    -0.200 F 
ATOM     71  C   UNL A   1      40.545  26.295  26.592  1.00  0.00     0.200 A 
ATOM     72  F   UNL A   1      41.973  27.873  25.573  1.00  0.00    -0.200 F 
ATOM     73  F   UNL A   1      40.598  25.519  25.501  1.00  0.00    -0.200 F 
ENDBRANCH  49  63
BRANCH  50  74
ATOM     74  C   UNL A   1      39.496  33.843  36.875  1.00  0.00     0.064 A 
ATOM     75  C   UNL A   1      38.729  33.423  37.970  1.00  0.00     0.173 A 
ATOM     76  C   UNL A   1      40.106  35.105  36.953  1.00  0.00     0.173 A 
ATOM     77  F   UNL A   1      38.108  32.235  37.935  1.00  0.00    -0.203 F 
ATOM     78  C   UNL A   1      38.556  34.239  39.086  1.00  0.00     0.198 A 
ATOM     79  C   UNL A   1      39.959  35.907  38.083  1.00  0.00     0.198 A 
ATOM     80  F   UNL A   1      40.855  35.553  35.935  1.00  0.00    -0.203 F 
ATOM     81  F   UNL A   1      37.774  33.834  40.096  1.00  0.00    -0.200 F 
ATOM     82  C   UNL A   1      39.176  35.478  39.144  1.00  0.00     0.200 A 
ATOM     83  F   UNL A   1      40.572  37.098  38.140  1.00  0.00    -0.200 F 
ATOM     84  F   UNL A   1      39.011  36.263  40.218  1.00  0.00    -0.200 F 
ENDBRANCH  50  74
BRANCH  62  85
ATOM     85  C   UNL A   1      43.917  28.735  35.163  1.00  0.00     0.064 A 
ATOM     86  C   UNL A   1      43.783  27.608  35.987  1.00  0.00     0.173 A 
ATOM     87  C   UNL A   1      45.204  29.269  34.985  1.00  0.00     0.173 A 
ATOM     88  F   UNL A   1      42.573  27.069  36.202  1.00  0.00    -0.203 F 
ATOM     89  C   UNL A   1      44.887  27.055  36.630  1.00  0.00     0.198 A 
ATOM     90  C   UNL A   1      46.310  28.693  35.601  1.00  0.00     0.198 A 
ATOM     91  F   UNL A   1      45.388  30.341  34.201  1.00  0.00    -0.203 F 
ATOM     92  F   UNL A   1      44.728  26.010  37.453  1.00  0.00    -0.200 F 
ATOM     93  C   UNL A   1      46.151  27.593  36.430  1.00  0.00     0.200 A 
ATOM     94  F   UNL A   1      47.532  29.202  35.394  1.00  0.00    -0.200 F 
ATOM     95  F   UNL A   1      47.215  27.053  37.041  1.00  0.00    -0.200 F 
ENDBRANCH  62  85
ENDBRANCH  36  37
ENDBRANCH  28  31
ENDBRANCH  26  27
ENDBRANCH  25  26
ENDBRANCH  24  25
ENDBRANCH   1  24
TORSDOF 15
ENDMDL
MODEL 3
REMARK VINA RESULT:     -11.9      5.559     10.951
REMARK SMILES Cn1ncc(C(=O)NCCCCCCNC(=O)c2ccc(-c3c4nc(c(-c5c(F)c(F)c(F)c(F)c5F)c5ccc([nH]5)c(-c5c(F)c(F)c(F)c(F)c5F)c5nc(c(-c6c(F)c(F)c(F)c(F)c6F)c6ccc3[nH]6)C=C5)C=C4)cc2)c1C(=O)Nc1ccccn1
REMARK SMILES IDX 11 1 10 2 9 3 8 4 6 5 7 6 5 8 1 9 2 10 3 11 81 12 4 13 82 14
REMARK SMILES IDX 83 15 84 16 85 18 86 19 90 20 87 21 89 22 88 23 12 24 13 25
REMARK SMILES IDX 14 26 15 27 16 28 17 30 18 31 19 32 80 33 20 34 79 35 21 36
REMARK SMILES IDX 22 37 23 38 73 39 24 40 78 41 72 42 74 43 25 44 77 45 71 46
REMARK SMILES IDX 70 47 26 49 58 50 38 51 57 52 39 53 42 54 56 55 75 56 40 57
REMARK SMILES IDX 41 58 55 60 76 61 43 62 27 63 28 64 36 65 29 66 30 67 34 68
REMARK SMILES IDX 37 69 31 70 32 71 35 72 33 73 59 74 60 75 68 76 61 77 62 78
REMARK SMILES IDX 66 79 69 80 63 81 64 82 67 83 65 84 44 85 45 86 53 87 46 88
REMARK SMILES IDX 47 89 51 90 54 91 48 92 49 93 52 94 50 95
REMARK H PARENT 8 7 84 17 15 29 74 48 42 59
REMARK Flexibility Score: inf
ROOT
ATOM      1  C   UNL A   1      37.787  22.115  25.265  1.00  0.00     0.002 C 
ENDROOT
BRANCH   1   2
ATOM      2  C   UNL A   1      36.984  23.321  24.769  1.00  0.00     0.021 C 
BRANCH   2   3
ATOM      3  C   UNL A   1      35.994  23.931  25.754  1.00  0.00     0.116 C 
BRANCH   3   4
ATOM      4  N   UNL A   1      35.420  22.976  26.666  1.00  0.00    -0.352 N 
ATOM      5  C   UNL A   1      34.230  22.301  26.644  1.00  0.00     0.255 C 
ATOM      6  O   UNL A   1      34.006  21.581  27.622  1.00  0.00    -0.269 OA
ATOM      7  H   UNL A   1      35.986  22.772  27.446  1.00  0.00     0.163 HD
BRANCH   5   8
ATOM      8  C   UNL A   1      33.220  22.435  25.598  1.00  0.00     0.090 A 
ATOM      9  C   UNL A   1      30.683  23.847  23.469  1.00  0.00     0.174 C 
ATOM     10  N   UNL A   1      31.645  23.037  24.183  1.00  0.00    -0.262 N 
ATOM     11  N   UNL A   1      32.474  22.292  23.434  1.00  0.00    -0.180 NA
ATOM     12  C   UNL A   1      31.951  23.027  25.530  1.00  0.00     0.139 A 
ATOM     13  C   UNL A   1      33.470  22.011  24.268  1.00  0.00     0.149 A 
BRANCH  12  14
ATOM     14  C   UNL A   1      31.232  23.726  26.565  1.00  0.00     0.275 C 
ATOM     15  O   UNL A   1      30.780  23.133  27.546  1.00  0.00    -0.267 OA
ATOM     16  N   UNL A   1      30.900  25.063  26.451  1.00  0.00    -0.305 N 
ATOM     17  H   UNL A   1      29.974  25.312  26.670  1.00  0.00     0.171 HD
BRANCH  16  18
ATOM     18  C   UNL A   1      31.752  26.088  26.057  1.00  0.00     0.132 A 
ATOM     19  C   UNL A   1      33.131  26.035  26.175  1.00  0.00     0.047 A 
ATOM     20  N   UNL A   1      31.093  27.153  25.558  1.00  0.00    -0.239 NA
ATOM     21  C   UNL A   1      33.858  27.177  25.828  1.00  0.00     0.005 A 
ATOM     22  C   UNL A   1      31.814  28.252  25.258  1.00  0.00     0.113 A 
ATOM     23  C   UNL A   1      33.187  28.317  25.388  1.00  0.00     0.020 A 
ENDBRANCH  16  18
ENDBRANCH  12  14
ENDBRANCH   5   8
ENDBRANCH   3   4
ENDBRANCH   2   3
ENDBRANCH   1   2
BRANCH   1  24
ATOM     24  C   UNL A   1      37.388  20.744  24.713  1.00  0.00     0.002 C 
BRANCH  24  25
ATOM     25  C   UNL A   1      38.349  19.588  24.993  1.00  0.00     0.021 C 
BRANCH  25  26
ATOM     26  C   UNL A   1      39.434  19.862  26.028  1.00  0.00     0.116 C 
BRANCH  26  27
ATOM     27  N   UNL A   1      40.525  18.904  25.973  1.00  0.00    -0.352 N 
ATOM     28  C   UNL A   1      41.876  19.115  26.049  1.00  0.00     0.251 C 
ATOM     29  H   UNL A   1      40.253  17.964  25.865  1.00  0.00     0.163 HD
ATOM     30  O   UNL A   1      42.658  18.187  25.834  1.00  0.00    -0.269 OA
BRANCH  28  31
ATOM     31  C   UNL A   1      42.408  20.457  26.364  1.00  0.00     0.039 A 
ATOM     32  C   UNL A   1      42.882  21.255  25.319  1.00  0.00     0.014 A 
ATOM     33  C   UNL A   1      42.458  20.926  27.681  1.00  0.00     0.014 A 
ATOM     34  C   UNL A   1      43.351  22.542  25.587  1.00  0.00     0.010 A 
ATOM     35  C   UNL A   1      42.855  22.236  27.936  1.00  0.00     0.010 A 
ATOM     36  C   UNL A   1      43.310  23.056  26.893  1.00  0.00    -0.014 A 
BRANCH  36  37
ATOM     37  C   UNL A   1      43.739  24.448  27.183  1.00  0.00     0.031 A 
ATOM     38  C   UNL A   1      42.748  25.455  27.697  1.00  0.00     0.074 A 
ATOM     39  C   UNL A   1      45.010  24.819  26.930  1.00  0.00     0.049 A 
ATOM     40  N   UNL A   1      42.917  26.729  27.951  1.00  0.00    -0.248 NA
ATOM     41  C   UNL A   1      41.379  24.973  27.933  1.00  0.00     0.031 C 
ATOM     42  C   UNL A   1      46.053  23.946  26.390  1.00  0.00     0.029 A 
ATOM     43  N   UNL A   1      45.637  26.030  27.082  1.00  0.00    -0.354 N 
ATOM     44  C   UNL A   1      41.677  27.200  28.362  1.00  0.00     0.074 A 
ATOM     45  C   UNL A   1      40.752  26.091  28.271  1.00  0.00     0.031 C 
ATOM     46  C   UNL A   1      47.196  24.641  26.279  1.00  0.00     0.029 A 
ATOM     47  C   UNL A   1      46.957  26.019  26.699  1.00  0.00     0.049 A 
ATOM     48  H   UNL A   1      45.186  26.831  27.433  1.00  0.00     0.167 HD
ATOM     49  C   UNL A   1      41.346  28.439  28.798  1.00  0.00     0.037 A 
ATOM     50  C   UNL A   1      47.868  27.010  26.680  1.00  0.00     0.037 A 
ATOM     51  C   UNL A   1      42.274  29.533  28.905  1.00  0.00     0.049 A 
ATOM     52  C   UNL A   1      47.469  28.383  27.153  1.00  0.00     0.074 A 
ATOM     53  C   UNL A   1      42.051  30.811  29.390  1.00  0.00     0.029 A 
ATOM     54  N   UNL A   1      43.606  29.482  28.516  1.00  0.00    -0.354 N 
ATOM     55  N   UNL A   1      46.310  28.798  27.606  1.00  0.00    -0.248 NA
ATOM     56  C   UNL A   1      48.507  29.422  27.118  1.00  0.00     0.031 C 
ATOM     57  C   UNL A   1      43.230  31.548  29.243  1.00  0.00     0.029 A 
ATOM     58  C   UNL A   1      44.208  30.713  28.724  1.00  0.00     0.049 A 
ATOM     59  H   UNL A   1      44.056  28.688  28.147  1.00  0.00     0.167 HD
ATOM     60  C   UNL A   1      46.488  30.134  27.938  1.00  0.00     0.074 A 
ATOM     61  C   UNL A   1      47.870  30.456  27.649  1.00  0.00     0.031 C 
ATOM     62  C   UNL A   1      45.587  31.016  28.439  1.00  0.00     0.037 A 
BRANCH  49  63
ATOM     63  C   UNL A   1      39.915  28.679  29.191  1.00  0.00     0.064 A 
ATOM     64  C   UNL A   1      39.463  28.458  30.502  1.00  0.00     0.173 A 
ATOM     65  C   UNL A   1      38.994  29.175  28.255  1.00  0.00     0.173 A 
ATOM     66  F   UNL A   1      40.300  27.976  31.432  1.00  0.00    -0.203 F 
ATOM     67  C   UNL A   1      38.135  28.694  30.852  1.00  0.00     0.198 A 
ATOM     68  C   UNL A   1      37.676  29.441  28.618  1.00  0.00     0.198 A 
ATOM     69  F   UNL A   1      39.373  29.411  26.991  1.00  0.00    -0.203 F 
ATOM     70  F   UNL A   1      37.715  28.426  32.096  1.00  0.00    -0.200 F 
ATOM     71  C   UNL A   1      37.245  29.193  29.912  1.00  0.00     0.200 A 
ATOM     72  F   UNL A   1      36.821  29.938  27.713  1.00  0.00    -0.200 F 
ATOM     73  F   UNL A   1      35.971  29.427  30.254  1.00  0.00    -0.200 F 
ENDBRANCH  49  63
BRANCH  50  74
ATOM     74  C   UNL A   1      49.254  26.739  26.215  1.00  0.00     0.064 A 
ATOM     75  C   UNL A   1      49.626  26.975  24.885  1.00  0.00     0.173 A 
ATOM     76  C   UNL A   1      50.231  26.230  27.084  1.00  0.00     0.173 A 
ATOM     77  F   UNL A   1      48.723  27.441  24.010  1.00  0.00    -0.203 F 
ATOM     78  C   UNL A   1      50.913  26.689  24.434  1.00  0.00     0.198 A 
ATOM     79  C   UNL A   1      51.526  25.974  26.641  1.00  0.00     0.198 A 
ATOM     80  F   UNL A   1      49.928  25.990  28.369  1.00  0.00    -0.203 F 
ATOM     81  F   UNL A   1      51.227  26.875  23.144  1.00  0.00    -0.200 F 
ATOM     82  C   UNL A   1      51.865  26.195  25.314  1.00  0.00     0.200 A 
ATOM     83  F   UNL A   1      52.446  25.510  27.498  1.00  0.00    -0.200 F 
ATOM     84  F   UNL A   1      53.103  25.922  24.882  1.00  0.00    -0.200 F 
ENDBRANCH  50  74
BRANCH  62  85
ATOM     85  C   UNL A   1      46.076  32.403  28.743  1.00  0.00     0.064 A 
ATOM     86  C   UNL A   1      45.973  33.445  27.810  1.00  0.00     0.173 A 
ATOM     87  C   UNL A   1      46.620  32.701  30.003  1.00  0.00     0.173 A 
ATOM     88  F   UNL A   1      45.474  33.209  26.587  1.00  0.00    -0.203 F 
ATOM     89  C   UNL A   1      46.423  34.727  28.115  1.00  0.00     0.198 A 
ATOM     90  C   UNL A   1      47.037  33.992  30.316  1.00  0.00     0.198 A 
ATOM     91  F   UNL A   1      46.734  31.743  30.934  1.00  0.00    -0.203 F 
ATOM     92  F   UNL A   1      46.362  35.695  27.191  1.00  0.00    -0.200 F 
ATOM     93  C   UNL A   1      46.946  35.001  29.371  1.00  0.00     0.200 A 
ATOM     94  F   UNL A   1      47.526  34.259  31.535  1.00  0.00    -0.200 F 
ATOM     95  F   UNL A   1      47.369  36.238  29.666  1.00  0.00    -0.200 F 
ENDBRANCH  62  85
ENDBRANCH  36  37
ENDBRANCH  28  31
ENDBRANCH  26  27
ENDBRANCH  25  26
ENDBRANCH  24  25
ENDBRANCH   1  24
TORSDOF 15
ENDMDL
