MODEL 1
REMARK VINA RESULT:     -10.1      0.000      0.000
REMARK SMILES O=C(Cn1c2ccccc2c(=O)c2ccccc21)N[C@@H](Cc1ccccc1)C(=O)NCCCCCCNC(=O)c1ccc(-c2c3nc(c(-c4c(F)c(F)c(F)c(F)c4F)c4ccc([nH]4)c(-c4c(F)c(F)c(F)c(F)c4F)c4nc(c(-c5c(F)c(F)c(F)c(F)c5F)c5ccc2[nH]5)C=C4)C=C3)cc1
REMARK SMILES IDX 33 1 32 2 31 3 30 4 28 5 29 6 20 8 19 9 1 10 2 11 3 13 4 14
REMARK SMILES IDX 5 15 18 16 6 17 10 18 13 19 17 20 7 21 9 22 11 23 14 24
REMARK SMILES IDX 16 25 8 26 12 27 15 28 21 29 22 30 23 31 27 32 24 33 26 34
REMARK SMILES IDX 25 35 34 36 35 37 36 38 37 39 38 40 39 42 40 43 41 44 102 45
REMARK SMILES IDX 42 46 101 47 43 48 44 49 45 50 95 51 46 52 100 53 94 54
REMARK SMILES IDX 96 55 47 56 99 57 93 58 92 59 48 61 80 62 60 63 79 64 61 65
REMARK SMILES IDX 64 66 78 67 97 68 62 69 63 70 77 72 98 73 65 74 49 75 50 76
REMARK SMILES IDX 58 77 51 78 52 79 56 80 59 81 53 82 54 83 57 84 55 85 81 86
REMARK SMILES IDX 82 87 90 88 83 89 84 90 88 91 91 92 85 93 86 94 89 95 87 96
REMARK SMILES IDX 66 97 67 98 75 99 68 100 69 101 73 102 76 103 70 104 71 105
REMARK SMILES IDX 74 106 72 107
REMARK H PARENT 30 7 19 12 37 41 96 60 64 71
REMARK Flexibility Score: inf
ROOT
ATOM      1  C   UNL A   1      49.824  27.701  28.854  1.00  0.00     0.002 C 
ENDROOT
BRANCH   1   2
ATOM      2  C   UNL A   1      49.203  27.136  27.579  1.00  0.00     0.021 C 
BRANCH   2   3
ATOM      3  C   UNL A   1      48.401  28.113  26.736  1.00  0.00     0.116 C 
BRANCH   3   4
ATOM      4  N   UNL A   1      48.235  27.734  25.357  1.00  0.00    -0.354 N 
ATOM      5  C   UNL A   1      47.079  27.479  24.673  1.00  0.00     0.242 C 
ATOM      6  O   UNL A   1      47.155  27.495  23.439  1.00  0.00    -0.273 OA
ATOM      7  H   UNL A   1      49.066  27.645  24.835  1.00  0.00     0.163 HD
BRANCH   5   8
ATOM      8  C   UNL A   1      45.717  27.202  25.372  1.00  0.00     0.175 C 
BRANCH   8   9
ATOM      9  N   UNL A   1      45.721  25.990  26.210  1.00  0.00    -0.342 N 
ATOM     10  O   UNL A   1      44.842  24.634  24.588  1.00  0.00    -0.273 OA
ATOM     11  C   UNL A   1      45.244  24.777  25.744  1.00  0.00     0.240 C 
ATOM     12  H   UNL A   1      46.071  26.045  27.129  1.00  0.00     0.164 HD
BRANCH  11  13
ATOM     13  C   UNL A   1      45.054  23.647  26.772  1.00  0.00     0.222 C 
BRANCH  13  14
ATOM     14  N   UNL A   1      44.125  22.569  26.358  1.00  0.00    -0.331 N 
ATOM     15  C   UNL A   1      42.733  22.743  26.551  1.00  0.00     0.053 A 
ATOM     16  C   UNL A   1      44.629  21.411  25.706  1.00  0.00     0.053 A 
ATOM     17  C   UNL A   1      42.121  23.991  26.755  1.00  0.00     0.027 A 
ATOM     18  C   UNL A   1      41.872  21.633  26.468  1.00  0.00     0.046 A 
ATOM     19  C   UNL A   1      43.790  20.288  25.536  1.00  0.00     0.046 A 
ATOM     20  C   UNL A   1      45.898  21.321  25.107  1.00  0.00     0.027 A 
ATOM     21  C   UNL A   1      40.733  24.117  26.891  1.00  0.00     0.002 A 
ATOM     22  C   UNL A   1      40.485  21.744  26.638  1.00  0.00     0.014 A 
ATOM     23  C   UNL A   1      42.431  20.318  26.107  1.00  0.00     0.197 A 
ATOM     24  C   UNL A   1      44.170  19.161  24.791  1.00  0.00     0.014 A 
ATOM     25  C   UNL A   1      46.278  20.205  24.342  1.00  0.00     0.002 A 
ATOM     26  C   UNL A   1      39.916  22.994  26.836  1.00  0.00     0.001 A 
ATOM     27  O   UNL A   1      41.760  19.298  26.215  1.00  0.00    -0.288 OA
ATOM     28  C   UNL A   1      45.413  19.129  24.176  1.00  0.00     0.001 A 
ENDBRANCH  13  14
ENDBRANCH  11  13
ENDBRANCH   8   9
BRANCH   8  29
ATOM     29  C   UNL A   1      44.974  28.425  25.987  1.00  0.00     0.070 C 
BRANCH  29  30
ATOM     30  C   UNL A   1      43.496  28.370  26.324  1.00  0.00    -0.045 A 
ATOM     31  C   UNL A   1      42.625  27.598  25.539  1.00  0.00     0.004 A 
ATOM     32  C   UNL A   1      42.955  29.059  27.420  1.00  0.00     0.004 A 
ATOM     33  C   UNL A   1      41.247  27.600  25.779  1.00  0.00     0.000 A 
ATOM     34  C   UNL A   1      41.573  29.099  27.633  1.00  0.00     0.000 A 
ATOM     35  C   UNL A   1      40.717  28.378  26.805  1.00  0.00     0.000 A 
ENDBRANCH  29  30
ENDBRANCH   8  29
ENDBRANCH   5   8
ENDBRANCH   3   4
ENDBRANCH   2   3
ENDBRANCH   1   2
BRANCH   1  36
ATOM     36  C   UNL A   1      51.230  27.192  29.205  1.00  0.00     0.002 C 
BRANCH  36  37
ATOM     37  C   UNL A   1      52.390  28.168  28.988  1.00  0.00     0.021 C 
BRANCH  37  38
ATOM     38  C   UNL A   1      52.331  29.005  27.714  1.00  0.00     0.116 C 
BRANCH  38  39
ATOM     39  N   UNL A   1      53.019  30.282  27.821  1.00  0.00    -0.352 N 
ATOM     40  C   UNL A   1      52.534  31.549  28.041  1.00  0.00     0.251 C 
ATOM     41  H   UNL A   1      53.996  30.229  27.717  1.00  0.00     0.163 HD
ATOM     42  O   UNL A   1      53.298  32.511  27.993  1.00  0.00    -0.269 OA
BRANCH  40  43
ATOM     43  C   UNL A   1      51.092  31.781  28.290  1.00  0.00     0.039 A 
ATOM     44  C   UNL A   1      50.617  32.141  29.551  1.00  0.00     0.014 A 
ATOM     45  C   UNL A   1      50.191  31.630  27.230  1.00  0.00     0.014 A 
ATOM     46  C   UNL A   1      49.246  32.150  29.798  1.00  0.00     0.010 A 
ATOM     47  C   UNL A   1      48.815  31.734  27.458  1.00  0.00     0.010 A 
ATOM     48  C   UNL A   1      48.326  31.926  28.759  1.00  0.00    -0.014 A 
BRANCH  48  49
ATOM     49  C   UNL A   1      46.869  31.863  29.066  1.00  0.00     0.031 A 
ATOM     50  C   UNL A   1      46.251  30.601  29.612  1.00  0.00     0.074 A 
ATOM     51  C   UNL A   1      46.106  32.962  28.910  1.00  0.00     0.049 A 
ATOM     52  N   UNL A   1      45.016  30.384  29.996  1.00  0.00    -0.248 NA
ATOM     53  C   UNL A   1      47.125  29.425  29.737  1.00  0.00     0.031 C 
ATOM     54  C   UNL A   1      46.576  34.241  28.379  1.00  0.00     0.029 A 
ATOM     55  N   UNL A   1      44.783  33.189  29.201  1.00  0.00    -0.354 N 
ATOM     56  C   UNL A   1      44.964  29.052  30.385  1.00  0.00     0.074 A 
ATOM     57  C   UNL A   1      46.278  28.495  30.156  1.00  0.00     0.031 C 
ATOM     58  C   UNL A   1      45.576  35.133  28.431  1.00  0.00     0.029 A 
ATOM     59  C   UNL A   1      44.377  34.475  28.943  1.00  0.00     0.049 A 
ATOM     60  H   UNL A   1      44.183  32.496  29.561  1.00  0.00     0.167 HD
ATOM     61  C   UNL A   1      43.922  28.360  30.905  1.00  0.00     0.037 A 
ATOM     62  C   UNL A   1      43.173  35.063  29.088  1.00  0.00     0.037 A 
ATOM     63  C   UNL A   1      42.623  28.923  31.165  1.00  0.00     0.049 A 
ATOM     64  C   UNL A   1      42.021  34.267  29.636  1.00  0.00     0.074 A 
ATOM     65  C   UNL A   1      41.529  28.320  31.761  1.00  0.00     0.029 A 
ATOM     66  N   UNL A   1      42.239  30.215  30.838  1.00  0.00    -0.354 N 
ATOM     67  N   UNL A   1      42.007  33.028  30.064  1.00  0.00    -0.248 NA
ATOM     68  C   UNL A   1      40.720  34.945  29.715  1.00  0.00     0.031 C 
ATOM     69  C   UNL A   1      40.464  29.224  31.735  1.00  0.00     0.029 A 
ATOM     70  C   UNL A   1      40.909  30.411  31.176  1.00  0.00     0.049 A 
ATOM     71  H   UNL A   1      42.823  30.892  30.426  1.00  0.00     0.167 HD
ATOM     72  C   UNL A   1      40.702  32.777  30.463  1.00  0.00     0.074 A 
ATOM     73  C   UNL A   1      39.957  34.001  30.252  1.00  0.00     0.031 C 
ATOM     74  C   UNL A   1      40.172  31.630  30.953  1.00  0.00     0.037 A 
BRANCH  61  75
ATOM     75  C   UNL A   1      44.131  26.908  31.229  1.00  0.00     0.064 A 
ATOM     76  C   UNL A   1      44.547  26.487  32.501  1.00  0.00     0.173 A 
ATOM     77  C   UNL A   1      43.850  25.920  30.272  1.00  0.00     0.173 A 
ATOM     78  F   UNL A   1      44.835  27.389  33.451  1.00  0.00    -0.203 F 
ATOM     79  C   UNL A   1      44.697  25.134  32.795  1.00  0.00     0.198 A 
ATOM     80  C   UNL A   1      43.972  24.566  30.579  1.00  0.00     0.198 A 
ATOM     81  F   UNL A   1      43.439  26.266  29.043  1.00  0.00    -0.203 F 
ATOM     82  F   UNL A   1      45.137  24.758  34.003  1.00  0.00    -0.200 F 
ATOM     83  C   UNL A   1      44.401  24.175  31.837  1.00  0.00     0.200 A 
ATOM     84  F   UNL A   1      43.668  23.642  29.657  1.00  0.00    -0.200 F 
ATOM     85  F   UNL A   1      44.535  22.873  32.126  1.00  0.00    -0.200 F 
ENDBRANCH  61  75
BRANCH  62  86
ATOM     86  C   UNL A   1      43.016  36.491  28.706  1.00  0.00     0.064 A 
ATOM     87  C   UNL A   1      42.367  36.853  27.519  1.00  0.00     0.173 A 
ATOM     88  C   UNL A   1      43.454  37.521  29.553  1.00  0.00     0.173 A 
ATOM     89  F   UNL A   1      41.949  35.905  26.668  1.00  0.00    -0.203 F 
ATOM     90  C   UNL A   1      42.155  38.192  27.197  1.00  0.00     0.198 A 
ATOM     91  C   UNL A   1      43.215  38.858  29.244  1.00  0.00     0.198 A 
ATOM     92  F   UNL A   1      44.077  37.225  30.703  1.00  0.00    -0.203 F 
ATOM     93  F   UNL A   1      41.546  38.513  26.047  1.00  0.00    -0.200 F 
ATOM     94  C   UNL A   1      42.566  39.192  28.065  1.00  0.00     0.200 A 
ATOM     95  F   UNL A   1      43.596  39.819  30.096  1.00  0.00    -0.200 F 
ATOM     96  F   UNL A   1      42.336  40.479  27.767  1.00  0.00    -0.200 F 
ENDBRANCH  62  86
BRANCH  74  97
ATOM     97  C   UNL A   1      38.708  31.615  31.286  1.00  0.00     0.064 A 
ATOM     98  C   UNL A   1      38.254  31.946  32.571  1.00  0.00     0.173 A 
ATOM     99  C   UNL A   1      37.749  31.387  30.287  1.00  0.00     0.173 A 
ATOM    100  F   UNL A   1      39.132  32.159  33.563  1.00  0.00    -0.203 F 
ATOM    101  C   UNL A   1      36.893  32.051  32.843  1.00  0.00     0.198 A 
ATOM    102  C   UNL A   1      36.390  31.521  30.557  1.00  0.00     0.198 A 
ATOM    103  F   UNL A   1      38.132  31.076  29.040  1.00  0.00    -0.203 F 
ATOM    104  F   UNL A   1      36.481  32.352  34.082  1.00  0.00    -0.200 F 
ATOM    105  C   UNL A   1      35.963  31.854  31.833  1.00  0.00     0.200 A 
ATOM    106  F   UNL A   1      35.493  31.349  29.574  1.00  0.00    -0.200 F 
ATOM    107  F   UNL A   1      34.654  31.988  32.090  1.00  0.00    -0.200 F 
ENDBRANCH  74  97
ENDBRANCH  48  49
ENDBRANCH  40  43
ENDBRANCH  38  39
ENDBRANCH  37  38
ENDBRANCH  36  37
ENDBRANCH   1  36
TORSDOF 18
ENDMDL
MODEL 2
REMARK VINA RESULT:      -9.9      4.727     11.571
REMARK SMILES O=C(Cn1c2ccccc2c(=O)c2ccccc21)N[C@@H](Cc1ccccc1)C(=O)NCCCCCCNC(=O)c1ccc(-c2c3nc(c(-c4c(F)c(F)c(F)c(F)c4F)c4ccc([nH]4)c(-c4c(F)c(F)c(F)c(F)c4F)c4nc(c(-c5c(F)c(F)c(F)c(F)c5F)c5ccc2[nH]5)C=C4)C=C3)cc1
REMARK SMILES IDX 33 1 32 2 31 3 30 4 28 5 29 6 20 8 19 9 1 10 2 11 3 13 4 14
REMARK SMILES IDX 5 15 18 16 6 17 10 18 13 19 17 20 7 21 9 22 11 23 14 24
REMARK SMILES IDX 16 25 8 26 12 27 15 28 21 29 22 30 23 31 27 32 24 33 26 34
REMARK SMILES IDX 25 35 34 36 35 37 36 38 37 39 38 40 39 42 40 43 41 44 102 45
REMARK SMILES IDX 42 46 101 47 43 48 44 49 45 50 95 51 46 52 100 53 94 54
REMARK SMILES IDX 96 55 47 56 99 57 93 58 92 59 48 61 80 62 60 63 79 64 61 65
REMARK SMILES IDX 64 66 78 67 97 68 62 69 63 70 77 72 98 73 65 74 49 75 50 76
REMARK SMILES IDX 58 77 51 78 52 79 56 80 59 81 53 82 54 83 57 84 55 85 81 86
REMARK SMILES IDX 82 87 90 88 83 89 84 90 88 91 91 92 85 93 86 94 89 95 87 96
REMARK SMILES IDX 66 97 67 98 75 99 68 100 69 101 73 102 76 103 70 104 71 105
REMARK SMILES IDX 74 106 72 107
REMARK H PARENT 30 7 19 12 37 41 96 60 64 71
REMARK Flexibility Score: inf
ROOT
ATOM      1  C   UNL A   1      39.852  34.576  39.312  1.00  0.00     0.002 C 
ENDROOT
BRANCH   1   2
ATOM      2  C   UNL A   1      39.343  35.420  38.146  1.00  0.00     0.021 C 
BRANCH   2   3
ATOM      3  C   UNL A   1      39.033  34.669  36.861  1.00  0.00     0.116 C 
BRANCH   3   4
ATOM      4  N   UNL A   1      39.401  33.277  36.866  1.00  0.00    -0.354 N 
ATOM      5  C   UNL A   1      39.383  32.385  35.830  1.00  0.00     0.242 C 
ATOM      6  O   UNL A   1      40.043  31.351  35.984  1.00  0.00    -0.273 OA
ATOM      7  H   UNL A   1      39.708  32.919  37.731  1.00  0.00     0.163 HD
BRANCH   5   8
ATOM      8  C   UNL A   1      38.604  32.629  34.506  1.00  0.00     0.175 C 
BRANCH   8   9
ATOM      9  N   UNL A   1      39.285  32.093  33.315  1.00  0.00    -0.342 N 
ATOM     10  O   UNL A   1      40.138  34.113  32.657  1.00  0.00    -0.273 OA
ATOM     11  C   UNL A   1      39.994  32.908  32.448  1.00  0.00     0.240 C 
ATOM     12  H   UNL A   1      39.233  31.127  33.128  1.00  0.00     0.164 HD
BRANCH  11  13
ATOM     13  C   UNL A   1      40.445  32.297  31.110  1.00  0.00     0.222 C 
BRANCH  13  14
ATOM     14  N   UNL A   1      39.375  31.629  30.330  1.00  0.00    -0.331 N 
ATOM     15  C   UNL A   1      39.348  30.215  30.262  1.00  0.00     0.053 A 
ATOM     16  C   UNL A   1      38.349  32.405  29.727  1.00  0.00     0.053 A 
ATOM     17  C   UNL A   1      40.019  29.374  31.166  1.00  0.00     0.027 A 
ATOM     18  C   UNL A   1      38.556  29.576  29.290  1.00  0.00     0.046 A 
ATOM     19  C   UNL A   1      37.480  31.802  28.791  1.00  0.00     0.046 A 
ATOM     20  C   UNL A   1      38.050  33.735  30.067  1.00  0.00     0.027 A 
ATOM     21  C   UNL A   1      39.922  27.980  31.087  1.00  0.00     0.002 A 
ATOM     22  C   UNL A   1      38.480  28.182  29.181  1.00  0.00     0.014 A 
ATOM     23  C   UNL A   1      37.708  30.396  28.406  1.00  0.00     0.197 A 
ATOM     24  C   UNL A   1      36.366  32.463  28.252  1.00  0.00     0.014 A 
ATOM     25  C   UNL A   1      36.923  34.398  29.548  1.00  0.00     0.002 A 
ATOM     26  C   UNL A   1      39.156  27.383  30.093  1.00  0.00     0.001 A 
ATOM     27  O   UNL A   1      37.159  29.904  27.427  1.00  0.00    -0.288 OA
ATOM     28  C   UNL A   1      36.077  33.761  28.648  1.00  0.00     0.001 A 
ENDBRANCH  13  14
ENDBRANCH  11  13
ENDBRANCH   8   9
BRANCH   8  29
ATOM     29  C   UNL A   1      37.063  32.407  34.539  1.00  0.00     0.070 C 
BRANCH  29  30
ATOM     30  C   UNL A   1      36.135  33.129  33.580  1.00  0.00    -0.045 A 
ATOM     31  C   UNL A   1      36.027  34.528  33.625  1.00  0.00     0.004 A 
ATOM     32  C   UNL A   1      35.377  32.443  32.618  1.00  0.00     0.004 A 
ATOM     33  C   UNL A   1      35.117  35.206  32.810  1.00  0.00     0.000 A 
ATOM     34  C   UNL A   1      34.433  33.115  31.835  1.00  0.00     0.000 A 
ATOM     35  C   UNL A   1      34.294  34.496  31.938  1.00  0.00     0.000 A 
ENDBRANCH  29  30
ENDBRANCH   8  29
ENDBRANCH   5   8
ENDBRANCH   3   4
ENDBRANCH   2   3
ENDBRANCH   1   2
BRANCH   1  36
ATOM     36  C   UNL A   1      41.335  34.745  39.672  1.00  0.00     0.002 C 
BRANCH  36  37
ATOM     37  C   UNL A   1      41.730  36.046  40.376  1.00  0.00     0.021 C 
BRANCH  37  38
ATOM     38  C   UNL A   1      43.222  36.359  40.415  1.00  0.00     0.116 C 
BRANCH  38  39
ATOM     39  N   UNL A   1      43.589  37.556  39.677  1.00  0.00    -0.352 N 
ATOM     40  C   UNL A   1      43.866  37.741  38.343  1.00  0.00     0.251 C 
ATOM     41  H   UNL A   1      43.650  38.372  40.225  1.00  0.00     0.163 HD
ATOM     42  O   UNL A   1      44.257  38.838  37.949  1.00  0.00    -0.269 OA
BRANCH  40  43
ATOM     43  C   UNL A   1      43.745  36.624  37.377  1.00  0.00     0.039 A 
ATOM     44  C   UNL A   1      44.829  35.801  37.074  1.00  0.00     0.014 A 
ATOM     45  C   UNL A   1      42.511  36.400  36.756  1.00  0.00     0.014 A 
ATOM     46  C   UNL A   1      44.737  34.898  36.016  1.00  0.00     0.010 A 
ATOM     47  C   UNL A   1      42.394  35.425  35.761  1.00  0.00     0.010 A 
ATOM     48  C   UNL A   1      43.524  34.712  35.332  1.00  0.00    -0.014 A 
BRANCH  48  49
ATOM     49  C   UNL A   1      43.474  33.798  34.156  1.00  0.00     0.031 A 
ATOM     50  C   UNL A   1      43.557  34.343  32.753  1.00  0.00     0.074 A 
ATOM     51  C   UNL A   1      43.414  32.466  34.347  1.00  0.00     0.049 A 
ATOM     52  N   UNL A   1      43.594  33.694  31.614  1.00  0.00    -0.248 NA
ATOM     53  C   UNL A   1      43.595  35.805  32.602  1.00  0.00     0.031 C 
ATOM     54  C   UNL A   1      43.316  31.810  35.650  1.00  0.00     0.029 A 
ATOM     55  N   UNL A   1      43.447  31.424  33.452  1.00  0.00    -0.354 N 
ATOM     56  C   UNL A   1      43.638  34.665  30.621  1.00  0.00     0.074 A 
ATOM     57  C   UNL A   1      43.584  35.948  31.284  1.00  0.00     0.031 C 
ATOM     58  C   UNL A   1      43.351  30.481  35.477  1.00  0.00     0.029 A 
ATOM     59  C   UNL A   1      43.414  30.187  34.048  1.00  0.00     0.049 A 
ATOM     60  H   UNL A   1      43.491  31.553  32.477  1.00  0.00     0.167 HD
ATOM     61  C   UNL A   1      43.735  34.502  29.280  1.00  0.00     0.037 A 
ATOM     62  C   UNL A   1      43.420  28.952  33.510  1.00  0.00     0.037 A 
ATOM     63  C   UNL A   1      43.824  33.224  28.621  1.00  0.00     0.049 A 
ATOM     64  C   UNL A   1      43.495  28.795  32.017  1.00  0.00     0.074 A 
ATOM     65  C   UNL A   1      44.001  32.963  27.274  1.00  0.00     0.029 A 
ATOM     66  N   UNL A   1      43.730  31.996  29.258  1.00  0.00    -0.354 N 
ATOM     67  N   UNL A   1      43.606  29.722  31.096  1.00  0.00    -0.248 NA
ATOM     68  C   UNL A   1      43.438  27.426  31.486  1.00  0.00     0.031 C 
ATOM     69  C   UNL A   1      43.951  31.579  27.087  1.00  0.00     0.029 A 
ATOM     70  C   UNL A   1      43.800  30.975  28.325  1.00  0.00     0.049 A 
ATOM     71  H   UNL A   1      43.630  31.868  30.229  1.00  0.00     0.167 HD
ATOM     72  C   UNL A   1      43.633  29.052  29.881  1.00  0.00     0.074 A 
ATOM     73  C   UNL A   1      43.554  27.637  30.181  1.00  0.00     0.031 C 
ATOM     74  C   UNL A   1      43.709  29.569  28.631  1.00  0.00     0.037 A 
BRANCH  61  75
ATOM     75  C   UNL A   1      43.748  35.734  28.419  1.00  0.00     0.064 A 
ATOM     76  C   UNL A   1      42.564  36.328  27.959  1.00  0.00     0.173 A 
ATOM     77  C   UNL A   1      44.962  36.364  28.103  1.00  0.00     0.173 A 
ATOM     78  F   UNL A   1      41.377  35.762  28.226  1.00  0.00    -0.203 F 
ATOM     79  C   UNL A   1      42.595  37.492  27.196  1.00  0.00     0.198 A 
ATOM     80  C   UNL A   1      44.988  37.546  27.366  1.00  0.00     0.198 A 
ATOM     81  F   UNL A   1      46.125  35.845  28.527  1.00  0.00    -0.203 F 
ATOM     82  F   UNL A   1      41.453  38.016  26.731  1.00  0.00    -0.200 F 
ATOM     83  C   UNL A   1      43.806  38.105  26.907  1.00  0.00     0.200 A 
ATOM     84  F   UNL A   1      46.158  38.145  27.104  1.00  0.00    -0.200 F 
ATOM     85  F   UNL A   1      43.832  39.231  26.182  1.00  0.00    -0.200 F 
ENDBRANCH  61  75
BRANCH  62  86
ATOM     86  C   UNL A   1      43.358  27.772  34.411  1.00  0.00     0.064 A 
ATOM     87  C   UNL A   1      44.507  27.297  35.057  1.00  0.00     0.173 A 
ATOM     88  C   UNL A   1      42.140  27.137  34.693  1.00  0.00     0.173 A 
ATOM     89  F   UNL A   1      45.699  27.858  34.804  1.00  0.00    -0.203 F 
ATOM     90  C   UNL A   1      44.437  26.237  35.959  1.00  0.00     0.198 A 
ATOM     91  C   UNL A   1      42.066  26.096  35.616  1.00  0.00     0.198 A 
ATOM     92  F   UNL A   1      41.012  27.557  34.102  1.00  0.00    -0.203 F 
ATOM     93  F   UNL A   1      45.553  25.790  36.552  1.00  0.00    -0.200 F 
ATOM     94  C   UNL A   1      43.216  25.646  36.248  1.00  0.00     0.200 A 
ATOM     95  F   UNL A   1      40.881  25.544  35.907  1.00  0.00    -0.200 F 
ATOM     96  F   UNL A   1      43.146  24.645  37.136  1.00  0.00    -0.200 F 
ENDBRANCH  62  86
BRANCH  74  97
ATOM     97  C   UNL A   1      43.694  28.615  27.472  1.00  0.00     0.064 A 
ATOM     98  C   UNL A   1      44.879  28.037  26.993  1.00  0.00     0.173 A 
ATOM     99  C   UNL A   1      42.480  28.185  26.913  1.00  0.00     0.173 A 
ATOM    100  F   UNL A   1      46.066  28.425  27.485  1.00  0.00    -0.203 F 
ATOM    101  C   UNL A   1      44.849  27.061  26.001  1.00  0.00     0.198 A 
ATOM    102  C   UNL A   1      42.453  27.189  25.941  1.00  0.00     0.198 A 
ATOM    103  F   UNL A   1      41.320  28.702  27.342  1.00  0.00    -0.203 F 
ATOM    104  F   UNL A   1      45.995  26.533  25.547  1.00  0.00    -0.200 F 
ATOM    105  C   UNL A   1      43.636  26.627  25.487  1.00  0.00     0.200 A 
ATOM    106  F   UNL A   1      41.278  26.758  25.460  1.00  0.00    -0.200 F 
ATOM    107  F   UNL A   1      43.607  25.664  24.555  1.00  0.00    -0.200 F 
ENDBRANCH  74  97
ENDBRANCH  48  49
ENDBRANCH  40  43
ENDBRANCH  38  39
ENDBRANCH  37  38
ENDBRANCH  36  37
ENDBRANCH   1  36
TORSDOF 18
ENDMDL
MODEL 3
REMARK VINA RESULT:      -9.8      4.438     12.172
REMARK SMILES O=C(Cn1c2ccccc2c(=O)c2ccccc21)N[C@@H](Cc1ccccc1)C(=O)NCCCCCCNC(=O)c1ccc(-c2c3nc(c(-c4c(F)c(F)c(F)c(F)c4F)c4ccc([nH]4)c(-c4c(F)c(F)c(F)c(F)c4F)c4nc(c(-c5c(F)c(F)c(F)c(F)c5F)c5ccc2[nH]5)C=C4)C=C3)cc1
REMARK SMILES IDX 33 1 32 2 31 3 30 4 28 5 29 6 20 8 19 9 1 10 2 11 3 13 4 14
REMARK SMILES IDX 5 15 18 16 6 17 10 18 13 19 17 20 7 21 9 22 11 23 14 24
REMARK SMILES IDX 16 25 8 26 12 27 15 28 21 29 22 30 23 31 27 32 24 33 26 34
REMARK SMILES IDX 25 35 34 36 35 37 36 38 37 39 38 40 39 42 40 43 41 44 102 45
REMARK SMILES IDX 42 46 101 47 43 48 44 49 45 50 95 51 46 52 100 53 94 54
REMARK SMILES IDX 96 55 47 56 99 57 93 58 92 59 48 61 80 62 60 63 79 64 61 65
REMARK SMILES IDX 64 66 78 67 97 68 62 69 63 70 77 72 98 73 65 74 49 75 50 76
REMARK SMILES IDX 58 77 51 78 52 79 56 80 59 81 53 82 54 83 57 84 55 85 81 86
REMARK SMILES IDX 82 87 90 88 83 89 84 90 88 91 91 92 85 93 86 94 89 95 87 96
REMARK SMILES IDX 66 97 67 98 75 99 68 100 69 101 73 102 76 103 70 104 71 105
REMARK SMILES IDX 74 106 72 107
REMARK H PARENT 30 7 19 12 37 41 96 60 64 71
REMARK Flexibility Score: inf
ROOT
ATOM      1  C   UNL A   1      36.449  31.624  32.912  1.00  0.00     0.002 C 
ENDROOT
BRANCH   1   2
ATOM      2  C   UNL A   1      37.845  31.213  32.448  1.00  0.00     0.021 C 
BRANCH   2   3
ATOM      3  C   UNL A   1      38.470  30.032  33.172  1.00  0.00     0.116 C 
BRANCH   3   4
ATOM      4  N   UNL A   1      38.069  29.879  34.546  1.00  0.00    -0.354 N 
ATOM      5  C   UNL A   1      38.770  30.185  35.680  1.00  0.00     0.242 C 
ATOM      6  O   UNL A   1      38.113  30.277  36.723  1.00  0.00    -0.273 OA
ATOM      7  H   UNL A   1      37.170  29.503  34.690  1.00  0.00     0.163 HD
BRANCH   5   8
ATOM      8  C   UNL A   1      40.305  30.432  35.695  1.00  0.00     0.175 C 
BRANCH   8   9
ATOM      9  N   UNL A   1      41.064  29.474  34.872  1.00  0.00    -0.342 N 
ATOM     10  O   UNL A   1      41.330  27.945  36.555  1.00  0.00    -0.273 OA
ATOM     11  C   UNL A   1      41.551  28.287  35.393  1.00  0.00     0.240 C 
ATOM     12  H   UNL A   1      41.231  29.684  33.924  1.00  0.00     0.164 HD
BRANCH  11  13
ATOM     13  C   UNL A   1      42.541  27.487  34.528  1.00  0.00     0.222 C 
BRANCH  13  14
ATOM     14  N   UNL A   1      43.755  27.014  35.235  1.00  0.00    -0.331 N 
ATOM     15  C   UNL A   1      43.959  25.623  35.407  1.00  0.00     0.053 A 
ATOM     16  C   UNL A   1      44.735  27.950  35.664  1.00  0.00     0.053 A 
ATOM     17  C   UNL A   1      43.308  24.637  34.647  1.00  0.00     0.027 A 
ATOM     18  C   UNL A   1      44.913  25.165  36.334  1.00  0.00     0.046 A 
ATOM     19  C   UNL A   1      45.757  27.532  36.544  1.00  0.00     0.046 A 
ATOM     20  C   UNL A   1      44.837  29.270  35.194  1.00  0.00     0.027 A 
ATOM     21  C   UNL A   1      43.580  23.274  34.820  1.00  0.00     0.002 A 
ATOM     22  C   UNL A   1      45.167  23.803  36.539  1.00  0.00     0.014 A 
ATOM     23  C   UNL A   1      45.740  26.149  37.056  1.00  0.00     0.197 A 
ATOM     24  C   UNL A   1      46.832  28.358  36.908  1.00  0.00     0.014 A 
ATOM     25  C   UNL A   1      45.921  30.098  35.537  1.00  0.00     0.002 A 
ATOM     26  C   UNL A   1      44.506  22.857  35.768  1.00  0.00     0.001 A 
ATOM     27  O   UNL A   1      46.438  25.809  38.005  1.00  0.00    -0.288 OA
ATOM     28  C   UNL A   1      46.922  29.641  36.386  1.00  0.00     0.001 A 
ENDBRANCH  13  14
ENDBRANCH  11  13
ENDBRANCH   8   9
BRANCH   8  29
ATOM     29  C   UNL A   1      40.786  31.910  35.596  1.00  0.00     0.070 C 
BRANCH  29  30
ATOM     30  C   UNL A   1      40.017  32.945  34.797  1.00  0.00    -0.045 A 
ATOM     31  C   UNL A   1      40.446  33.299  33.508  1.00  0.00     0.004 A 
ATOM     32  C   UNL A   1      38.860  33.563  35.296  1.00  0.00     0.004 A 
ATOM     33  C   UNL A   1      39.803  34.310  32.788  1.00  0.00     0.000 A 
ATOM     34  C   UNL A   1      38.244  34.607  34.597  1.00  0.00     0.000 A 
ATOM     35  C   UNL A   1      38.723  34.988  33.347  1.00  0.00     0.000 A 
ENDBRANCH  29  30
ENDBRANCH   8  29
ENDBRANCH   5   8
ENDBRANCH   3   4
ENDBRANCH   2   3
ENDBRANCH   1   2
BRANCH   1  36
ATOM     36  C   UNL A   1      35.853  32.870  32.241  1.00  0.00     0.002 C 
BRANCH  36  37
ATOM     37  C   UNL A   1      34.779  32.632  31.176  1.00  0.00     0.021 C 
BRANCH  37  38
ATOM     38  C   UNL A   1      35.274  32.541  29.736  1.00  0.00     0.116 C 
BRANCH  38  39
ATOM     39  N   UNL A   1      34.490  31.643  28.904  1.00  0.00    -0.352 N 
ATOM     40  C   UNL A   1      34.845  30.493  28.240  1.00  0.00     0.251 C 
ATOM     41  H   UNL A   1      33.547  31.904  28.797  1.00  0.00     0.163 HD
ATOM     42  O   UNL A   1      34.032  29.940  27.503  1.00  0.00    -0.269 OA
BRANCH  40  43
ATOM     43  C   UNL A   1      36.211  29.932  28.363  1.00  0.00     0.039 A 
ATOM     44  C   UNL A   1      36.626  29.267  29.517  1.00  0.00     0.014 A 
ATOM     45  C   UNL A   1      37.100  30.080  27.293  1.00  0.00     0.014 A 
ATOM     46  C   UNL A   1      37.970  28.937  29.679  1.00  0.00     0.010 A 
ATOM     47  C   UNL A   1      38.428  29.659  27.420  1.00  0.00     0.010 A 
ATOM     48  C   UNL A   1      38.893  29.147  28.641  1.00  0.00    -0.014 A 
BRANCH  48  49
ATOM     49  C   UNL A   1      40.337  28.857  28.869  1.00  0.00     0.031 A 
ATOM     50  C   UNL A   1      41.207  29.827  29.627  1.00  0.00     0.074 A 
ATOM     51  C   UNL A   1      40.858  27.689  28.446  1.00  0.00     0.049 A 
ATOM     52  N   UNL A   1      42.466  29.711  29.975  1.00  0.00    -0.248 NA
ATOM     53  C   UNL A   1      40.592  31.096  30.043  1.00  0.00     0.031 C 
ATOM     54  C   UNL A   1      40.130  26.671  27.691  1.00  0.00     0.029 A 
ATOM     55  N   UNL A   1      42.112  27.151  28.607  1.00  0.00    -0.354 N 
ATOM     56  C   UNL A   1      42.794  30.893  30.627  1.00  0.00     0.074 A 
ATOM     57  C   UNL A   1      41.617  31.732  30.595  1.00  0.00     0.031 C 
ATOM     58  C   UNL A   1      40.929  25.610  27.499  1.00  0.00     0.029 A 
ATOM     59  C   UNL A   1      42.245  25.896  28.066  1.00  0.00     0.049 A 
ATOM     60  H   UNL A   1      42.846  27.620  29.066  1.00  0.00     0.167 HD
ATOM     61  C   UNL A   1      43.962  31.240  31.217  1.00  0.00     0.037 A 
ATOM     62  C   UNL A   1      43.306  25.067  28.016  1.00  0.00     0.037 A 
ATOM     63  C   UNL A   1      45.124  30.392  31.280  1.00  0.00     0.049 A 
ATOM     64  C   UNL A   1      44.604  25.486  28.649  1.00  0.00     0.074 A 
ATOM     65  C   UNL A   1      46.326  30.628  31.923  1.00  0.00     0.029 A 
ATOM     66  N   UNL A   1      45.232  29.150  30.671  1.00  0.00    -0.354 N 
ATOM     67  N   UNL A   1      44.876  26.578  29.322  1.00  0.00    -0.248 NA
ATOM     68  C   UNL A   1      45.742  24.567  28.511  1.00  0.00     0.031 C 
ATOM     69  C   UNL A   1      47.185  29.560  31.650  1.00  0.00     0.029 A 
ATOM     70  C   UNL A   1      46.499  28.631  30.884  1.00  0.00     0.049 A 
ATOM     71  H   UNL A   1      44.517  28.705  30.163  1.00  0.00     0.167 HD
ATOM     72  C   UNL A   1      46.211  26.478  29.688  1.00  0.00     0.074 A 
ATOM     73  C   UNL A   1      46.688  25.207  29.186  1.00  0.00     0.031 C 
ATOM     74  C   UNL A   1      46.970  27.368  30.372  1.00  0.00     0.037 A 
BRANCH  61  75
ATOM     75  C   UNL A   1      44.057  32.602  31.846  1.00  0.00     0.064 A 
ATOM     76  C   UNL A   1      43.830  32.802  33.216  1.00  0.00     0.173 A 
ATOM     77  C   UNL A   1      44.444  33.712  31.078  1.00  0.00     0.173 A 
ATOM     78  F   UNL A   1      43.452  31.777  33.994  1.00  0.00    -0.203 F 
ATOM     79  C   UNL A   1      43.962  34.064  33.788  1.00  0.00     0.198 A 
ATOM     80  C   UNL A   1      44.605  34.968  31.660  1.00  0.00     0.198 A 
ATOM     81  F   UNL A   1      44.683  33.576  29.766  1.00  0.00    -0.203 F 
ATOM     82  F   UNL A   1      43.698  34.238  35.090  1.00  0.00    -0.200 F 
ATOM     83  C   UNL A   1      44.357  35.144  33.012  1.00  0.00     0.200 A 
ATOM     84  F   UNL A   1      45.003  36.005  30.911  1.00  0.00    -0.200 F 
ATOM     85  F   UNL A   1      44.495  36.356  33.568  1.00  0.00    -0.200 F 
ENDBRANCH  61  75
BRANCH  62  86
ATOM     86  C   UNL A   1      43.164  23.751  27.340  1.00  0.00     0.064 A 
ATOM     87  C   UNL A   1      42.584  22.660  27.999  1.00  0.00     0.173 A 
ATOM     88  C   UNL A   1      43.545  23.578  26.001  1.00  0.00     0.173 A 
ATOM     89  F   UNL A   1      42.221  22.770  29.286  1.00  0.00    -0.203 F 
ATOM     90  C   UNL A   1      42.383  21.448  27.342  1.00  0.00     0.198 A 
ATOM     91  C   UNL A   1      43.318  22.376  25.336  1.00  0.00     0.198 A 
ATOM     92  F   UNL A   1      44.101  24.595  25.326  1.00  0.00    -0.203 F 
ATOM     93  F   UNL A   1      41.841  20.413  28.000  1.00  0.00    -0.200 F 
ATOM     94  C   UNL A   1      42.738  21.311  26.008  1.00  0.00     0.200 A 
ATOM     95  F   UNL A   1      43.643  22.256  24.042  1.00  0.00    -0.200 F 
ATOM     96  F   UNL A   1      42.518  20.153  25.369  1.00  0.00    -0.200 F 
ENDBRANCH  62  86
BRANCH  74  97
ATOM     97  C   UNL A   1      48.411  27.025  30.615  1.00  0.00     0.064 A 
ATOM     98  C   UNL A   1      48.790  26.207  31.690  1.00  0.00     0.173 A 
ATOM     99  C   UNL A   1      49.404  27.416  29.704  1.00  0.00     0.173 A 
ATOM    100  F   UNL A   1      47.880  25.819  32.596  1.00  0.00    -0.203 F 
ATOM    101  C   UNL A   1      50.109  25.790  31.842  1.00  0.00     0.198 A 
ATOM    102  C   UNL A   1      50.717  26.974  29.844  1.00  0.00     0.198 A 
ATOM    103  F   UNL A   1      49.092  28.191  28.655  1.00  0.00    -0.203 F 
ATOM    104  F   UNL A   1      50.452  25.022  32.885  1.00  0.00    -0.200 F 
ATOM    105  C   UNL A   1      51.068  26.161  30.911  1.00  0.00     0.200 A 
ATOM    106  F   UNL A   1      51.638  27.318  28.931  1.00  0.00    -0.200 F 
ATOM    107  F   UNL A   1      52.331  25.732  31.040  1.00  0.00    -0.200 F 
ENDBRANCH  74  97
ENDBRANCH  48  49
ENDBRANCH  40  43
ENDBRANCH  38  39
ENDBRANCH  37  38
ENDBRANCH  36  37
ENDBRANCH   1  36
TORSDOF 18
ENDMDL
