MODEL 1
REMARK VINA RESULT:     -12.5      0.000      0.000
REMARK SMILES O=C(NCCCCCCNC(=O)[C@@H]1[C@H](C(=O)NCc2ccncc2)[C@H]2C=C[C@@H]1O2)c1ccc(-c2c3nc(c(-c4c(F)c(F)c(F)c(F)c4F)c4ccc([nH]4)c(-c4c(F)c(F)c(F)c(F)c4F)c4nc(c(-c5c(F)c(F)c(F)c(F)c5F)c5ccc2[nH]5)C=C4)C=C3)cc1
REMARK SMILES IDX 7 1 6 2 5 3 4 4 3 5 1 6 2 7 30 9 31 10 92 11 32 12 91 13
REMARK SMILES IDX 33 14 34 15 35 16 85 17 36 18 90 19 84 20 86 21 37 22 89 23
REMARK SMILES IDX 83 24 82 25 38 27 70 28 50 29 69 30 51 31 54 32 68 33 87 34
REMARK SMILES IDX 52 35 53 36 67 38 88 39 55 40 39 41 40 42 48 43 41 44 42 45
REMARK SMILES IDX 46 46 49 47 43 48 44 49 47 50 45 51 71 52 72 53 80 54 73 55
REMARK SMILES IDX 74 56 78 57 81 58 75 59 76 60 79 61 77 62 56 63 57 64 65 65
REMARK SMILES IDX 58 66 59 67 63 68 66 69 60 70 61 71 64 72 62 73 8 74 9 75
REMARK SMILES IDX 10 76 11 77 12 79 13 80 14 81 28 82 25 83 27 84 29 85 26 86
REMARK SMILES IDX 15 87 16 88 17 89 18 91 19 92 20 93 24 94 21 95 23 96 22 97
REMARK H PARENT 3 8 86 26 54 37 10 78 17 90
REMARK Flexibility Score: inf
ROOT
ATOM      1  C   UNL A   1      32.761  30.263  26.624  1.00  0.00     0.002 C 
ENDROOT
BRANCH   1   2
ATOM      2  C   UNL A   1      31.424  30.934  26.293  1.00  0.00     0.002 C 
BRANCH   2   3
ATOM      3  C   UNL A   1      31.399  32.445  26.520  1.00  0.00     0.021 C 
BRANCH   3   4
ATOM      4  C   UNL A   1      32.619  32.985  27.257  1.00  0.00     0.116 C 
BRANCH   4   5
ATOM      5  N   UNL A   1      32.411  34.343  27.732  1.00  0.00    -0.352 N 
ATOM      6  O   UNL A   1      32.597  36.077  29.167  1.00  0.00    -0.269 OA
ATOM      7  C   UNL A   1      33.028  34.997  28.764  1.00  0.00     0.251 C 
ATOM      8  H   UNL A   1      31.732  34.864  27.245  1.00  0.00     0.163 HD
BRANCH   7   9
ATOM      9  C   UNL A   1      34.208  34.390  29.412  1.00  0.00     0.039 A 
ATOM     10  C   UNL A   1      35.492  34.598  28.896  1.00  0.00     0.014 A 
ATOM     11  C   UNL A   1      34.025  33.611  30.555  1.00  0.00     0.014 A 
ATOM     12  C   UNL A   1      36.577  33.929  29.452  1.00  0.00     0.010 A 
ATOM     13  C   UNL A   1      35.126  33.002  31.158  1.00  0.00     0.010 A 
ATOM     14  C   UNL A   1      36.406  33.136  30.596  1.00  0.00    -0.014 A 
BRANCH  14  15
ATOM     15  C   UNL A   1      37.574  32.486  31.238  1.00  0.00     0.031 A 
ATOM     16  C   UNL A   1      38.273  31.338  30.573  1.00  0.00     0.074 A 
ATOM     17  C   UNL A   1      37.977  32.917  32.448  1.00  0.00     0.049 A 
ATOM     18  N   UNL A   1      39.243  30.584  31.025  1.00  0.00    -0.248 NA
ATOM     19  C   UNL A   1      37.814  30.981  29.222  1.00  0.00     0.031 C 
ATOM     20  C   UNL A   1      37.375  34.025  33.190  1.00  0.00     0.029 A 
ATOM     21  N   UNL A   1      38.976  32.466  33.273  1.00  0.00    -0.354 N 
ATOM     22  C   UNL A   1      39.494  29.651  30.029  1.00  0.00     0.074 A 
ATOM     23  C   UNL A   1      38.556  29.915  28.958  1.00  0.00     0.031 C 
ATOM     24  C   UNL A   1      38.018  34.173  34.356  1.00  0.00     0.029 A 
ATOM     25  C   UNL A   1      39.032  33.130  34.472  1.00  0.00     0.049 A 
ATOM     26  H   UNL A   1      39.591  31.737  33.029  1.00  0.00     0.167 HD
ATOM     27  C   UNL A   1      40.425  28.665  30.013  1.00  0.00     0.037 A 
ATOM     28  C   UNL A   1      39.791  32.904  35.560  1.00  0.00     0.037 A 
ATOM     29  C   UNL A   1      41.352  28.413  31.086  1.00  0.00     0.049 A 
ATOM     30  C   UNL A   1      40.783  31.777  35.540  1.00  0.00     0.074 A 
ATOM     31  C   UNL A   1      42.357  27.464  31.155  1.00  0.00     0.029 A 
ATOM     32  N   UNL A   1      41.378  29.108  32.289  1.00  0.00    -0.354 N 
ATOM     33  N   UNL A   1      41.037  30.920  34.581  1.00  0.00    -0.248 NA
ATOM     34  C   UNL A   1      41.593  31.586  36.749  1.00  0.00     0.031 C 
ATOM     35  C   UNL A   1      42.948  27.543  32.419  1.00  0.00     0.029 A 
ATOM     36  C   UNL A   1      42.362  28.588  33.116  1.00  0.00     0.049 A 
ATOM     37  H   UNL A   1      40.784  29.858  32.520  1.00  0.00     0.167 HD
ATOM     38  C   UNL A   1      42.057  30.108  35.055  1.00  0.00     0.074 A 
ATOM     39  C   UNL A   1      42.376  30.576  36.389  1.00  0.00     0.031 C 
ATOM     40  C   UNL A   1      42.677  29.073  34.437  1.00  0.00     0.037 A 
BRANCH  27  41
ATOM     41  C   UNL A   1      40.459  27.763  28.811  1.00  0.00     0.064 A 
ATOM     42  C   UNL A   1      41.244  28.054  27.685  1.00  0.00     0.173 A 
ATOM     43  C   UNL A   1      39.706  26.578  28.792  1.00  0.00     0.173 A 
ATOM     44  F   UNL A   1      41.977  29.178  27.645  1.00  0.00    -0.203 F 
ATOM     45  C   UNL A   1      41.240  27.218  26.571  1.00  0.00     0.198 A 
ATOM     46  C   UNL A   1      39.733  25.726  27.691  1.00  0.00     0.198 A 
ATOM     47  F   UNL A   1      38.945  26.242  29.845  1.00  0.00    -0.203 F 
ATOM     48  F   UNL A   1      41.949  27.551  25.483  1.00  0.00    -0.200 F 
ATOM     49  C   UNL A   1      40.489  26.053  26.577  1.00  0.00     0.200 A 
ATOM     50  F   UNL A   1      39.018  24.593  27.706  1.00  0.00    -0.200 F 
ATOM     51  F   UNL A   1      40.485  25.250  25.503  1.00  0.00    -0.200 F 
ENDBRANCH  27  41
BRANCH  28  52
ATOM     52  C   UNL A   1      39.622  33.770  36.755  1.00  0.00     0.064 A 
ATOM     53  C   UNL A   1      40.226  35.031  36.822  1.00  0.00     0.173 A 
ATOM     54  C   UNL A   1      38.813  33.373  37.831  1.00  0.00     0.173 A 
ATOM     55  F   UNL A   1      41.021  35.446  35.825  1.00  0.00    -0.203 F 
ATOM     56  C   UNL A   1      40.034  35.862  37.924  1.00  0.00     0.198 A 
ATOM     57  C   UNL A   1      38.597  34.217  38.918  1.00  0.00     0.198 A 
ATOM     58  F   UNL A   1      38.204  32.178  37.809  1.00  0.00    -0.203 F 
ATOM     59  F   UNL A   1      40.647  37.052  37.977  1.00  0.00    -0.200 F 
ATOM     60  C   UNL A   1      39.211  35.458  38.965  1.00  0.00     0.200 A 
ATOM     61  F   UNL A   1      37.786  33.831  39.912  1.00  0.00    -0.200 F 
ATOM     62  F   UNL A   1      39.013  36.265  40.016  1.00  0.00    -0.200 F 
ENDBRANCH  28  52
BRANCH  40  63
ATOM     63  C   UNL A   1      43.806  28.405  35.168  1.00  0.00     0.064 A 
ATOM     64  C   UNL A   1      45.131  28.847  35.052  1.00  0.00     0.173 A 
ATOM     65  C   UNL A   1      43.542  27.342  36.047  1.00  0.00     0.173 A 
ATOM     66  F   UNL A   1      45.438  29.847  34.212  1.00  0.00    -0.203 F 
ATOM     67  C   UNL A   1      46.153  28.242  35.780  1.00  0.00     0.198 A 
ATOM     68  C   UNL A   1      44.560  26.761  36.795  1.00  0.00     0.198 A 
ATOM     69  F   UNL A   1      42.290  26.884  36.196  1.00  0.00    -0.203 F 
ATOM     70  F   UNL A   1      47.418  28.656  35.627  1.00  0.00    -0.200 F 
ATOM     71  C   UNL A   1      45.865  27.208  36.658  1.00  0.00     0.200 A 
ATOM     72  F   UNL A   1      44.277  25.772  37.654  1.00  0.00    -0.200 F 
ATOM     73  F   UNL A   1      46.847  26.638  37.371  1.00  0.00    -0.200 F 
ENDBRANCH  40  63
ENDBRANCH  14  15
ENDBRANCH   7   9
ENDBRANCH   4   5
ENDBRANCH   3   4
ENDBRANCH   2   3
ENDBRANCH   1   2
BRANCH   1  74
ATOM     74  C   UNL A   1      32.658  28.795  27.066  1.00  0.00     0.021 C 
BRANCH  74  75
ATOM     75  C   UNL A   1      31.494  28.033  26.427  1.00  0.00     0.116 C 
BRANCH  75  76
ATOM     76  N   UNL A   1      31.339  26.747  27.070  1.00  0.00    -0.356 N 
ATOM     77  C   UNL A   1      31.597  25.543  26.487  1.00  0.00     0.227 C 
ATOM     78  H   UNL A   1      31.023  26.740  28.003  1.00  0.00     0.163 HD
ATOM     79  O   UNL A   1      30.725  24.680  26.566  1.00  0.00    -0.275 OA
BRANCH  77  80
ATOM     80  C   UNL A   1      32.850  25.385  25.663  1.00  0.00     0.127 C 
ATOM     81  C   UNL A   1      32.639  25.275  24.127  1.00  0.00     0.127 C 
ATOM     82  C   UNL A   1      33.654  24.097  25.940  1.00  0.00     0.155 C 
ATOM     83  C   UNL A   1      33.416  24.005  23.780  1.00  0.00     0.155 C 
ATOM     84  C   UNL A   1      35.036  24.251  25.366  1.00  0.00     0.004 C 
ATOM     85  O   UNL A   1      33.126  23.190  24.945  1.00  0.00    -0.365 OA
ATOM     86  C   UNL A   1      34.887  24.210  24.034  1.00  0.00     0.004 C 
BRANCH  81  87
ATOM     87  C   UNL A   1      31.238  25.314  23.528  1.00  0.00     0.227 C 
ATOM     88  O   UNL A   1      30.610  24.246  23.463  1.00  0.00    -0.275 OA
ATOM     89  N   UNL A   1      30.573  26.402  23.075  1.00  0.00    -0.352 N 
ATOM     90  H   UNL A   1      29.704  26.166  22.676  1.00  0.00     0.163 HD
BRANCH  89  91
ATOM     91  C   UNL A   1      30.825  27.831  23.033  1.00  0.00     0.151 C 
BRANCH  91  92
ATOM     92  C   UNL A   1      29.588  28.689  23.123  1.00  0.00    -0.026 A 
ATOM     93  C   UNL A   1      29.694  30.065  23.361  1.00  0.00     0.025 A 
ATOM     94  C   UNL A   1      28.304  28.143  23.024  1.00  0.00     0.025 A 
ATOM     95  C   UNL A   1      28.534  30.824  23.454  1.00  0.00     0.111 A 
ATOM     96  C   UNL A   1      27.206  28.984  23.128  1.00  0.00     0.111 A 
ATOM     97  N   UNL A   1      27.292  30.316  23.333  1.00  0.00    -0.265 NA
ENDBRANCH  91  92
ENDBRANCH  89  91
ENDBRANCH  81  87
ENDBRANCH  77  80
ENDBRANCH  75  76
ENDBRANCH  74  75
ENDBRANCH   1  74
TORSDOF 16
ENDMDL
MODEL 2
REMARK VINA RESULT:     -12.5      5.889     11.392
REMARK SMILES O=C(NCCCCCCNC(=O)[C@@H]1[C@H](C(=O)NCc2ccncc2)[C@H]2C=C[C@@H]1O2)c1ccc(-c2c3nc(c(-c4c(F)c(F)c(F)c(F)c4F)c4ccc([nH]4)c(-c4c(F)c(F)c(F)c(F)c4F)c4nc(c(-c5c(F)c(F)c(F)c(F)c5F)c5ccc2[nH]5)C=C4)C=C3)cc1
REMARK SMILES IDX 7 1 6 2 5 3 4 4 3 5 1 6 2 7 30 9 31 10 92 11 32 12 91 13
REMARK SMILES IDX 33 14 34 15 35 16 85 17 36 18 90 19 84 20 86 21 37 22 89 23
REMARK SMILES IDX 83 24 82 25 38 27 70 28 50 29 69 30 51 31 54 32 68 33 87 34
REMARK SMILES IDX 52 35 53 36 67 38 88 39 55 40 39 41 40 42 48 43 41 44 42 45
REMARK SMILES IDX 46 46 49 47 43 48 44 49 47 50 45 51 71 52 72 53 80 54 73 55
REMARK SMILES IDX 74 56 78 57 81 58 75 59 76 60 79 61 77 62 56 63 57 64 65 65
REMARK SMILES IDX 58 66 59 67 63 68 66 69 60 70 61 71 64 72 62 73 8 74 9 75
REMARK SMILES IDX 10 76 11 77 12 79 13 80 14 81 28 82 25 83 27 84 29 85 26 86
REMARK SMILES IDX 15 87 16 88 17 89 18 91 19 92 20 93 24 94 21 95 23 96 22 97
REMARK H PARENT 3 8 86 26 54 37 10 78 17 90
REMARK Flexibility Score: inf
ROOT
ATOM      1  C   UNL A   1      37.350  22.000  24.605  1.00  0.00     0.002 C 
ENDROOT
BRANCH   1   2
ATOM      2  C   UNL A   1      36.904  20.561  24.883  1.00  0.00     0.002 C 
BRANCH   2   3
ATOM      3  C   UNL A   1      38.048  19.553  25.000  1.00  0.00     0.021 C 
BRANCH   3   4
ATOM      4  C   UNL A   1      39.223  20.038  25.842  1.00  0.00     0.116 C 
BRANCH   4   5
ATOM      5  N   UNL A   1      40.299  19.064  25.887  1.00  0.00    -0.352 N 
ATOM      6  O   UNL A   1      42.443  18.355  25.838  1.00  0.00    -0.269 OA
ATOM      7  C   UNL A   1      41.646  19.274  26.019  1.00  0.00     0.251 C 
ATOM      8  H   UNL A   1      40.022  18.122  25.812  1.00  0.00     0.163 HD
BRANCH   7   9
ATOM      9  C   UNL A   1      42.144  20.621  26.360  1.00  0.00     0.039 A 
ATOM     10  C   UNL A   1      42.291  21.012  27.696  1.00  0.00     0.014 A 
ATOM     11  C   UNL A   1      42.477  21.500  25.328  1.00  0.00     0.014 A 
ATOM     12  C   UNL A   1      42.654  22.320  27.998  1.00  0.00     0.010 A 
ATOM     13  C   UNL A   1      42.916  22.788  25.634  1.00  0.00     0.010 A 
ATOM     14  C   UNL A   1      42.983  23.215  26.970  1.00  0.00    -0.014 A 
BRANCH  14  15
ATOM     15  C   UNL A   1      43.449  24.586  27.293  1.00  0.00     0.031 A 
ATOM     16  C   UNL A   1      42.500  25.605  27.851  1.00  0.00     0.074 A 
ATOM     17  C   UNL A   1      44.729  24.917  27.041  1.00  0.00     0.049 A 
ATOM     18  N   UNL A   1      42.700  26.875  28.099  1.00  0.00    -0.248 NA
ATOM     19  C   UNL A   1      41.141  25.138  28.163  1.00  0.00     0.031 C 
ATOM     20  C   UNL A   1      45.741  24.009  26.500  1.00  0.00     0.029 A 
ATOM     21  N   UNL A   1      45.393  26.107  27.191  1.00  0.00    -0.354 N 
ATOM     22  C   UNL A   1      41.490  27.364  28.571  1.00  0.00     0.074 A 
ATOM     23  C   UNL A   1      40.552  26.261  28.550  1.00  0.00     0.031 C 
ATOM     24  C   UNL A   1      46.899  24.671  26.370  1.00  0.00     0.029 A 
ATOM     25  C   UNL A   1      46.693  26.063  26.754  1.00  0.00     0.049 A 
ATOM     26  H   UNL A   1      44.978  26.913  27.574  1.00  0.00     0.167 HD
ATOM     27  C   UNL A   1      41.193  28.621  28.984  1.00  0.00     0.037 A 
ATOM     28  C   UNL A   1      47.609  27.043  26.641  1.00  0.00     0.037 A 
ATOM     29  C   UNL A   1      42.137  29.710  28.999  1.00  0.00     0.049 A 
ATOM     30  C   UNL A   1      47.245  28.438  27.060  1.00  0.00     0.074 A 
ATOM     31  C   UNL A   1      41.948  31.010  29.432  1.00  0.00     0.029 A 
ATOM     32  N   UNL A   1      43.447  29.627  28.546  1.00  0.00    -0.354 N 
ATOM     33  N   UNL A   1      46.109  28.885  27.537  1.00  0.00    -0.248 NA
ATOM     34  C   UNL A   1      48.287  29.463  26.927  1.00  0.00     0.031 C 
ATOM     35  C   UNL A   1      43.121  31.729  29.185  1.00  0.00     0.029 A 
ATOM     36  C   UNL A   1      44.068  30.862  28.663  1.00  0.00     0.049 A 
ATOM     37  H   UNL A   1      43.872  28.813  28.194  1.00  0.00     0.167 HD
ATOM     38  C   UNL A   1      46.307  30.235  27.792  1.00  0.00     0.074 A 
ATOM     39  C   UNL A   1      47.674  30.533  27.417  1.00  0.00     0.031 C 
ATOM     40  C   UNL A   1      45.435  31.141  28.298  1.00  0.00     0.037 A 
BRANCH  27  41
ATOM     41  C   UNL A   1      39.780  28.892  29.419  1.00  0.00     0.064 A 
ATOM     42  C   UNL A   1      38.806  29.367  28.527  1.00  0.00     0.173 A 
ATOM     43  C   UNL A   1      39.390  28.659  30.747  1.00  0.00     0.173 A 
ATOM     44  F   UNL A   1      39.125  29.614  27.247  1.00  0.00    -0.203 F 
ATOM     45  C   UNL A   1      37.509  29.637  28.957  1.00  0.00     0.198 A 
ATOM     46  C   UNL A   1      38.083  28.897  31.165  1.00  0.00     0.198 A 
ATOM     47  F   UNL A   1      40.276  28.197  31.642  1.00  0.00    -0.203 F 
ATOM     48  F   UNL A   1      36.614  30.149  28.101  1.00  0.00    -0.200 F 
ATOM     49  C   UNL A   1      37.147  29.397  30.274  1.00  0.00     0.200 A 
ATOM     50  F   UNL A   1      37.732  28.650  32.435  1.00  0.00    -0.200 F 
ATOM     51  F   UNL A   1      35.899  29.659  30.687  1.00  0.00    -0.200 F 
ENDBRANCH  27  41
BRANCH  28  52
ATOM     52  C   UNL A   1      48.952  26.720  26.096  1.00  0.00     0.064 A 
ATOM     53  C   UNL A   1      49.262  26.964  24.753  1.00  0.00     0.173 A 
ATOM     54  C   UNL A   1      49.966  26.207  26.920  1.00  0.00     0.173 A 
ATOM     55  F   UNL A   1      48.322  27.439  23.924  1.00  0.00    -0.203 F 
ATOM     56  C   UNL A   1      50.536  26.702  24.251  1.00  0.00     0.198 A 
ATOM     57  C   UNL A   1      51.246  25.973  26.424  1.00  0.00     0.198 A 
ATOM     58  F   UNL A   1      49.720  25.965  28.216  1.00  0.00    -0.203 F 
ATOM     59  F   UNL A   1      50.799  26.917  22.955  1.00  0.00    -0.200 F 
ATOM     60  C   UNL A   1      51.529  26.216  25.089  1.00  0.00     0.200 A 
ATOM     61  F   UNL A   1      52.207  25.523  27.242  1.00  0.00    -0.200 F 
ATOM     62  F   UNL A   1      52.757  25.981  24.609  1.00  0.00    -0.200 F 
ENDBRANCH  28  52
BRANCH  40  63
ATOM     63  C   UNL A   1      45.943  32.534  28.534  1.00  0.00     0.064 A 
ATOM     64  C   UNL A   1      46.583  32.900  29.726  1.00  0.00     0.173 A 
ATOM     65  C   UNL A   1      45.839  33.500  27.521  1.00  0.00     0.173 A 
ATOM     66  F   UNL A   1      46.692  32.018  30.732  1.00  0.00    -0.203 F 
ATOM     67  C   UNL A   1      47.090  34.185  29.901  1.00  0.00     0.198 A 
ATOM     68  C   UNL A   1      46.374  34.774  27.686  1.00  0.00     0.198 A 
ATOM     69  F   UNL A   1      45.238  33.199  26.360  1.00  0.00    -0.203 F 
ATOM     70  F   UNL A   1      47.666  34.525  31.062  1.00  0.00    -0.200 F 
ATOM     71  C   UNL A   1      46.995  35.116  28.877  1.00  0.00     0.200 A 
ATOM     72  F   UNL A   1      46.294  35.667  26.691  1.00  0.00    -0.200 F 
ATOM     73  F   UNL A   1      47.499  36.348  29.040  1.00  0.00    -0.200 F 
ENDBRANCH  40  63
ENDBRANCH  14  15
ENDBRANCH   7   9
ENDBRANCH   4   5
ENDBRANCH   3   4
ENDBRANCH   2   3
ENDBRANCH   1   2
BRANCH   1  74
ATOM     74  C   UNL A   1      37.060  22.999  25.736  1.00  0.00     0.021 C 
BRANCH  74  75
ATOM     75  C   UNL A   1      36.042  24.079  25.365  1.00  0.00     0.116 C 
BRANCH  75  76
ATOM     76  N   UNL A   1      35.305  23.675  24.187  1.00  0.00    -0.356 N 
ATOM     77  C   UNL A   1      34.061  23.122  24.192  1.00  0.00     0.227 C 
ATOM     78  H   UNL A   1      35.738  23.810  23.313  1.00  0.00     0.163 HD
ATOM     79  O   UNL A   1      33.901  22.088  23.548  1.00  0.00    -0.275 OA
BRANCH  77  80
ATOM     80  C   UNL A   1      33.004  23.711  25.093  1.00  0.00     0.127 C 
ATOM     81  C   UNL A   1      32.776  22.971  26.440  1.00  0.00     0.127 C 
ATOM     82  C   UNL A   1      31.574  23.705  24.510  1.00  0.00     0.155 C 
ATOM     83  C   UNL A   1      31.263  22.744  26.436  1.00  0.00     0.155 C 
ATOM     84  C   UNL A   1      30.719  24.650  25.308  1.00  0.00     0.004 C 
ATOM     85  O   UNL A   1      31.040  22.466  25.030  1.00  0.00    -0.365 OA
ATOM     86  C   UNL A   1      30.539  24.064  26.501  1.00  0.00     0.004 C 
BRANCH  81  87
ATOM     87  C   UNL A   1      33.577  21.723  26.790  1.00  0.00     0.227 C 
ATOM     88  O   UNL A   1      34.437  21.823  27.679  1.00  0.00    -0.275 OA
ATOM     89  N   UNL A   1      33.440  20.487  26.257  1.00  0.00    -0.352 N 
ATOM     90  H   UNL A   1      34.115  19.858  26.601  1.00  0.00     0.163 HD
BRANCH  89  91
ATOM     91  C   UNL A   1      32.543  19.861  25.302  1.00  0.00     0.151 C 
BRANCH  91  92
ATOM     92  C   UNL A   1      32.913  18.447  24.928  1.00  0.00    -0.026 A 
ATOM     93  C   UNL A   1      32.528  17.374  25.741  1.00  0.00     0.025 A 
ATOM     94  C   UNL A   1      33.686  18.164  23.798  1.00  0.00     0.025 A 
ATOM     95  C   UNL A   1      32.897  16.086  25.377  1.00  0.00     0.111 A 
ATOM     96  C   UNL A   1      34.003  16.842  23.515  1.00  0.00     0.111 A 
ATOM     97  N   UNL A   1      33.619  15.794  24.276  1.00  0.00    -0.265 NA
ENDBRANCH  91  92
ENDBRANCH  89  91
ENDBRANCH  81  87
ENDBRANCH  77  80
ENDBRANCH  75  76
ENDBRANCH  74  75
ENDBRANCH   1  74
TORSDOF 16
ENDMDL
MODEL 3
REMARK VINA RESULT:     -12.4      0.323      1.244
REMARK SMILES O=C(NCCCCCCNC(=O)[C@@H]1[C@H](C(=O)NCc2ccncc2)[C@H]2C=C[C@@H]1O2)c1ccc(-c2c3nc(c(-c4c(F)c(F)c(F)c(F)c4F)c4ccc([nH]4)c(-c4c(F)c(F)c(F)c(F)c4F)c4nc(c(-c5c(F)c(F)c(F)c(F)c5F)c5ccc2[nH]5)C=C4)C=C3)cc1
REMARK SMILES IDX 7 1 6 2 5 3 4 4 3 5 1 6 2 7 30 9 31 10 92 11 32 12 91 13
REMARK SMILES IDX 33 14 34 15 35 16 85 17 36 18 90 19 84 20 86 21 37 22 89 23
REMARK SMILES IDX 83 24 82 25 38 27 70 28 50 29 69 30 51 31 54 32 68 33 87 34
REMARK SMILES IDX 52 35 53 36 67 38 88 39 55 40 39 41 40 42 48 43 41 44 42 45
REMARK SMILES IDX 46 46 49 47 43 48 44 49 47 50 45 51 71 52 72 53 80 54 73 55
REMARK SMILES IDX 74 56 78 57 81 58 75 59 76 60 79 61 77 62 56 63 57 64 65 65
REMARK SMILES IDX 58 66 59 67 63 68 66 69 60 70 61 71 64 72 62 73 8 74 9 75
REMARK SMILES IDX 10 76 11 77 12 79 13 80 14 81 28 82 25 83 27 84 29 85 26 86
REMARK SMILES IDX 15 87 16 88 17 89 18 91 19 92 20 93 24 94 21 95 23 96 22 97
REMARK H PARENT 3 8 86 26 54 37 10 78 17 90
REMARK Flexibility Score: inf
ROOT
ATOM      1  C   UNL A   1      32.781  30.216  26.454  1.00  0.00     0.002 C 
ENDROOT
BRANCH   1   2
ATOM      2  C   UNL A   1      31.438  30.866  26.107  1.00  0.00     0.002 C 
BRANCH   2   3
ATOM      3  C   UNL A   1      31.320  32.335  26.511  1.00  0.00     0.021 C 
BRANCH   3   4
ATOM      4  C   UNL A   1      32.532  32.875  27.260  1.00  0.00     0.116 C 
BRANCH   4   5
ATOM      5  N   UNL A   1      32.346  34.256  27.674  1.00  0.00    -0.352 N 
ATOM      6  O   UNL A   1      32.590  36.058  29.012  1.00  0.00    -0.269 OA
ATOM      7  C   UNL A   1      33.002  34.958  28.649  1.00  0.00     0.251 C 
ATOM      8  H   UNL A   1      31.653  34.755  27.185  1.00  0.00     0.163 HD
BRANCH   7   9
ATOM      9  C   UNL A   1      34.203  34.378  29.284  1.00  0.00     0.039 A 
ATOM     10  C   UNL A   1      35.472  34.580  28.730  1.00  0.00     0.014 A 
ATOM     11  C   UNL A   1      34.054  33.630  30.453  1.00  0.00     0.014 A 
ATOM     12  C   UNL A   1      36.575  33.935  29.278  1.00  0.00     0.010 A 
ATOM     13  C   UNL A   1      35.174  33.046  31.045  1.00  0.00     0.010 A 
ATOM     14  C   UNL A   1      36.439  33.174  30.448  1.00  0.00    -0.014 A 
BRANCH  14  15
ATOM     15  C   UNL A   1      37.628  32.551  31.078  1.00  0.00     0.031 A 
ATOM     16  C   UNL A   1      38.358  31.432  30.397  1.00  0.00     0.074 A 
ATOM     17  C   UNL A   1      38.022  32.978  32.292  1.00  0.00     0.049 A 
ATOM     18  N   UNL A   1      39.351  30.702  30.837  1.00  0.00    -0.248 NA
ATOM     19  C   UNL A   1      37.905  31.078  29.043  1.00  0.00     0.031 C 
ATOM     20  C   UNL A   1      37.389  34.059  33.050  1.00  0.00     0.029 A 
ATOM     21  N   UNL A   1      39.036  32.547  33.109  1.00  0.00    -0.354 N 
ATOM     22  C   UNL A   1      39.626  29.788  29.829  1.00  0.00     0.074 A 
ATOM     23  C   UNL A   1      38.678  30.038  28.764  1.00  0.00     0.031 C 
ATOM     24  C   UNL A   1      38.032  34.211  34.216  1.00  0.00     0.029 A 
ATOM     25  C   UNL A   1      39.076  33.198  34.316  1.00  0.00     0.049 A 
ATOM     26  H   UNL A   1      39.671  31.839  32.854  1.00  0.00     0.167 HD
ATOM     27  C   UNL A   1      40.585  28.830  29.799  1.00  0.00     0.037 A 
ATOM     28  C   UNL A   1      39.845  32.981  35.399  1.00  0.00     0.037 A 
ATOM     29  C   UNL A   1      41.523  28.592  30.866  1.00  0.00     0.049 A 
ATOM     30  C   UNL A   1      40.869  31.884  35.362  1.00  0.00     0.074 A 
ATOM     31  C   UNL A   1      42.556  27.673  30.920  1.00  0.00     0.029 A 
ATOM     32  N   UNL A   1      41.532  29.273  32.077  1.00  0.00    -0.354 N 
ATOM     33  N   UNL A   1      41.146  31.047  34.392  1.00  0.00    -0.248 NA
ATOM     34  C   UNL A   1      41.689  31.702  36.566  1.00  0.00     0.031 C 
ATOM     35  C   UNL A   1      43.149  27.754  32.184  1.00  0.00     0.029 A 
ATOM     36  C   UNL A   1      42.534  28.772  32.895  1.00  0.00     0.049 A 
ATOM     37  H   UNL A   1      40.917  30.002  32.319  1.00  0.00     0.167 HD
ATOM     38  C   UNL A   1      42.191  30.259  34.854  1.00  0.00     0.074 A 
ATOM     39  C   UNL A   1      42.499  30.720  36.192  1.00  0.00     0.031 C 
ATOM     40  C   UNL A   1      42.839  29.251  34.221  1.00  0.00     0.037 A 
BRANCH  27  41
ATOM     41  C   UNL A   1      40.643  27.945  28.586  1.00  0.00     0.064 A 
ATOM     42  C   UNL A   1      41.393  28.286  27.449  1.00  0.00     0.173 A 
ATOM     43  C   UNL A   1      39.947  26.724  28.565  1.00  0.00     0.173 A 
ATOM     44  F   UNL A   1      42.070  29.444  27.411  1.00  0.00    -0.203 F 
ATOM     45  C   UNL A   1      41.410  27.463  26.326  1.00  0.00     0.198 A 
ATOM     46  C   UNL A   1      39.996  25.887  27.454  1.00  0.00     0.198 A 
ATOM     47  F   UNL A   1      39.222  26.341  29.626  1.00  0.00    -0.203 F 
ATOM     48  F   UNL A   1      42.083  27.842  25.230  1.00  0.00    -0.200 F 
ATOM     49  C   UNL A   1      40.717  26.262  26.331  1.00  0.00     0.200 A 
ATOM     50  F   UNL A   1      39.337  24.720  27.466  1.00  0.00    -0.200 F 
ATOM     51  F   UNL A   1      40.733  25.472  25.248  1.00  0.00    -0.200 F 
ENDBRANCH  27  41
BRANCH  28  52
ATOM     52  C   UNL A   1      39.654  33.827  36.605  1.00  0.00     0.064 A 
ATOM     53  C   UNL A   1      40.252  35.089  36.701  1.00  0.00     0.173 A 
ATOM     54  C   UNL A   1      38.831  33.409  37.662  1.00  0.00     0.173 A 
ATOM     55  F   UNL A   1      41.059  35.524  35.722  1.00  0.00    -0.203 F 
ATOM     56  C   UNL A   1      40.039  35.902  37.813  1.00  0.00     0.198 A 
ATOM     57  C   UNL A   1      38.595  34.235  38.759  1.00  0.00     0.198 A 
ATOM     58  F   UNL A   1      38.228  32.212  37.612  1.00  0.00    -0.203 F 
ATOM     59  F   UNL A   1      40.645  37.094  37.894  1.00  0.00    -0.200 F 
ATOM     60  C   UNL A   1      39.203  35.478  38.835  1.00  0.00     0.200 A 
ATOM     61  F   UNL A   1      37.772  33.829  39.735  1.00  0.00    -0.200 F 
ATOM     62  F   UNL A   1      38.986  36.267  39.896  1.00  0.00    -0.200 F 
ENDBRANCH  28  52
BRANCH  40  63
ATOM     63  C   UNL A   1      43.989  28.607  34.941  1.00  0.00     0.064 A 
ATOM     64  C   UNL A   1      43.828  27.444  35.707  1.00  0.00     0.173 A 
ATOM     65  C   UNL A   1      45.284  29.132  34.805  1.00  0.00     0.173 A 
ATOM     66  F   UNL A   1      42.608  26.913  35.881  1.00  0.00    -0.203 F 
ATOM     67  C   UNL A   1      44.920  26.837  36.322  1.00  0.00     0.198 A 
ATOM     68  C   UNL A   1      46.377  28.505  35.396  1.00  0.00     0.198 A 
ATOM     69  F   UNL A   1      45.491  30.241  34.080  1.00  0.00    -0.203 F 
ATOM     70  F   UNL A   1      44.740  25.747  37.081  1.00  0.00    -0.200 F 
ATOM     71  C   UNL A   1      46.194  27.361  36.157  1.00  0.00     0.200 A 
ATOM     72  F   UNL A   1      47.608  29.005  35.223  1.00  0.00    -0.200 F 
ATOM     73  F   UNL A   1      47.246  26.766  36.737  1.00  0.00    -0.200 F 
ENDBRANCH  40  63
ENDBRANCH  14  15
ENDBRANCH   7   9
ENDBRANCH   4   5
ENDBRANCH   3   4
ENDBRANCH   2   3
ENDBRANCH   1   2
BRANCH   1  74
ATOM     74  C   UNL A   1      32.687  28.780  26.991  1.00  0.00     0.021 C 
BRANCH  74  75
ATOM     75  C   UNL A   1      31.619  27.927  26.303  1.00  0.00     0.116 C 
BRANCH  75  76
ATOM     76  N   UNL A   1      31.477  26.666  26.997  1.00  0.00    -0.356 N 
ATOM     77  C   UNL A   1      31.738  25.442  26.460  1.00  0.00     0.227 C 
ATOM     78  H   UNL A   1      31.168  26.694  27.932  1.00  0.00     0.163 HD
ATOM     79  O   UNL A   1      30.872  24.578  26.579  1.00  0.00    -0.275 OA
BRANCH  77  80
ATOM     80  C   UNL A   1      32.985  25.258  25.632  1.00  0.00     0.127 C 
ATOM     81  C   UNL A   1      32.762  25.092  24.103  1.00  0.00     0.127 C 
ATOM     82  C   UNL A   1      33.797  23.985  25.950  1.00  0.00     0.155 C 
ATOM     83  C   UNL A   1      33.543  23.813  23.796  1.00  0.00     0.155 C 
ATOM     84  C   UNL A   1      35.173  24.124  25.360  1.00  0.00     0.004 C 
ATOM     85  O   UNL A   1      33.265  23.040  24.993  1.00  0.00    -0.365 OA
ATOM     86  C   UNL A   1      35.015  24.033  24.031  1.00  0.00     0.004 C 
BRANCH  81  87
ATOM     87  C   UNL A   1      31.357  25.104  23.514  1.00  0.00     0.227 C 
ATOM     88  O   UNL A   1      30.752  24.022  23.450  1.00  0.00    -0.275 OA
ATOM     89  N   UNL A   1      30.666  26.178  23.070  1.00  0.00    -0.352 N 
ATOM     90  H   UNL A   1      29.799  25.925  22.676  1.00  0.00     0.163 HD
BRANCH  89  91
ATOM     91  C   UNL A   1      30.887  27.613  23.031  1.00  0.00     0.151 C 
BRANCH  91  92
ATOM     92  C   UNL A   1      29.627  28.442  23.016  1.00  0.00    -0.026 A 
ATOM     93  C   UNL A   1      28.383  27.847  23.258  1.00  0.00     0.025 A 
ATOM     94  C   UNL A   1      29.649  29.808  22.716  1.00  0.00     0.025 A 
ATOM     95  C   UNL A   1      27.240  28.635  23.222  1.00  0.00     0.111 A 
ATOM     96  C   UNL A   1      28.453  30.512  22.707  1.00  0.00     0.111 A 
ATOM     97  N   UNL A   1      27.248  29.957  22.961  1.00  0.00    -0.265 NA
ENDBRANCH  91  92
ENDBRANCH  89  91
ENDBRANCH  81  87
ENDBRANCH  77  80
ENDBRANCH  75  76
ENDBRANCH  74  75
ENDBRANCH   1  74
TORSDOF 16
ENDMDL
