MODEL 1
REMARK VINA RESULT:     -12.1      0.000      0.000
REMARK SMILES CC(C)Oc1ccc(-c2ccc(/C(=C\c3ccc(S(C)(=O)=O)cc3)C(=O)NCCCCCCNC(=O)c3ccc(-c4c5nc(c(-c6c(F)c(F)c(F)c(F)c6F)c6ccc([nH]6)c(-c6c(F)c(F)c(F)c(F)c6F)c6nc(c(-c7c(F)c(F)c(F)c(F)c7F)c7ccc4[nH]7)C=C6)C=C5)cc3)cc2)cc1
REMARK SMILES IDX 29 1 28 2 27 3 25 4 26 5 13 7 14 8 12 9 9 10 10 11 101 12
REMARK SMILES IDX 11 13 100 14 8 15 5 16 6 17 103 18 7 19 102 20 4 21 2 22
REMARK SMILES IDX 1 23 3 24 15 25 16 26 24 27 17 28 23 29 18 30 19 31 20 32
REMARK SMILES IDX 21 33 22 34 30 35 31 36 32 37 33 38 34 39 35 40 36 42 37 43
REMARK SMILES IDX 38 44 99 45 39 46 98 47 40 48 41 49 42 50 92 51 43 52 97 53
REMARK SMILES IDX 91 54 93 55 44 56 96 57 90 58 89 59 45 61 77 62 57 63 76 64
REMARK SMILES IDX 58 65 61 66 75 67 94 68 59 69 60 70 74 72 95 73 62 74 46 75
REMARK SMILES IDX 47 76 55 77 48 78 49 79 53 80 56 81 50 82 51 83 54 84 52 85
REMARK SMILES IDX 78 86 79 87 87 88 80 89 81 90 85 91 88 92 82 93 83 94 86 95
REMARK SMILES IDX 84 96 63 97 64 98 72 99 65 100 66 101 70 102 73 103 67 104
REMARK SMILES IDX 68 105 71 106 69 107
REMARK H PARENT 27 6 34 41 93 60 61 71
REMARK Flexibility Score: inf
ROOT
ATOM      1  C   UNL A   1      34.873  22.891  25.085  1.00  0.00     0.021 C 
ENDROOT
BRANCH   1   2
ATOM      2  C   UNL A   1      33.665  22.790  24.147  1.00  0.00     0.116 C 
BRANCH   2   3
ATOM      3  N   UNL A   1      32.472  22.525  24.919  1.00  0.00    -0.352 N 
ATOM      4  C   UNL A   1      31.425  23.263  25.367  1.00  0.00     0.251 C 
ATOM      5  O   UNL A   1      30.628  22.620  26.055  1.00  0.00    -0.269 OA
ATOM      6  H   UNL A   1      32.402  21.580  25.186  1.00  0.00     0.163 HD
BRANCH   4   7
ATOM      7  C   UNL A   1      31.175  24.726  25.009  1.00  0.00     0.047 C 
ATOM      8  C   UNL A   1      30.418  25.028  23.926  1.00  0.00     0.022 C 
BRANCH   7   9
ATOM      9  C   UNL A   1      31.928  25.798  25.759  1.00  0.00    -0.013 A 
ATOM     10  C   UNL A   1      33.267  28.126  26.800  1.00  0.00    -0.018 A 
ATOM     11  C   UNL A   1      31.979  27.766  27.218  1.00  0.00     0.009 A 
ATOM     12  C   UNL A   1      33.911  27.232  25.938  1.00  0.00     0.009 A 
ATOM     13  C   UNL A   1      31.350  26.599  26.752  1.00  0.00     0.009 A 
ATOM     14  C   UNL A   1      33.245  26.122  25.403  1.00  0.00     0.009 A 
BRANCH  10  15
ATOM     15  C   UNL A   1      33.906  29.399  27.208  1.00  0.00    -0.018 A 
ATOM     16  C   UNL A   1      35.171  31.822  27.967  1.00  0.00     0.119 A 
ATOM     17  C   UNL A   1      33.823  31.808  27.621  1.00  0.00     0.047 A 
ATOM     18  C   UNL A   1      35.886  30.633  27.970  1.00  0.00     0.047 A 
ATOM     19  C   UNL A   1      33.199  30.612  27.245  1.00  0.00     0.012 A 
ATOM     20  C   UNL A   1      35.266  29.444  27.571  1.00  0.00     0.012 A 
BRANCH  16  21
ATOM     21  O   UNL A   1      35.684  33.005  28.411  1.00  0.00    -0.491 OA
BRANCH  21  22
ATOM     22  C   UNL A   1      35.368  33.427  29.748  1.00  0.00     0.167 C 
ATOM     23  C   UNL A   1      34.189  34.393  29.817  1.00  0.00     0.052 C 
ATOM     24  C   UNL A   1      35.252  32.283  30.754  1.00  0.00     0.052 C 
ENDBRANCH  21  22
ENDBRANCH  16  21
ENDBRANCH  10  15
ENDBRANCH   7   9
BRANCH   8  25
ATOM     25  C   UNL A   1      29.895  26.337  23.500  1.00  0.00    -0.025 A 
ATOM     26  C   UNL A   1      28.547  26.632  23.773  1.00  0.00     0.009 A 
ATOM     27  C   UNL A   1      30.713  27.315  22.927  1.00  0.00     0.009 A 
ATOM     28  C   UNL A   1      28.037  27.910  23.536  1.00  0.00     0.021 A 
ATOM     29  C   UNL A   1      30.207  28.597  22.688  1.00  0.00     0.021 A 
ATOM     30  C   UNL A   1      28.876  28.889  23.002  1.00  0.00     0.067 A 
BRANCH  30  31
ATOM     31  S   UNL A   1      28.268  30.555  22.845  1.00  0.00     0.175 S 
ATOM     32  C   UNL A   1      28.054  30.766  21.098  1.00  0.00     0.163 C 
ATOM     33  O   UNL A   1      26.960  30.591  23.470  1.00  0.00    -0.224 OA
ATOM     34  O   UNL A   1      29.324  31.451  23.275  1.00  0.00    -0.224 OA
ENDBRANCH  30  31
ENDBRANCH   8  25
ENDBRANCH   4   7
ENDBRANCH   2   3
ENDBRANCH   1   2
BRANCH   1  35
ATOM     35  C   UNL A   1      36.204  23.091  24.343  1.00  0.00     0.002 C 
BRANCH  35  36
ATOM     36  C   UNL A   1      37.449  23.031  25.235  1.00  0.00     0.002 C 
BRANCH  36  37
ATOM     37  C   UNL A   1      38.145  21.668  25.264  1.00  0.00     0.021 C 
BRANCH  37  38
ATOM     38  C   UNL A   1      39.204  21.543  26.351  1.00  0.00     0.116 C 
BRANCH  38  39
ATOM     39  N   UNL A   1      40.113  20.442  26.082  1.00  0.00    -0.352 N 
ATOM     40  C   UNL A   1      41.475  20.463  25.926  1.00  0.00     0.251 C 
ATOM     41  H   UNL A   1      39.692  19.555  26.000  1.00  0.00     0.163 HD
ATOM     42  O   UNL A   1      42.060  19.496  25.448  1.00  0.00    -0.269 OA
BRANCH  40  43
ATOM     43  C   UNL A   1      42.237  21.661  26.331  1.00  0.00     0.039 A 
ATOM     44  C   UNL A   1      42.469  22.666  25.390  1.00  0.00     0.014 A 
ATOM     45  C   UNL A   1      42.740  21.781  27.630  1.00  0.00     0.014 A 
ATOM     46  C   UNL A   1      43.171  23.812  25.764  1.00  0.00     0.010 A 
ATOM     47  C   UNL A   1      43.370  22.958  28.023  1.00  0.00     0.010 A 
ATOM     48  C   UNL A   1      43.604  23.978  27.091  1.00  0.00    -0.014 A 
BRANCH  48  49
ATOM     49  C   UNL A   1      44.319  25.208  27.514  1.00  0.00     0.031 A 
ATOM     50  C   UNL A   1      43.604  26.256  28.320  1.00  0.00     0.074 A 
ATOM     51  C   UNL A   1      45.594  25.402  27.126  1.00  0.00     0.049 A 
ATOM     52  N   UNL A   1      44.039  27.417  28.741  1.00  0.00    -0.248 NA
ATOM     53  C   UNL A   1      42.203  25.977  28.677  1.00  0.00     0.031 C 
ATOM     54  C   UNL A   1      46.377  24.478  26.304  1.00  0.00     0.029 A 
ATOM     55  N   UNL A   1      46.455  26.442  27.367  1.00  0.00    -0.354 N 
ATOM     56  C   UNL A   1      42.967  28.005  29.400  1.00  0.00     0.074 A 
ATOM     57  C   UNL A   1      41.844  27.105  29.270  1.00  0.00     0.031 C 
ATOM     58  C   UNL A   1      47.609  24.980  26.132  1.00  0.00     0.029 A 
ATOM     59  C   UNL A   1      47.692  26.277  26.795  1.00  0.00     0.049 A 
ATOM     60  H   UNL A   1      46.208  27.234  27.899  1.00  0.00     0.167 HD
ATOM     61  C   UNL A   1      42.933  29.180  30.075  1.00  0.00     0.037 A 
ATOM     62  C   UNL A   1      48.769  27.084  26.802  1.00  0.00     0.037 A 
ATOM     63  C   UNL A   1      44.061  30.063  30.216  1.00  0.00     0.049 A 
ATOM     64  C   UNL A   1      48.700  28.388  27.550  1.00  0.00     0.074 A 
ATOM     65  C   UNL A   1      44.146  31.249  30.923  1.00  0.00     0.029 A 
ATOM     66  N   UNL A   1      45.304  29.854  29.634  1.00  0.00    -0.354 N 
ATOM     67  N   UNL A   1      47.703  28.904  28.227  1.00  0.00    -0.248 NA
ATOM     68  C   UNL A   1      49.912  29.219  27.542  1.00  0.00     0.031 C 
ATOM     69  C   UNL A   1      45.421  31.787  30.722  1.00  0.00     0.029 A 
ATOM     70  C   UNL A   1      46.154  30.904  29.945  1.00  0.00     0.049 A 
ATOM     71  H   UNL A   1      45.546  29.076  29.081  1.00  0.00     0.167 HD
ATOM     72  C   UNL A   1      48.175  30.098  28.754  1.00  0.00     0.074 A 
ATOM     73  C   UNL A   1      49.554  30.224  28.329  1.00  0.00     0.031 C 
ATOM     74  C   UNL A   1      47.527  31.009  29.522  1.00  0.00     0.037 A 
BRANCH  61  75
ATOM     75  C   UNL A   1      41.631  29.578  30.712  1.00  0.00     0.064 A 
ATOM     76  C   UNL A   1      41.357  29.312  32.063  1.00  0.00     0.173 A 
ATOM     77  C   UNL A   1      40.658  30.267  29.971  1.00  0.00     0.173 A 
ATOM     78  F   UNL A   1      42.247  28.646  32.813  1.00  0.00    -0.203 F 
ATOM     79  C   UNL A   1      40.147  29.691  32.638  1.00  0.00     0.198 A 
ATOM     80  C   UNL A   1      39.464  30.676  30.560  1.00  0.00     0.198 A 
ATOM     81  F   UNL A   1      40.868  30.553  28.678  1.00  0.00    -0.203 F 
ATOM     82  F   UNL A   1      39.887  29.376  33.915  1.00  0.00    -0.200 F 
ATOM     83  C   UNL A   1      39.206  30.379  31.889  1.00  0.00     0.200 A 
ATOM     84  F   UNL A   1      38.562  31.354  29.838  1.00  0.00    -0.200 F 
ATOM     85  F   UNL A   1      38.045  30.751  32.447  1.00  0.00    -0.200 F 
ENDBRANCH  61  75
BRANCH  62  86
ATOM     86  C   UNL A   1      50.012  26.671  26.099  1.00  0.00     0.064 A 
ATOM     87  C   UNL A   1      50.256  27.063  24.775  1.00  0.00     0.173 A 
ATOM     88  C   UNL A   1      50.977  25.871  26.729  1.00  0.00     0.173 A 
ATOM     89  F   UNL A   1      49.356  27.814  24.123  1.00  0.00    -0.203 F 
ATOM     90  C   UNL A   1      51.403  26.650  24.100  1.00  0.00     0.198 A 
ATOM     91  C   UNL A   1      52.139  25.485  26.064  1.00  0.00     0.198 A 
ATOM     92  F   UNL A   1      50.796  25.474  27.998  1.00  0.00    -0.203 F 
ATOM     93  F   UNL A   1      51.585  26.996  22.818  1.00  0.00    -0.200 F 
ATOM     94  C   UNL A   1      52.346  25.865  24.747  1.00  0.00     0.200 A 
ATOM     95  F   UNL A   1      53.055  24.742  26.699  1.00  0.00    -0.200 F 
ATOM     96  F   UNL A   1      53.451  25.471  24.099  1.00  0.00    -0.200 F 
ENDBRANCH  62  86
BRANCH  74  97
ATOM     97  C   UNL A   1      48.315  32.198  29.993  1.00  0.00     0.064 A 
ATOM     98  C   UNL A   1      49.035  32.180  31.197  1.00  0.00     0.173 A 
ATOM     99  C   UNL A   1      48.375  33.362  29.211  1.00  0.00     0.173 A 
ATOM    100  F   UNL A   1      49.000  31.097  31.989  1.00  0.00    -0.203 F 
ATOM    101  C   UNL A   1      49.758  33.293  31.615  1.00  0.00     0.198 A 
ATOM    102  C   UNL A   1      49.129  34.460  29.615  1.00  0.00     0.198 A 
ATOM    103  F   UNL A   1      47.712  33.429  28.047  1.00  0.00    -0.203 F 
ATOM    104  F   UNL A   1      50.392  33.274  32.796  1.00  0.00    -0.200 F 
ATOM    105  C   UNL A   1      49.811  34.430  30.821  1.00  0.00     0.200 A 
ATOM    106  F   UNL A   1      49.192  35.550  28.836  1.00  0.00    -0.200 F 
ATOM    107  F   UNL A   1      50.513  35.498  31.222  1.00  0.00    -0.200 F 
ENDBRANCH  74  97
ENDBRANCH  48  49
ENDBRANCH  40  43
ENDBRANCH  38  39
ENDBRANCH  37  38
ENDBRANCH  36  37
ENDBRANCH  35  36
ENDBRANCH   1  35
TORSDOF 19
ENDMDL
MODEL 2
REMARK VINA RESULT:     -12.0      2.746      7.583
REMARK SMILES CC(C)Oc1ccc(-c2ccc(/C(=C\c3ccc(S(C)(=O)=O)cc3)C(=O)NCCCCCCNC(=O)c3ccc(-c4c5nc(c(-c6c(F)c(F)c(F)c(F)c6F)c6ccc([nH]6)c(-c6c(F)c(F)c(F)c(F)c6F)c6nc(c(-c7c(F)c(F)c(F)c(F)c7F)c7ccc4[nH]7)C=C6)C=C5)cc3)cc2)cc1
REMARK SMILES IDX 29 1 28 2 27 3 25 4 26 5 13 7 14 8 12 9 9 10 10 11 101 12
REMARK SMILES IDX 11 13 100 14 8 15 5 16 6 17 103 18 7 19 102 20 4 21 2 22
REMARK SMILES IDX 1 23 3 24 15 25 16 26 24 27 17 28 23 29 18 30 19 31 20 32
REMARK SMILES IDX 21 33 22 34 30 35 31 36 32 37 33 38 34 39 35 40 36 42 37 43
REMARK SMILES IDX 38 44 99 45 39 46 98 47 40 48 41 49 42 50 92 51 43 52 97 53
REMARK SMILES IDX 91 54 93 55 44 56 96 57 90 58 89 59 45 61 77 62 57 63 76 64
REMARK SMILES IDX 58 65 61 66 75 67 94 68 59 69 60 70 74 72 95 73 62 74 46 75
REMARK SMILES IDX 47 76 55 77 48 78 49 79 53 80 56 81 50 82 51 83 54 84 52 85
REMARK SMILES IDX 78 86 79 87 87 88 80 89 81 90 85 91 88 92 82 93 83 94 86 95
REMARK SMILES IDX 84 96 63 97 64 98 72 99 65 100 66 101 70 102 73 103 67 104
REMARK SMILES IDX 68 105 71 106 69 107
REMARK H PARENT 27 6 34 41 93 60 61 71
REMARK Flexibility Score: inf
ROOT
ATOM      1  C   UNL A   1      35.517  23.332  25.686  1.00  0.00     0.021 C 
ENDROOT
BRANCH   1   2
ATOM      2  C   UNL A   1      34.578  23.201  24.482  1.00  0.00     0.116 C 
BRANCH   2   3
ATOM      3  N   UNL A   1      33.294  22.700  24.919  1.00  0.00    -0.352 N 
ATOM      4  C   UNL A   1      32.071  23.240  25.148  1.00  0.00     0.251 C 
ATOM      5  O   UNL A   1      31.246  22.428  25.574  1.00  0.00    -0.269 OA
ATOM      6  H   UNL A   1      33.312  21.730  25.093  1.00  0.00     0.163 HD
BRANCH   4   7
ATOM      7  C   UNL A   1      31.688  24.686  24.844  1.00  0.00     0.047 C 
ATOM      8  C   UNL A   1      30.894  24.957  23.778  1.00  0.00     0.022 C 
BRANCH   7   9
ATOM      9  C   UNL A   1      32.350  25.795  25.625  1.00  0.00    -0.013 A 
ATOM     10  C   UNL A   1      33.476  28.200  26.742  1.00  0.00    -0.018 A 
ATOM     11  C   UNL A   1      32.246  27.689  27.176  1.00  0.00     0.009 A 
ATOM     12  C   UNL A   1      34.180  27.417  25.821  1.00  0.00     0.009 A 
ATOM     13  C   UNL A   1      31.725  26.486  26.671  1.00  0.00     0.009 A 
ATOM     14  C   UNL A   1      33.615  26.269  25.250  1.00  0.00     0.009 A 
BRANCH  10  15
ATOM     15  C   UNL A   1      33.994  29.512  27.194  1.00  0.00    -0.018 A 
ATOM     16  C   UNL A   1      34.943  32.034  28.082  1.00  0.00     0.119 A 
ATOM     17  C   UNL A   1      35.791  30.932  28.051  1.00  0.00     0.047 A 
ATOM     18  C   UNL A   1      33.634  31.898  27.642  1.00  0.00     0.047 A 
ATOM     19  C   UNL A   1      35.323  29.686  27.614  1.00  0.00     0.012 A 
ATOM     20  C   UNL A   1      33.162  30.647  27.229  1.00  0.00     0.012 A 
BRANCH  16  21
ATOM     21  O   UNL A   1      35.494  33.231  28.429  1.00  0.00    -0.491 OA
BRANCH  21  22
ATOM     22  C   UNL A   1      36.413  33.265  29.535  1.00  0.00     0.167 C 
ATOM     23  C   UNL A   1      37.739  33.942  29.201  1.00  0.00     0.052 C 
ATOM     24  C   UNL A   1      35.802  33.775  30.839  1.00  0.00     0.052 C 
ENDBRANCH  21  22
ENDBRANCH  16  21
ENDBRANCH  10  15
ENDBRANCH   7   9
BRANCH   8  25
ATOM     25  C   UNL A   1      30.252  26.227  23.403  1.00  0.00    -0.025 A 
ATOM     26  C   UNL A   1      28.907  26.422  23.767  1.00  0.00     0.009 A 
ATOM     27  C   UNL A   1      30.958  27.265  22.788  1.00  0.00     0.009 A 
ATOM     28  C   UNL A   1      28.292  27.661  23.579  1.00  0.00     0.021 A 
ATOM     29  C   UNL A   1      30.347  28.509  22.598  1.00  0.00     0.021 A 
ATOM     30  C   UNL A   1      29.022  28.702  23.002  1.00  0.00     0.067 A 
BRANCH  30  31
ATOM     31  S   UNL A   1      28.287  30.320  22.904  1.00  0.00     0.175 S 
ATOM     32  C   UNL A   1      28.109  30.602  21.164  1.00  0.00     0.163 C 
ATOM     33  O   UNL A   1      26.962  30.222  23.486  1.00  0.00    -0.224 OA
ATOM     34  O   UNL A   1      29.255  31.275  23.413  1.00  0.00    -0.224 OA
ENDBRANCH  30  31
ENDBRANCH   8  25
ENDBRANCH   4   7
ENDBRANCH   2   3
ENDBRANCH   1   2
BRANCH   1  35
ATOM     35  C   UNL A   1      36.930  23.801  25.308  1.00  0.00     0.002 C 
BRANCH  35  36
ATOM     36  C   UNL A   1      38.000  23.533  26.372  1.00  0.00     0.002 C 
BRANCH  36  37
ATOM     37  C   UNL A   1      38.703  24.788  26.897  1.00  0.00     0.021 C 
BRANCH  37  38
ATOM     38  C   UNL A   1      40.090  25.005  26.309  1.00  0.00     0.116 C 
BRANCH  38  39
ATOM     39  N   UNL A   1      40.872  23.780  26.325  1.00  0.00    -0.352 N 
ATOM     40  C   UNL A   1      42.222  23.614  26.157  1.00  0.00     0.251 C 
ATOM     41  H   UNL A   1      40.360  22.953  26.478  1.00  0.00     0.163 HD
ATOM     42  O   UNL A   1      42.688  22.500  25.940  1.00  0.00    -0.269 OA
BRANCH  40  43
ATOM     43  C   UNL A   1      43.117  24.786  26.232  1.00  0.00     0.039 A 
ATOM     44  C   UNL A   1      43.670  25.138  27.465  1.00  0.00     0.014 A 
ATOM     45  C   UNL A   1      43.390  25.549  25.092  1.00  0.00     0.014 A 
ATOM     46  C   UNL A   1      44.533  26.231  27.546  1.00  0.00     0.010 A 
ATOM     47  C   UNL A   1      44.312  26.589  25.159  1.00  0.00     0.010 A 
ATOM     48  C   UNL A   1      44.881  26.949  26.389  1.00  0.00    -0.014 A 
BRANCH  48  49
ATOM     49  C   UNL A   1      45.827  28.091  26.453  1.00  0.00     0.031 A 
ATOM     50  C   UNL A   1      47.300  27.861  26.267  1.00  0.00     0.074 A 
ATOM     51  C   UNL A   1      45.361  29.324  26.731  1.00  0.00     0.049 A 
ATOM     52  N   UNL A   1      48.288  28.718  26.335  1.00  0.00    -0.248 NA
ATOM     53  C   UNL A   1      47.726  26.478  25.994  1.00  0.00     0.031 C 
ATOM     54  C   UNL A   1      43.959  29.662  26.978  1.00  0.00     0.029 A 
ATOM     55  N   UNL A   1      46.019  30.521  26.860  1.00  0.00    -0.354 N 
ATOM     56  C   UNL A   1      49.444  27.979  26.125  1.00  0.00     0.074 A 
ATOM     57  C   UNL A   1      49.045  26.596  25.990  1.00  0.00     0.031 C 
ATOM     58  C   UNL A   1      43.858  30.982  27.200  1.00  0.00     0.029 A 
ATOM     59  C   UNL A   1      45.190  31.576  27.153  1.00  0.00     0.049 A 
ATOM     60  H   UNL A   1      46.993  30.615  26.752  1.00  0.00     0.167 HD
ATOM     61  C   UNL A   1      50.722  28.419  26.030  1.00  0.00     0.037 A 
ATOM     62  C   UNL A   1      45.475  32.874  27.365  1.00  0.00     0.037 A 
ATOM     63  C   UNL A   1      51.110  29.801  26.147  1.00  0.00     0.049 A 
ATOM     64  C   UNL A   1      46.904  33.334  27.263  1.00  0.00     0.074 A 
ATOM     65  C   UNL A   1      52.370  30.358  26.014  1.00  0.00     0.029 A 
ATOM     66  N   UNL A   1      50.240  30.844  26.431  1.00  0.00    -0.354 N 
ATOM     67  N   UNL A   1      47.982  32.638  26.997  1.00  0.00    -0.248 NA
ATOM     68  C   UNL A   1      47.154  34.766  27.483  1.00  0.00     0.031 C 
ATOM     69  C   UNL A   1      52.271  31.728  26.272  1.00  0.00     0.029 A 
ATOM     70  C   UNL A   1      50.940  32.038  26.501  1.00  0.00     0.049 A 
ATOM     71  H   UNL A   1      49.269  30.749  26.563  1.00  0.00     0.167 HD
ATOM     72  C   UNL A   1      49.031  33.548  26.982  1.00  0.00     0.074 A 
ATOM     73  C   UNL A   1      48.456  34.850  27.252  1.00  0.00     0.031 C 
ATOM     74  C   UNL A   1      50.351  33.327  26.762  1.00  0.00     0.037 A 
BRANCH  61  75
ATOM     75  C   UNL A   1      51.795  27.395  25.785  1.00  0.00     0.064 A 
ATOM     76  C   UNL A   1      52.117  26.957  24.491  1.00  0.00     0.173 A 
ATOM     77  C   UNL A   1      52.534  26.870  26.856  1.00  0.00     0.173 A 
ATOM     78  F   UNL A   1      51.435  27.417  23.433  1.00  0.00    -0.203 F 
ATOM     79  C   UNL A   1      53.117  26.010  24.283  1.00  0.00     0.198 A 
ATOM     80  C   UNL A   1      53.556  25.949  26.640  1.00  0.00     0.198 A 
ATOM     81  F   UNL A   1      52.272  27.256  28.114  1.00  0.00    -0.203 F 
ATOM     82  F   UNL A   1      53.368  25.566  23.042  1.00  0.00    -0.200 F 
ATOM     83  C   UNL A   1      53.840  25.513  25.355  1.00  0.00     0.200 A 
ATOM     84  F   UNL A   1      54.264  25.481  27.677  1.00  0.00    -0.200 F 
ATOM     85  F   UNL A   1      54.807  24.608  25.151  1.00  0.00    -0.200 F 
ENDBRANCH  61  75
BRANCH  62  86
ATOM     86  C   UNL A   1      44.382  33.835  27.670  1.00  0.00     0.064 A 
ATOM     87  C   UNL A   1      43.829  33.915  28.956  1.00  0.00     0.173 A 
ATOM     88  C   UNL A   1      43.862  34.686  26.683  1.00  0.00     0.173 A 
ATOM     89  F   UNL A   1      44.280  33.110  29.929  1.00  0.00    -0.203 F 
ATOM     90  C   UNL A   1      42.781  34.789  29.237  1.00  0.00     0.198 A 
ATOM     91  C   UNL A   1      42.835  35.583  26.974  1.00  0.00     0.198 A 
ATOM     92  F   UNL A   1      44.359  34.655  25.438  1.00  0.00    -0.203 F 
ATOM     93  F   UNL A   1      42.236  34.807  30.461  1.00  0.00    -0.200 F 
ATOM     94  C   UNL A   1      42.289  35.626  28.247  1.00  0.00     0.200 A 
ATOM     95  F   UNL A   1      42.375  36.402  26.018  1.00  0.00    -0.200 F 
ATOM     96  F   UNL A   1      41.283  36.470  28.518  1.00  0.00    -0.200 F 
ENDBRANCH  62  86
BRANCH  74  97
ATOM     97  C   UNL A   1      51.258  34.524  26.756  1.00  0.00     0.064 A 
ATOM     98  C   UNL A   1      51.474  35.284  25.597  1.00  0.00     0.173 A 
ATOM     99  C   UNL A   1      51.895  34.934  27.938  1.00  0.00     0.173 A 
ATOM    100  F   UNL A   1      50.901  34.927  24.438  1.00  0.00    -0.203 F 
ATOM    101  C   UNL A   1      52.320  36.390  25.614  1.00  0.00     0.198 A 
ATOM    102  C   UNL A   1      52.711  36.061  27.960  1.00  0.00     0.198 A 
ATOM    103  F   UNL A   1      51.715  34.248  29.077  1.00  0.00    -0.203 F 
ATOM    104  F   UNL A   1      52.558  37.067  24.482  1.00  0.00    -0.200 F 
ATOM    105  C   UNL A   1      52.932  36.782  26.797  1.00  0.00     0.200 A 
ATOM    106  F   UNL A   1      53.287  36.449  29.107  1.00  0.00    -0.200 F 
ATOM    107  F   UNL A   1      53.740  37.851  26.812  1.00  0.00    -0.200 F 
ENDBRANCH  74  97
ENDBRANCH  48  49
ENDBRANCH  40  43
ENDBRANCH  38  39
ENDBRANCH  37  38
ENDBRANCH  36  37
ENDBRANCH  35  36
ENDBRANCH   1  35
TORSDOF 19
ENDMDL
MODEL 3
REMARK VINA RESULT:     -11.7      5.325     10.925
REMARK SMILES CC(C)Oc1ccc(-c2ccc(/C(=C\c3ccc(S(C)(=O)=O)cc3)C(=O)NCCCCCCNC(=O)c3ccc(-c4c5nc(c(-c6c(F)c(F)c(F)c(F)c6F)c6ccc([nH]6)c(-c6c(F)c(F)c(F)c(F)c6F)c6nc(c(-c7c(F)c(F)c(F)c(F)c7F)c7ccc4[nH]7)C=C6)C=C5)cc3)cc2)cc1
REMARK SMILES IDX 29 1 28 2 27 3 25 4 26 5 13 7 14 8 12 9 9 10 10 11 101 12
REMARK SMILES IDX 11 13 100 14 8 15 5 16 6 17 103 18 7 19 102 20 4 21 2 22
REMARK SMILES IDX 1 23 3 24 15 25 16 26 24 27 17 28 23 29 18 30 19 31 20 32
REMARK SMILES IDX 21 33 22 34 30 35 31 36 32 37 33 38 34 39 35 40 36 42 37 43
REMARK SMILES IDX 38 44 99 45 39 46 98 47 40 48 41 49 42 50 92 51 43 52 97 53
REMARK SMILES IDX 91 54 93 55 44 56 96 57 90 58 89 59 45 61 77 62 57 63 76 64
REMARK SMILES IDX 58 65 61 66 75 67 94 68 59 69 60 70 74 72 95 73 62 74 46 75
REMARK SMILES IDX 47 76 55 77 48 78 49 79 53 80 56 81 50 82 51 83 54 84 52 85
REMARK SMILES IDX 78 86 79 87 87 88 80 89 81 90 85 91 88 92 82 93 83 94 86 95
REMARK SMILES IDX 84 96 63 97 64 98 72 99 65 100 66 101 70 102 73 103 67 104
REMARK SMILES IDX 68 105 71 106 69 107
REMARK H PARENT 27 6 34 41 93 60 61 71
REMARK Flexibility Score: inf
ROOT
ATOM      1  C   UNL A   1      35.563  32.561  32.029  1.00  0.00     0.021 C 
ENDROOT
BRANCH   1   2
ATOM      2  C   UNL A   1      35.941  33.692  32.992  1.00  0.00     0.116 C 
BRANCH   2   3
ATOM      3  N   UNL A   1      37.304  34.107  32.742  1.00  0.00    -0.352 N 
ATOM      4  C   UNL A   1      38.451  34.149  33.465  1.00  0.00     0.251 C 
ATOM      5  O   UNL A   1      39.402  34.639  32.851  1.00  0.00    -0.269 OA
ATOM      6  H   UNL A   1      37.429  34.440  31.824  1.00  0.00     0.163 HD
BRANCH   4   7
ATOM      7  C   UNL A   1      38.614  33.582  34.873  1.00  0.00     0.047 C 
ATOM      8  C   UNL A   1      38.330  34.363  35.944  1.00  0.00     0.022 C 
BRANCH   7   9
ATOM      9  C   UNL A   1      39.260  32.229  35.043  1.00  0.00    -0.013 A 
ATOM     10  C   UNL A   1      40.796  29.792  35.010  1.00  0.00    -0.018 A 
ATOM     11  C   UNL A   1      41.004  30.783  35.978  1.00  0.00     0.009 A 
ATOM     12  C   UNL A   1      39.727  29.999  34.133  1.00  0.00     0.009 A 
ATOM     13  C   UNL A   1      40.216  31.946  36.027  1.00  0.00     0.009 A 
ATOM     14  C   UNL A   1      39.006  31.200  34.126  1.00  0.00     0.009 A 
BRANCH  10  15
ATOM     15  C   UNL A   1      41.678  28.608  34.886  1.00  0.00    -0.018 A 
ATOM     16  C   UNL A   1      43.335  26.315  34.678  1.00  0.00     0.119 A 
ATOM     17  C   UNL A   1      43.142  27.148  33.581  1.00  0.00     0.047 A 
ATOM     18  C   UNL A   1      42.736  26.634  35.889  1.00  0.00     0.047 A 
ATOM     19  C   UNL A   1      42.323  28.279  33.683  1.00  0.00     0.012 A 
ATOM     20  C   UNL A   1      41.899  27.751  35.981  1.00  0.00     0.012 A 
BRANCH  16  21
ATOM     21  O   UNL A   1      44.218  25.287  34.529  1.00  0.00    -0.491 OA
BRANCH  21  22
ATOM     22  C   UNL A   1      43.777  24.100  33.849  1.00  0.00     0.167 C 
ATOM     23  C   UNL A   1      44.500  23.852  32.528  1.00  0.00     0.052 C 
ATOM     24  C   UNL A   1      43.724  22.856  34.735  1.00  0.00     0.052 C 
ENDBRANCH  21  22
ENDBRANCH  16  21
ENDBRANCH  10  15
ENDBRANCH   7   9
BRANCH   8  25
ATOM     25  C   UNL A   1      38.234  33.985  37.364  1.00  0.00    -0.025 A 
ATOM     26  C   UNL A   1      37.237  33.065  37.738  1.00  0.00     0.009 A 
ATOM     27  C   UNL A   1      39.150  34.435  38.318  1.00  0.00     0.009 A 
ATOM     28  C   UNL A   1      37.195  32.550  39.035  1.00  0.00     0.021 A 
ATOM     29  C   UNL A   1      39.114  33.922  39.619  1.00  0.00     0.021 A 
ATOM     30  C   UNL A   1      38.143  32.976  39.967  1.00  0.00     0.067 A 
BRANCH  30  31
ATOM     31  S   UNL A   1      38.183  32.206  41.571  1.00  0.00     0.175 S 
ATOM     32  C   UNL A   1      36.543  31.567  41.778  1.00  0.00     0.163 C 
ATOM     33  O   UNL A   1      39.099  31.086  41.483  1.00  0.00    -0.224 OA
ATOM     34  O   UNL A   1      38.380  33.253  42.557  1.00  0.00    -0.224 OA
ENDBRANCH  30  31
ENDBRANCH   8  25
ENDBRANCH   4   7
ENDBRANCH   2   3
ENDBRANCH   1   2
BRANCH   1  35
ATOM     35  C   UNL A   1      35.578  32.989  30.553  1.00  0.00     0.002 C 
BRANCH  35  36
ATOM     36  C   UNL A   1      34.433  33.924  30.146  1.00  0.00     0.002 C 
BRANCH  36  37
ATOM     37  C   UNL A   1      34.041  33.843  28.668  1.00  0.00     0.021 C 
BRANCH  37  38
ATOM     38  C   UNL A   1      34.789  32.766  27.893  1.00  0.00     0.116 C 
BRANCH  38  39
ATOM     39  N   UNL A   1      34.025  31.532  27.830  1.00  0.00    -0.352 N 
ATOM     40  C   UNL A   1      34.474  30.237  27.818  1.00  0.00     0.251 C 
ATOM     41  H   UNL A   1      33.047  31.640  27.789  1.00  0.00     0.163 HD
ATOM     42  O   UNL A   1      33.721  29.322  27.500  1.00  0.00    -0.269 OA
BRANCH  40  43
ATOM     43  C   UNL A   1      35.875  29.947  28.183  1.00  0.00     0.039 A 
ATOM     44  C   UNL A   1      36.159  29.497  29.474  1.00  0.00     0.014 A 
ATOM     45  C   UNL A   1      36.908  30.140  27.260  1.00  0.00     0.014 A 
ATOM     46  C   UNL A   1      37.475  29.201  29.827  1.00  0.00     0.010 A 
ATOM     47  C   UNL A   1      38.208  29.769  27.588  1.00  0.00     0.010 A 
ATOM     48  C   UNL A   1      38.507  29.310  28.878  1.00  0.00    -0.014 A 
BRANCH  48  49
ATOM     49  C   UNL A   1      39.907  28.961  29.227  1.00  0.00     0.031 A 
ATOM     50  C   UNL A   1      40.739  29.912  30.042  1.00  0.00     0.074 A 
ATOM     51  C   UNL A   1      40.440  27.814  28.767  1.00  0.00     0.049 A 
ATOM     52  N   UNL A   1      41.992  29.811  30.407  1.00  0.00    -0.248 NA
ATOM     53  C   UNL A   1      40.086  31.156  30.482  1.00  0.00     0.031 C 
ATOM     54  C   UNL A   1      39.745  26.836  27.929  1.00  0.00     0.029 A 
ATOM     55  N   UNL A   1      41.693  27.280  28.932  1.00  0.00    -0.354 N 
ATOM     56  C   UNL A   1      42.276  30.977  31.107  1.00  0.00     0.074 A 
ATOM     57  C   UNL A   1      41.088  31.799  31.062  1.00  0.00     0.031 C 
ATOM     58  C   UNL A   1      40.571  25.808  27.677  1.00  0.00     0.029 A 
ATOM     59  C   UNL A   1      41.864  26.073  28.299  1.00  0.00     0.049 A 
ATOM     60  H   UNL A   1      42.402  27.720  29.455  1.00  0.00     0.167 HD
ATOM     61  C   UNL A   1      43.419  31.318  31.749  1.00  0.00     0.037 A 
ATOM     62  C   UNL A   1      42.946  25.275  28.226  1.00  0.00     0.037 A 
ATOM     63  C   UNL A   1      44.593  30.486  31.806  1.00  0.00     0.049 A 
ATOM     64  C   UNL A   1      44.205  25.684  28.940  1.00  0.00     0.074 A 
ATOM     65  C   UNL A   1      45.783  30.716  32.474  1.00  0.00     0.029 A 
ATOM     66  N   UNL A   1      44.725  29.263  31.163  1.00  0.00    -0.354 N 
ATOM     67  N   UNL A   1      44.442  26.756  29.655  1.00  0.00    -0.248 NA
ATOM     68  C   UNL A   1      45.347  24.764  28.843  1.00  0.00     0.031 C 
ATOM     69  C   UNL A   1      46.654  29.660  32.190  1.00  0.00     0.029 A 
ATOM     70  C   UNL A   1      45.985  28.739  31.399  1.00  0.00     0.049 A 
ATOM     71  H   UNL A   1      44.026  28.832  30.620  1.00  0.00     0.167 HD
ATOM     72  C   UNL A   1      45.743  26.625  30.123  1.00  0.00     0.074 A 
ATOM     73  C   UNL A   1      46.239  25.361  29.621  1.00  0.00     0.031 C 
ATOM     74  C   UNL A   1      46.461  27.474  30.899  1.00  0.00     0.037 A 
BRANCH  61  75
ATOM     75  C   UNL A   1      43.455  32.650  32.445  1.00  0.00     0.064 A 
ATOM     76  C   UNL A   1      43.405  32.755  33.844  1.00  0.00     0.173 A 
ATOM     77  C   UNL A   1      43.576  33.836  31.704  1.00  0.00     0.173 A 
ATOM     78  F   UNL A   1      43.278  31.655  34.599  1.00  0.00    -0.203 F 
ATOM     79  C   UNL A   1      43.443  33.998  34.472  1.00  0.00     0.198 A 
ATOM     80  C   UNL A   1      43.649  35.074  32.338  1.00  0.00     0.198 A 
ATOM     81  F   UNL A   1      43.633  33.795  30.365  1.00  0.00    -0.203 F 
ATOM     82  F   UNL A   1      43.338  34.075  35.806  1.00  0.00    -0.200 F 
ATOM     83  C   UNL A   1      43.573  35.155  33.720  1.00  0.00     0.200 A 
ATOM     84  F   UNL A   1      43.789  36.190  31.610  1.00  0.00    -0.200 F 
ATOM     85  F   UNL A   1      43.618  36.349  34.327  1.00  0.00    -0.200 F 
ENDBRANCH  61  75
BRANCH  62  86
ATOM     86  C   UNL A   1      42.876  23.998  27.468  1.00  0.00     0.064 A 
ATOM     87  C   UNL A   1      42.523  22.799  28.104  1.00  0.00     0.173 A 
ATOM     88  C   UNL A   1      43.169  23.945  26.097  1.00  0.00     0.173 A 
ATOM     89  F   UNL A   1      42.251  22.794  29.417  1.00  0.00    -0.203 F 
ATOM     90  C   UNL A   1      42.490  21.594  27.404  1.00  0.00     0.198 A 
ATOM     91  C   UNL A   1      43.105  22.745  25.391  1.00  0.00     0.198 A 
ATOM     92  F   UNL A   1      43.506  25.064  25.438  1.00  0.00    -0.203 F 
ATOM     93  F   UNL A   1      42.200  20.456  28.049  1.00  0.00    -0.200 F 
ATOM     94  C   UNL A   1      42.777  21.569  26.048  1.00  0.00     0.200 A 
ATOM     95  F   UNL A   1      43.365  22.729  24.077  1.00  0.00    -0.200 F 
ATOM     96  F   UNL A   1      42.742  20.411  25.375  1.00  0.00    -0.200 F 
ENDBRANCH  62  86
BRANCH  74  97
ATOM     97  C   UNL A   1      47.845  27.041  31.295  1.00  0.00     0.064 A 
ATOM     98  C   UNL A   1      48.078  26.254  32.432  1.00  0.00     0.173 A 
ATOM     99  C   UNL A   1      48.949  27.395  30.504  1.00  0.00     0.173 A 
ATOM    100  F   UNL A   1      47.059  25.900  33.230  1.00  0.00    -0.203 F 
ATOM    101  C   UNL A   1      49.369  25.865  32.780  1.00  0.00     0.198 A 
ATOM    102  C   UNL A   1      50.234  26.974  30.835  1.00  0.00     0.198 A 
ATOM    103  F   UNL A   1      48.780  28.140  29.401  1.00  0.00    -0.203 F 
ATOM    104  F   UNL A   1      49.575  25.162  33.902  1.00  0.00    -0.200 F 
ATOM    105  C   UNL A   1      50.444  26.219  31.978  1.00  0.00     0.200 A 
ATOM    106  F   UNL A   1      51.268  27.302  30.048  1.00  0.00    -0.200 F 
ATOM    107  F   UNL A   1      51.685  25.838  32.311  1.00  0.00    -0.200 F 
ENDBRANCH  74  97
ENDBRANCH  48  49
ENDBRANCH  40  43
ENDBRANCH  38  39
ENDBRANCH  37  38
ENDBRANCH  36  37
ENDBRANCH  35  36
ENDBRANCH   1  35
TORSDOF 19
ENDMDL
