MODEL 1
REMARK VINA RESULT:      -9.7      0.000      0.000
REMARK SMILES CC[C@@H](O)CC[C@H]([NH3+])C(=O)NCCCCCCNC(=O)c1ccc(-c2c3nc(c(-c4c(F)c(F)c(F)c(F)c4F)c4ccc([nH]4)c(-c4c(F)c(F)c(F)c(F)c4F)c4nc(c(-c5c(F)c(F)c(F)c(F)c5F)c5ccc2[nH]5)C=C4)C=C3)cc1
REMARK SMILES IDX 13 1 12 2 11 3 9 4 10 5 7 7 6 8 5 9 3 10 2 11 1 12 4 13 8 15
REMARK SMILES IDX 14 19 15 20 16 21 17 22 18 23 19 24 20 26 21 27 22 28 83 29
REMARK SMILES IDX 23 30 82 31 24 32 25 33 26 34 76 35 27 36 81 37 75 38 77 39
REMARK SMILES IDX 28 40 80 41 74 42 73 43 29 45 61 46 41 47 60 48 42 49 45 50
REMARK SMILES IDX 59 51 78 52 43 53 44 54 58 56 79 57 46 58 30 59 31 60 39 61
REMARK SMILES IDX 32 62 33 63 37 64 40 65 34 66 35 67 38 68 36 69 62 70 63 71
REMARK SMILES IDX 71 72 64 73 65 74 69 75 72 76 66 77 67 78 70 79 68 80 47 81
REMARK SMILES IDX 48 82 56 83 49 84 50 85 54 86 57 87 51 88 52 89 55 90 53 91
REMARK H PARENT 11 6 4 14 8 16 8 17 8 18 18 25 77 44 45 55
REMARK Flexibility Score: inf
ROOT
ATOM      1  C   UNL A   1      44.071  24.471  27.089  1.00  0.00     0.021 C 
ENDROOT
BRANCH   1   2
ATOM      2  C   UNL A   1      45.436  23.798  27.073  1.00  0.00     0.116 C 
BRANCH   2   3
ATOM      3  N   UNL A   1      46.251  24.118  25.924  1.00  0.00    -0.351 N 
ATOM      4  C   UNL A   1      46.295  23.472  24.718  1.00  0.00     0.278 C 
ATOM      5  O   UNL A   1      47.019  23.941  23.834  1.00  0.00    -0.268 OA
ATOM      6  H   UNL A   1      46.847  24.896  26.020  1.00  0.00     0.163 HD
BRANCH   4   7
ATOM      7  C   UNL A   1      45.508  22.151  24.479  1.00  0.00     0.271 C 
BRANCH   7   8
ATOM      8  C   UNL A   1      46.399  20.891  24.593  1.00  0.00     0.078 C 
BRANCH   8   9
ATOM      9  C   UNL A   1      45.735  19.523  24.358  1.00  0.00     0.038 C 
BRANCH   9  10
ATOM     10  C   UNL A   1      44.925  18.938  25.528  1.00  0.00     0.114 C 
BRANCH  10  11
ATOM     11  C   UNL A   1      43.416  18.849  25.254  1.00  0.00     0.028 C 
ATOM     12  C   UNL A   1      42.662  18.241  26.434  1.00  0.00     0.006 C 
ENDBRANCH  10  11
BRANCH  10  13
ATOM     13  O   UNL A   1      45.421  17.616  25.762  1.00  0.00    -0.393 OA
ATOM     14  H   UNL A   1      45.019  17.003  25.126  1.00  0.00     0.210 HD
ENDBRANCH  10  13
ENDBRANCH   9  10
ENDBRANCH   8   9
ENDBRANCH   7   8
BRANCH   7  15
ATOM     15  N   UNL A   1      44.728  22.284  23.233  1.00  0.00    -0.347 N 
ATOM     16  H   UNL A   1      44.510  23.267  23.072  1.00  0.00     0.345 HD
ATOM     17  H   UNL A   1      43.862  21.751  23.315  1.00  0.00     0.345 HD
ATOM     18  H   UNL A   1      45.275  21.924  22.450  1.00  0.00     0.345 HD
ENDBRANCH   7  15
ENDBRANCH   4   7
ENDBRANCH   2   3
ENDBRANCH   1   2
BRANCH   1  19
ATOM     19  C   UNL A   1      43.128  24.027  28.205  1.00  0.00     0.002 C 
BRANCH  19  20
ATOM     20  C   UNL A   1      43.082  22.524  28.497  1.00  0.00     0.002 C 
BRANCH  20  21
ATOM     21  C   UNL A   1      42.224  21.667  27.559  1.00  0.00     0.021 C 
BRANCH  21  22
ATOM     22  C   UNL A   1      41.859  22.297  26.217  1.00  0.00     0.116 C 
BRANCH  22  23
ATOM     23  N   UNL A   1      40.444  22.184  25.905  1.00  0.00    -0.352 N 
ATOM     24  C   UNL A   1      39.396  23.021  26.198  1.00  0.00     0.251 C 
ATOM     25  H   UNL A   1      40.196  21.375  25.402  1.00  0.00     0.163 HD
ATOM     26  O   UNL A   1      38.246  22.660  25.966  1.00  0.00    -0.269 OA
BRANCH  24  27
ATOM     27  C   UNL A   1      39.629  24.343  26.820  1.00  0.00     0.039 A 
ATOM     28  C   UNL A   1      39.176  24.554  28.127  1.00  0.00     0.014 A 
ATOM     29  C   UNL A   1      40.260  25.380  26.127  1.00  0.00     0.014 A 
ATOM     30  C   UNL A   1      39.432  25.771  28.767  1.00  0.00     0.010 A 
ATOM     31  C   UNL A   1      40.566  26.572  26.785  1.00  0.00     0.010 A 
ATOM     32  C   UNL A   1      40.172  26.771  28.117  1.00  0.00    -0.014 A 
BRANCH  32  33
ATOM     33  C   UNL A   1      40.602  27.998  28.838  1.00  0.00     0.031 A 
ATOM     34  C   UNL A   1      41.982  28.108  29.418  1.00  0.00     0.074 A 
ATOM     35  C   UNL A   1      39.708  28.987  29.037  1.00  0.00     0.049 A 
ATOM     36  N   UNL A   1      42.496  29.061  30.156  1.00  0.00    -0.248 NA
ATOM     37  C   UNL A   1      42.901  26.992  29.153  1.00  0.00     0.031 C 
ATOM     38  C   UNL A   1      38.327  28.984  28.552  1.00  0.00     0.029 A 
ATOM     39  N   UNL A   1      39.820  30.177  29.712  1.00  0.00    -0.354 N 
ATOM     40  C   UNL A   1      43.792  28.660  30.447  1.00  0.00     0.074 A 
ATOM     41  C   UNL A   1      43.973  27.356  29.843  1.00  0.00     0.031 C 
ATOM     42  C   UNL A   1      37.723  30.119  28.936  1.00  0.00     0.029 A 
ATOM     43  C   UNL A   1      38.657  30.909  29.734  1.00  0.00     0.049 A 
ATOM     44  H   UNL A   1      40.653  30.478  30.140  1.00  0.00     0.167 HD
ATOM     45  C   UNL A   1      44.746  29.326  31.141  1.00  0.00     0.037 A 
ATOM     46  C   UNL A   1      38.366  32.073  30.344  1.00  0.00     0.037 A 
ATOM     47  C   UNL A   1      44.564  30.629  31.729  1.00  0.00     0.049 A 
ATOM     48  C   UNL A   1      39.430  32.769  31.148  1.00  0.00     0.074 A 
ATOM     49  C   UNL A   1      45.494  31.415  32.388  1.00  0.00     0.029 A 
ATOM     50  N   UNL A   1      43.369  31.332  31.740  1.00  0.00    -0.354 N 
ATOM     51  N   UNL A   1      40.674  32.414  31.354  1.00  0.00    -0.248 NA
ATOM     52  C   UNL A   1      39.047  34.024  31.810  1.00  0.00     0.031 C 
ATOM     53  C   UNL A   1      44.846  32.566  32.850  1.00  0.00     0.029 A 
ATOM     54  C   UNL A   1      43.526  32.523  32.432  1.00  0.00     0.049 A 
ATOM     55  H   UNL A   1      42.531  31.030  31.319  1.00  0.00     0.167 HD
ATOM     56  C   UNL A   1      41.227  33.407  32.151  1.00  0.00     0.074 A 
ATOM     57  C   UNL A   1      40.188  34.390  32.375  1.00  0.00     0.031 C 
ATOM     58  C   UNL A   1      42.482  33.491  32.656  1.00  0.00     0.037 A 
BRANCH  45  59
ATOM     59  C   UNL A   1      46.080  28.658  31.311  1.00  0.00     0.064 A 
ATOM     60  C   UNL A   1      46.339  27.791  32.384  1.00  0.00     0.173 A 
ATOM     61  C   UNL A   1      47.095  28.841  30.360  1.00  0.00     0.173 A 
ATOM     62  F   UNL A   1      45.404  27.585  33.325  1.00  0.00    -0.203 F 
ATOM     63  C   UNL A   1      47.572  27.156  32.513  1.00  0.00     0.198 A 
ATOM     64  C   UNL A   1      48.317  28.182  30.476  1.00  0.00     0.198 A 
ATOM     65  F   UNL A   1      46.898  29.651  29.309  1.00  0.00    -0.203 F 
ATOM     66  F   UNL A   1      47.810  26.368  33.570  1.00  0.00    -0.200 F 
ATOM     67  C   UNL A   1      48.556  27.346  31.555  1.00  0.00     0.200 A 
ATOM     68  F   UNL A   1      49.261  28.354  29.541  1.00  0.00    -0.200 F 
ATOM     69  F   UNL A   1      49.738  26.726  31.675  1.00  0.00    -0.200 F 
ENDBRANCH  45  59
BRANCH  46  70
ATOM     70  C   UNL A   1      37.001  32.652  30.223  1.00  0.00     0.064 A 
ATOM     71  C   UNL A   1      36.624  33.371  29.081  1.00  0.00     0.173 A 
ATOM     72  C   UNL A   1      36.050  32.498  31.242  1.00  0.00     0.173 A 
ATOM     73  F   UNL A   1      37.506  33.564  28.089  1.00  0.00    -0.203 F 
ATOM     74  C   UNL A   1      35.351  33.928  28.970  1.00  0.00     0.198 A 
ATOM     75  C   UNL A   1      34.768  33.029  31.117  1.00  0.00     0.198 A 
ATOM     76  F   UNL A   1      36.360  31.816  32.354  1.00  0.00    -0.203 F 
ATOM     77  F   UNL A   1      35.031  34.649  27.887  1.00  0.00    -0.200 F 
ATOM     78  C   UNL A   1      34.422  33.751  29.985  1.00  0.00     0.200 A 
ATOM     79  F   UNL A   1      33.870  32.842  32.093  1.00  0.00    -0.200 F 
ATOM     80  F   UNL A   1      33.197  34.281  29.874  1.00  0.00    -0.200 F 
ENDBRANCH  46  70
BRANCH  58  81
ATOM     81  C   UNL A   1      42.808  34.692  33.496  1.00  0.00     0.064 A 
ATOM     82  C   UNL A   1      43.179  35.913  32.913  1.00  0.00     0.173 A 
ATOM     83  C   UNL A   1      42.700  34.638  34.894  1.00  0.00     0.173 A 
ATOM     84  F   UNL A   1      43.313  36.013  31.581  1.00  0.00    -0.203 F 
ATOM     85  C   UNL A   1      43.446  37.030  33.701  1.00  0.00     0.198 A 
ATOM     86  C   UNL A   1      42.939  35.764  35.676  1.00  0.00     0.198 A 
ATOM     87  F   UNL A   1      42.345  33.496  35.500  1.00  0.00    -0.203 F 
ATOM     88  F   UNL A   1      43.838  38.176  33.124  1.00  0.00    -0.200 F 
ATOM     89  C   UNL A   1      43.317  36.958  35.079  1.00  0.00     0.200 A 
ATOM     90  F   UNL A   1      42.801  35.696  37.007  1.00  0.00    -0.200 F 
ATOM     91  F   UNL A   1      43.562  38.037  35.834  1.00  0.00    -0.200 F 
ENDBRANCH  58  81
ENDBRANCH  32  33
ENDBRANCH  24  27
ENDBRANCH  22  23
ENDBRANCH  21  22
ENDBRANCH  20  21
ENDBRANCH  19  20
ENDBRANCH   1  19
TORSDOF 19
ENDMDL
MODEL 2
REMARK VINA RESULT:      -9.6      5.413     11.359
REMARK SMILES CC[C@@H](O)CC[C@H]([NH3+])C(=O)NCCCCCCNC(=O)c1ccc(-c2c3nc(c(-c4c(F)c(F)c(F)c(F)c4F)c4ccc([nH]4)c(-c4c(F)c(F)c(F)c(F)c4F)c4nc(c(-c5c(F)c(F)c(F)c(F)c5F)c5ccc2[nH]5)C=C4)C=C3)cc1
REMARK SMILES IDX 13 1 12 2 11 3 9 4 10 5 7 7 6 8 5 9 3 10 2 11 1 12 4 13 8 15
REMARK SMILES IDX 14 19 15 20 16 21 17 22 18 23 19 24 20 26 21 27 22 28 83 29
REMARK SMILES IDX 23 30 82 31 24 32 25 33 26 34 76 35 27 36 81 37 75 38 77 39
REMARK SMILES IDX 28 40 80 41 74 42 73 43 29 45 61 46 41 47 60 48 42 49 45 50
REMARK SMILES IDX 59 51 78 52 43 53 44 54 58 56 79 57 46 58 30 59 31 60 39 61
REMARK SMILES IDX 32 62 33 63 37 64 40 65 34 66 35 67 38 68 36 69 62 70 63 71
REMARK SMILES IDX 71 72 64 73 65 74 69 75 72 76 66 77 67 78 70 79 68 80 47 81
REMARK SMILES IDX 48 82 56 83 49 84 50 85 54 86 57 87 51 88 52 89 55 90 53 91
REMARK H PARENT 11 6 4 14 8 16 8 17 8 18 18 25 77 44 45 55
REMARK Flexibility Score: inf
ROOT
ATOM      1  C   UNL A   1      31.445  28.632  25.455  1.00  0.00     0.021 C 
ENDROOT
BRANCH   1   2
ATOM      2  C   UNL A   1      32.363  27.620  24.785  1.00  0.00     0.116 C 
BRANCH   2   3
ATOM      3  N   UNL A   1      31.825  27.026  23.582  1.00  0.00    -0.351 N 
ATOM      4  C   UNL A   1      31.082  27.632  22.605  1.00  0.00     0.278 C 
ATOM      5  O   UNL A   1      30.765  26.963  21.617  1.00  0.00    -0.268 OA
ATOM      6  H   UNL A   1      32.017  26.070  23.449  1.00  0.00     0.163 HD
BRANCH   4   7
ATOM      7  C   UNL A   1      30.592  29.102  22.756  1.00  0.00     0.271 C 
BRANCH   7   8
ATOM      8  C   UNL A   1      29.066  29.207  22.987  1.00  0.00     0.078 C 
BRANCH   8   9
ATOM      9  C   UNL A   1      28.212  29.804  21.854  1.00  0.00     0.038 C 
BRANCH   9  10
ATOM     10  C   UNL A   1      27.981  31.324  21.891  1.00  0.00     0.114 C 
BRANCH  10  11
ATOM     11  C   UNL A   1      28.241  31.958  23.266  1.00  0.00     0.028 C 
ATOM     12  C   UNL A   1      29.090  33.221  23.156  1.00  0.00     0.006 C 
ENDBRANCH  10  11
BRANCH  10  13
ATOM     13  O   UNL A   1      28.882  31.910  20.946  1.00  0.00    -0.393 OA
ATOM     14  H   UNL A   1      28.628  32.832  20.787  1.00  0.00     0.210 HD
ENDBRANCH  10  13
ENDBRANCH   9  10
ENDBRANCH   8   9
ENDBRANCH   7   8
BRANCH   7  15
ATOM     15  N   UNL A   1      31.136  29.898  21.640  1.00  0.00    -0.347 N 
ATOM     16  H   UNL A   1      32.000  30.354  21.935  1.00  0.00     0.345 HD
ATOM     17  H   UNL A   1      30.456  30.606  21.363  1.00  0.00     0.345 HD
ATOM     18  H   UNL A   1      31.330  29.284  20.847  1.00  0.00     0.345 HD
ENDBRANCH   7  15
ENDBRANCH   4   7
ENDBRANCH   2   3
ENDBRANCH   1   2
BRANCH   1  19
ATOM     19  C   UNL A   1      32.109  29.935  25.898  1.00  0.00     0.002 C 
BRANCH  19  20
ATOM     20  C   UNL A   1      31.258  31.203  25.780  1.00  0.00     0.002 C 
BRANCH  20  21
ATOM     21  C   UNL A   1      31.302  32.174  26.966  1.00  0.00     0.021 C 
BRANCH  21  22
ATOM     22  C   UNL A   1      32.622  32.911  27.183  1.00  0.00     0.116 C 
BRANCH  22  23
ATOM     23  N   UNL A   1      32.437  34.284  27.623  1.00  0.00    -0.352 N 
ATOM     24  C   UNL A   1      33.060  34.994  28.619  1.00  0.00     0.251 C 
ATOM     25  H   UNL A   1      31.752  34.787  27.126  1.00  0.00     0.163 HD
ATOM     26  O   UNL A   1      32.645  36.109  28.923  1.00  0.00    -0.269 OA
BRANCH  24  27
ATOM     27  C   UNL A   1      34.209  34.423  29.356  1.00  0.00     0.039 A 
ATOM     28  C   UNL A   1      33.959  33.714  30.535  1.00  0.00     0.014 A 
ATOM     29  C   UNL A   1      35.524  34.601  28.917  1.00  0.00     0.014 A 
ATOM     30  C   UNL A   1      35.015  33.109  31.224  1.00  0.00     0.010 A 
ATOM     31  C   UNL A   1      36.571  33.950  29.572  1.00  0.00     0.010 A 
ATOM     32  C   UNL A   1      36.323  33.182  30.721  1.00  0.00    -0.014 A 
BRANCH  32  33
ATOM     33  C   UNL A   1      37.428  32.406  31.341  1.00  0.00     0.031 A 
ATOM     34  C   UNL A   1      37.978  32.786  32.686  1.00  0.00     0.074 A 
ATOM     35  C   UNL A   1      37.991  31.397  30.646  1.00  0.00     0.049 A 
ATOM     36  N   UNL A   1      38.998  32.282  33.335  1.00  0.00    -0.248 NA
ATOM     37  C   UNL A   1      37.307  33.891  33.385  1.00  0.00     0.031 C 
ATOM     38  C   UNL A   1      37.569  30.954  29.316  1.00  0.00     0.029 A 
ATOM     39  N   UNL A   1      39.048  30.576  30.950  1.00  0.00    -0.354 N 
ATOM     40  C   UNL A   1      39.096  33.010  34.513  1.00  0.00     0.074 A 
ATOM     41  C   UNL A   1      38.058  34.019  34.471  1.00  0.00     0.031 C 
ATOM     42  C   UNL A   1      38.350  29.936  28.924  1.00  0.00     0.029 A 
ATOM     43  C   UNL A   1      39.358  29.686  29.950  1.00  0.00     0.049 A 
ATOM     44  H   UNL A   1      39.537  30.619  31.803  1.00  0.00     0.167 HD
ATOM     45  C   UNL A   1      39.962  32.839  35.540  1.00  0.00     0.037 A 
ATOM     46  C   UNL A   1      40.354  28.784  29.858  1.00  0.00     0.037 A 
ATOM     47  C   UNL A   1      40.984  31.825  35.583  1.00  0.00     0.049 A 
ATOM     48  C   UNL A   1      41.331  28.648  30.993  1.00  0.00     0.074 A 
ATOM     49  C   UNL A   1      41.863  31.527  36.612  1.00  0.00     0.029 A 
ATOM     50  N   UNL A   1      41.276  30.950  34.546  1.00  0.00    -0.354 N 
ATOM     51  N   UNL A   1      41.367  29.292  32.133  1.00  0.00    -0.248 NA
ATOM     52  C   UNL A   1      42.410  27.664  30.825  1.00  0.00     0.031 C 
ATOM     53  C   UNL A   1      42.723  30.515  36.175  1.00  0.00     0.029 A 
ATOM     54  C   UNL A   1      42.348  30.143  34.895  1.00  0.00     0.049 A 
ATOM     55  H   UNL A   1      40.793  30.909  33.689  1.00  0.00     0.167 HD
ATOM     56  C   UNL A   1      42.456  28.781  32.826  1.00  0.00     0.074 A 
ATOM     57  C   UNL A   1      43.043  27.759  31.986  1.00  0.00     0.031 C 
ATOM     58  C   UNL A   1      42.929  29.133  34.046  1.00  0.00     0.037 A 
BRANCH  45  59
ATOM     59  C   UNL A   1      39.850  33.773  36.711  1.00  0.00     0.064 A 
ATOM     60  C   UNL A   1      40.573  34.975  36.767  1.00  0.00     0.173 A 
ATOM     61  C   UNL A   1      38.966  33.493  37.764  1.00  0.00     0.173 A 
ATOM     62  F   UNL A   1      41.437  35.288  35.788  1.00  0.00    -0.203 F 
ATOM     63  C   UNL A   1      40.437  35.845  37.845  1.00  0.00     0.198 A 
ATOM     64  C   UNL A   1      38.810  34.380  38.827  1.00  0.00     0.198 A 
ATOM     65  F   UNL A   1      38.242  32.364  37.757  1.00  0.00    -0.203 F 
ATOM     66  F   UNL A   1      41.171  36.965  37.898  1.00  0.00    -0.200 F 
ATOM     67  C   UNL A   1      39.550  35.551  38.869  1.00  0.00     0.200 A 
ATOM     68  F   UNL A   1      37.941  34.101  39.808  1.00  0.00    -0.200 F 
ATOM     69  F   UNL A   1      39.412  36.395  39.901  1.00  0.00    -0.200 F 
ENDBRANCH  45  59
BRANCH  46  70
ATOM     70  C   UNL A   1      40.480  27.943  28.638  1.00  0.00     0.064 A 
ATOM     71  C   UNL A   1      41.187  28.402  27.518  1.00  0.00     0.173 A 
ATOM     72  C   UNL A   1      39.900  26.668  28.567  1.00  0.00     0.173 A 
ATOM     73  F   UNL A   1      41.740  29.625  27.530  1.00  0.00    -0.203 F 
ATOM     74  C   UNL A   1      41.295  27.623  26.367  1.00  0.00     0.198 A 
ATOM     75  C   UNL A   1      40.035  25.878  27.428  1.00  0.00     0.198 A 
ATOM     76  F   UNL A   1      39.217  26.181  29.613  1.00  0.00    -0.203 F 
ATOM     77  F   UNL A   1      41.939  28.104  25.295  1.00  0.00    -0.200 F 
ATOM     78  C   UNL A   1      40.725  26.360  26.325  1.00  0.00     0.200 A 
ATOM     79  F   UNL A   1      39.497  24.652  27.398  1.00  0.00    -0.200 F 
ATOM     80  F   UNL A   1      40.836  25.609  25.222  1.00  0.00    -0.200 F 
ENDBRANCH  46  70
BRANCH  58  81
ATOM     81  C   UNL A   1      44.139  28.403  34.553  1.00  0.00     0.064 A 
ATOM     82  C   UNL A   1      44.023  27.181  35.234  1.00  0.00     0.173 A 
ATOM     83  C   UNL A   1      45.429  28.901  34.314  1.00  0.00     0.173 A 
ATOM     84  F   UNL A   1      42.812  26.670  35.503  1.00  0.00    -0.203 F 
ATOM     85  C   UNL A   1      45.154  26.496  35.671  1.00  0.00     0.198 A 
ATOM     86  C   UNL A   1      46.557  28.199  34.726  1.00  0.00     0.198 A 
ATOM     87  F   UNL A   1      45.594  30.063  33.664  1.00  0.00    -0.203 F 
ATOM     88  F   UNL A   1      45.018  25.350  36.355  1.00  0.00    -0.200 F 
ATOM     89  C   UNL A   1      46.419  26.999  35.409  1.00  0.00     0.200 A 
ATOM     90  F   UNL A   1      47.779  28.680  34.460  1.00  0.00    -0.200 F 
ATOM     91  F   UNL A   1      47.506  26.331  35.819  1.00  0.00    -0.200 F 
ENDBRANCH  58  81
ENDBRANCH  32  33
ENDBRANCH  24  27
ENDBRANCH  22  23
ENDBRANCH  21  22
ENDBRANCH  20  21
ENDBRANCH  19  20
ENDBRANCH   1  19
TORSDOF 19
ENDMDL
MODEL 3
REMARK VINA RESULT:      -9.3      5.572     10.734
REMARK SMILES CC[C@@H](O)CC[C@H]([NH3+])C(=O)NCCCCCCNC(=O)c1ccc(-c2c3nc(c(-c4c(F)c(F)c(F)c(F)c4F)c4ccc([nH]4)c(-c4c(F)c(F)c(F)c(F)c4F)c4nc(c(-c5c(F)c(F)c(F)c(F)c5F)c5ccc2[nH]5)C=C4)C=C3)cc1
REMARK SMILES IDX 13 1 12 2 11 3 9 4 10 5 7 7 6 8 5 9 3 10 2 11 1 12 4 13 8 15
REMARK SMILES IDX 14 19 15 20 16 21 17 22 18 23 19 24 20 26 21 27 22 28 83 29
REMARK SMILES IDX 23 30 82 31 24 32 25 33 26 34 76 35 27 36 81 37 75 38 77 39
REMARK SMILES IDX 28 40 80 41 74 42 73 43 29 45 61 46 41 47 60 48 42 49 45 50
REMARK SMILES IDX 59 51 78 52 43 53 44 54 58 56 79 57 46 58 30 59 31 60 39 61
REMARK SMILES IDX 32 62 33 63 37 64 40 65 34 66 35 67 38 68 36 69 62 70 63 71
REMARK SMILES IDX 71 72 64 73 65 74 69 75 72 76 66 77 67 78 70 79 68 80 47 81
REMARK SMILES IDX 48 82 56 83 49 84 50 85 54 86 57 87 51 88 52 89 55 90 53 91
REMARK H PARENT 11 6 4 14 8 16 8 17 8 18 18 25 77 44 45 55
REMARK Flexibility Score: inf
ROOT
ATOM      1  C   UNL A   1      31.418  28.555  25.357  1.00  0.00     0.021 C 
ENDROOT
BRANCH   1   2
ATOM      2  C   UNL A   1      32.308  27.438  24.833  1.00  0.00     0.116 C 
BRANCH   2   3
ATOM      3  N   UNL A   1      31.874  26.859  23.583  1.00  0.00    -0.351 N 
ATOM      4  C   UNL A   1      31.176  27.466  22.573  1.00  0.00     0.278 C 
ATOM      5  O   UNL A   1      30.950  26.813  21.550  1.00  0.00    -0.268 OA
ATOM      6  H   UNL A   1      32.107  25.913  23.440  1.00  0.00     0.163 HD
BRANCH   4   7
ATOM      7  C   UNL A   1      30.627  28.914  22.727  1.00  0.00     0.271 C 
BRANCH   7   8
ATOM      8  C   UNL A   1      29.081  28.967  22.788  1.00  0.00     0.078 C 
BRANCH   8   9
ATOM      9  C   UNL A   1      28.345  29.664  21.631  1.00  0.00     0.038 C 
BRANCH   9  10
ATOM     10  C   UNL A   1      28.146  31.185  21.754  1.00  0.00     0.114 C 
BRANCH  10  11
ATOM     11  C   UNL A   1      28.448  31.738  23.155  1.00  0.00     0.028 C 
ATOM     12  C   UNL A   1      27.234  31.642  24.075  1.00  0.00     0.006 C 
ENDBRANCH  10  11
BRANCH  10  13
ATOM     13  O   UNL A   1      29.039  31.802  20.822  1.00  0.00    -0.393 OA
ATOM     14  H   UNL A   1      28.801  32.737  20.718  1.00  0.00     0.210 HD
ENDBRANCH  10  13
ENDBRANCH   9  10
ENDBRANCH   8   9
ENDBRANCH   7   8
BRANCH   7  15
ATOM     15  N   UNL A   1      31.266  29.772  21.711  1.00  0.00    -0.347 N 
ATOM     16  H   UNL A   1      32.076  30.237  22.120  1.00  0.00     0.345 HD
ATOM     17  H   UNL A   1      30.598  30.472  21.387  1.00  0.00     0.345 HD
ATOM     18  H   UNL A   1      31.566  29.198  20.921  1.00  0.00     0.345 HD
ENDBRANCH   7  15
ENDBRANCH   4   7
ENDBRANCH   2   3
ENDBRANCH   1   2
BRANCH   1  19
ATOM     19  C   UNL A   1      32.146  29.805  25.850  1.00  0.00     0.002 C 
BRANCH  19  20
ATOM     20  C   UNL A   1      31.344  31.110  25.829  1.00  0.00     0.002 C 
BRANCH  20  21
ATOM     21  C   UNL A   1      31.426  31.989  27.082  1.00  0.00     0.021 C 
BRANCH  21  22
ATOM     22  C   UNL A   1      32.694  32.827  27.234  1.00  0.00     0.116 C 
BRANCH  22  23
ATOM     23  N   UNL A   1      32.420  34.202  27.618  1.00  0.00    -0.352 N 
ATOM     24  C   UNL A   1      33.005  34.996  28.572  1.00  0.00     0.251 C 
ATOM     25  H   UNL A   1      31.695  34.634  27.111  1.00  0.00     0.163 HD
ATOM     26  O   UNL A   1      32.518  36.092  28.835  1.00  0.00    -0.269 OA
BRANCH  24  27
ATOM     27  C   UNL A   1      34.201  34.538  29.315  1.00  0.00     0.039 A 
ATOM     28  C   UNL A   1      34.023  33.982  30.586  1.00  0.00     0.014 A 
ATOM     29  C   UNL A   1      35.488  34.673  28.788  1.00  0.00     0.014 A 
ATOM     30  C   UNL A   1      35.124  33.484  31.290  1.00  0.00     0.010 A 
ATOM     31  C   UNL A   1      36.578  34.124  29.465  1.00  0.00     0.010 A 
ATOM     32  C   UNL A   1      36.403  33.507  30.713  1.00  0.00    -0.014 A 
BRANCH  32  33
ATOM     33  C   UNL A   1      37.553  32.830  31.369  1.00  0.00     0.031 A 
ATOM     34  C   UNL A   1      38.224  31.652  30.724  1.00  0.00     0.074 A 
ATOM     35  C   UNL A   1      37.941  33.238  32.594  1.00  0.00     0.049 A 
ATOM     36  N   UNL A   1      39.176  30.883  31.193  1.00  0.00    -0.248 NA
ATOM     37  C   UNL A   1      37.750  31.273  29.386  1.00  0.00     0.031 C 
ATOM     38  C   UNL A   1      37.346  34.348  33.339  1.00  0.00     0.029 A 
ATOM     39  N   UNL A   1      38.911  32.755  33.437  1.00  0.00    -0.354 N 
ATOM     40  C   UNL A   1      39.411  29.929  30.214  1.00  0.00     0.074 A 
ATOM     41  C   UNL A   1      38.472  30.187  29.141  1.00  0.00     0.031 C 
ATOM     42  C   UNL A   1      37.970  34.469  34.521  1.00  0.00     0.029 A 
ATOM     43  C   UNL A   1      38.975  33.417  34.639  1.00  0.00     0.049 A 
ATOM     44  H   UNL A   1      39.506  32.007  33.201  1.00  0.00     0.167 HD
ATOM     45  C   UNL A   1      40.336  28.939  30.205  1.00  0.00     0.037 A 
ATOM     46  C   UNL A   1      39.739  33.190  35.724  1.00  0.00     0.037 A 
ATOM     47  C   UNL A   1      41.276  28.694  31.269  1.00  0.00     0.049 A 
ATOM     48  C   UNL A   1      40.726  32.054  35.706  1.00  0.00     0.074 A 
ATOM     49  C   UNL A   1      42.298  27.761  31.320  1.00  0.00     0.029 A 
ATOM     50  N   UNL A   1      41.301  29.377  32.476  1.00  0.00    -0.354 N 
ATOM     51  N   UNL A   1      40.989  31.205  34.744  1.00  0.00    -0.248 NA
ATOM     52  C   UNL A   1      41.515  31.842  36.927  1.00  0.00     0.031 C 
ATOM     53  C   UNL A   1      42.901  27.840  32.579  1.00  0.00     0.029 A 
ATOM     54  C   UNL A   1      42.292  28.858  33.294  1.00  0.00     0.049 A 
ATOM     55  H   UNL A   1      40.703  30.122  32.716  1.00  0.00     0.167 HD
ATOM     56  C   UNL A   1      41.985  30.371  35.233  1.00  0.00     0.074 A 
ATOM     57  C   UNL A   1      42.293  30.829  36.571  1.00  0.00     0.031 C 
ATOM     58  C   UNL A   1      42.585  29.317  34.629  1.00  0.00     0.037 A 
BRANCH  45  59
ATOM     59  C   UNL A   1      40.379  28.035  29.006  1.00  0.00     0.064 A 
ATOM     60  C   UNL A   1      39.640  26.844  28.955  1.00  0.00     0.173 A 
ATOM     61  C   UNL A   1      41.125  28.391  27.872  1.00  0.00     0.173 A 
ATOM     62  F   UNL A   1      38.915  26.453  30.014  1.00  0.00    -0.203 F 
ATOM     63  C   UNL A   1      39.668  26.030  27.825  1.00  0.00     0.198 A 
ATOM     64  C   UNL A   1      41.127  27.590  26.733  1.00  0.00     0.198 A 
ATOM     65  F   UNL A   1      41.842  29.525  27.863  1.00  0.00    -0.203 F 
ATOM     66  F   UNL A   1      38.989  24.875  27.816  1.00  0.00    -0.200 F 
ATOM     67  C   UNL A   1      40.404  26.408  26.713  1.00  0.00     0.200 A 
ATOM     68  F   UNL A   1      41.827  27.965  25.653  1.00  0.00    -0.200 F 
ATOM     69  F   UNL A   1      40.422  25.629  25.622  1.00  0.00    -0.200 F 
ENDBRANCH  45  59
BRANCH  46  70
ATOM     70  C   UNL A   1      39.596  34.056  36.924  1.00  0.00     0.064 A 
ATOM     71  C   UNL A   1      38.791  33.665  38.001  1.00  0.00     0.173 A 
ATOM     72  C   UNL A   1      40.260  35.288  37.020  1.00  0.00     0.173 A 
ATOM     73  F   UNL A   1      38.117  32.505  37.947  1.00  0.00    -0.203 F 
ATOM     74  C   UNL A   1      38.641  34.480  39.122  1.00  0.00     0.198 A 
ATOM     75  C   UNL A   1      40.135  36.088  38.153  1.00  0.00     0.198 A 
ATOM     76  F   UNL A   1      41.047  35.707  36.018  1.00  0.00    -0.203 F 
ATOM     77  F   UNL A   1      37.829  34.101  40.119  1.00  0.00    -0.200 F 
ATOM     78  C   UNL A   1      39.318  35.687  39.200  1.00  0.00     0.200 A 
ATOM     79  F   UNL A   1      40.804  37.246  38.230  1.00  0.00    -0.200 F 
ATOM     80  F   UNL A   1      39.180  36.467  40.280  1.00  0.00    -0.200 F 
ENDBRANCH  46  70
BRANCH  58  81
ATOM     81  C   UNL A   1      43.643  28.587  35.405  1.00  0.00     0.064 A 
ATOM     82  C   UNL A   1      44.999  28.922  35.285  1.00  0.00     0.173 A 
ATOM     83  C   UNL A   1      43.294  27.577  36.315  1.00  0.00     0.173 A 
ATOM     84  F   UNL A   1      45.387  29.869  34.415  1.00  0.00    -0.203 F 
ATOM     85  C   UNL A   1      45.969  28.261  36.035  1.00  0.00     0.198 A 
ATOM     86  C   UNL A   1      44.262  26.940  37.084  1.00  0.00     0.198 A 
ATOM     87  F   UNL A   1      42.010  27.222  36.471  1.00  0.00    -0.203 F 
ATOM     88  F   UNL A   1      47.264  28.571  35.873  1.00  0.00    -0.200 F 
ATOM     89  C   UNL A   1      45.600  27.278  36.940  1.00  0.00     0.200 A 
ATOM     90  F   UNL A   1      43.902  25.999  37.969  1.00  0.00    -0.200 F 
ATOM     91  F   UNL A   1      46.533  26.653  37.670  1.00  0.00    -0.200 F 
ENDBRANCH  58  81
ENDBRANCH  32  33
ENDBRANCH  24  27
ENDBRANCH  22  23
ENDBRANCH  21  22
ENDBRANCH  20  21
ENDBRANCH  19  20
ENDBRANCH   1  19
TORSDOF 19
ENDMDL
