MODEL 1
REMARK VINA RESULT:      -9.4      0.000      0.000
REMARK SMILES CC(C)C[C@H](NC(=O)[C@@H](NC(=O)[C@H](C)NC(=O)CNC(=O)OCc1ccccc1)C(C)C)C(=O)NCCCCCCNC(=O)c1ccc(-c2c3nc(c(-c4c(F)c(F)c(F)c(F)c4F)c4ccc([nH]4)c(-c4c(F)c(F)c(F)c(F)c4F)c4nc(c(-c5c(F)c(F)c(F)c(F)c5F)c5ccc2[nH]5)C=C4)C=C3)cc1
REMARK SMILES IDX 33 1 34 2 35 3 5 5 4 6 2 7 1 8 3 9 6 10 7 11 8 13 9 14 10 15
REMARK SMILES IDX 11 16 12 18 13 19 14 20 15 21 16 22 17 24 18 25 19 26 20 27
REMARK SMILES IDX 21 29 22 30 23 31 24 32 25 33 29 34 26 35 28 36 27 37 30 38
REMARK SMILES IDX 31 39 32 40 36 41 37 42 38 43 39 44 40 45 41 46 42 47 43 48
REMARK SMILES IDX 44 50 45 51 46 52 107 53 47 54 106 55 48 56 49 57 50 58
REMARK SMILES IDX 100 59 51 60 105 61 99 62 101 63 52 64 104 65 98 66 97 67
REMARK SMILES IDX 53 69 85 70 65 71 84 72 66 73 69 74 83 75 102 76 67 77 68 78
REMARK SMILES IDX 82 80 103 81 70 82 54 83 55 84 63 85 56 86 57 87 61 88 64 89
REMARK SMILES IDX 58 90 59 91 62 92 60 93 86 94 87 95 95 96 88 97 89 98 93 99
REMARK SMILES IDX 96 100 90 101 91 102 94 103 92 104 71 105 72 106 80 107
REMARK SMILES IDX 73 108 74 109 78 110 81 111 75 112 76 113 79 114 77 115
REMARK H PARENT 35 4 6 12 10 17 15 23 19 28 42 49 101 68 69 79
REMARK Flexibility Score: inf
ROOT
ATOM      1  C   UNL A   1      45.711  24.488  33.459  1.00  0.00     0.242 C 
ATOM      2  O   UNL A   1      46.750  25.100  33.705  1.00  0.00    -0.273 OA
ATOM      3  N   UNL A   1      45.229  24.523  32.184  1.00  0.00    -0.354 N 
ATOM      4  H   UNL A   1      45.693  25.138  31.570  1.00  0.00     0.163 HD
ENDROOT
BRANCH   1   5
ATOM      5  C   UNL A   1      44.986  23.646  34.529  1.00  0.00     0.171 C 
BRANCH   5   6
ATOM      6  C   UNL A   1      45.070  24.299  35.909  1.00  0.00     0.038 C 
BRANCH   6   7
ATOM      7  C   UNL A   1      43.799  24.546  36.741  1.00  0.00    -0.015 C 
ATOM      8  C   UNL A   1      43.815  25.886  37.471  1.00  0.00     0.007 C 
ATOM      9  C   UNL A   1      42.596  24.524  35.785  1.00  0.00     0.007 C 
ENDBRANCH   6   7
ENDBRANCH   5   6
BRANCH   5  10
ATOM     10  N   UNL A   1      45.544  22.279  34.474  1.00  0.00    -0.343 N 
ATOM     11  C   UNL A   1      46.715  21.628  34.596  1.00  0.00     0.243 C 
ATOM     12  H   UNL A   1      44.824  21.634  34.286  1.00  0.00     0.164 HD
ATOM     13  O   UNL A   1      46.614  20.403  34.405  1.00  0.00    -0.273 OA
BRANCH  11  14
ATOM     14  C   UNL A   1      48.108  22.184  35.020  1.00  0.00     0.174 C 
BRANCH  14  15
ATOM     15  N   UNL A   1      48.342  22.436  36.450  1.00  0.00    -0.342 N 
ATOM     16  C   UNL A   1      48.475  21.760  37.612  1.00  0.00     0.242 C 
ATOM     17  H   UNL A   1      48.429  23.403  36.611  1.00  0.00     0.164 HD
ATOM     18  O   UNL A   1      48.827  22.451  38.579  1.00  0.00    -0.273 OA
BRANCH  16  19
ATOM     19  C   UNL A   1      48.327  20.232  37.809  1.00  0.00     0.168 C 
ATOM     20  C   UNL A   1      49.648  19.583  37.409  1.00  0.00     0.041 C 
BRANCH  19  21
ATOM     21  N   UNL A   1      47.169  19.607  37.176  1.00  0.00    -0.343 N 
ATOM     22  C   UNL A   1      46.108  18.896  37.636  1.00  0.00     0.240 C 
ATOM     23  H   UNL A   1      47.155  19.729  36.199  1.00  0.00     0.164 HD
ATOM     24  O   UNL A   1      45.314  18.498  36.776  1.00  0.00    -0.273 OA
BRANCH  22  25
ATOM     25  C   UNL A   1      45.792  18.703  39.115  1.00  0.00     0.219 C 
BRANCH  25  26
ATOM     26  N   UNL A   1      46.577  17.660  39.720  1.00  0.00    -0.312 N 
ATOM     27  C   UNL A   1      46.099  16.574  40.377  1.00  0.00     0.407 C 
ATOM     28  H   UNL A   1      47.555  17.742  39.649  1.00  0.00     0.167 HD
ATOM     29  O   UNL A   1      46.859  15.867  41.023  1.00  0.00    -0.225 OA
BRANCH  27  30
ATOM     30  O   UNL A   1      44.750  16.462  40.309  1.00  0.00    -0.445 OA
BRANCH  30  31
ATOM     31  C   UNL A   1      44.046  16.405  41.561  1.00  0.00     0.270 C 
BRANCH  31  32
ATOM     32  C   UNL A   1      43.010  15.316  41.563  1.00  0.00    -0.011 A 
ATOM     33  C   UNL A   1      42.380  14.922  40.377  1.00  0.00     0.007 A 
ATOM     34  C   UNL A   1      42.748  14.610  42.746  1.00  0.00     0.007 A 
ATOM     35  C   UNL A   1      41.527  13.818  40.374  1.00  0.00     0.000 A 
ATOM     36  C   UNL A   1      41.916  13.496  42.736  1.00  0.00     0.000 A 
ATOM     37  C   UNL A   1      41.309  13.097  41.549  1.00  0.00     0.000 A 
ENDBRANCH  31  32
ENDBRANCH  30  31
ENDBRANCH  27  30
ENDBRANCH  25  26
ENDBRANCH  22  25
ENDBRANCH  19  21
ENDBRANCH  16  19
ENDBRANCH  14  15
BRANCH  14  38
ATOM     38  C   UNL A   1      49.321  21.683  34.186  1.00  0.00     0.015 C 
ATOM     39  C   UNL A   1      50.676  22.095  34.776  1.00  0.00     0.010 C 
ATOM     40  C   UNL A   1      49.311  20.154  34.041  1.00  0.00     0.010 C 
ENDBRANCH  14  38
ENDBRANCH  11  14
ENDBRANCH   5  10
ENDBRANCH   1   5
BRANCH   3  41
ATOM     41  C   UNL A   1      44.128  23.777  31.611  1.00  0.00     0.116 C 
BRANCH  41  42
ATOM     42  C   UNL A   1      44.234  23.698  30.099  1.00  0.00     0.021 C 
BRANCH  42  43
ATOM     43  C   UNL A   1      42.918  23.340  29.404  1.00  0.00     0.002 C 
BRANCH  43  44
ATOM     44  C   UNL A   1      43.062  22.695  28.021  1.00  0.00     0.002 C 
BRANCH  44  45
ATOM     45  C   UNL A   1      41.857  21.883  27.546  1.00  0.00     0.021 C 
BRANCH  45  46
ATOM     46  C   UNL A   1      41.441  22.131  26.103  1.00  0.00     0.116 C 
BRANCH  46  47
ATOM     47  N   UNL A   1      40.011  21.997  25.897  1.00  0.00    -0.352 N 
ATOM     48  C   UNL A   1      39.014  22.879  26.225  1.00  0.00     0.251 C 
ATOM     49  H   UNL A   1      39.717  21.162  25.465  1.00  0.00     0.163 HD
ATOM     50  O   UNL A   1      37.836  22.576  26.083  1.00  0.00    -0.269 OA
BRANCH  48  51
ATOM     51  C   UNL A   1      39.380  24.192  26.788  1.00  0.00     0.039 A 
ATOM     52  C   UNL A   1      39.156  24.421  28.147  1.00  0.00     0.014 A 
ATOM     53  C   UNL A   1      39.964  25.177  25.985  1.00  0.00     0.014 A 
ATOM     54  C   UNL A   1      39.561  25.628  28.714  1.00  0.00     0.010 A 
ATOM     55  C   UNL A   1      40.429  26.351  26.566  1.00  0.00     0.010 A 
ATOM     56  C   UNL A   1      40.223  26.589  27.934  1.00  0.00    -0.014 A 
BRANCH  56  57
ATOM     57  C   UNL A   1      40.692  27.861  28.531  1.00  0.00     0.031 A 
ATOM     58  C   UNL A   1      42.144  28.042  28.865  1.00  0.00     0.074 A 
ATOM     59  C   UNL A   1      39.799  28.827  28.821  1.00  0.00     0.049 A 
ATOM     60  N   UNL A   1      42.743  29.055  29.437  1.00  0.00    -0.248 NA
ATOM     61  C   UNL A   1      43.040  26.920  28.540  1.00  0.00     0.031 C 
ATOM     62  C   UNL A   1      38.357  28.743  28.587  1.00  0.00     0.029 A 
ATOM     63  N   UNL A   1      39.974  30.066  29.383  1.00  0.00    -0.354 N 
ATOM     64  C   UNL A   1      44.076  28.687  29.552  1.00  0.00     0.074 A 
ATOM     65  C   UNL A   1      44.191  27.339  29.042  1.00  0.00     0.031 C 
ATOM     66  C   UNL A   1      37.781  29.889  28.982  1.00  0.00     0.029 A 
ATOM     67  C   UNL A   1      38.807  30.773  29.526  1.00  0.00     0.049 A 
ATOM     68  H   UNL A   1      40.853  30.413  29.659  1.00  0.00     0.167 HD
ATOM     69  C   UNL A   1      45.115  29.421  30.018  1.00  0.00     0.037 A 
ATOM     70  C   UNL A   1      38.591  31.998  30.041  1.00  0.00     0.037 A 
ATOM     71  C   UNL A   1      44.997  30.772  30.497  1.00  0.00     0.049 A 
ATOM     72  C   UNL A   1      39.763  32.795  30.545  1.00  0.00     0.074 A 
ATOM     73  C   UNL A   1      45.996  31.626  30.931  1.00  0.00     0.029 A 
ATOM     74  N   UNL A   1      43.801  31.467  30.606  1.00  0.00    -0.354 N 
ATOM     75  N   UNL A   1      41.031  32.468  30.584  1.00  0.00    -0.248 NA
ATOM     76  C   UNL A   1      39.474  34.137  31.070  1.00  0.00     0.031 C 
ATOM     77  C   UNL A   1      45.399  32.822  31.343  1.00  0.00     0.029 A 
ATOM     78  C   UNL A   1      44.033  32.732  31.121  1.00  0.00     0.049 A 
ATOM     79  H   UNL A   1      42.916  31.113  30.356  1.00  0.00     0.167 HD
ATOM     80  C   UNL A   1      41.695  33.567  31.110  1.00  0.00     0.074 A 
ATOM     81  C   UNL A   1      40.689  34.578  31.364  1.00  0.00     0.031 C 
ATOM     82  C   UNL A   1      43.018  33.726  31.361  1.00  0.00     0.037 A 
BRANCH  69  83
ATOM     83  C   UNL A   1      46.469  28.773  30.028  1.00  0.00     0.064 A 
ATOM     84  C   UNL A   1      46.936  28.058  31.142  1.00  0.00     0.173 A 
ATOM     85  C   UNL A   1      47.304  28.851  28.904  1.00  0.00     0.173 A 
ATOM     86  F   UNL A   1      46.181  27.965  32.248  1.00  0.00    -0.203 F 
ATOM     87  C   UNL A   1      48.200  27.475  31.143  1.00  0.00     0.198 A 
ATOM     88  C   UNL A   1      48.556  28.240  28.896  1.00  0.00     0.198 A 
ATOM     89  F   UNL A   1      46.907  29.520  27.811  1.00  0.00    -0.203 F 
ATOM     90  F   UNL A   1      48.644  26.844  32.238  1.00  0.00    -0.200 F 
ATOM     91  C   UNL A   1      49.006  27.560  30.017  1.00  0.00     0.200 A 
ATOM     92  F   UNL A   1      49.329  28.314  27.804  1.00  0.00    -0.200 F 
ATOM     93  F   UNL A   1      50.221  26.996  30.018  1.00  0.00    -0.200 F 
ENDBRANCH  69  83
BRANCH  70  94
ATOM     94  C   UNL A   1      37.214  32.555  30.073  1.00  0.00     0.064 A 
ATOM     95  C   UNL A   1      36.357  32.293  31.151  1.00  0.00     0.173 A 
ATOM     96  C   UNL A   1      36.732  33.367  29.037  1.00  0.00     0.173 A 
ATOM     97  F   UNL A   1      36.768  31.505  32.156  1.00  0.00    -0.203 F 
ATOM     98  C   UNL A   1      35.063  32.808  31.183  1.00  0.00     0.198 A 
ATOM     99  C   UNL A   1      35.446  33.904  29.084  1.00  0.00     0.198 A 
ATOM    100  F   UNL A   1      37.516  33.654  27.988  1.00  0.00    -0.203 F 
ATOM    101  F   UNL A   1      34.251  32.510  32.206  1.00  0.00    -0.200 F 
ATOM    102  C   UNL A   1      34.611  33.618  30.153  1.00  0.00     0.200 A 
ATOM    103  F   UNL A   1      35.019  34.699  28.093  1.00  0.00    -0.200 F 
ATOM    104  F   UNL A   1      33.369  34.119  30.188  1.00  0.00    -0.200 F 
ENDBRANCH  70  94
BRANCH  82 105
ATOM    105  C   UNL A   1      43.458  35.051  31.909  1.00  0.00     0.064 A 
ATOM    106  C   UNL A   1      43.464  35.311  33.287  1.00  0.00     0.173 A 
ATOM    107  C   UNL A   1      43.919  36.058  31.047  1.00  0.00     0.173 A 
ATOM    108  F   UNL A   1      43.019  34.386  34.151  1.00  0.00    -0.203 F 
ATOM    109  C   UNL A   1      43.896  36.538  33.781  1.00  0.00     0.198 A 
ATOM    110  C   UNL A   1      44.376  37.273  31.546  1.00  0.00     0.198 A 
ATOM    111  F   UNL A   1      43.938  35.855  29.721  1.00  0.00    -0.203 F 
ATOM    112  F   UNL A   1      43.851  36.782  35.099  1.00  0.00    -0.200 F 
ATOM    113  C   UNL A   1      44.358  37.515  32.911  1.00  0.00     0.200 A 
ATOM    114  F   UNL A   1      44.834  38.211  30.705  1.00  0.00    -0.200 F 
ATOM    115  F   UNL A   1      44.780  38.694  33.389  1.00  0.00    -0.200 F 
ENDBRANCH  82 105
ENDBRANCH  56  57
ENDBRANCH  48  51
ENDBRANCH  46  47
ENDBRANCH  45  46
ENDBRANCH  44  45
ENDBRANCH  43  44
ENDBRANCH  42  43
ENDBRANCH  41  42
ENDBRANCH   3  41
TORSDOF 26
ENDMDL
MODEL 2
REMARK VINA RESULT:      -9.3      7.988     12.610
REMARK SMILES CC(C)C[C@H](NC(=O)[C@@H](NC(=O)[C@H](C)NC(=O)CNC(=O)OCc1ccccc1)C(C)C)C(=O)NCCCCCCNC(=O)c1ccc(-c2c3nc(c(-c4c(F)c(F)c(F)c(F)c4F)c4ccc([nH]4)c(-c4c(F)c(F)c(F)c(F)c4F)c4nc(c(-c5c(F)c(F)c(F)c(F)c5F)c5ccc2[nH]5)C=C4)C=C3)cc1
REMARK SMILES IDX 33 1 34 2 35 3 5 5 4 6 2 7 1 8 3 9 6 10 7 11 8 13 9 14 10 15
REMARK SMILES IDX 11 16 12 18 13 19 14 20 15 21 16 22 17 24 18 25 19 26 20 27
REMARK SMILES IDX 21 29 22 30 23 31 24 32 25 33 29 34 26 35 28 36 27 37 30 38
REMARK SMILES IDX 31 39 32 40 36 41 37 42 38 43 39 44 40 45 41 46 42 47 43 48
REMARK SMILES IDX 44 50 45 51 46 52 107 53 47 54 106 55 48 56 49 57 50 58
REMARK SMILES IDX 100 59 51 60 105 61 99 62 101 63 52 64 104 65 98 66 97 67
REMARK SMILES IDX 53 69 85 70 65 71 84 72 66 73 69 74 83 75 102 76 67 77 68 78
REMARK SMILES IDX 82 80 103 81 70 82 54 83 55 84 63 85 56 86 57 87 61 88 64 89
REMARK SMILES IDX 58 90 59 91 62 92 60 93 86 94 87 95 95 96 88 97 89 98 93 99
REMARK SMILES IDX 96 100 90 101 91 102 94 103 92 104 71 105 72 106 80 107
REMARK SMILES IDX 73 108 74 109 78 110 81 111 75 112 76 113 79 114 77 115
REMARK H PARENT 35 4 6 12 10 17 15 23 19 28 42 49 101 68 69 79
REMARK Flexibility Score: inf
ROOT
ATOM      1  C   UNL A   1      36.031  32.389  27.985  1.00  0.00     0.242 C 
ATOM      2  O   UNL A   1      36.110  33.566  27.635  1.00  0.00    -0.273 OA
ATOM      3  N   UNL A   1      37.164  31.631  27.956  1.00  0.00    -0.354 N 
ATOM      4  H   UNL A   1      37.950  32.056  27.541  1.00  0.00     0.163 HD
ENDROOT
BRANCH   1   5
ATOM      5  C   UNL A   1      34.713  31.778  28.505  1.00  0.00     0.171 C 
BRANCH   5   6
ATOM      6  C   UNL A   1      34.557  31.979  30.013  1.00  0.00     0.038 C 
BRANCH   6   7
ATOM      7  C   UNL A   1      35.754  32.416  30.876  1.00  0.00    -0.015 C 
ATOM      8  C   UNL A   1      35.453  33.641  31.735  1.00  0.00     0.007 C 
ATOM      9  C   UNL A   1      36.121  31.246  31.803  1.00  0.00     0.007 C 
ENDBRANCH   6   7
ENDBRANCH   5   6
BRANCH   5  10
ATOM     10  N   UNL A   1      34.680  30.363  28.079  1.00  0.00    -0.343 N 
ATOM     11  C   UNL A   1      34.134  29.573  27.137  1.00  0.00     0.243 C 
ATOM     12  H   UNL A   1      35.241  29.822  28.681  1.00  0.00     0.164 HD
ATOM     13  O   UNL A   1      34.428  28.373  27.277  1.00  0.00    -0.273 OA
BRANCH  11  14
ATOM     14  C   UNL A   1      33.286  29.973  25.891  1.00  0.00     0.174 C 
BRANCH  14  15
ATOM     15  N   UNL A   1      33.641  29.371  24.597  1.00  0.00    -0.342 N 
ATOM     16  C   UNL A   1      33.550  28.192  23.944  1.00  0.00     0.242 C 
ATOM     17  H   UNL A   1      34.084  30.040  24.026  1.00  0.00     0.164 HD
ATOM     18  O   UNL A   1      33.882  28.232  22.750  1.00  0.00    -0.273 OA
BRANCH  16  19
ATOM     19  C   UNL A   1      32.992  26.866  24.513  1.00  0.00     0.168 C 
ATOM     20  C   UNL A   1      34.161  26.088  25.107  1.00  0.00     0.041 C 
BRANCH  19  21
ATOM     21  N   UNL A   1      32.176  26.065  23.605  1.00  0.00    -0.343 N 
ATOM     22  C   UNL A   1      31.233  25.103  23.779  1.00  0.00     0.240 C 
ATOM     23  H   UNL A   1      32.348  26.268  22.657  1.00  0.00     0.164 HD
ATOM     24  O   UNL A   1      30.759  24.622  22.743  1.00  0.00    -0.273 OA
BRANCH  22  25
ATOM     25  C   UNL A   1      30.655  24.716  25.135  1.00  0.00     0.219 C 
BRANCH  25  26
ATOM     26  N   UNL A   1      30.512  23.294  25.292  1.00  0.00    -0.312 N 
ATOM     27  C   UNL A   1      31.457  22.436  25.750  1.00  0.00     0.407 C 
ATOM     28  H   UNL A   1      29.642  22.905  25.043  1.00  0.00     0.167 HD
ATOM     29  O   UNL A   1      31.290  21.230  25.646  1.00  0.00    -0.225 OA
BRANCH  27  30
ATOM     30  O   UNL A   1      32.571  23.065  26.202  1.00  0.00    -0.445 OA
BRANCH  30  31
ATOM     31  C   UNL A   1      33.684  22.227  26.551  1.00  0.00     0.270 C 
BRANCH  31  32
ATOM     32  C   UNL A   1      34.886  22.521  25.699  1.00  0.00    -0.011 A 
ATOM     33  C   UNL A   1      34.868  22.272  24.322  1.00  0.00     0.007 A 
ATOM     34  C   UNL A   1      36.002  23.152  26.267  1.00  0.00     0.007 A 
ATOM     35  C   UNL A   1      35.938  22.681  23.525  1.00  0.00     0.000 A 
ATOM     36  C   UNL A   1      37.057  23.580  25.468  1.00  0.00     0.000 A 
ATOM     37  C   UNL A   1      37.023  23.349  24.096  1.00  0.00     0.000 A 
ENDBRANCH  31  32
ENDBRANCH  30  31
ENDBRANCH  27  30
ENDBRANCH  25  26
ENDBRANCH  22  25
ENDBRANCH  19  21
ENDBRANCH  16  19
ENDBRANCH  14  15
BRANCH  14  38
ATOM     38  C   UNL A   1      31.777  30.239  26.154  1.00  0.00     0.015 C 
ATOM     39  C   UNL A   1      31.481  31.679  26.590  1.00  0.00     0.010 C 
ATOM     40  C   UNL A   1      30.927  29.933  24.912  1.00  0.00     0.010 C 
ENDBRANCH  14  38
ENDBRANCH  11  14
ENDBRANCH   5  10
ENDBRANCH   1   5
BRANCH   3  41
ATOM     41  C   UNL A   1      37.365  30.285  28.451  1.00  0.00     0.116 C 
BRANCH  41  42
ATOM     42  C   UNL A   1      38.630  29.666  27.883  1.00  0.00     0.021 C 
BRANCH  42  43
ATOM     43  C   UNL A   1      39.213  28.546  28.749  1.00  0.00     0.002 C 
BRANCH  43  44
ATOM     44  C   UNL A   1      38.915  27.122  28.266  1.00  0.00     0.002 C 
BRANCH  44  45
ATOM     45  C   UNL A   1      40.141  26.283  27.900  1.00  0.00     0.021 C 
BRANCH  45  46
ATOM     46  C   UNL A   1      40.115  25.681  26.502  1.00  0.00     0.116 C 
BRANCH  46  47
ATOM     47  N   UNL A   1      40.678  24.344  26.453  1.00  0.00    -0.352 N 
ATOM     48  C   UNL A   1      41.995  23.975  26.356  1.00  0.00     0.251 C 
ATOM     49  H   UNL A   1      40.029  23.605  26.493  1.00  0.00     0.163 HD
ATOM     50  O   UNL A   1      42.308  22.798  26.217  1.00  0.00    -0.269 OA
BRANCH  48  51
ATOM     51  C   UNL A   1      43.033  25.021  26.385  1.00  0.00     0.039 A 
ATOM     52  C   UNL A   1      43.330  25.700  25.203  1.00  0.00     0.014 A 
ATOM     53  C   UNL A   1      43.688  25.344  27.578  1.00  0.00     0.014 A 
ATOM     54  C   UNL A   1      44.256  26.741  25.224  1.00  0.00     0.010 A 
ATOM     55  C   UNL A   1      44.560  26.427  27.611  1.00  0.00     0.010 A 
ATOM     56  C   UNL A   1      44.857  27.128  26.433  1.00  0.00    -0.014 A 
BRANCH  56  57
ATOM     57  C   UNL A   1      45.816  28.257  26.478  1.00  0.00     0.031 A 
ATOM     58  C   UNL A   1      47.281  28.003  26.271  1.00  0.00     0.074 A 
ATOM     59  C   UNL A   1      45.371  29.496  26.759  1.00  0.00     0.049 A 
ATOM     60  N   UNL A   1      48.283  28.843  26.323  1.00  0.00    -0.248 NA
ATOM     61  C   UNL A   1      47.677  26.611  25.999  1.00  0.00     0.031 C 
ATOM     62  C   UNL A   1      43.978  29.853  27.027  1.00  0.00     0.029 A 
ATOM     63  N   UNL A   1      46.047  30.683  26.875  1.00  0.00    -0.354 N 
ATOM     64  C   UNL A   1      49.423  28.082  26.106  1.00  0.00     0.074 A 
ATOM     65  C   UNL A   1      48.998  26.706  25.976  1.00  0.00     0.031 C 
ATOM     66  C   UNL A   1      43.898  31.173  27.255  1.00  0.00     0.029 A 
ATOM     67  C   UNL A   1      45.238  31.748  27.181  1.00  0.00     0.049 A 
ATOM     68  H   UNL A   1      47.021  30.763  26.752  1.00  0.00     0.167 HD
ATOM     69  C   UNL A   1      50.707  28.499  25.999  1.00  0.00     0.037 A 
ATOM     70  C   UNL A   1      45.545  33.044  27.382  1.00  0.00     0.037 A 
ATOM     71  C   UNL A   1      51.118  29.874  26.101  1.00  0.00     0.049 A 
ATOM     72  C   UNL A   1      46.978  33.483  27.250  1.00  0.00     0.074 A 
ATOM     73  C   UNL A   1      52.384  30.412  25.945  1.00  0.00     0.029 A 
ATOM     74  N   UNL A   1      50.267  30.931  26.390  1.00  0.00    -0.354 N 
ATOM     75  N   UNL A   1      48.041  32.768  26.973  1.00  0.00    -0.248 NA
ATOM     76  C   UNL A   1      47.253  34.913  27.451  1.00  0.00     0.031 C 
ATOM     77  C   UNL A   1      52.306  31.788  26.180  1.00  0.00     0.029 A 
ATOM     78  C   UNL A   1      50.983  32.117  26.437  1.00  0.00     0.049 A 
ATOM     79  H   UNL A   1      49.297  30.852  26.539  1.00  0.00     0.167 HD
ATOM     80  C   UNL A   1      49.104  33.659  26.939  1.00  0.00     0.074 A 
ATOM     81  C   UNL A   1      48.555  34.972  27.211  1.00  0.00     0.031 C 
ATOM     82  C   UNL A   1      50.416  33.414  26.704  1.00  0.00     0.037 A 
BRANCH  69  83
ATOM     83  C   UNL A   1      51.757  27.454  25.756  1.00  0.00     0.064 A 
ATOM     84  C   UNL A   1      52.436  26.832  26.816  1.00  0.00     0.173 A 
ATOM     85  C   UNL A   1      52.074  27.053  24.450  1.00  0.00     0.173 A 
ATOM     86  F   UNL A   1      52.179  27.189  28.083  1.00  0.00    -0.203 F 
ATOM     87  C   UNL A   1      53.418  25.875  26.575  1.00  0.00     0.198 A 
ATOM     88  C   UNL A   1      53.034  26.072  24.214  1.00  0.00     0.198 A 
ATOM     89  F   UNL A   1      51.452  27.612  23.401  1.00  0.00    -0.203 F 
ATOM     90  F   UNL A   1      54.091  25.336  27.601  1.00  0.00    -0.200 F 
ATOM     91  C   UNL A   1      53.711  25.490  25.275  1.00  0.00     0.200 A 
ATOM     92  F   UNL A   1      53.309  25.694  22.958  1.00  0.00    -0.200 F 
ATOM     93  F   UNL A   1      54.653  24.566  25.045  1.00  0.00    -0.200 F 
ENDBRANCH  69  83
BRANCH  70  94
ATOM     94  C   UNL A   1      44.469  34.019  27.694  1.00  0.00     0.064 A 
ATOM     95  C   UNL A   1      43.902  34.810  26.686  1.00  0.00     0.173 A 
ATOM     96  C   UNL A   1      43.979  34.171  28.999  1.00  0.00     0.173 A 
ATOM     97  F   UNL A   1      44.351  34.713  25.426  1.00  0.00    -0.203 F 
ATOM     98  C   UNL A   1      42.896  35.730  26.974  1.00  0.00     0.198 A 
ATOM     99  C   UNL A   1      42.954  35.073  29.281  1.00  0.00     0.198 A 
ATOM    100  F   UNL A   1      44.484  33.432  29.997  1.00  0.00    -0.203 F 
ATOM    101  F   UNL A   1      42.397  36.502  25.999  1.00  0.00    -0.200 F 
ATOM    102  C   UNL A   1      42.418  35.856  28.269  1.00  0.00     0.200 A 
ATOM    103  F   UNL A   1      42.486  35.180  30.532  1.00  0.00    -0.200 F 
ATOM    104  F   UNL A   1      41.446  36.736  28.545  1.00  0.00    -0.200 F 
ENDBRANCH  70  94
BRANCH  82 105
ATOM    105  C   UNL A   1      51.345  34.593  26.700  1.00  0.00     0.064 A 
ATOM    106  C   UNL A   1      51.557  35.356  25.542  1.00  0.00     0.173 A 
ATOM    107  C   UNL A   1      51.996  34.987  27.878  1.00  0.00     0.173 A 
ATOM    108  F   UNL A   1      50.968  35.010  24.388  1.00  0.00    -0.203 F 
ATOM    109  C   UNL A   1      52.405  36.459  25.560  1.00  0.00     0.198 A 
ATOM    110  C   UNL A   1      52.821  36.107  27.898  1.00  0.00     0.198 A 
ATOM    111  F   UNL A   1      51.820  34.293  29.012  1.00  0.00    -0.203 F 
ATOM    112  F   UNL A   1      52.629  37.148  24.432  1.00  0.00    -0.200 F 
ATOM    113  C   UNL A   1      53.030  36.838  26.739  1.00  0.00     0.200 A 
ATOM    114  F   UNL A   1      53.414  36.480  29.041  1.00  0.00    -0.200 F 
ATOM    115  F   UNL A   1      53.841  37.905  26.756  1.00  0.00    -0.200 F 
ENDBRANCH  82 105
ENDBRANCH  56  57
ENDBRANCH  48  51
ENDBRANCH  46  47
ENDBRANCH  45  46
ENDBRANCH  44  45
ENDBRANCH  43  44
ENDBRANCH  42  43
ENDBRANCH  41  42
ENDBRANCH   3  41
TORSDOF 26
ENDMDL
MODEL 3
REMARK VINA RESULT:      -9.2      7.936     12.977
REMARK SMILES CC(C)C[C@H](NC(=O)[C@@H](NC(=O)[C@H](C)NC(=O)CNC(=O)OCc1ccccc1)C(C)C)C(=O)NCCCCCCNC(=O)c1ccc(-c2c3nc(c(-c4c(F)c(F)c(F)c(F)c4F)c4ccc([nH]4)c(-c4c(F)c(F)c(F)c(F)c4F)c4nc(c(-c5c(F)c(F)c(F)c(F)c5F)c5ccc2[nH]5)C=C4)C=C3)cc1
REMARK SMILES IDX 33 1 34 2 35 3 5 5 4 6 2 7 1 8 3 9 6 10 7 11 8 13 9 14 10 15
REMARK SMILES IDX 11 16 12 18 13 19 14 20 15 21 16 22 17 24 18 25 19 26 20 27
REMARK SMILES IDX 21 29 22 30 23 31 24 32 25 33 29 34 26 35 28 36 27 37 30 38
REMARK SMILES IDX 31 39 32 40 36 41 37 42 38 43 39 44 40 45 41 46 42 47 43 48
REMARK SMILES IDX 44 50 45 51 46 52 107 53 47 54 106 55 48 56 49 57 50 58
REMARK SMILES IDX 100 59 51 60 105 61 99 62 101 63 52 64 104 65 98 66 97 67
REMARK SMILES IDX 53 69 85 70 65 71 84 72 66 73 69 74 83 75 102 76 67 77 68 78
REMARK SMILES IDX 82 80 103 81 70 82 54 83 55 84 63 85 56 86 57 87 61 88 64 89
REMARK SMILES IDX 58 90 59 91 62 92 60 93 86 94 87 95 95 96 88 97 89 98 93 99
REMARK SMILES IDX 96 100 90 101 91 102 94 103 92 104 71 105 72 106 80 107
REMARK SMILES IDX 73 108 74 109 78 110 81 111 75 112 76 113 79 114 77 115
REMARK H PARENT 35 4 6 12 10 17 15 23 19 28 42 49 101 68 69 79
REMARK Flexibility Score: inf
ROOT
ATOM      1  C   UNL A   1      35.371  29.542  28.239  1.00  0.00     0.242 C 
ATOM      2  O   UNL A   1      34.576  28.762  28.762  1.00  0.00    -0.273 OA
ATOM      3  N   UNL A   1      36.673  29.501  28.642  1.00  0.00    -0.354 N 
ATOM      4  H   UNL A   1      36.862  28.920  29.414  1.00  0.00     0.163 HD
ENDROOT
BRANCH   1   5
ATOM      5  C   UNL A   1      34.947  30.509  27.114  1.00  0.00     0.171 C 
BRANCH   5   6
ATOM      6  C   UNL A   1      33.750  31.364  27.529  1.00  0.00     0.038 C 
BRANCH   6   7
ATOM      7  C   UNL A   1      33.946  32.633  28.376  1.00  0.00    -0.015 C 
ATOM      8  C   UNL A   1      35.374  33.168  28.328  1.00  0.00     0.007 C 
ATOM      9  C   UNL A   1      33.000  33.716  27.831  1.00  0.00     0.007 C 
ENDBRANCH   6   7
ENDBRANCH   5   6
BRANCH   5  10
ATOM     10  N   UNL A   1      34.719  29.702  25.896  1.00  0.00    -0.343 N 
ATOM     11  C   UNL A   1      33.735  29.054  25.248  1.00  0.00     0.243 C 
ATOM     12  H   UNL A   1      35.563  29.610  25.397  1.00  0.00     0.164 HD
ATOM     13  O   UNL A   1      34.129  28.472  24.222  1.00  0.00    -0.273 OA
BRANCH  11  14
ATOM     14  C   UNL A   1      32.209  29.018  25.562  1.00  0.00     0.174 C 
BRANCH  14  15
ATOM     15  N   UNL A   1      31.283  29.511  24.532  1.00  0.00    -0.342 N 
ATOM     16  C   UNL A   1      30.627  29.073  23.435  1.00  0.00     0.242 C 
ATOM     17  H   UNL A   1      31.076  30.460  24.692  1.00  0.00     0.164 HD
ATOM     18  O   UNL A   1      29.805  29.874  22.966  1.00  0.00    -0.273 OA
BRANCH  16  19
ATOM     19  C   UNL A   1      30.738  27.668  22.796  1.00  0.00     0.168 C 
ATOM     20  C   UNL A   1      30.316  26.647  23.847  1.00  0.00     0.041 C 
BRANCH  19  21
ATOM     21  N   UNL A   1      32.015  27.344  22.166  1.00  0.00    -0.343 N 
ATOM     22  C   UNL A   1      32.839  26.265  22.198  1.00  0.00     0.240 C 
ATOM     23  H   UNL A   1      32.353  28.068  21.591  1.00  0.00     0.164 HD
ATOM     24  O   UNL A   1      33.876  26.360  21.532  1.00  0.00    -0.273 OA
BRANCH  22  25
ATOM     25  C   UNL A   1      32.482  24.943  22.870  1.00  0.00     0.219 C 
BRANCH  25  26
ATOM     26  N   UNL A   1      33.597  24.352  23.560  1.00  0.00    -0.312 N 
ATOM     27  C   UNL A   1      33.674  23.078  24.019  1.00  0.00     0.407 C 
ATOM     28  H   UNL A   1      34.381  24.928  23.713  1.00  0.00     0.167 HD
ATOM     29  O   UNL A   1      34.584  22.752  24.766  1.00  0.00    -0.225 OA
BRANCH  27  30
ATOM     30  O   UNL A   1      32.617  22.315  23.646  1.00  0.00    -0.445 OA
BRANCH  30  31
ATOM     31  C   UNL A   1      32.188  21.312  24.582  1.00  0.00     0.270 C 
BRANCH  31  32
ATOM     32  C   UNL A   1      32.585  19.933  24.134  1.00  0.00    -0.011 A 
ATOM     33  C   UNL A   1      32.080  19.390  22.948  1.00  0.00     0.007 A 
ATOM     34  C   UNL A   1      33.555  19.222  24.855  1.00  0.00     0.007 A 
ATOM     35  C   UNL A   1      32.567  18.170  22.477  1.00  0.00     0.000 A 
ATOM     36  C   UNL A   1      34.056  18.018  24.372  1.00  0.00     0.000 A 
ATOM     37  C   UNL A   1      33.565  17.494  23.180  1.00  0.00     0.000 A 
ENDBRANCH  31  32
ENDBRANCH  30  31
ENDBRANCH  27  30
ENDBRANCH  25  26
ENDBRANCH  22  25
ENDBRANCH  19  21
ENDBRANCH  16  19
ENDBRANCH  14  15
BRANCH  14  38
ATOM     38  C   UNL A   1      31.723  27.825  26.433  1.00  0.00     0.015 C 
ATOM     39  C   UNL A   1      32.743  26.683  26.523  1.00  0.00     0.010 C 
ATOM     40  C   UNL A   1      31.383  28.272  27.861  1.00  0.00     0.010 C 
ENDBRANCH  14  38
ENDBRANCH  11  14
ENDBRANCH   5  10
ENDBRANCH   1   5
BRANCH   3  41
ATOM     41  C   UNL A   1      37.815  30.197  28.087  1.00  0.00     0.116 C 
BRANCH  41  42
ATOM     42  C   UNL A   1      38.669  29.276  27.234  1.00  0.00     0.021 C 
BRANCH  42  43
ATOM     43  C   UNL A   1      39.790  28.579  28.008  1.00  0.00     0.002 C 
BRANCH  43  44
ATOM     44  C   UNL A   1      40.511  27.459  27.250  1.00  0.00     0.002 C 
BRANCH  44  45
ATOM     45  C   UNL A   1      39.817  26.095  27.276  1.00  0.00     0.021 C 
BRANCH  45  46
ATOM     46  C   UNL A   1      40.556  25.012  28.049  1.00  0.00     0.116 C 
BRANCH  46  47
ATOM     47  N   UNL A   1      41.078  23.963  27.192  1.00  0.00    -0.352 N 
ATOM     48  C   UNL A   1      42.196  23.985  26.400  1.00  0.00     0.251 C 
ATOM     49  H   UNL A   1      40.559  23.126  27.177  1.00  0.00     0.163 HD
ATOM     50  O   UNL A   1      42.449  23.053  25.646  1.00  0.00    -0.269 OA
BRANCH  48  51
ATOM     51  C   UNL A   1      43.076  25.167  26.440  1.00  0.00     0.039 A 
ATOM     52  C   UNL A   1      43.758  25.452  27.624  1.00  0.00     0.014 A 
ATOM     53  C   UNL A   1      43.247  25.970  25.308  1.00  0.00     0.014 A 
ATOM     54  C   UNL A   1      44.650  26.521  27.661  1.00  0.00     0.010 A 
ATOM     55  C   UNL A   1      44.188  26.993  25.326  1.00  0.00     0.010 A 
ATOM     56  C   UNL A   1      44.890  27.282  26.506  1.00  0.00    -0.014 A 
BRANCH  56  57
ATOM     57  C   UNL A   1      45.863  28.400  26.521  1.00  0.00     0.031 A 
ATOM     58  C   UNL A   1      47.321  28.126  26.294  1.00  0.00     0.074 A 
ATOM     59  C   UNL A   1      45.437  29.648  26.792  1.00  0.00     0.049 A 
ATOM     60  N   UNL A   1      48.333  28.956  26.318  1.00  0.00    -0.248 NA
ATOM     61  C   UNL A   1      47.698  26.727  26.034  1.00  0.00     0.031 C 
ATOM     62  C   UNL A   1      44.052  30.024  27.078  1.00  0.00     0.029 A 
ATOM     63  N   UNL A   1      46.128  30.829  26.882  1.00  0.00    -0.354 N 
ATOM     64  C   UNL A   1      49.462  28.178  26.093  1.00  0.00     0.074 A 
ATOM     65  C   UNL A   1      49.019  26.806  25.988  1.00  0.00     0.031 C 
ATOM     66  C   UNL A   1      43.991  31.348  27.289  1.00  0.00     0.029 A 
ATOM     67  C   UNL A   1      45.336  31.907  27.186  1.00  0.00     0.049 A 
ATOM     68  H   UNL A   1      47.100  30.896  26.741  1.00  0.00     0.167 HD
ATOM     69  C   UNL A   1      50.748  28.580  25.959  1.00  0.00     0.037 A 
ATOM     70  C   UNL A   1      45.661  33.201  27.364  1.00  0.00     0.037 A 
ATOM     71  C   UNL A   1      51.176  29.951  26.036  1.00  0.00     0.049 A 
ATOM     72  C   UNL A   1      47.096  33.622  27.203  1.00  0.00     0.074 A 
ATOM     73  C   UNL A   1      52.445  30.472  25.853  1.00  0.00     0.029 A 
ATOM     74  N   UNL A   1      50.342  31.021  26.324  1.00  0.00    -0.354 N 
ATOM     75  N   UNL A   1      48.146  32.892  26.919  1.00  0.00    -0.248 NA
ATOM     76  C   UNL A   1      47.390  35.051  27.380  1.00  0.00     0.031 C 
ATOM     77  C   UNL A   1      52.386  31.852  26.071  1.00  0.00     0.029 A 
ATOM     78  C   UNL A   1      51.072  32.199  26.344  1.00  0.00     0.049 A 
ATOM     79  H   UNL A   1      49.373  30.955  26.490  1.00  0.00     0.167 HD
ATOM     80  C   UNL A   1      49.218  33.770  26.855  1.00  0.00     0.074 A 
ATOM     81  C   UNL A   1      48.689  35.092  27.119  1.00  0.00     0.031 C 
ATOM     82  C   UNL A   1      50.524  33.507  26.603  1.00  0.00     0.037 A 
BRANCH  69  83
ATOM     83  C   UNL A   1      51.781  27.519  25.714  1.00  0.00     0.064 A 
ATOM     84  C   UNL A   1      52.476  26.909  26.770  1.00  0.00     0.173 A 
ATOM     85  C   UNL A   1      52.068  27.093  24.409  1.00  0.00     0.173 A 
ATOM     86  F   UNL A   1      52.249  27.290  28.036  1.00  0.00    -0.203 F 
ATOM     87  C   UNL A   1      53.443  25.937  26.527  1.00  0.00     0.198 A 
ATOM     88  C   UNL A   1      53.013  26.097  24.171  1.00  0.00     0.198 A 
ATOM     89  F   UNL A   1      51.431  27.640  23.363  1.00  0.00    -0.203 F 
ATOM     90  F   UNL A   1      54.131  25.409  27.548  1.00  0.00    -0.200 F 
ATOM     91  C   UNL A   1      53.705  25.527  25.227  1.00  0.00     0.200 A 
ATOM     92  F   UNL A   1      53.258  25.695  22.916  1.00  0.00    -0.200 F 
ATOM     93  F   UNL A   1      54.633  24.589  24.994  1.00  0.00    -0.200 F 
ENDBRANCH  69  83
BRANCH  70  94
ATOM     94  C   UNL A   1      44.601  34.193  27.681  1.00  0.00     0.064 A 
ATOM     95  C   UNL A   1      44.208  34.427  29.006  1.00  0.00     0.173 A 
ATOM     96  C   UNL A   1      43.970  34.933  26.672  1.00  0.00     0.173 A 
ATOM     97  F   UNL A   1      44.771  33.728  30.003  1.00  0.00    -0.203 F 
ATOM     98  C   UNL A   1      43.212  35.352  29.308  1.00  0.00     0.198 A 
ATOM     99  C   UNL A   1      42.992  35.878  26.978  1.00  0.00     0.198 A 
ATOM    100  F   UNL A   1      44.317  34.753  25.389  1.00  0.00    -0.203 F 
ATOM    101  F   UNL A   1      42.828  35.528  30.580  1.00  0.00    -0.200 F 
ATOM    102  C   UNL A   1      42.609  36.081  28.295  1.00  0.00     0.200 A 
ATOM    103  F   UNL A   1      42.423  36.592  25.997  1.00  0.00    -0.200 F 
ATOM    104  F   UNL A   1      41.655  36.976  28.587  1.00  0.00    -0.200 F 
ENDBRANCH  70  94
BRANCH  82 105
ATOM    105  C   UNL A   1      51.466  34.674  26.567  1.00  0.00     0.064 A 
ATOM    106  C   UNL A   1      52.190  35.069  27.702  1.00  0.00     0.173 A 
ATOM    107  C   UNL A   1      51.676  35.379  25.373  1.00  0.00     0.173 A 
ATOM    108  F   UNL A   1      52.012  34.436  28.871  1.00  0.00    -0.203 F 
ATOM    109  C   UNL A   1      53.076  36.141  27.646  1.00  0.00     0.198 A 
ATOM    110  C   UNL A   1      52.583  36.432  25.314  1.00  0.00     0.198 A 
ATOM    111  F   UNL A   1      51.011  35.036  24.259  1.00  0.00    -0.203 F 
ATOM    112  F   UNL A   1      53.724  36.530  28.753  1.00  0.00    -0.200 F 
ATOM    113  C   UNL A   1      53.277  36.817  26.451  1.00  0.00     0.200 A 
ATOM    114  F   UNL A   1      52.786  37.076  24.156  1.00  0.00    -0.200 F 
ATOM    115  F   UNL A   1      54.136  37.845  26.398  1.00  0.00    -0.200 F 
ENDBRANCH  82 105
ENDBRANCH  56  57
ENDBRANCH  48  51
ENDBRANCH  46  47
ENDBRANCH  45  46
ENDBRANCH  44  45
ENDBRANCH  43  44
ENDBRANCH  42  43
ENDBRANCH  41  42
ENDBRANCH   3  41
TORSDOF 26
ENDMDL
