MODEL 1
REMARK VINA RESULT:     -10.8      0.000      0.000
REMARK SMILES CS(=O)(=O)CC[C@H](NC(=O)Cc1ccn[nH]1)C(=O)NCCCCCCNC(=O)c1ccc(-c2c3nc(c(-c4c(F)c(F)c(F)c(F)c4F)c4ccc([nH]4)c(-c4c(F)c(F)c(F)c(F)c4F)c4nc(c(-c5c(F)c(F)c(F)c(F)c5F)c5ccc2[nH]5)C=C4)C=C3)cc1
REMARK SMILES IDX 22 1 21 2 20 3 19 4 17 5 18 6 7 8 6 9 5 10 2 11 1 12 3 13
REMARK SMILES IDX 4 14 8 15 9 16 10 18 11 19 12 20 13 21 16 22 14 23 15 24
REMARK SMILES IDX 23 26 24 27 25 28 26 29 27 30 28 32 29 33 30 34 91 35 31 36
REMARK SMILES IDX 90 37 32 38 33 39 34 40 84 41 35 42 89 43 83 44 85 45 36 46
REMARK SMILES IDX 88 47 82 48 81 49 37 51 69 52 49 53 68 54 50 55 53 56 67 57
REMARK SMILES IDX 86 58 51 59 52 60 66 62 87 63 54 64 38 65 39 66 47 67 40 68
REMARK SMILES IDX 41 69 45 70 48 71 42 72 43 73 46 74 44 75 70 76 71 77 79 78
REMARK SMILES IDX 72 79 73 80 77 81 80 82 74 83 75 84 78 85 76 86 55 87 56 88
REMARK SMILES IDX 64 89 57 90 58 91 62 92 65 93 59 94 60 95 63 96 61 97
REMARK H PARENT 19 7 8 17 16 25 26 31 85 50 53 61
REMARK Flexibility Score: inf
ROOT
ATOM      1  C   UNL A   1      31.039  26.726  26.808  1.00  0.00     0.002 C 
ENDROOT
BRANCH   1   2
ATOM      2  C   UNL A   1      30.758  25.413  26.068  1.00  0.00     0.021 C 
BRANCH   2   3
ATOM      3  C   UNL A   1      31.557  24.166  26.446  1.00  0.00     0.116 C 
BRANCH   3   4
ATOM      4  N   UNL A   1      33.011  24.269  26.372  1.00  0.00    -0.354 N 
ATOM      5  C   UNL A   1      33.880  24.173  25.311  1.00  0.00     0.242 C 
ATOM      6  O   UNL A   1      35.088  24.193  25.573  1.00  0.00    -0.273 OA
ATOM      7  H   UNL A   1      33.447  24.439  27.238  1.00  0.00     0.163 HD
BRANCH   5   8
ATOM      8  C   UNL A   1      33.429  24.079  23.815  1.00  0.00     0.172 C 
BRANCH   8   9
ATOM      9  C   UNL A   1      33.732  22.720  23.156  1.00  0.00     0.051 C 
BRANCH   9  10
ATOM     10  C   UNL A   1      32.577  21.723  23.091  1.00  0.00     0.139 C 
BRANCH  10  11
ATOM     11  S   UNL A   1      32.619  20.408  24.305  1.00  0.00     0.147 S 
ATOM     12  C   UNL A   1      34.272  20.469  24.960  1.00  0.00     0.158 C 
ATOM     13  O   UNL A   1      32.496  19.158  23.590  1.00  0.00    -0.229 OA
ATOM     14  O   UNL A   1      31.702  20.735  25.385  1.00  0.00    -0.229 OA
ENDBRANCH  10  11
ENDBRANCH   9  10
ENDBRANCH   8   9
BRANCH   8  15
ATOM     15  N   UNL A   1      33.744  25.228  22.980  1.00  0.00    -0.344 N 
ATOM     16  C   UNL A   1      33.063  26.044  22.147  1.00  0.00     0.226 C 
ATOM     17  H   UNL A   1      34.696  25.473  23.037  1.00  0.00     0.164 HD
ATOM     18  O   UNL A   1      33.791  26.746  21.428  1.00  0.00    -0.275 OA
BRANCH  16  19
ATOM     19  C   UNL A   1      31.564  26.239  22.066  1.00  0.00     0.155 C 
BRANCH  19  20
ATOM     20  C   UNL A   1      30.882  27.549  22.308  1.00  0.00     0.044 A 
ATOM     21  C   UNL A   1      29.688  27.767  22.976  1.00  0.00     0.045 A 
ATOM     22  N   UNL A   1      31.313  28.800  21.983  1.00  0.00    -0.282 N 
ATOM     23  C   UNL A   1      29.474  29.152  22.934  1.00  0.00     0.135 A 
ATOM     24  N   UNL A   1      30.457  29.782  22.298  1.00  0.00    -0.184 NA
ATOM     25  H   UNL A   1      32.183  28.970  21.554  1.00  0.00     0.190 HD
ENDBRANCH  19  20
ENDBRANCH  16  19
ENDBRANCH   8  15
ENDBRANCH   5   8
ENDBRANCH   3   4
ENDBRANCH   2   3
ENDBRANCH   1   2
BRANCH   1  26
ATOM     26  C   UNL A   1      31.469  27.961  26.017  1.00  0.00     0.002 C 
BRANCH  26  27
ATOM     27  C   UNL A   1      32.840  27.955  25.341  1.00  0.00     0.021 C 
BRANCH  27  28
ATOM     28  C   UNL A   1      33.434  29.318  25.006  1.00  0.00     0.116 C 
BRANCH  28  29
ATOM     29  N   UNL A   1      32.801  30.423  25.705  1.00  0.00    -0.352 N 
ATOM     30  C   UNL A   1      33.202  31.110  26.826  1.00  0.00     0.251 C 
ATOM     31  H   UNL A   1      31.952  30.730  25.312  1.00  0.00     0.163 HD
ATOM     32  O   UNL A   1      32.477  31.983  27.295  1.00  0.00    -0.269 OA
BRANCH  30  33
ATOM     33  C   UNL A   1      34.480  30.785  27.502  1.00  0.00     0.039 A 
ATOM     34  C   UNL A   1      35.428  31.803  27.663  1.00  0.00     0.014 A 
ATOM     35  C   UNL A   1      34.764  29.497  27.963  1.00  0.00     0.014 A 
ATOM     36  C   UNL A   1      36.621  31.547  28.344  1.00  0.00     0.010 A 
ATOM     37  C   UNL A   1      35.918  29.263  28.709  1.00  0.00     0.010 A 
ATOM     38  C   UNL A   1      36.859  30.284  28.906  1.00  0.00    -0.014 A 
BRANCH  38  39
ATOM     39  C   UNL A   1      38.083  30.010  29.704  1.00  0.00     0.031 A 
ATOM     40  C   UNL A   1      39.138  29.078  29.175  1.00  0.00     0.074 A 
ATOM     41  C   UNL A   1      38.209  30.540  30.936  1.00  0.00     0.049 A 
ATOM     42  N   UNL A   1      40.229  28.644  29.755  1.00  0.00    -0.248 NA
ATOM     43  C   UNL A   1      38.923  28.537  27.824  1.00  0.00     0.031 C 
ATOM     44  C   UNL A   1      37.231  31.417  31.583  1.00  0.00     0.029 A 
ATOM     45  N   UNL A   1      39.204  30.407  31.873  1.00  0.00    -0.354 N 
ATOM     46  C   UNL A   1      40.815  27.766  28.852  1.00  0.00     0.074 A 
ATOM     47  C   UNL A   1      39.936  27.690  27.705  1.00  0.00     0.031 C 
ATOM     48  C   UNL A   1      37.682  31.756  32.802  1.00  0.00     0.029 A 
ATOM     49  C   UNL A   1      38.960  31.092  33.038  1.00  0.00     0.049 A 
ATOM     50  H   UNL A   1      40.016  29.871  31.723  1.00  0.00     0.167 HD
ATOM     51  C   UNL A   1      41.990  27.102  28.961  1.00  0.00     0.037 A 
ATOM     52  C   UNL A   1      39.679  31.167  34.175  1.00  0.00     0.037 A 
ATOM     53  C   UNL A   1      42.878  27.208  30.088  1.00  0.00     0.049 A 
ATOM     54  C   UNL A   1      40.987  30.428  34.264  1.00  0.00     0.074 A 
ATOM     55  C   UNL A   1      44.124  26.632  30.263  1.00  0.00     0.029 A 
ATOM     56  N   UNL A   1      42.610  27.939  31.237  1.00  0.00    -0.354 N 
ATOM     57  N   UNL A   1      41.566  29.660  33.374  1.00  0.00    -0.248 NA
ATOM     58  C   UNL A   1      41.746  30.572  35.515  1.00  0.00     0.031 C 
ATOM     59  C   UNL A   1      44.591  26.976  31.535  1.00  0.00     0.029 A 
ATOM     60  C   UNL A   1      43.660  27.810  32.133  1.00  0.00     0.049 A 
ATOM     61  H   UNL A   1      41.797  28.471  31.393  1.00  0.00     0.167 HD
ATOM     62  C   UNL A   1      42.767  29.255  33.941  1.00  0.00     0.074 A 
ATOM     63  C   UNL A   1      42.840  29.874  35.248  1.00  0.00     0.031 C 
ATOM     64  C   UNL A   1      43.723  28.443  33.426  1.00  0.00     0.037 A 
BRANCH  51  65
ATOM     65  C   UNL A   1      42.389  26.201  27.827  1.00  0.00     0.064 A 
ATOM     66  C   UNL A   1      43.229  26.645  26.792  1.00  0.00     0.173 A 
ATOM     67  C   UNL A   1      41.962  24.865  27.794  1.00  0.00     0.173 A 
ATOM     68  F   UNL A   1      43.659  27.916  26.770  1.00  0.00    -0.203 F 
ATOM     69  C   UNL A   1      43.600  25.794  25.754  1.00  0.00     0.198 A 
ATOM     70  C   UNL A   1      42.361  24.009  26.771  1.00  0.00     0.198 A 
ATOM     71  F   UNL A   1      41.163  24.387  28.760  1.00  0.00    -0.203 F 
ATOM     72  F   UNL A   1      44.361  26.256  24.753  1.00  0.00    -0.200 F 
ATOM     73  C   UNL A   1      43.172  24.475  25.748  1.00  0.00     0.200 A 
ATOM     74  F   UNL A   1      41.957  22.731  26.774  1.00  0.00    -0.200 F 
ATOM     75  F   UNL A   1      43.536  23.656  24.753  1.00  0.00    -0.200 F 
ENDBRANCH  51  65
BRANCH  52  76
ATOM     76  C   UNL A   1      39.190  31.992  35.312  1.00  0.00     0.064 A 
ATOM     77  C   UNL A   1      39.494  33.358  35.393  1.00  0.00     0.173 A 
ATOM     78  C   UNL A   1      38.419  31.433  36.340  1.00  0.00     0.173 A 
ATOM     79  F   UNL A   1      40.246  33.934  34.444  1.00  0.00    -0.203 F 
ATOM     80  C   UNL A   1      39.063  34.128  36.471  1.00  0.00     0.198 A 
ATOM     81  C   UNL A   1      37.963  32.211  37.402  1.00  0.00     0.198 A 
ATOM     82  F   UNL A   1      38.095  30.132  36.308  1.00  0.00    -0.203 F 
ATOM     83  F   UNL A   1      39.409  35.421  36.548  1.00  0.00    -0.200 F 
ATOM     84  C   UNL A   1      38.294  33.556  37.473  1.00  0.00     0.200 A 
ATOM     85  F   UNL A   1      37.207  31.658  38.360  1.00  0.00    -0.200 F 
ATOM     86  F   UNL A   1      37.877  34.298  38.507  1.00  0.00    -0.200 F 
ENDBRANCH  52  76
BRANCH  64  87
ATOM     87  C   UNL A   1      44.950  28.208  34.258  1.00  0.00     0.064 A 
ATOM     88  C   UNL A   1      45.051  27.115  35.132  1.00  0.00     0.173 A 
ATOM     89  C   UNL A   1      46.055  29.065  34.147  1.00  0.00     0.173 A 
ATOM     90  F   UNL A   1      44.015  26.276  35.285  1.00  0.00    -0.203 F 
ATOM     91  C   UNL A   1      46.205  26.903  35.881  1.00  0.00     0.198 A 
ATOM     92  C   UNL A   1      47.219  28.832  34.874  1.00  0.00     0.198 A 
ATOM     93  F   UNL A   1      46.013  30.120  33.320  1.00  0.00    -0.203 F 
ATOM     94  F   UNL A   1      46.262  25.880  36.745  1.00  0.00    -0.200 F 
ATOM     95  C   UNL A   1      47.290  27.756  35.745  1.00  0.00     0.200 A 
ATOM     96  F   UNL A   1      48.273  29.648  34.730  1.00  0.00    -0.200 F 
ATOM     97  F   UNL A   1      48.403  27.544  36.460  1.00  0.00    -0.200 F 
ENDBRANCH  64  87
ENDBRANCH  38  39
ENDBRANCH  30  33
ENDBRANCH  28  29
ENDBRANCH  27  28
ENDBRANCH  26  27
ENDBRANCH   1  26
TORSDOF 19
ENDMDL
MODEL 2
REMARK VINA RESULT:     -10.7      2.471      8.196
REMARK SMILES CS(=O)(=O)CC[C@H](NC(=O)Cc1ccn[nH]1)C(=O)NCCCCCCNC(=O)c1ccc(-c2c3nc(c(-c4c(F)c(F)c(F)c(F)c4F)c4ccc([nH]4)c(-c4c(F)c(F)c(F)c(F)c4F)c4nc(c(-c5c(F)c(F)c(F)c(F)c5F)c5ccc2[nH]5)C=C4)C=C3)cc1
REMARK SMILES IDX 22 1 21 2 20 3 19 4 17 5 18 6 7 8 6 9 5 10 2 11 1 12 3 13
REMARK SMILES IDX 4 14 8 15 9 16 10 18 11 19 12 20 13 21 16 22 14 23 15 24
REMARK SMILES IDX 23 26 24 27 25 28 26 29 27 30 28 32 29 33 30 34 91 35 31 36
REMARK SMILES IDX 90 37 32 38 33 39 34 40 84 41 35 42 89 43 83 44 85 45 36 46
REMARK SMILES IDX 88 47 82 48 81 49 37 51 69 52 49 53 68 54 50 55 53 56 67 57
REMARK SMILES IDX 86 58 51 59 52 60 66 62 87 63 54 64 38 65 39 66 47 67 40 68
REMARK SMILES IDX 41 69 45 70 48 71 42 72 43 73 46 74 44 75 70 76 71 77 79 78
REMARK SMILES IDX 72 79 73 80 77 81 80 82 74 83 75 84 78 85 76 86 55 87 56 88
REMARK SMILES IDX 64 89 57 90 58 91 62 92 65 93 59 94 60 95 63 96 61 97
REMARK H PARENT 19 7 8 17 16 25 26 31 85 50 53 61
REMARK Flexibility Score: inf
ROOT
ATOM      1  C   UNL A   1      32.418  29.981  27.033  1.00  0.00     0.002 C 
ENDROOT
BRANCH   1   2
ATOM      2  C   UNL A   1      33.629  29.425  26.275  1.00  0.00     0.021 C 
BRANCH   2   3
ATOM      3  C   UNL A   1      33.394  28.515  25.070  1.00  0.00     0.116 C 
BRANCH   3   4
ATOM      4  N   UNL A   1      32.266  27.592  25.154  1.00  0.00    -0.354 N 
ATOM      5  C   UNL A   1      31.283  27.267  24.250  1.00  0.00     0.242 C 
ATOM      6  O   UNL A   1      30.381  26.521  24.647  1.00  0.00    -0.273 OA
ATOM      7  H   UNL A   1      32.198  27.116  26.013  1.00  0.00     0.163 HD
BRANCH   5   8
ATOM      8  C   UNL A   1      31.267  27.752  22.761  1.00  0.00     0.172 C 
BRANCH   8   9
ATOM      9  C   UNL A   1      29.953  28.440  22.343  1.00  0.00     0.051 C 
BRANCH   9  10
ATOM     10  C   UNL A   1      29.621  29.756  23.045  1.00  0.00     0.139 C 
BRANCH  10  11
ATOM     11  S   UNL A   1      28.218  30.651  22.386  1.00  0.00     0.147 S 
ATOM     12  C   UNL A   1      28.747  32.350  22.376  1.00  0.00     0.158 C 
ATOM     13  O   UNL A   1      27.150  30.550  23.355  1.00  0.00    -0.229 OA
ATOM     14  O   UNL A   1      28.005  30.246  21.006  1.00  0.00    -0.229 OA
ENDBRANCH  10  11
ENDBRANCH   9  10
ENDBRANCH   8   9
BRANCH   8  15
ATOM     15  N   UNL A   1      31.785  26.813  21.778  1.00  0.00    -0.344 N 
ATOM     16  C   UNL A   1      32.906  26.075  21.631  1.00  0.00     0.226 C 
ATOM     17  H   UNL A   1      31.159  26.684  21.030  1.00  0.00     0.164 HD
ATOM     18  O   UNL A   1      33.050  25.605  20.492  1.00  0.00    -0.275 OA
BRANCH  16  19
ATOM     19  C   UNL A   1      33.919  25.710  22.696  1.00  0.00     0.155 C 
BRANCH  19  20
ATOM     20  C   UNL A   1      33.897  24.423  23.457  1.00  0.00     0.044 A 
ATOM     21  C   UNL A   1      34.025  24.250  24.826  1.00  0.00     0.045 A 
ATOM     22  N   UNL A   1      33.686  23.163  22.983  1.00  0.00    -0.282 N 
ATOM     23  C   UNL A   1      33.943  22.868  25.047  1.00  0.00     0.135 A 
ATOM     24  N   UNL A   1      33.766  22.199  23.911  1.00  0.00    -0.184 NA
ATOM     25  H   UNL A   1      33.491  22.975  22.037  1.00  0.00     0.190 HD
ENDBRANCH  19  20
ENDBRANCH  16  19
ENDBRANCH   8  15
ENDBRANCH   5   8
ENDBRANCH   3   4
ENDBRANCH   2   3
ENDBRANCH   1   2
BRANCH   1  26
ATOM     26  C   UNL A   1      31.379  30.817  26.286  1.00  0.00     0.002 C 
BRANCH  26  27
ATOM     27  C   UNL A   1      31.348  32.327  26.523  1.00  0.00     0.021 C 
BRANCH  27  28
ATOM     28  C   UNL A   1      32.588  32.934  27.167  1.00  0.00     0.116 C 
BRANCH  28  29
ATOM     29  N   UNL A   1      32.377  34.264  27.714  1.00  0.00    -0.352 N 
ATOM     30  C   UNL A   1      33.050  34.931  28.709  1.00  0.00     0.251 C 
ATOM     31  H   UNL A   1      31.635  34.766  27.306  1.00  0.00     0.163 HD
ATOM     32  O   UNL A   1      32.664  36.041  29.064  1.00  0.00    -0.269 OA
BRANCH  30  33
ATOM     33  C   UNL A   1      34.215  34.315  29.386  1.00  0.00     0.039 A 
ATOM     34  C   UNL A   1      33.982  33.480  30.486  1.00  0.00     0.014 A 
ATOM     35  C   UNL A   1      35.525  34.557  28.967  1.00  0.00     0.014 A 
ATOM     36  C   UNL A   1      35.052  32.838  31.116  1.00  0.00     0.010 A 
ATOM     37  C   UNL A   1      36.582  33.857  29.545  1.00  0.00     0.010 A 
ATOM     38  C   UNL A   1      36.358  32.991  30.626  1.00  0.00    -0.014 A 
BRANCH  38  39
ATOM     39  C   UNL A   1      37.502  32.257  31.228  1.00  0.00     0.031 A 
ATOM     40  C   UNL A   1      38.011  32.635  32.591  1.00  0.00     0.074 A 
ATOM     41  C   UNL A   1      38.129  31.301  30.515  1.00  0.00     0.049 A 
ATOM     42  N   UNL A   1      39.048  32.176  33.247  1.00  0.00    -0.248 NA
ATOM     43  C   UNL A   1      37.275  33.692  33.301  1.00  0.00     0.031 C 
ATOM     44  C   UNL A   1      37.763  30.878  29.162  1.00  0.00     0.029 A 
ATOM     45  N   UNL A   1      39.216  30.520  30.823  1.00  0.00    -0.354 N 
ATOM     46  C   UNL A   1      39.100  32.902  34.430  1.00  0.00     0.074 A 
ATOM     47  C   UNL A   1      38.021  33.865  34.383  1.00  0.00     0.031 C 
ATOM     48  C   UNL A   1      38.600  29.906  28.763  1.00  0.00     0.029 A 
ATOM     49  C   UNL A   1      39.583  29.663  29.815  1.00  0.00     0.049 A 
ATOM     50  H   UNL A   1      39.689  30.571  31.685  1.00  0.00     0.167 HD
ATOM     51  C   UNL A   1      39.955  32.762  35.470  1.00  0.00     0.037 A 
ATOM     52  C   UNL A   1      40.603  28.786  29.741  1.00  0.00     0.037 A 
ATOM     53  C   UNL A   1      41.006  31.779  35.528  1.00  0.00     0.049 A 
ATOM     54  C   UNL A   1      41.533  28.643  30.916  1.00  0.00     0.074 A 
ATOM     55  C   UNL A   1      41.879  31.510  36.566  1.00  0.00     0.029 A 
ATOM     56  N   UNL A   1      41.324  30.905  34.498  1.00  0.00    -0.354 N 
ATOM     57  N   UNL A   1      41.525  29.283  32.059  1.00  0.00    -0.248 NA
ATOM     58  C   UNL A   1      42.608  27.648  30.793  1.00  0.00     0.031 C 
ATOM     59  C   UNL A   1      42.758  30.505  36.149  1.00  0.00     0.029 A 
ATOM     60  C   UNL A   1      42.397  30.110  34.871  1.00  0.00     0.049 A 
ATOM     61  H   UNL A   1      40.858  30.856  33.633  1.00  0.00     0.167 HD
ATOM     62  C   UNL A   1      42.571  28.752  32.802  1.00  0.00     0.074 A 
ATOM     63  C   UNL A   1      43.183  27.725  31.984  1.00  0.00     0.031 C 
ATOM     64  C   UNL A   1      42.987  29.084  34.049  1.00  0.00     0.037 A 
BRANCH  51  65
ATOM     65  C   UNL A   1      39.791  33.692  36.638  1.00  0.00     0.064 A 
ATOM     66  C   UNL A   1      40.448  34.932  36.692  1.00  0.00     0.173 A 
ATOM     67  C   UNL A   1      38.934  33.360  37.699  1.00  0.00     0.173 A 
ATOM     68  F   UNL A   1      41.286  35.295  35.709  1.00  0.00    -0.203 F 
ATOM     69  C   UNL A   1      40.276  35.789  37.775  1.00  0.00     0.198 A 
ATOM     70  C   UNL A   1      38.740  34.234  38.765  1.00  0.00     0.198 A 
ATOM     71  F   UNL A   1      38.276  32.191  37.696  1.00  0.00    -0.203 F 
ATOM     72  F   UNL A   1      40.953  36.944  37.827  1.00  0.00    -0.200 F 
ATOM     73  C   UNL A   1      39.417  35.443  38.807  1.00  0.00     0.200 A 
ATOM     74  F   UNL A   1      37.899  33.904  39.754  1.00  0.00    -0.200 F 
ATOM     75  F   UNL A   1      39.247  36.272  39.846  1.00  0.00    -0.200 F 
ENDBRANCH  51  65
BRANCH  52  76
ATOM     76  C   UNL A   1      40.786  27.959  28.518  1.00  0.00     0.064 A 
ATOM     77  C   UNL A   1      41.571  28.416  27.451  1.00  0.00     0.173 A 
ATOM     78  C   UNL A   1      40.179  26.702  28.389  1.00  0.00     0.173 A 
ATOM     79  F   UNL A   1      42.156  29.621  27.518  1.00  0.00    -0.203 F 
ATOM     80  C   UNL A   1      41.722  27.658  26.292  1.00  0.00     0.198 A 
ATOM     81  C   UNL A   1      40.356  25.931  27.243  1.00  0.00     0.198 A 
ATOM     82  F   UNL A   1      39.423  26.215  29.385  1.00  0.00    -0.203 F 
ATOM     83  F   UNL A   1      42.439  28.141  25.267  1.00  0.00    -0.200 F 
ATOM     84  C   UNL A   1      41.119  26.414  26.190  1.00  0.00     0.200 A 
ATOM     85  F   UNL A   1      39.784  24.722  27.154  1.00  0.00    -0.200 F 
ATOM     86  F   UNL A   1      41.268  25.683  25.077  1.00  0.00    -0.200 F 
ENDBRANCH  52  76
BRANCH  64  87
ATOM     87  C   UNL A   1      44.134  28.304  34.624  1.00  0.00     0.064 A 
ATOM     88  C   UNL A   1      43.933  27.103  35.322  1.00  0.00     0.173 A 
ATOM     89  C   UNL A   1      45.453  28.743  34.436  1.00  0.00     0.173 A 
ATOM     90  F   UNL A   1      42.690  26.649  35.541  1.00  0.00    -0.203 F 
ATOM     91  C   UNL A   1      45.011  26.384  35.830  1.00  0.00     0.198 A 
ATOM     92  C   UNL A   1      46.529  28.005  34.919  1.00  0.00     0.198 A 
ATOM     93  F   UNL A   1      45.699  29.880  33.769  1.00  0.00    -0.203 F 
ATOM     94  F   UNL A   1      44.795  25.264  36.534  1.00  0.00    -0.200 F 
ATOM     95  C   UNL A   1      46.307  26.830  35.621  1.00  0.00     0.200 A 
ATOM     96  F   UNL A   1      47.782  28.429  34.702  1.00  0.00    -0.200 F 
ATOM     97  F   UNL A   1      47.344  26.131  36.104  1.00  0.00    -0.200 F 
ENDBRANCH  64  87
ENDBRANCH  38  39
ENDBRANCH  30  33
ENDBRANCH  28  29
ENDBRANCH  27  28
ENDBRANCH  26  27
ENDBRANCH   1  26
TORSDOF 19
ENDMDL
MODEL 3
REMARK VINA RESULT:     -10.6      4.593      7.691
REMARK SMILES CS(=O)(=O)CC[C@H](NC(=O)Cc1ccn[nH]1)C(=O)NCCCCCCNC(=O)c1ccc(-c2c3nc(c(-c4c(F)c(F)c(F)c(F)c4F)c4ccc([nH]4)c(-c4c(F)c(F)c(F)c(F)c4F)c4nc(c(-c5c(F)c(F)c(F)c(F)c5F)c5ccc2[nH]5)C=C4)C=C3)cc1
REMARK SMILES IDX 22 1 21 2 20 3 19 4 17 5 18 6 7 8 6 9 5 10 2 11 1 12 3 13
REMARK SMILES IDX 4 14 8 15 9 16 10 18 11 19 12 20 13 21 16 22 14 23 15 24
REMARK SMILES IDX 23 26 24 27 25 28 26 29 27 30 28 32 29 33 30 34 91 35 31 36
REMARK SMILES IDX 90 37 32 38 33 39 34 40 84 41 35 42 89 43 83 44 85 45 36 46
REMARK SMILES IDX 88 47 82 48 81 49 37 51 69 52 49 53 68 54 50 55 53 56 67 57
REMARK SMILES IDX 86 58 51 59 52 60 66 62 87 63 54 64 38 65 39 66 47 67 40 68
REMARK SMILES IDX 41 69 45 70 48 71 42 72 43 73 46 74 44 75 70 76 71 77 79 78
REMARK SMILES IDX 72 79 73 80 77 81 80 82 74 83 75 84 78 85 76 86 55 87 56 88
REMARK SMILES IDX 64 89 57 90 58 91 62 92 65 93 59 94 60 95 63 96 61 97
REMARK H PARENT 19 7 8 17 16 25 26 31 85 50 53 61
REMARK Flexibility Score: inf
ROOT
ATOM      1  C   UNL A   1      35.827  23.007  25.465  1.00  0.00     0.002 C 
ENDROOT
BRANCH   1   2
ATOM      2  C   UNL A   1      34.951  22.958  26.722  1.00  0.00     0.021 C 
BRANCH   2   3
ATOM      3  C   UNL A   1      34.099  21.715  26.981  1.00  0.00     0.116 C 
BRANCH   3   4
ATOM      4  N   UNL A   1      32.653  21.877  26.877  1.00  0.00    -0.354 N 
ATOM      5  C   UNL A   1      31.835  22.098  25.793  1.00  0.00     0.242 C 
ATOM      6  O   UNL A   1      30.639  22.307  26.027  1.00  0.00    -0.273 OA
ATOM      7  H   UNL A   1      32.177  21.815  27.736  1.00  0.00     0.163 HD
BRANCH   5   8
ATOM      8  C   UNL A   1      32.322  22.064  24.306  1.00  0.00     0.172 C 
BRANCH   8   9
ATOM      9  C   UNL A   1      31.995  23.344  23.512  1.00  0.00     0.051 C 
BRANCH   9  10
ATOM     10  C   UNL A   1      33.111  23.903  22.632  1.00  0.00     0.139 C 
BRANCH  10  11
ATOM     11  S   UNL A   1      32.688  25.354  21.673  1.00  0.00     0.147 S 
ATOM     12  C   UNL A   1      33.656  26.658  22.400  1.00  0.00     0.158 C 
ATOM     13  O   UNL A   1      31.302  25.659  21.944  1.00  0.00    -0.229 OA
ATOM     14  O   UNL A   1      33.151  25.167  20.308  1.00  0.00    -0.229 OA
ENDBRANCH  10  11
ENDBRANCH   9  10
ENDBRANCH   8   9
BRANCH   8  15
ATOM     15  N   UNL A   1      32.066  20.831  23.578  1.00  0.00    -0.344 N 
ATOM     16  C   UNL A   1      32.598  19.591  23.542  1.00  0.00     0.226 C 
ATOM     17  H   UNL A   1      31.311  20.925  22.953  1.00  0.00     0.164 HD
ATOM     18  O   UNL A   1      32.229  18.916  22.568  1.00  0.00    -0.275 OA
BRANCH  16  19
ATOM     19  C   UNL A   1      33.499  18.942  24.572  1.00  0.00     0.155 C 
BRANCH  19  20
ATOM     20  C   UNL A   1      33.533  17.470  24.835  1.00  0.00     0.044 A 
ATOM     21  C   UNL A   1      32.528  16.688  25.382  1.00  0.00     0.045 A 
ATOM     22  N   UNL A   1      34.522  16.579  24.540  1.00  0.00    -0.282 N 
ATOM     23  C   UNL A   1      33.040  15.383  25.426  1.00  0.00     0.135 A 
ATOM     24  N   UNL A   1      34.276  15.323  24.937  1.00  0.00    -0.184 NA
ATOM     25  H   UNL A   1      35.349  16.837  24.073  1.00  0.00     0.190 HD
ENDBRANCH  19  20
ENDBRANCH  16  19
ENDBRANCH   8  15
ENDBRANCH   5   8
ENDBRANCH   3   4
ENDBRANCH   2   3
ENDBRANCH   1   2
BRANCH   1  26
ATOM     26  C   UNL A   1      35.993  21.751  24.610  1.00  0.00     0.002 C 
BRANCH  26  27
ATOM     27  C   UNL A   1      37.034  20.714  25.029  1.00  0.00     0.021 C 
BRANCH  27  28
ATOM     28  C   UNL A   1      38.447  21.234  25.267  1.00  0.00     0.116 C 
BRANCH  28  29
ATOM     29  N   UNL A   1      39.251  20.385  26.130  1.00  0.00    -0.352 N 
ATOM     30  C   UNL A   1      40.242  20.713  27.023  1.00  0.00     0.251 C 
ATOM     31  H   UNL A   1      39.052  19.422  26.065  1.00  0.00     0.163 HD
ATOM     32  O   UNL A   1      40.845  19.822  27.614  1.00  0.00    -0.269 OA
BRANCH  30  33
ATOM     33  C   UNL A   1      40.621  22.126  27.255  1.00  0.00     0.039 A 
ATOM     34  C   UNL A   1      41.582  22.407  28.234  1.00  0.00     0.014 A 
ATOM     35  C   UNL A   1      40.037  23.174  26.539  1.00  0.00     0.014 A 
ATOM     36  C   UNL A   1      42.005  23.723  28.443  1.00  0.00     0.010 A 
ATOM     37  C   UNL A   1      40.514  24.474  26.693  1.00  0.00     0.010 A 
ATOM     38  C   UNL A   1      41.501  24.763  27.647  1.00  0.00    -0.014 A 
BRANCH  38  39
ATOM     39  C   UNL A   1      41.993  26.158  27.794  1.00  0.00     0.031 A 
ATOM     40  C   UNL A   1      43.334  26.550  27.238  1.00  0.00     0.074 A 
ATOM     41  C   UNL A   1      41.267  27.051  28.494  1.00  0.00     0.049 A 
ATOM     42  N   UNL A   1      43.975  27.688  27.341  1.00  0.00    -0.248 NA
ATOM     43  C   UNL A   1      44.067  25.516  26.492  1.00  0.00     0.031 C 
ATOM     44  C   UNL A   1      39.975  26.779  29.127  1.00  0.00     0.029 A 
ATOM     45  N   UNL A   1      41.517  28.365  28.805  1.00  0.00    -0.354 N 
ATOM     46  C   UNL A   1      45.190  27.498  26.694  1.00  0.00     0.074 A 
ATOM     47  C   UNL A   1      45.220  26.123  26.245  1.00  0.00     0.031 C 
ATOM     48  C   UNL A   1      39.539  27.894  29.735  1.00  0.00     0.029 A 
ATOM     49  C   UNL A   1      40.536  28.948  29.569  1.00  0.00     0.049 A 
ATOM     50  H   UNL A   1      42.324  28.844  28.508  1.00  0.00     0.167 HD
ATOM     51  C   UNL A   1      46.180  28.396  26.476  1.00  0.00     0.037 A 
ATOM     52  C   UNL A   1      40.453  30.189  30.087  1.00  0.00     0.037 A 
ATOM     53  C   UNL A   1      46.132  29.772  26.895  1.00  0.00     0.049 A 
ATOM     54  C   UNL A   1      41.563  31.170  29.820  1.00  0.00     0.074 A 
ATOM     55  C   UNL A   1      47.051  30.778  26.660  1.00  0.00     0.029 A 
ATOM     56  N   UNL A   1      45.104  30.334  27.639  1.00  0.00    -0.354 N 
ATOM     57  N   UNL A   1      42.673  31.000  29.144  1.00  0.00    -0.248 NA
ATOM     58  C   UNL A   1      41.405  32.519  30.382  1.00  0.00     0.031 C 
ATOM     59  C   UNL A   1      46.605  31.938  27.302  1.00  0.00     0.029 A 
ATOM     60  C   UNL A   1      45.379  31.669  27.890  1.00  0.00     0.049 A 
ATOM     61  H   UNL A   1      44.299  29.856  27.943  1.00  0.00     0.167 HD
ATOM     62  C   UNL A   1      43.329  32.222  29.173  1.00  0.00     0.074 A 
ATOM     63  C   UNL A   1      42.486  33.131  29.922  1.00  0.00     0.031 C 
ATOM     64  C   UNL A   1      44.523  32.562  28.628  1.00  0.00     0.037 A 
BRANCH  51  65
ATOM     65  C   UNL A   1      47.405  27.920  25.747  1.00  0.00     0.064 A 
ATOM     66  C   UNL A   1      47.443  27.837  24.346  1.00  0.00     0.173 A 
ATOM     67  C   UNL A   1      48.568  27.581  26.454  1.00  0.00     0.173 A 
ATOM     68  F   UNL A   1      46.355  28.140  23.622  1.00  0.00    -0.203 F 
ATOM     69  C   UNL A   1      48.589  27.406  23.684  1.00  0.00     0.198 A 
ATOM     70  C   UNL A   1      49.723  27.181  25.787  1.00  0.00     0.198 A 
ATOM     71  F   UNL A   1      48.589  27.648  27.794  1.00  0.00    -0.203 F 
ATOM     72  F   UNL A   1      48.585  27.288  22.349  1.00  0.00    -0.200 F 
ATOM     73  C   UNL A   1      49.730  27.085  24.404  1.00  0.00     0.200 A 
ATOM     74  F   UNL A   1      50.828  26.885  26.484  1.00  0.00    -0.200 F 
ATOM     75  F   UNL A   1      50.835  26.678  23.765  1.00  0.00    -0.200 F 
ENDBRANCH  51  65
BRANCH  52  76
ATOM     76  C   UNL A   1      39.266  30.582  30.892  1.00  0.00     0.064 A 
ATOM     77  C   UNL A   1      39.240  30.386  32.280  1.00  0.00     0.173 A 
ATOM     78  C   UNL A   1      38.134  31.153  30.293  1.00  0.00     0.173 A 
ATOM     79  F   UNL A   1      40.290  29.824  32.896  1.00  0.00    -0.203 F 
ATOM     80  C   UNL A   1      38.119  30.725  33.034  1.00  0.00     0.198 A 
ATOM     81  C   UNL A   1      37.025  31.520  31.052  1.00  0.00     0.198 A 
ATOM     82  F   UNL A   1      38.110  31.367  28.969  1.00  0.00    -0.203 F 
ATOM     83  F   UNL A   1      38.103  30.482  34.352  1.00  0.00    -0.200 F 
ATOM     84  C   UNL A   1      37.014  31.297  32.421  1.00  0.00     0.200 A 
ATOM     85  F   UNL A   1      35.966  32.086  30.458  1.00  0.00    -0.200 F 
ATOM     86  F   UNL A   1      35.937  31.626  33.147  1.00  0.00    -0.200 F 
ENDBRANCH  52  76
BRANCH  64  87
ATOM     87  C   UNL A   1      44.973  33.986  28.786  1.00  0.00     0.064 A 
ATOM     88  C   UNL A   1      44.596  34.984  27.874  1.00  0.00     0.173 A 
ATOM     89  C   UNL A   1      45.754  34.364  29.888  1.00  0.00     0.173 A 
ATOM     90  F   UNL A   1      43.862  34.671  26.796  1.00  0.00    -0.203 F 
ATOM     91  C   UNL A   1      45.007  36.303  28.049  1.00  0.00     0.198 A 
ATOM     92  C   UNL A   1      46.137  35.689  30.076  1.00  0.00     0.198 A 
ATOM     93  F   UNL A   1      46.134  33.449  30.793  1.00  0.00    -0.203 F 
ATOM     94  F   UNL A   1      44.675  37.231  27.140  1.00  0.00    -0.200 F 
ATOM     95  C   UNL A   1      45.768  36.655  29.153  1.00  0.00     0.200 A 
ATOM     96  F   UNL A   1      46.860  36.031  31.151  1.00  0.00    -0.200 F 
ATOM     97  F   UNL A   1      46.155  37.927  29.323  1.00  0.00    -0.200 F 
ENDBRANCH  64  87
ENDBRANCH  38  39
ENDBRANCH  30  33
ENDBRANCH  28  29
ENDBRANCH  27  28
ENDBRANCH  26  27
ENDBRANCH   1  26
TORSDOF 19
ENDMDL
