MODEL 1
REMARK VINA RESULT:     -12.3      0.000      0.000
REMARK SMILES O=C(C[C@H]1CN(C(=O)c2c(F)cccc2Cl)CCO1)NCCCCCCNC(=O)c1ccc(-c2c3nc(c(-c4c(F)c(F)c(F)c(F)c4F)c4ccc([nH]4)c(-c4c(F)c(F)c(F)c(F)c4F)c4nc(c(-c5c(F)c(F)c(F)c(F)c5F)c5ccc2[nH]5)C=C4)C=C3)cc1
REMARK SMILES IDX 23 1 22 2 21 3 20 4 1 5 2 6 3 8 4 9 5 10 19 11 6 12 18 13
REMARK SMILES IDX 17 14 7 15 8 16 9 17 10 18 15 19 11 20 12 21 14 22 16 23
REMARK SMILES IDX 13 24 24 25 25 26 26 27 27 28 28 29 29 31 30 32 31 33 92 34
REMARK SMILES IDX 32 35 91 36 33 37 34 38 35 39 85 40 36 41 90 42 84 43 86 44
REMARK SMILES IDX 37 45 89 46 83 47 82 48 38 50 70 51 50 52 69 53 51 54 54 55
REMARK SMILES IDX 68 56 87 57 52 58 53 59 67 61 88 62 55 63 39 64 40 65 48 66
REMARK SMILES IDX 41 67 42 68 46 69 49 70 43 71 44 72 47 73 45 74 71 75 72 76
REMARK SMILES IDX 80 77 73 78 74 79 78 80 81 81 75 82 76 83 79 84 77 85 56 86
REMARK SMILES IDX 57 87 65 88 58 89 59 90 63 91 66 92 60 93 61 94 64 95 62 96
REMARK H PARENT 20 7 27 30 86 49 54 60
REMARK Flexibility Score: inf
ROOT
ATOM      1  C   UNL A   1      37.299  22.295  24.560  1.00  0.00     0.002 C 
ENDROOT
BRANCH   1   2
ATOM      2  C   UNL A   1      36.499  22.889  23.395  1.00  0.00     0.021 C 
BRANCH   2   3
ATOM      3  C   UNL A   1      34.985  22.871  23.593  1.00  0.00     0.116 C 
BRANCH   3   4
ATOM      4  N   UNL A   1      34.573  23.786  24.640  1.00  0.00    -0.356 N 
ATOM      5  O   UNL A   1      32.375  23.821  24.023  1.00  0.00    -0.275 OA
ATOM      6  C   UNL A   1      33.267  24.193  24.782  1.00  0.00     0.222 C 
ATOM      7  H   UNL A   1      35.249  24.127  25.269  1.00  0.00     0.163 HD
BRANCH   6   8
ATOM      8  C   UNL A   1      32.989  25.207  25.872  1.00  0.00     0.133 C 
BRANCH   8   9
ATOM      9  C   UNL A   1      33.644  26.582  25.680  1.00  0.00     0.147 C 
ATOM     10  C   UNL A   1      33.365  27.233  24.300  1.00  0.00     0.152 C 
ATOM     11  O   UNL A   1      33.231  27.489  26.730  1.00  0.00    -0.374 OA
ATOM     12  N   UNL A   1      31.962  27.645  24.183  1.00  0.00    -0.334 N 
ATOM     13  C   UNL A   1      31.837  27.835  26.644  1.00  0.00     0.182 C 
ATOM     14  C   UNL A   1      31.500  28.475  25.298  1.00  0.00     0.148 C 
BRANCH  12  15
ATOM     15  C   UNL A   1      31.098  27.414  23.118  1.00  0.00     0.258 C 
ATOM     16  O   UNL A   1      31.217  26.459  22.353  1.00  0.00    -0.269 OA
BRANCH  15  17
ATOM     17  C   UNL A   1      29.956  28.310  22.877  1.00  0.00     0.094 A 
ATOM     18  C   UNL A   1      30.140  29.494  22.166  1.00  0.00     0.137 A 
ATOM     19  C   UNL A   1      28.658  27.932  23.242  1.00  0.00     0.056 A 
ATOM     20  F   UNL A   1      31.362  29.884  21.786  1.00  0.00    -0.206 F 
ATOM     21  C   UNL A   1      29.063  30.320  21.851  1.00  0.00     0.040 A 
ATOM     22  C   UNL A   1      27.573  28.759  22.922  1.00  0.00     0.021 A 
ATOM     23  Cl  UNL A   1      28.322  26.479  24.114  1.00  0.00    -0.083 Cl
ATOM     24  C   UNL A   1      27.775  29.955  22.232  1.00  0.00     0.005 A 
ENDBRANCH  15  17
ENDBRANCH  12  15
ENDBRANCH   8   9
ENDBRANCH   6   8
ENDBRANCH   3   4
ENDBRANCH   2   3
ENDBRANCH   1   2
BRANCH   1  25
ATOM     25  C   UNL A   1      36.892  20.884  24.993  1.00  0.00     0.002 C 
BRANCH  25  26
ATOM     26  C   UNL A   1      38.018  19.849  24.982  1.00  0.00     0.021 C 
BRANCH  26  27
ATOM     27  C   UNL A   1      39.261  20.248  25.771  1.00  0.00     0.116 C 
BRANCH  27  28
ATOM     28  N   UNL A   1      40.242  19.175  25.846  1.00  0.00    -0.352 N 
ATOM     29  C   UNL A   1      41.587  19.247  26.115  1.00  0.00     0.251 C 
ATOM     30  H   UNL A   1      39.892  18.271  25.680  1.00  0.00     0.163 HD
ATOM     31  O   UNL A   1      42.300  18.257  25.974  1.00  0.00    -0.269 OA
BRANCH  29  32
ATOM     32  C   UNL A   1      42.181  20.528  26.549  1.00  0.00     0.039 A 
ATOM     33  C   UNL A   1      42.753  21.372  25.593  1.00  0.00     0.014 A 
ATOM     34  C   UNL A   1      42.159  20.904  27.895  1.00  0.00     0.014 A 
ATOM     35  C   UNL A   1      43.235  22.626  25.977  1.00  0.00     0.010 A 
ATOM     36  C   UNL A   1      42.568  22.182  28.263  1.00  0.00     0.010 A 
ATOM     37  C   UNL A   1      43.109  23.057  27.308  1.00  0.00    -0.014 A 
BRANCH  37  38
ATOM     38  C   UNL A   1      43.530  24.421  27.727  1.00  0.00     0.031 A 
ATOM     39  C   UNL A   1      42.491  25.453  28.075  1.00  0.00     0.074 A 
ATOM     40  C   UNL A   1      44.835  24.753  27.715  1.00  0.00     0.049 A 
ATOM     41  N   UNL A   1      42.647  26.723  28.354  1.00  0.00    -0.248 NA
ATOM     42  C   UNL A   1      41.088  25.007  28.082  1.00  0.00     0.031 C 
ATOM     43  C   UNL A   1      45.936  23.854  27.361  1.00  0.00     0.029 A 
ATOM     44  N   UNL A   1      45.461  25.945  27.990  1.00  0.00    -0.354 N 
ATOM     45  C   UNL A   1      41.367  27.228  28.543  1.00  0.00     0.074 A 
ATOM     46  C   UNL A   1      40.442  26.143  28.309  1.00  0.00     0.031 C 
ATOM     47  C   UNL A   1      47.098  24.521  27.455  1.00  0.00     0.029 A 
ATOM     48  C   UNL A   1      46.825  25.904  27.828  1.00  0.00     0.049 A 
ATOM     49  H   UNL A   1      44.977  26.753  28.276  1.00  0.00     0.167 HD
ATOM     50  C   UNL A   1      41.001  28.483  28.895  1.00  0.00     0.037 A 
ATOM     51  C   UNL A   1      47.749  26.879  27.949  1.00  0.00     0.037 A 
ATOM     52  C   UNL A   1      41.926  29.551  29.169  1.00  0.00     0.049 A 
ATOM     53  C   UNL A   1      47.304  28.268  28.328  1.00  0.00     0.074 A 
ATOM     54  C   UNL A   1      41.654  30.831  29.617  1.00  0.00     0.029 A 
ATOM     55  N   UNL A   1      43.301  29.464  29.014  1.00  0.00    -0.354 N 
ATOM     56  N   UNL A   1      46.098  28.711  28.589  1.00  0.00    -0.248 NA
ATOM     57  C   UNL A   1      48.351  29.295  28.433  1.00  0.00     0.031 C 
ATOM     58  C   UNL A   1      42.856  31.539  29.674  1.00  0.00     0.029 A 
ATOM     59  C   UNL A   1      43.886  30.681  29.326  1.00  0.00     0.049 A 
ATOM     60  H   UNL A   1      43.789  28.659  28.727  1.00  0.00     0.167 HD
ATOM     61  C   UNL A   1      46.248  30.049  28.930  1.00  0.00     0.074 A 
ATOM     62  C   UNL A   1      47.662  30.345  28.854  1.00  0.00     0.031 C 
ATOM     63  C   UNL A   1      45.299  30.952  29.275  1.00  0.00     0.037 A 
BRANCH  50  64
ATOM     64  C   UNL A   1      39.535  28.788  29.008  1.00  0.00     0.064 A 
ATOM     65  C   UNL A   1      38.850  28.689  30.227  1.00  0.00     0.173 A 
ATOM     66  C   UNL A   1      38.827  29.267  27.894  1.00  0.00     0.173 A 
ATOM     67  F   UNL A   1      39.479  28.228  31.319  1.00  0.00    -0.203 F 
ATOM     68  C   UNL A   1      37.508  29.047  30.325  1.00  0.00     0.198 A 
ATOM     69  C   UNL A   1      37.494  29.651  28.003  1.00  0.00     0.198 A 
ATOM     70  F   UNL A   1      39.436  29.385  26.704  1.00  0.00    -0.203 F 
ATOM     71  F   UNL A   1      36.865  28.913  31.494  1.00  0.00    -0.200 F 
ATOM     72  C   UNL A   1      36.834  29.538  29.218  1.00  0.00     0.200 A 
ATOM     73  F   UNL A   1      36.849  30.141  26.935  1.00  0.00    -0.200 F 
ATOM     74  F   UNL A   1      35.548  29.902  29.320  1.00  0.00    -0.200 F 
ENDBRANCH  50  64
BRANCH  51  75
ATOM     75  C   UNL A   1      49.190  26.591  27.711  1.00  0.00     0.064 A 
ATOM     76  C   UNL A   1      49.693  26.460  26.409  1.00  0.00     0.173 A 
ATOM     77  C   UNL A   1      50.080  26.382  28.775  1.00  0.00     0.173 A 
ATOM     78  F   UNL A   1      48.878  26.628  25.357  1.00  0.00    -0.203 F 
ATOM     79  C   UNL A   1      51.017  26.091  26.180  1.00  0.00     0.198 A 
ATOM     80  C   UNL A   1      51.414  26.049  28.544  1.00  0.00     0.198 A 
ATOM     81  F   UNL A   1      49.656  26.499  30.042  1.00  0.00    -0.203 F 
ATOM     82  F   UNL A   1      51.450  25.901  24.925  1.00  0.00    -0.200 F 
ATOM     83  C   UNL A   1      51.877  25.887  27.247  1.00  0.00     0.200 A 
ATOM     84  F   UNL A   1      52.245  25.868  29.579  1.00  0.00    -0.200 F 
ATOM     85  F   UNL A   1      53.148  25.524  27.028  1.00  0.00    -0.200 F 
ENDBRANCH  51  75
BRANCH  63  86
ATOM     86  C   UNL A   1      45.756  32.330  29.661  1.00  0.00     0.064 A 
ATOM     87  C   UNL A   1      46.127  32.646  30.975  1.00  0.00     0.173 A 
ATOM     88  C   UNL A   1      45.876  33.332  28.685  1.00  0.00     0.173 A 
ATOM     89  F   UNL A   1      46.019  31.729  31.948  1.00  0.00    -0.203 F 
ATOM     90  C   UNL A   1      46.578  33.922  31.304  1.00  0.00     0.198 A 
ATOM     91  C   UNL A   1      46.359  34.596  29.010  1.00  0.00     0.198 A 
ATOM     92  F   UNL A   1      45.541  33.079  27.411  1.00  0.00    -0.203 F 
ATOM     93  F   UNL A   1      46.882  34.217  32.575  1.00  0.00    -0.200 F 
ATOM     94  C   UNL A   1      46.703  34.892  30.319  1.00  0.00     0.200 A 
ATOM     95  F   UNL A   1      46.496  35.525  28.054  1.00  0.00    -0.200 F 
ATOM     96  F   UNL A   1      47.150  36.115  30.635  1.00  0.00    -0.200 F 
ENDBRANCH  63  86
ENDBRANCH  37  38
ENDBRANCH  29  32
ENDBRANCH  27  28
ENDBRANCH  26  27
ENDBRANCH  25  26
ENDBRANCH   1  25
TORSDOF 16
ENDMDL
MODEL 2
REMARK VINA RESULT:     -12.2      5.135      9.414
REMARK SMILES O=C(C[C@H]1CN(C(=O)c2c(F)cccc2Cl)CCO1)NCCCCCCNC(=O)c1ccc(-c2c3nc(c(-c4c(F)c(F)c(F)c(F)c4F)c4ccc([nH]4)c(-c4c(F)c(F)c(F)c(F)c4F)c4nc(c(-c5c(F)c(F)c(F)c(F)c5F)c5ccc2[nH]5)C=C4)C=C3)cc1
REMARK SMILES IDX 23 1 22 2 21 3 20 4 1 5 2 6 3 8 4 9 5 10 19 11 6 12 18 13
REMARK SMILES IDX 17 14 7 15 8 16 9 17 10 18 15 19 11 20 12 21 14 22 16 23
REMARK SMILES IDX 13 24 24 25 25 26 26 27 27 28 28 29 29 31 30 32 31 33 92 34
REMARK SMILES IDX 32 35 91 36 33 37 34 38 35 39 85 40 36 41 90 42 84 43 86 44
REMARK SMILES IDX 37 45 89 46 83 47 82 48 38 50 70 51 50 52 69 53 51 54 54 55
REMARK SMILES IDX 68 56 87 57 52 58 53 59 67 61 88 62 55 63 39 64 40 65 48 66
REMARK SMILES IDX 41 67 42 68 46 69 49 70 43 71 44 72 47 73 45 74 71 75 72 76
REMARK SMILES IDX 80 77 73 78 74 79 78 80 81 81 75 82 76 83 79 84 77 85 56 86
REMARK SMILES IDX 57 87 65 88 58 89 59 90 63 91 66 92 60 93 61 94 64 95 62 96
REMARK H PARENT 20 7 27 30 86 49 54 60
REMARK Flexibility Score: inf
ROOT
ATOM      1  C   UNL A   1      32.246  29.940  27.076  1.00  0.00     0.002 C 
ENDROOT
BRANCH   1   2
ATOM      2  C   UNL A   1      32.118  28.430  26.846  1.00  0.00     0.021 C 
BRANCH   2   3
ATOM      3  C   UNL A   1      33.449  27.682  26.798  1.00  0.00     0.116 C 
BRANCH   3   4
ATOM      4  N   UNL A   1      33.722  27.164  25.471  1.00  0.00    -0.356 N 
ATOM      5  O   UNL A   1      33.901  24.988  26.138  1.00  0.00    -0.275 OA
ATOM      6  C   UNL A   1      33.923  25.824  25.238  1.00  0.00     0.222 C 
ATOM      7  H   UNL A   1      33.764  27.791  24.713  1.00  0.00     0.163 HD
BRANCH   6   8
ATOM      8  C   UNL A   1      34.271  25.429  23.817  1.00  0.00     0.133 C 
BRANCH   8   9
ATOM      9  C   UNL A   1      33.318  24.422  23.158  1.00  0.00     0.147 C 
ATOM     10  C   UNL A   1      31.866  24.472  23.699  1.00  0.00     0.152 C 
ATOM     11  O   UNL A   1      33.301  24.609  21.722  1.00  0.00    -0.374 OA
ATOM     12  N   UNL A   1      31.189  25.708  23.290  1.00  0.00    -0.334 N 
ATOM     13  C   UNL A   1      32.694  25.855  21.335  1.00  0.00     0.182 C 
ATOM     14  C   UNL A   1      31.260  25.964  21.848  1.00  0.00     0.148 C 
BRANCH  12  15
ATOM     15  C   UNL A   1      30.442  26.568  24.086  1.00  0.00     0.258 C 
ATOM     16  O   UNL A   1      30.387  26.470  25.310  1.00  0.00    -0.269 OA
BRANCH  15  17
ATOM     17  C   UNL A   1      29.691  27.679  23.482  1.00  0.00     0.094 A 
ATOM     18  C   UNL A   1      28.299  27.631  23.432  1.00  0.00     0.137 A 
ATOM     19  C   UNL A   1      30.344  28.846  23.068  1.00  0.00     0.056 A 
ATOM     20  F   UNL A   1      27.634  26.541  23.832  1.00  0.00    -0.206 F 
ATOM     21  C   UNL A   1      27.557  28.705  22.942  1.00  0.00     0.040 A 
ATOM     22  C   UNL A   1      29.601  29.929  22.580  1.00  0.00     0.021 A 
ATOM     23  Cl  UNL A   1      32.063  29.011  23.102  1.00  0.00    -0.083 Cl
ATOM     24  C   UNL A   1      28.209  29.856  22.511  1.00  0.00     0.005 A 
ENDBRANCH  15  17
ENDBRANCH  12  15
ENDBRANCH   8   9
ENDBRANCH   6   8
ENDBRANCH   3   4
ENDBRANCH   2   3
ENDBRANCH   1   2
BRANCH   1  25
ATOM     25  C   UNL A   1      31.451  30.827  26.114  1.00  0.00     0.002 C 
BRANCH  25  26
ATOM     26  C   UNL A   1      31.346  32.297  26.521  1.00  0.00     0.021 C 
BRANCH  26  27
ATOM     27  C   UNL A   1      32.553  32.841  27.277  1.00  0.00     0.116 C 
BRANCH  27  28
ATOM     28  N   UNL A   1      32.391  34.235  27.660  1.00  0.00    -0.352 N 
ATOM     29  C   UNL A   1      33.030  34.945  28.648  1.00  0.00     0.251 C 
ATOM     30  H   UNL A   1      31.729  34.742  27.137  1.00  0.00     0.163 HD
ATOM     31  O   UNL A   1      32.651  36.074  28.944  1.00  0.00    -0.269 OA
BRANCH  29  32
ATOM     32  C   UNL A   1      34.163  34.333  29.374  1.00  0.00     0.039 A 
ATOM     33  C   UNL A   1      33.906  33.557  30.508  1.00  0.00     0.014 A 
ATOM     34  C   UNL A   1      35.475  34.510  28.927  1.00  0.00     0.014 A 
ATOM     35  C   UNL A   1      34.957  32.899  31.149  1.00  0.00     0.010 A 
ATOM     36  C   UNL A   1      36.510  33.793  29.519  1.00  0.00     0.010 A 
ATOM     37  C   UNL A   1      36.262  32.978  30.635  1.00  0.00    -0.014 A 
BRANCH  37  38
ATOM     38  C   UNL A   1      37.386  32.216  31.242  1.00  0.00     0.031 A 
ATOM     39  C   UNL A   1      37.896  32.592  32.607  1.00  0.00     0.074 A 
ATOM     40  C   UNL A   1      37.998  31.246  30.535  1.00  0.00     0.049 A 
ATOM     41  N   UNL A   1      38.932  32.128  33.260  1.00  0.00    -0.248 NA
ATOM     42  C   UNL A   1      37.163  33.650  33.322  1.00  0.00     0.031 C 
ATOM     43  C   UNL A   1      37.623  30.813  29.187  1.00  0.00     0.029 A 
ATOM     44  N   UNL A   1      39.081  30.458  30.843  1.00  0.00    -0.354 N 
ATOM     45  C   UNL A   1      38.987  32.853  34.444  1.00  0.00     0.074 A 
ATOM     46  C   UNL A   1      37.908  33.814  34.406  1.00  0.00     0.031 C 
ATOM     47  C   UNL A   1      38.449  29.831  28.793  1.00  0.00     0.029 A 
ATOM     48  C   UNL A   1      39.442  29.596  29.836  1.00  0.00     0.049 A 
ATOM     49  H   UNL A   1      39.554  30.507  31.705  1.00  0.00     0.167 HD
ATOM     50  C   UNL A   1      39.853  32.716  35.476  1.00  0.00     0.037 A 
ATOM     51  C   UNL A   1      40.471  28.727  29.756  1.00  0.00     0.037 A 
ATOM     52  C   UNL A   1      40.900  31.730  35.529  1.00  0.00     0.049 A 
ATOM     53  C   UNL A   1      41.424  28.611  30.917  1.00  0.00     0.074 A 
ATOM     54  C   UNL A   1      41.771  31.456  36.569  1.00  0.00     0.029 A 
ATOM     55  N   UNL A   1      41.220  30.860  34.498  1.00  0.00    -0.354 N 
ATOM     56  N   UNL A   1      41.413  29.241  32.067  1.00  0.00    -0.248 NA
ATOM     57  C   UNL A   1      42.534  27.658  30.771  1.00  0.00     0.031 C 
ATOM     58  C   UNL A   1      42.659  30.465  36.145  1.00  0.00     0.029 A 
ATOM     59  C   UNL A   1      42.299  30.073  34.866  1.00  0.00     0.049 A 
ATOM     60  H   UNL A   1      40.751  30.809  33.634  1.00  0.00     0.167 HD
ATOM     61  C   UNL A   1      42.481  28.730  32.792  1.00  0.00     0.074 A 
ATOM     62  C   UNL A   1      43.114  27.731  31.960  1.00  0.00     0.031 C 
ATOM     63  C   UNL A   1      42.900  29.060  34.037  1.00  0.00     0.037 A 
BRANCH  50  64
ATOM     64  C   UNL A   1      39.719  33.651  36.642  1.00  0.00     0.064 A 
ATOM     65  C   UNL A   1      40.351  34.903  36.664  1.00  0.00     0.173 A 
ATOM     66  C   UNL A   1      38.878  33.322  37.717  1.00  0.00     0.173 A 
ATOM     67  F   UNL A   1      41.173  35.261  35.667  1.00  0.00    -0.203 F 
ATOM     68  C   UNL A   1      40.156  35.785  37.723  1.00  0.00     0.198 A 
ATOM     69  C   UNL A   1      38.661  34.219  38.758  1.00  0.00     0.198 A 
ATOM     70  F   UNL A   1      38.245  32.139  37.744  1.00  0.00    -0.203 F 
ATOM     71  F   UNL A   1      40.796  36.963  37.738  1.00  0.00    -0.200 F 
ATOM     72  C   UNL A   1      39.303  35.448  38.763  1.00  0.00     0.200 A 
ATOM     73  F   UNL A   1      37.823  33.898  39.755  1.00  0.00    -0.200 F 
ATOM     74  F   UNL A   1      39.099  36.308  39.771  1.00  0.00    -0.200 F 
ENDBRANCH  50  64
BRANCH  51  75
ATOM     75  C   UNL A   1      40.665  27.893  28.538  1.00  0.00     0.064 A 
ATOM     76  C   UNL A   1      41.419  28.365  27.454  1.00  0.00     0.173 A 
ATOM     77  C   UNL A   1      40.056  26.636  28.407  1.00  0.00     0.173 A 
ATOM     78  F   UNL A   1      42.003  29.571  27.521  1.00  0.00    -0.203 F 
ATOM     79  C   UNL A   1      41.521  27.634  26.272  1.00  0.00     0.198 A 
ATOM     80  C   UNL A   1      40.190  25.888  27.238  1.00  0.00     0.198 A 
ATOM     81  F   UNL A   1      39.328  26.132  29.414  1.00  0.00    -0.203 F 
ATOM     82  F   UNL A   1      42.187  28.145  25.227  1.00  0.00    -0.200 F 
ATOM     83  C   UNL A   1      40.908  26.396  26.166  1.00  0.00     0.200 A 
ATOM     84  F   UNL A   1      39.608  24.685  27.145  1.00  0.00    -0.200 F 
ATOM     85  F   UNL A   1      40.998  25.696  25.027  1.00  0.00    -0.200 F 
ENDBRANCH  51  75
BRANCH  63  86
ATOM     86  C   UNL A   1      44.060  28.294  34.608  1.00  0.00     0.064 A 
ATOM     87  C   UNL A   1      43.882  27.083  35.293  1.00  0.00     0.173 A 
ATOM     88  C   UNL A   1      45.372  28.753  34.416  1.00  0.00     0.173 A 
ATOM     89  F   UNL A   1      42.648  26.607  35.516  1.00  0.00    -0.203 F 
ATOM     90  C   UNL A   1      44.974  26.374  35.786  1.00  0.00     0.198 A 
ATOM     91  C   UNL A   1      46.463  28.025  34.880  1.00  0.00     0.198 A 
ATOM     92  F   UNL A   1      45.597  29.902  33.760  1.00  0.00    -0.203 F 
ATOM     93  F   UNL A   1      44.779  25.244  36.480  1.00  0.00    -0.200 F 
ATOM     94  C   UNL A   1      46.263  26.840  35.571  1.00  0.00     0.200 A 
ATOM     95  F   UNL A   1      47.707  28.467  34.654  1.00  0.00    -0.200 F 
ATOM     96  F   UNL A   1      47.313  26.148  36.034  1.00  0.00    -0.200 F 
ENDBRANCH  63  86
ENDBRANCH  37  38
ENDBRANCH  29  32
ENDBRANCH  27  28
ENDBRANCH  26  27
ENDBRANCH  25  26
ENDBRANCH   1  25
TORSDOF 16
ENDMDL
MODEL 3
REMARK VINA RESULT:     -12.1      2.276      7.792
REMARK SMILES O=C(C[C@H]1CN(C(=O)c2c(F)cccc2Cl)CCO1)NCCCCCCNC(=O)c1ccc(-c2c3nc(c(-c4c(F)c(F)c(F)c(F)c4F)c4ccc([nH]4)c(-c4c(F)c(F)c(F)c(F)c4F)c4nc(c(-c5c(F)c(F)c(F)c(F)c5F)c5ccc2[nH]5)C=C4)C=C3)cc1
REMARK SMILES IDX 23 1 22 2 21 3 20 4 1 5 2 6 3 8 4 9 5 10 19 11 6 12 18 13
REMARK SMILES IDX 17 14 7 15 8 16 9 17 10 18 15 19 11 20 12 21 14 22 16 23
REMARK SMILES IDX 13 24 24 25 25 26 26 27 27 28 28 29 29 31 30 32 31 33 92 34
REMARK SMILES IDX 32 35 91 36 33 37 34 38 35 39 85 40 36 41 90 42 84 43 86 44
REMARK SMILES IDX 37 45 89 46 83 47 82 48 38 50 70 51 50 52 69 53 51 54 54 55
REMARK SMILES IDX 68 56 87 57 52 58 53 59 67 61 88 62 55 63 39 64 40 65 48 66
REMARK SMILES IDX 41 67 42 68 46 69 49 70 43 71 44 72 47 73 45 74 71 75 72 76
REMARK SMILES IDX 80 77 73 78 74 79 78 80 81 81 75 82 76 83 79 84 77 85 56 86
REMARK SMILES IDX 57 87 65 88 58 89 59 90 63 91 66 92 60 93 61 94 64 95 62 96
REMARK H PARENT 20 7 27 30 86 49 54 60
REMARK Flexibility Score: inf
ROOT
ATOM      1  C   UNL A   1      41.300  22.205  26.530  1.00  0.00     0.002 C 
ENDROOT
BRANCH   1   2
ATOM      2  C   UNL A   1      39.827  22.562  26.765  1.00  0.00     0.021 C 
BRANCH   2   3
ATOM      3  C   UNL A   1      38.841  21.784  25.895  1.00  0.00     0.116 C 
BRANCH   3   4
ATOM      4  N   UNL A   1      37.474  22.209  26.127  1.00  0.00    -0.356 N 
ATOM      5  O   UNL A   1      37.426  23.686  24.387  1.00  0.00    -0.275 OA
ATOM      6  C   UNL A   1      36.856  23.143  25.330  1.00  0.00     0.222 C 
ATOM      7  H   UNL A   1      36.973  21.817  26.878  1.00  0.00     0.163 HD
BRANCH   6   8
ATOM      8  C   UNL A   1      35.451  23.550  25.729  1.00  0.00     0.133 C 
BRANCH   8   9
ATOM      9  C   UNL A   1      34.709  22.561  26.639  1.00  0.00     0.147 C 
ATOM     10  C   UNL A   1      33.381  23.107  27.223  1.00  0.00     0.152 C 
ATOM     11  O   UNL A   1      34.450  21.324  25.933  1.00  0.00    -0.374 OA
ATOM     12  N   UNL A   1      32.360  23.246  26.178  1.00  0.00    -0.334 N 
ATOM     13  C   UNL A   1      33.497  21.485  24.868  1.00  0.00     0.182 C 
ATOM     14  C   UNL A   1      32.166  22.029  25.384  1.00  0.00     0.148 C 
BRANCH  12  15
ATOM     15  C   UNL A   1      31.532  24.337  25.944  1.00  0.00     0.258 C 
ATOM     16  O   UNL A   1      30.486  24.530  26.560  1.00  0.00    -0.269 OA
BRANCH  15  17
ATOM     17  C   UNL A   1      31.901  25.351  24.943  1.00  0.00     0.094 A 
ATOM     18  C   UNL A   1      32.831  26.337  25.263  1.00  0.00     0.137 A 
ATOM     19  C   UNL A   1      31.424  25.270  23.630  1.00  0.00     0.056 A 
ATOM     20  F   UNL A   1      33.323  26.441  26.503  1.00  0.00    -0.206 F 
ATOM     21  C   UNL A   1      33.261  27.260  24.311  1.00  0.00     0.040 A 
ATOM     22  C   UNL A   1      31.858  26.193  22.669  1.00  0.00     0.021 A 
ATOM     23  Cl  UNL A   1      30.278  24.078  23.128  1.00  0.00    -0.083 Cl
ATOM     24  C   UNL A   1      32.772  27.191  23.010  1.00  0.00     0.005 A 
ENDBRANCH  15  17
ENDBRANCH  12  15
ENDBRANCH   8   9
ENDBRANCH   6   8
ENDBRANCH   3   4
ENDBRANCH   2   3
ENDBRANCH   1   2
BRANCH   1  25
ATOM     25  C   UNL A   1      41.954  21.344  27.613  1.00  0.00     0.002 C 
BRANCH  25  26
ATOM     26  C   UNL A   1      42.201  19.886  27.225  1.00  0.00     0.021 C 
BRANCH  26  27
ATOM     27  C   UNL A   1      41.985  19.572  25.748  1.00  0.00     0.116 C 
BRANCH  27  28
ATOM     28  N   UNL A   1      43.135  18.916  25.143  1.00  0.00    -0.352 N 
ATOM     29  C   UNL A   1      44.316  19.464  24.704  1.00  0.00     0.251 C 
ATOM     30  H   UNL A   1      43.054  17.942  25.031  1.00  0.00     0.163 HD
ATOM     31  O   UNL A   1      45.114  18.785  24.064  1.00  0.00    -0.269 OA
BRANCH  29  32
ATOM     32  C   UNL A   1      44.613  20.884  24.982  1.00  0.00     0.039 A 
ATOM     33  C   UNL A   1      44.157  21.862  24.093  1.00  0.00     0.014 A 
ATOM     34  C   UNL A   1      45.325  21.253  26.126  1.00  0.00     0.014 A 
ATOM     35  C   UNL A   1      44.351  23.213  24.391  1.00  0.00     0.010 A 
ATOM     36  C   UNL A   1      45.449  22.598  26.460  1.00  0.00     0.010 A 
ATOM     37  C   UNL A   1      44.962  23.592  25.597  1.00  0.00    -0.014 A 
BRANCH  37  38
ATOM     38  C   UNL A   1      45.101  25.022  25.983  1.00  0.00     0.031 A 
ATOM     39  C   UNL A   1      46.445  25.694  25.901  1.00  0.00     0.074 A 
ATOM     40  C   UNL A   1      44.042  25.688  26.483  1.00  0.00     0.049 A 
ATOM     41  N   UNL A   1      46.797  26.892  26.295  1.00  0.00    -0.248 NA
ATOM     42  C   UNL A   1      47.548  24.905  25.328  1.00  0.00     0.031 C 
ATOM     43  C   UNL A   1      42.695  25.137  26.648  1.00  0.00     0.029 A 
ATOM     44  N   UNL A   1      43.933  26.970  26.964  1.00  0.00    -0.354 N 
ATOM     45  C   UNL A   1      48.160  26.988  26.042  1.00  0.00     0.074 A 
ATOM     46  C   UNL A   1      48.582  25.718  25.498  1.00  0.00     0.031 C 
ATOM     47  C   UNL A   1      41.895  26.078  27.176  1.00  0.00     0.029 A 
ATOM     48  C   UNL A   1      42.679  27.282  27.433  1.00  0.00     0.049 A 
ATOM     49  H   UNL A   1      44.684  27.607  26.973  1.00  0.00     0.167 HD
ATOM     50  C   UNL A   1      48.979  28.049  26.232  1.00  0.00     0.037 A 
ATOM     51  C   UNL A   1      42.220  28.405  28.020  1.00  0.00     0.037 A 
ATOM     52  C   UNL A   1      48.546  29.327  26.734  1.00  0.00     0.049 A 
ATOM     53  C   UNL A   1      43.163  29.561  28.230  1.00  0.00     0.074 A 
ATOM     54  C   UNL A   1      49.284  30.488  26.879  1.00  0.00     0.029 A 
ATOM     55  N   UNL A   1      47.264  29.609  27.177  1.00  0.00    -0.354 N 
ATOM     56  N   UNL A   1      44.429  29.670  27.905  1.00  0.00    -0.248 NA
ATOM     57  C   UNL A   1      42.612  30.756  28.887  1.00  0.00     0.031 C 
ATOM     58  C   UNL A   1      48.466  31.455  27.468  1.00  0.00     0.029 A 
ATOM     59  C   UNL A   1      47.200  30.917  27.628  1.00  0.00     0.049 A 
ATOM     60  H   UNL A   1      46.510  28.975  27.171  1.00  0.00     0.167 HD
ATOM     61  C   UNL A   1      44.809  30.952  28.277  1.00  0.00     0.074 A 
ATOM     62  C   UNL A   1      43.641  31.590  28.841  1.00  0.00     0.031 C 
ATOM     63  C   UNL A   1      46.020  31.549  28.160  1.00  0.00     0.037 A 
BRANCH  50  64
ATOM     64  C   UNL A   1      50.434  27.889  25.902  1.00  0.00     0.064 A 
ATOM     65  C   UNL A   1      50.915  28.021  24.592  1.00  0.00     0.173 A 
ATOM     66  C   UNL A   1      51.371  27.683  26.927  1.00  0.00     0.173 A 
ATOM     67  F   UNL A   1      50.061  28.208  23.575  1.00  0.00    -0.203 F 
ATOM     68  C   UNL A   1      52.278  27.940  24.318  1.00  0.00     0.198 A 
ATOM     69  C   UNL A   1      52.734  27.634  26.654  1.00  0.00     0.198 A 
ATOM     70  F   UNL A   1      50.965  27.555  28.200  1.00  0.00    -0.203 F 
ATOM     71  F   UNL A   1      52.712  28.037  23.053  1.00  0.00    -0.200 F 
ATOM     72  C   UNL A   1      53.188  27.759  25.349  1.00  0.00     0.200 A 
ATOM     73  F   UNL A   1      53.613  27.474  27.654  1.00  0.00    -0.200 F 
ATOM     74  F   UNL A   1      54.500  27.704  25.085  1.00  0.00    -0.200 F 
ENDBRANCH  50  64
BRANCH  51  75
ATOM     75  C   UNL A   1      40.800  28.505  28.457  1.00  0.00     0.064 A 
ATOM     76  C   UNL A   1      39.810  28.982  27.586  1.00  0.00     0.173 A 
ATOM     77  C   UNL A   1      40.412  28.184  29.766  1.00  0.00     0.173 A 
ATOM     78  F   UNL A   1      40.134  29.324  26.329  1.00  0.00    -0.203 F 
ATOM     79  C   UNL A   1      38.500  29.174  28.017  1.00  0.00     0.198 A 
ATOM     80  C   UNL A   1      39.092  28.341  30.187  1.00  0.00     0.198 A 
ATOM     81  F   UNL A   1      41.315  27.718  30.641  1.00  0.00    -0.203 F 
ATOM     82  F   UNL A   1      37.593  29.702  27.182  1.00  0.00    -0.200 F 
ATOM     83  C   UNL A   1      38.141  28.852  29.316  1.00  0.00     0.200 A 
ATOM     84  F   UNL A   1      38.747  28.014  31.439  1.00  0.00    -0.200 F 
ATOM     85  F   UNL A   1      36.883  29.045  29.735  1.00  0.00    -0.200 F 
ENDBRANCH  51  75
BRANCH  63  86
ATOM     86  C   UNL A   1      46.134  32.984  28.591  1.00  0.00     0.064 A 
ATOM     87  C   UNL A   1      46.527  33.338  29.890  1.00  0.00     0.173 A 
ATOM     88  C   UNL A   1      45.899  34.017  27.671  1.00  0.00     0.173 A 
ATOM     89  F   UNL A   1      46.750  32.389  30.812  1.00  0.00    -0.203 F 
ATOM     90  C   UNL A   1      46.656  34.674  30.258  1.00  0.00     0.198 A 
ATOM     91  C   UNL A   1      46.063  35.350  28.032  1.00  0.00     0.198 A 
ATOM     92  F   UNL A   1      45.529  33.731  26.414  1.00  0.00    -0.203 F 
ATOM     93  F   UNL A   1      46.986  34.992  31.517  1.00  0.00    -0.200 F 
ATOM     94  C   UNL A   1      46.434  35.679  29.326  1.00  0.00     0.200 A 
ATOM     95  F   UNL A   1      45.866  36.317  27.126  1.00  0.00    -0.200 F 
ATOM     96  F   UNL A   1      46.573  36.964  29.679  1.00  0.00    -0.200 F 
ENDBRANCH  63  86
ENDBRANCH  37  38
ENDBRANCH  29  32
ENDBRANCH  27  28
ENDBRANCH  26  27
ENDBRANCH  25  26
ENDBRANCH   1  25
TORSDOF 16
ENDMDL
