MODEL 1
REMARK VINA RESULT:     -13.2      0.000      0.000
REMARK SMILES Cc1cccc(C(=O)NCCCCCCNC(=O)c2ccc(-c3c4nc(c(-c5c(F)c(F)c(F)c(F)c5F)c5ccc([nH]5)c(-c5c(F)c(F)c(F)c(F)c5F)c5nc(c(-c6c(F)c(F)c(F)c(F)c6F)c6ccc3[nH]6)C=C5)C=C4)cc2)c1OC[C@@H]1C[C@H]2CC[C@@H]1C2
REMARK SMILES IDX 12 1 11 2 10 3 9 4 7 5 8 6 6 8 1 9 2 10 3 11 82 12 4 13 5 14
REMARK SMILES IDX 83 15 84 16 85 17 86 18 90 19 87 20 89 21 91 22 88 23 13 24
REMARK SMILES IDX 14 25 15 26 16 27 17 28 18 30 19 31 20 32 81 33 21 34 80 35
REMARK SMILES IDX 22 36 23 37 24 38 74 39 25 40 79 41 73 42 75 43 26 44 78 45
REMARK SMILES IDX 72 46 71 47 27 49 59 50 39 51 58 52 40 53 43 54 57 55 76 56
REMARK SMILES IDX 41 57 42 58 56 60 77 61 44 62 28 63 29 64 37 65 30 66 31 67
REMARK SMILES IDX 35 68 38 69 32 70 33 71 36 72 34 73 60 74 61 75 69 76 62 77
REMARK SMILES IDX 63 78 67 79 70 80 64 81 65 82 68 83 66 84 45 85 46 86 54 87
REMARK SMILES IDX 47 88 48 89 52 90 55 91 49 92 50 93 53 94 51 95
REMARK H PARENT 9 7 16 29 75 48 43 59
REMARK Flexibility Score: inf
ROOT
ATOM      1  C   UNL A   1      33.388  29.165  25.115  1.00  0.00     0.002 C 
ENDROOT
BRANCH   1   2
ATOM      2  C   UNL A   1      33.195  29.320  23.599  1.00  0.00     0.021 C 
BRANCH   2   3
ATOM      3  C   UNL A   1      34.383  28.861  22.746  1.00  0.00     0.116 C 
BRANCH   3   4
ATOM      4  N   UNL A   1      33.982  27.795  21.870  1.00  0.00    -0.352 N 
ATOM      5  C   UNL A   1      33.423  26.570  22.088  1.00  0.00     0.255 C 
ATOM      6  O   UNL A   1      33.253  25.886  21.070  1.00  0.00    -0.269 OA
ATOM      7  H   UNL A   1      34.143  27.988  20.918  1.00  0.00     0.163 HD
BRANCH   5   8
ATOM      8  C   UNL A   1      32.944  26.004  23.391  1.00  0.00     0.082 A 
ATOM      9  C   UNL A   1      30.280  26.306  26.122  1.00  0.00     0.048 C 
ATOM     10  C   UNL A   1      31.490  25.867  25.338  1.00  0.00    -0.008 A 
ATOM     11  C   UNL A   1      32.592  25.472  26.122  1.00  0.00     0.007 A 
ATOM     12  C   UNL A   1      31.639  26.019  23.938  1.00  0.00     0.134 A 
ATOM     13  C   UNL A   1      33.848  25.316  25.562  1.00  0.00     0.001 A 
ATOM     14  C   UNL A   1      34.025  25.617  24.219  1.00  0.00     0.018 A 
BRANCH  12  15
ATOM     15  O   UNL A   1      30.573  26.297  23.132  1.00  0.00    -0.492 OA
BRANCH  15  16
ATOM     16  C   UNL A   1      30.418  27.625  22.572  1.00  0.00     0.233 C 
BRANCH  16  17
ATOM     17  C   UNL A   1      29.525  28.657  23.311  1.00  0.00     0.030 C 
ATOM     18  C   UNL A   1      28.023  28.539  22.909  1.00  0.00     0.011 C 
ATOM     19  C   UNL A   1      29.818  30.123  22.875  1.00  0.00    -0.004 C 
ATOM     20  C   UNL A   1      27.665  29.938  22.371  1.00  0.00    -0.010 C 
ATOM     21  C   UNL A   1      29.148  31.087  23.869  1.00  0.00     0.004 C 
ATOM     22  C   UNL A   1      28.944  30.310  21.633  1.00  0.00     0.007 C 
ATOM     23  C   UNL A   1      27.658  30.948  23.528  1.00  0.00     0.004 C 
ENDBRANCH  16  17
ENDBRANCH  15  16
ENDBRANCH  12  15
ENDBRANCH   5   8
ENDBRANCH   3   4
ENDBRANCH   2   3
ENDBRANCH   1   2
BRANCH   1  24
ATOM     24  C   UNL A   1      32.199  29.578  26.000  1.00  0.00     0.002 C 
BRANCH  24  25
ATOM     25  C   UNL A   1      32.537  30.425  27.231  1.00  0.00     0.021 C 
BRANCH  25  26
ATOM     26  C   UNL A   1      33.977  30.921  27.261  1.00  0.00     0.116 C 
BRANCH  26  27
ATOM     27  N   UNL A   1      34.331  31.604  28.507  1.00  0.00    -0.352 N 
ATOM     28  C   UNL A   1      35.295  31.274  29.434  1.00  0.00     0.251 C 
ATOM     29  H   UNL A   1      33.808  32.413  28.710  1.00  0.00     0.163 HD
ATOM     30  O   UNL A   1      35.468  31.949  30.434  1.00  0.00    -0.269 OA
BRANCH  28  31
ATOM     31  C   UNL A   1      36.208  30.143  29.133  1.00  0.00     0.039 A 
ATOM     32  C   UNL A   1      36.630  29.343  30.198  1.00  0.00     0.014 A 
ATOM     33  C   UNL A   1      36.798  30.029  27.877  1.00  0.00     0.014 A 
ATOM     34  C   UNL A   1      37.804  28.608  30.065  1.00  0.00     0.010 A 
ATOM     35  C   UNL A   1      38.003  29.362  27.768  1.00  0.00     0.010 A 
ATOM     36  C   UNL A   1      38.543  28.715  28.885  1.00  0.00    -0.014 A 
BRANCH  36  37
ATOM     37  C   UNL A   1      39.947  28.324  28.799  1.00  0.00     0.031 A 
ATOM     38  C   UNL A   1      40.345  26.961  28.402  1.00  0.00     0.074 A 
ATOM     39  C   UNL A   1      40.910  29.238  29.057  1.00  0.00     0.049 A 
ATOM     40  N   UNL A   1      41.451  26.408  28.778  1.00  0.00    -0.248 NA
ATOM     41  C   UNL A   1      39.521  26.098  27.564  1.00  0.00     0.031 C 
ATOM     42  C   UNL A   1      42.347  29.096  28.828  1.00  0.00     0.029 A 
ATOM     43  N   UNL A   1      40.793  30.428  29.797  1.00  0.00    -0.354 N 
ATOM     44  C   UNL A   1      41.606  25.255  28.054  1.00  0.00     0.074 A 
ATOM     45  C   UNL A   1      40.354  25.072  27.352  1.00  0.00     0.031 C 
ATOM     46  C   UNL A   1      42.996  29.930  29.652  1.00  0.00     0.029 A 
ATOM     47  C   UNL A   1      42.007  30.547  30.515  1.00  0.00     0.049 A 
ATOM     48  H   UNL A   1      40.027  31.047  29.811  1.00  0.00     0.167 HD
ATOM     49  C   UNL A   1      42.813  24.625  28.028  1.00  0.00     0.037 A 
ATOM     50  C   UNL A   1      42.022  30.533  31.878  1.00  0.00     0.037 A 
ATOM     51  C   UNL A   1      43.817  25.294  28.846  1.00  0.00     0.049 A 
ATOM     52  C   UNL A   1      42.814  29.401  32.498  1.00  0.00     0.074 A 
ATOM     53  C   UNL A   1      44.867  26.158  28.582  1.00  0.00     0.029 A 
ATOM     54  N   UNL A   1      43.632  25.333  30.214  1.00  0.00    -0.354 N 
ATOM     55  N   UNL A   1      43.412  28.460  31.821  1.00  0.00    -0.248 NA
ATOM     56  C   UNL A   1      42.895  29.181  33.944  1.00  0.00     0.031 C 
ATOM     57  C   UNL A   1      45.324  26.699  29.817  1.00  0.00     0.029 A 
ATOM     58  C   UNL A   1      44.548  26.165  30.827  1.00  0.00     0.049 A 
ATOM     59  H   UNL A   1      42.935  24.830  30.694  1.00  0.00     0.167 HD
ATOM     60  C   UNL A   1      43.880  27.507  32.688  1.00  0.00     0.074 A 
ATOM     61  C   UNL A   1      43.537  28.004  34.006  1.00  0.00     0.031 C 
ATOM     62  C   UNL A   1      44.470  26.354  32.263  1.00  0.00     0.037 A 
BRANCH  49  63
ATOM     63  C   UNL A   1      43.112  23.506  27.072  1.00  0.00     0.064 A 
ATOM     64  C   UNL A   1      42.648  22.197  27.311  1.00  0.00     0.173 A 
ATOM     65  C   UNL A   1      43.890  23.673  25.913  1.00  0.00     0.173 A 
ATOM     66  F   UNL A   1      41.844  21.916  28.344  1.00  0.00    -0.203 F 
ATOM     67  C   UNL A   1      43.021  21.120  26.505  1.00  0.00     0.198 A 
ATOM     68  C   UNL A   1      44.307  22.587  25.138  1.00  0.00     0.198 A 
ATOM     69  F   UNL A   1      44.256  24.896  25.501  1.00  0.00    -0.203 F 
ATOM     70  F   UNL A   1      42.560  19.892  26.783  1.00  0.00    -0.200 F 
ATOM     71  C   UNL A   1      43.879  21.309  25.441  1.00  0.00     0.200 A 
ATOM     72  F   UNL A   1      45.138  22.787  24.105  1.00  0.00    -0.200 F 
ATOM     73  F   UNL A   1      44.286  20.265  24.706  1.00  0.00    -0.200 F 
ENDBRANCH  49  63
BRANCH  50  74
ATOM     74  C   UNL A   1      40.810  31.152  32.474  1.00  0.00     0.064 A 
ATOM     75  C   UNL A   1      40.691  32.556  32.446  1.00  0.00     0.173 A 
ATOM     76  C   UNL A   1      39.654  30.410  32.731  1.00  0.00     0.173 A 
ATOM     77  F   UNL A   1      41.771  33.316  32.200  1.00  0.00    -0.203 F 
ATOM     78  C   UNL A   1      39.452  33.180  32.555  1.00  0.00     0.198 A 
ATOM     79  C   UNL A   1      38.415  31.039  32.860  1.00  0.00     0.198 A 
ATOM     80  F   UNL A   1      39.697  29.070  32.749  1.00  0.00    -0.203 F 
ATOM     81  F   UNL A   1      39.357  34.510  32.411  1.00  0.00    -0.200 F 
ATOM     82  C   UNL A   1      38.311  32.418  32.737  1.00  0.00     0.200 A 
ATOM     83  F   UNL A   1      37.309  30.300  33.017  1.00  0.00    -0.200 F 
ATOM     84  F   UNL A   1      37.107  33.007  32.757  1.00  0.00    -0.200 F 
ENDBRANCH  50  74
BRANCH  62  85
ATOM     85  C   UNL A   1      45.013  25.297  33.182  1.00  0.00     0.064 A 
ATOM     86  C   UNL A   1      46.379  24.981  33.240  1.00  0.00     0.173 A 
ATOM     87  C   UNL A   1      44.154  24.479  33.947  1.00  0.00     0.173 A 
ATOM     88  F   UNL A   1      47.271  25.655  32.498  1.00  0.00    -0.203 F 
ATOM     89  C   UNL A   1      46.858  23.946  34.046  1.00  0.00     0.198 A 
ATOM     90  C   UNL A   1      44.628  23.415  34.709  1.00  0.00     0.198 A 
ATOM     91  F   UNL A   1      42.832  24.703  33.993  1.00  0.00    -0.203 F 
ATOM     92  F   UNL A   1      48.175  23.710  34.112  1.00  0.00    -0.200 F 
ATOM     93  C   UNL A   1      45.982  23.156  34.771  1.00  0.00     0.200 A 
ATOM     94  F   UNL A   1      43.764  22.645  35.386  1.00  0.00    -0.200 F 
ATOM     95  F   UNL A   1      46.442  22.149  35.525  1.00  0.00    -0.200 F 
ENDBRANCH  62  85
ENDBRANCH  36  37
ENDBRANCH  28  31
ENDBRANCH  26  27
ENDBRANCH  25  26
ENDBRANCH  24  25
ENDBRANCH   1  24
TORSDOF 16
ENDMDL
MODEL 2
REMARK VINA RESULT:     -12.9      1.228      3.274
REMARK SMILES Cc1cccc(C(=O)NCCCCCCNC(=O)c2ccc(-c3c4nc(c(-c5c(F)c(F)c(F)c(F)c5F)c5ccc([nH]5)c(-c5c(F)c(F)c(F)c(F)c5F)c5nc(c(-c6c(F)c(F)c(F)c(F)c6F)c6ccc3[nH]6)C=C5)C=C4)cc2)c1OC[C@@H]1C[C@H]2CC[C@@H]1C2
REMARK SMILES IDX 12 1 11 2 10 3 9 4 7 5 8 6 6 8 1 9 2 10 3 11 82 12 4 13 5 14
REMARK SMILES IDX 83 15 84 16 85 17 86 18 90 19 87 20 89 21 91 22 88 23 13 24
REMARK SMILES IDX 14 25 15 26 16 27 17 28 18 30 19 31 20 32 81 33 21 34 80 35
REMARK SMILES IDX 22 36 23 37 24 38 74 39 25 40 79 41 73 42 75 43 26 44 78 45
REMARK SMILES IDX 72 46 71 47 27 49 59 50 39 51 58 52 40 53 43 54 57 55 76 56
REMARK SMILES IDX 41 57 42 58 56 60 77 61 44 62 28 63 29 64 37 65 30 66 31 67
REMARK SMILES IDX 35 68 38 69 32 70 33 71 36 72 34 73 60 74 61 75 69 76 62 77
REMARK SMILES IDX 63 78 67 79 70 80 64 81 65 82 68 83 66 84 45 85 46 86 54 87
REMARK SMILES IDX 47 88 48 89 52 90 55 91 49 92 50 93 53 94 51 95
REMARK H PARENT 9 7 16 29 75 48 43 59
REMARK Flexibility Score: inf
ROOT
ATOM      1  C   UNL A   1      31.399  27.617  26.697  1.00  0.00     0.002 C 
ENDROOT
BRANCH   1   2
ATOM      2  C   UNL A   1      31.514  26.087  26.631  1.00  0.00     0.021 C 
BRANCH   2   3
ATOM      3  C   UNL A   1      30.211  25.355  26.291  1.00  0.00     0.116 C 
BRANCH   3   4
ATOM      4  N   UNL A   1      30.379  24.572  25.098  1.00  0.00    -0.352 N 
ATOM      5  C   UNL A   1      30.672  24.894  23.805  1.00  0.00     0.255 C 
ATOM      6  O   UNL A   1      30.692  23.936  23.021  1.00  0.00    -0.269 OA
ATOM      7  H   UNL A   1      30.257  23.605  25.242  1.00  0.00     0.163 HD
BRANCH   5   8
ATOM      8  C   UNL A   1      31.028  26.244  23.259  1.00  0.00     0.082 A 
ATOM      9  C   UNL A   1      33.686  28.997  23.260  1.00  0.00     0.048 C 
ATOM     10  C   UNL A   1      32.419  28.225  22.999  1.00  0.00    -0.008 A 
ATOM     11  C   UNL A   1      31.258  29.013  22.878  1.00  0.00     0.007 A 
ATOM     12  C   UNL A   1      32.310  26.814  23.070  1.00  0.00     0.134 A 
ATOM     13  C   UNL A   1      29.998  28.441  22.919  1.00  0.00     0.001 A 
ATOM     14  C   UNL A   1      29.889  27.077  23.146  1.00  0.00     0.018 A 
BRANCH  12  15
ATOM     15  O   UNL A   1      33.413  26.011  23.080  1.00  0.00    -0.492 OA
BRANCH  15  16
ATOM     16  C   UNL A   1      34.112  25.760  24.326  1.00  0.00     0.233 C 
BRANCH  16  17
ATOM     17  C   UNL A   1      34.267  24.298  24.823  1.00  0.00     0.030 C 
ATOM     18  C   UNL A   1      35.702  24.001  25.357  1.00  0.00     0.011 C 
ATOM     19  C   UNL A   1      34.177  23.260  23.667  1.00  0.00    -0.004 C 
ATOM     20  C   UNL A   1      36.191  22.825  24.490  1.00  0.00    -0.010 C 
ATOM     21  C   UNL A   1      34.007  21.853  24.265  1.00  0.00     0.004 C 
ATOM     22  C   UNL A   1      35.610  23.192  23.132  1.00  0.00     0.007 C 
ATOM     23  C   UNL A   1      35.397  21.559  24.846  1.00  0.00     0.004 C 
ENDBRANCH  16  17
ENDBRANCH  15  16
ENDBRANCH  12  15
ENDBRANCH   5   8
ENDBRANCH   3   4
ENDBRANCH   2   3
ENDBRANCH   1   2
BRANCH   1  24
ATOM     24  C   UNL A   1      32.672  28.380  27.101  1.00  0.00     0.002 C 
BRANCH  24  25
ATOM     25  C   UNL A   1      32.519  29.891  27.299  1.00  0.00     0.021 C 
BRANCH  25  26
ATOM     26  C   UNL A   1      33.817  30.670  27.131  1.00  0.00     0.116 C 
BRANCH  26  27
ATOM     27  N   UNL A   1      34.185  31.452  28.313  1.00  0.00    -0.352 N 
ATOM     28  C   UNL A   1      35.209  31.241  29.210  1.00  0.00     0.251 C 
ATOM     29  H   UNL A   1      33.621  32.239  28.491  1.00  0.00     0.163 HD
ATOM     30  O   UNL A   1      35.384  31.989  30.156  1.00  0.00    -0.269 OA
BRANCH  28  31
ATOM     31  C   UNL A   1      36.176  30.150  28.934  1.00  0.00     0.039 A 
ATOM     32  C   UNL A   1      36.597  29.364  30.010  1.00  0.00     0.014 A 
ATOM     33  C   UNL A   1      36.810  30.066  27.697  1.00  0.00     0.014 A 
ATOM     34  C   UNL A   1      37.804  28.678  29.912  1.00  0.00     0.010 A 
ATOM     35  C   UNL A   1      38.044  29.449  27.624  1.00  0.00     0.010 A 
ATOM     36  C   UNL A   1      38.575  28.820  28.756  1.00  0.00    -0.014 A 
BRANCH  36  37
ATOM     37  C   UNL A   1      39.995  28.487  28.713  1.00  0.00     0.031 A 
ATOM     38  C   UNL A   1      40.464  27.158  28.277  1.00  0.00     0.074 A 
ATOM     39  C   UNL A   1      40.910  29.425  29.050  1.00  0.00     0.049 A 
ATOM     40  N   UNL A   1      41.574  26.633  28.676  1.00  0.00    -0.248 NA
ATOM     41  C   UNL A   1      39.709  26.301  27.370  1.00  0.00     0.031 C 
ATOM     42  C   UNL A   1      42.359  29.348  28.876  1.00  0.00     0.029 A 
ATOM     43  N   UNL A   1      40.715  30.576  29.832  1.00  0.00    -0.354 N 
ATOM     44  C   UNL A   1      41.805  25.519  27.912  1.00  0.00     0.074 A 
ATOM     45  C   UNL A   1      40.591  25.319  27.151  1.00  0.00     0.031 C 
ATOM     46  C   UNL A   1      42.941  30.170  29.761  1.00  0.00     0.029 A 
ATOM     47  C   UNL A   1      41.894  30.711  30.606  1.00  0.00     0.049 A 
ATOM     48  H   UNL A   1      39.926  31.164  29.840  1.00  0.00     0.167 HD
ATOM     49  C   UNL A   1      43.037  24.937  27.911  1.00  0.00     0.037 A 
ATOM     50  C   UNL A   1      41.854  30.639  31.966  1.00  0.00     0.037 A 
ATOM     51  C   UNL A   1      43.979  25.609  28.798  1.00  0.00     0.049 A 
ATOM     52  C   UNL A   1      42.665  29.513  32.572  1.00  0.00     0.074 A 
ATOM     53  C   UNL A   1      45.004  26.523  28.615  1.00  0.00     0.029 A 
ATOM     54  N   UNL A   1      43.737  25.581  30.158  1.00  0.00    -0.354 N 
ATOM     55  N   UNL A   1      43.327  28.625  31.882  1.00  0.00    -0.248 NA
ATOM     56  C   UNL A   1      42.695  29.234  34.009  1.00  0.00     0.031 C 
ATOM     57  C   UNL A   1      45.388  27.027  29.889  1.00  0.00     0.029 A 
ATOM     58  C   UNL A   1      44.594  26.421  30.843  1.00  0.00     0.049 A 
ATOM     59  H   UNL A   1      43.042  25.031  30.586  1.00  0.00     0.167 HD
ATOM     60  C   UNL A   1      43.797  27.655  32.728  1.00  0.00     0.074 A 
ATOM     61  C   UNL A   1      43.382  28.080  34.050  1.00  0.00     0.031 C 
ATOM     62  C   UNL A   1      44.449  26.545  32.281  1.00  0.00     0.037 A 
BRANCH  49  63
ATOM     63  C   UNL A   1      43.418  23.873  26.923  1.00  0.00     0.064 A 
ATOM     64  C   UNL A   1      42.982  22.542  27.077  1.00  0.00     0.173 A 
ATOM     65  C   UNL A   1      44.251  24.115  25.817  1.00  0.00     0.173 A 
ATOM     66  F   UNL A   1      42.133  22.192  28.051  1.00  0.00    -0.203 F 
ATOM     67  C   UNL A   1      43.428  21.514  26.244  1.00  0.00     0.198 A 
ATOM     68  C   UNL A   1      44.741  23.079  25.017  1.00  0.00     0.198 A 
ATOM     69  F   UNL A   1      44.603  25.365  25.481  1.00  0.00    -0.203 F 
ATOM     70  F   UNL A   1      42.990  20.263  26.441  1.00  0.00    -0.200 F 
ATOM     71  C   UNL A   1      44.336  21.776  25.237  1.00  0.00     0.200 A 
ATOM     72  F   UNL A   1      45.619  23.349  24.040  1.00  0.00    -0.200 F 
ATOM     73  F   UNL A   1      44.812  20.780  24.479  1.00  0.00    -0.200 F 
ENDBRANCH  49  63
BRANCH  50  74
ATOM     74  C   UNL A   1      40.595  31.185  32.536  1.00  0.00     0.064 A 
ATOM     75  C   UNL A   1      40.405  32.581  32.529  1.00  0.00     0.173 A 
ATOM     76  C   UNL A   1      39.471  30.381  32.744  1.00  0.00     0.173 A 
ATOM     77  F   UNL A   1      41.451  33.399  32.329  1.00  0.00    -0.203 F 
ATOM     78  C   UNL A   1      39.133  33.140  32.610  1.00  0.00     0.198 A 
ATOM     79  C   UNL A   1      38.199  30.944  32.847  1.00  0.00     0.198 A 
ATOM     80  F   UNL A   1      39.582  29.044  32.740  1.00  0.00    -0.203 F 
ATOM     81  F   UNL A   1      38.974  34.466  32.486  1.00  0.00    -0.200 F 
ATOM     82  C   UNL A   1      38.028  32.318  32.744  1.00  0.00     0.200 A 
ATOM     83  F   UNL A   1      37.127  30.147  32.956  1.00  0.00    -0.200 F 
ATOM     84  F   UNL A   1      36.795  32.845  32.738  1.00  0.00    -0.200 F 
ENDBRANCH  50  74
BRANCH  62  85
ATOM     85  C   UNL A   1      44.997  25.471  33.177  1.00  0.00     0.064 A 
ATOM     86  C   UNL A   1      46.370  25.195  33.269  1.00  0.00     0.173 A 
ATOM     87  C   UNL A   1      44.140  24.597  33.881  1.00  0.00     0.173 A 
ATOM     88  F   UNL A   1      47.263  25.924  32.583  1.00  0.00    -0.203 F 
ATOM     89  C   UNL A   1      46.856  24.145  34.051  1.00  0.00     0.198 A 
ATOM     90  C   UNL A   1      44.624  23.519  34.619  1.00  0.00     0.198 A 
ATOM     91  F   UNL A   1      42.811  24.777  33.892  1.00  0.00    -0.203 F 
ATOM     92  F   UNL A   1      48.177  23.948  34.152  1.00  0.00    -0.200 F 
ATOM     93  C   UNL A   1      45.983  23.301  34.716  1.00  0.00     0.200 A 
ATOM     94  F   UNL A   1      43.764  22.697  35.237  1.00  0.00    -0.200 F 
ATOM     95  F   UNL A   1      46.451  22.281  35.447  1.00  0.00    -0.200 F 
ENDBRANCH  62  85
ENDBRANCH  36  37
ENDBRANCH  28  31
ENDBRANCH  26  27
ENDBRANCH  25  26
ENDBRANCH  24  25
ENDBRANCH   1  24
TORSDOF 16
ENDMDL
MODEL 3
REMARK VINA RESULT:     -12.7      3.413      9.557
REMARK SMILES Cc1cccc(C(=O)NCCCCCCNC(=O)c2ccc(-c3c4nc(c(-c5c(F)c(F)c(F)c(F)c5F)c5ccc([nH]5)c(-c5c(F)c(F)c(F)c(F)c5F)c5nc(c(-c6c(F)c(F)c(F)c(F)c6F)c6ccc3[nH]6)C=C5)C=C4)cc2)c1OC[C@@H]1C[C@H]2CC[C@@H]1C2
REMARK SMILES IDX 12 1 11 2 10 3 9 4 7 5 8 6 6 8 1 9 2 10 3 11 82 12 4 13 5 14
REMARK SMILES IDX 83 15 84 16 85 17 86 18 90 19 87 20 89 21 91 22 88 23 13 24
REMARK SMILES IDX 14 25 15 26 16 27 17 28 18 30 19 31 20 32 81 33 21 34 80 35
REMARK SMILES IDX 22 36 23 37 24 38 74 39 25 40 79 41 73 42 75 43 26 44 78 45
REMARK SMILES IDX 72 46 71 47 27 49 59 50 39 51 58 52 40 53 43 54 57 55 76 56
REMARK SMILES IDX 41 57 42 58 56 60 77 61 44 62 28 63 29 64 37 65 30 66 31 67
REMARK SMILES IDX 35 68 38 69 32 70 33 71 36 72 34 73 60 74 61 75 69 76 62 77
REMARK SMILES IDX 63 78 67 79 70 80 64 81 65 82 68 83 66 84 45 85 46 86 54 87
REMARK SMILES IDX 47 88 48 89 52 90 55 91 49 92 50 93 53 94 51 95
REMARK H PARENT 9 7 16 29 75 48 43 59
REMARK Flexibility Score: inf
ROOT
ATOM      1  C   UNL A   1      35.928  23.320  25.880  1.00  0.00     0.002 C 
ENDROOT
BRANCH   1   2
ATOM      2  C   UNL A   1      34.431  23.220  26.205  1.00  0.00     0.021 C 
BRANCH   2   3
ATOM      3  C   UNL A   1      33.496  23.760  25.116  1.00  0.00     0.116 C 
BRANCH   3   4
ATOM      4  N   UNL A   1      32.235  24.142  25.690  1.00  0.00    -0.352 N 
ATOM      5  C   UNL A   1      31.671  25.350  25.980  1.00  0.00     0.255 C 
ATOM      6  O   UNL A   1      30.561  25.289  26.524  1.00  0.00    -0.269 OA
ATOM      7  H   UNL A   1      31.661  23.376  25.922  1.00  0.00     0.163 HD
BRANCH   5   8
ATOM      8  C   UNL A   1      32.212  26.711  25.658  1.00  0.00     0.082 A 
ATOM      9  C   UNL A   1      33.364  29.008  22.823  1.00  0.00     0.048 C 
ATOM     10  C   UNL A   1      33.051  28.464  24.192  1.00  0.00    -0.008 A 
ATOM     11  C   UNL A   1      33.927  28.884  25.212  1.00  0.00     0.007 A 
ATOM     12  C   UNL A   1      32.101  27.446  24.454  1.00  0.00     0.134 A 
ATOM     13  C   UNL A   1      33.941  28.257  26.446  1.00  0.00     0.001 A 
ATOM     14  C   UNL A   1      33.118  27.159  26.649  1.00  0.00     0.018 A 
BRANCH  12  15
ATOM     15  O   UNL A   1      31.166  27.086  23.527  1.00  0.00    -0.492 OA
BRANCH  15  16
ATOM     16  C   UNL A   1      29.867  27.731  23.524  1.00  0.00     0.233 C 
BRANCH  16  17
ATOM     17  C   UNL A   1      29.693  29.078  22.774  1.00  0.00     0.030 C 
ATOM     18  C   UNL A   1      29.808  30.307  23.727  1.00  0.00     0.011 C 
ATOM     19  C   UNL A   1      28.249  29.279  22.230  1.00  0.00    -0.004 C 
ATOM     20  C   UNL A   1      28.469  31.049  23.549  1.00  0.00    -0.010 C 
ATOM     21  C   UNL A   1      28.244  30.453  21.235  1.00  0.00     0.004 C 
ATOM     22  C   UNL A   1      27.498  29.885  23.418  1.00  0.00     0.007 C 
ATOM     23  C   UNL A   1      28.410  31.675  22.147  1.00  0.00     0.004 C 
ENDBRANCH  16  17
ENDBRANCH  15  16
ENDBRANCH  12  15
ENDBRANCH   5   8
ENDBRANCH   3   4
ENDBRANCH   2   3
ENDBRANCH   1   2
BRANCH   1  24
ATOM     24  C   UNL A   1      36.561  22.095  25.197  1.00  0.00     0.002 C 
BRANCH  24  25
ATOM     25  C   UNL A   1      38.083  21.971  25.311  1.00  0.00     0.021 C 
BRANCH  25  26
ATOM     26  C   UNL A   1      38.690  22.826  26.416  1.00  0.00     0.116 C 
BRANCH  26  27
ATOM     27  N   UNL A   1      40.142  22.979  26.303  1.00  0.00    -0.352 N 
ATOM     28  C   UNL A   1      40.905  24.123  26.391  1.00  0.00     0.251 C 
ATOM     29  H   UNL A   1      40.644  22.147  26.143  1.00  0.00     0.163 HD
ATOM     30  O   UNL A   1      42.118  24.084  26.270  1.00  0.00    -0.269 OA
BRANCH  28  31
ATOM     31  C   UNL A   1      40.233  25.394  26.758  1.00  0.00     0.039 A 
ATOM     32  C   UNL A   1      40.738  26.579  26.216  1.00  0.00     0.014 A 
ATOM     33  C   UNL A   1      39.287  25.421  27.779  1.00  0.00     0.014 A 
ATOM     34  C   UNL A   1      40.476  27.782  26.866  1.00  0.00     0.010 A 
ATOM     35  C   UNL A   1      39.089  26.602  28.469  1.00  0.00     0.010 A 
ATOM     36  C   UNL A   1      39.746  27.767  28.055  1.00  0.00    -0.014 A 
BRANCH  36  37
ATOM     37  C   UNL A   1      39.762  28.878  29.001  1.00  0.00     0.031 A 
ATOM     38  C   UNL A   1      38.725  29.927  28.978  1.00  0.00     0.074 A 
ATOM     39  C   UNL A   1      40.730  28.937  29.944  1.00  0.00     0.049 A 
ATOM     40  N   UNL A   1      38.929  31.134  29.390  1.00  0.00    -0.248 NA
ATOM     41  C   UNL A   1      37.377  29.708  28.468  1.00  0.00     0.031 C 
ATOM     42  C   UNL A   1      40.796  29.844  31.088  1.00  0.00     0.029 A 
ATOM     43  N   UNL A   1      41.988  28.308  29.928  1.00  0.00    -0.354 N 
ATOM     44  C   UNL A   1      37.715  31.767  29.441  1.00  0.00     0.074 A 
ATOM     45  C   UNL A   1      36.784  30.860  28.804  1.00  0.00     0.031 C 
ATOM     46  C   UNL A   1      42.077  29.969  31.463  1.00  0.00     0.029 A 
ATOM     47  C   UNL A   1      42.884  29.242  30.503  1.00  0.00     0.049 A 
ATOM     48  H   UNL A   1      42.199  27.409  29.588  1.00  0.00     0.167 HD
ATOM     49  C   UNL A   1      37.588  32.944  30.115  1.00  0.00     0.037 A 
ATOM     50  C   UNL A   1      43.920  29.757  29.782  1.00  0.00     0.037 A 
ATOM     51  C   UNL A   1      38.845  33.401  30.694  1.00  0.00     0.049 A 
ATOM     52  C   UNL A   1      43.889  31.261  29.603  1.00  0.00     0.074 A 
ATOM     53  C   UNL A   1      39.404  33.358  31.960  1.00  0.00     0.029 A 
ATOM     54  N   UNL A   1      39.871  33.758  29.841  1.00  0.00    -0.354 N 
ATOM     55  N   UNL A   1      42.938  32.038  30.044  1.00  0.00    -0.248 NA
ATOM     56  C   UNL A   1      44.878  31.991  28.807  1.00  0.00     0.031 C 
ATOM     57  C   UNL A   1      40.777  33.717  31.856  1.00  0.00     0.029 A 
ATOM     58  C   UNL A   1      41.050  33.974  30.527  1.00  0.00     0.049 A 
ATOM     59  H   UNL A   1      39.775  33.849  28.865  1.00  0.00     0.167 HD
ATOM     60  C   UNL A   1      43.131  33.306  29.559  1.00  0.00     0.074 A 
ATOM     61  C   UNL A   1      44.360  33.230  28.795  1.00  0.00     0.031 C 
ATOM     62  C   UNL A   1      42.243  34.317  29.777  1.00  0.00     0.037 A 
BRANCH  49  63
ATOM     63  C   UNL A   1      36.249  33.557  30.409  1.00  0.00     0.064 A 
ATOM     64  C   UNL A   1      35.462  34.122  29.387  1.00  0.00     0.173 A 
ATOM     65  C   UNL A   1      35.712  33.642  31.706  1.00  0.00     0.173 A 
ATOM     66  F   UNL A   1      35.829  34.051  28.101  1.00  0.00    -0.203 F 
ATOM     67  C   UNL A   1      34.277  34.809  29.657  1.00  0.00     0.198 A 
ATOM     68  C   UNL A   1      34.556  34.375  31.983  1.00  0.00     0.198 A 
ATOM     69  F   UNL A   1      36.295  33.007  32.734  1.00  0.00    -0.203 F 
ATOM     70  F   UNL A   1      33.572  35.338  28.647  1.00  0.00    -0.200 F 
ATOM     71  C   UNL A   1      33.843  34.967  30.957  1.00  0.00     0.200 A 
ATOM     72  F   UNL A   1      34.144  34.517  33.250  1.00  0.00    -0.200 F 
ATOM     73  F   UNL A   1      32.740  35.680  31.220  1.00  0.00    -0.200 F 
ENDBRANCH  49  63
BRANCH  50  74
ATOM     74  C   UNL A   1      44.474  28.793  28.797  1.00  0.00     0.064 A 
ATOM     75  C   UNL A   1      45.233  27.707  29.277  1.00  0.00     0.173 A 
ATOM     76  C   UNL A   1      43.991  28.716  27.488  1.00  0.00     0.173 A 
ATOM     77  F   UNL A   1      45.718  27.727  30.529  1.00  0.00    -0.203 F 
ATOM     78  C   UNL A   1      45.400  26.550  28.521  1.00  0.00     0.198 A 
ATOM     79  C   UNL A   1      44.178  27.564  26.724  1.00  0.00     0.198 A 
ATOM     80  F   UNL A   1      43.244  29.708  26.981  1.00  0.00    -0.203 F 
ATOM     81  F   UNL A   1      46.031  25.490  29.048  1.00  0.00    -0.200 F 
ATOM     82  C   UNL A   1      44.850  26.471  27.253  1.00  0.00     0.200 A 
ATOM     83  F   UNL A   1      43.628  27.480  25.505  1.00  0.00    -0.200 F 
ATOM     84  F   UNL A   1      44.936  25.330  26.555  1.00  0.00    -0.200 F 
ENDBRANCH  50  74
BRANCH  62  85
ATOM     85  C   UNL A   1      42.429  35.723  29.281  1.00  0.00     0.064 A 
ATOM     86  C   UNL A   1      41.857  36.180  28.084  1.00  0.00     0.173 A 
ATOM     87  C   UNL A   1      43.296  36.622  29.938  1.00  0.00     0.173 A 
ATOM     88  F   UNL A   1      41.072  35.378  27.349  1.00  0.00    -0.203 F 
ATOM     89  C   UNL A   1      42.100  37.467  27.600  1.00  0.00     0.198 A 
ATOM     90  C   UNL A   1      43.578  37.887  29.427  1.00  0.00     0.198 A 
ATOM     91  F   UNL A   1      43.879  36.308  31.105  1.00  0.00    -0.203 F 
ATOM     92  F   UNL A   1      41.494  37.882  26.480  1.00  0.00    -0.200 F 
ATOM     93  C   UNL A   1      42.969  38.316  28.265  1.00  0.00     0.200 A 
ATOM     94  F   UNL A   1      44.440  38.688  30.070  1.00  0.00    -0.200 F 
ATOM     95  F   UNL A   1      43.217  39.542  27.787  1.00  0.00    -0.200 F 
ENDBRANCH  62  85
ENDBRANCH  36  37
ENDBRANCH  28  31
ENDBRANCH  26  27
ENDBRANCH  25  26
ENDBRANCH  24  25
ENDBRANCH   1  24
TORSDOF 16
ENDMDL
