MODEL 1
REMARK VINA RESULT:     -12.4      0.000      0.000
REMARK SMILES COc1cc(CC(=O)N[C@@H](CC(=O)NCCCCCCNC(=O)c2ccc(-c3c4nc(c(-c5c(F)c(F)c(F)c(F)c5F)c5ccc([nH]5)c(-c5c(F)c(F)c(F)c(F)c5F)c5nc(c(-c6c(F)c(F)c(F)c(F)c6F)c6ccc3[nH]6)C=C5)C=C4)cc2)c2cccs2)ccc1C
REMARK SMILES IDX 16 1 15 2 14 3 12 4 13 5 11 7 10 8 9 9 7 10 8 11 6 13 5 14
REMARK SMILES IDX 3 15 4 16 94 17 93 18 95 19 92 20 2 21 1 22 87 23 88 24
REMARK SMILES IDX 91 25 89 26 90 27 17 28 18 29 19 30 20 31 21 32 22 33 23 35
REMARK SMILES IDX 24 36 25 37 86 38 26 39 85 40 27 41 28 42 29 43 79 44 30 45
REMARK SMILES IDX 84 46 78 47 80 48 31 49 83 50 77 51 76 52 32 54 64 55 44 56
REMARK SMILES IDX 63 57 45 58 48 59 62 60 81 61 46 62 47 63 61 65 82 66 49 67
REMARK SMILES IDX 33 68 34 69 42 70 35 71 36 72 40 73 43 74 37 75 38 76 41 77
REMARK SMILES IDX 39 78 65 79 66 80 74 81 67 82 68 83 72 84 75 85 69 86 70 87
REMARK SMILES IDX 73 88 71 89 50 90 51 91 59 92 52 93 53 94 57 95 60 96 54 97
REMARK SMILES IDX 55 98 58 99 56 100
REMARK H PARENT 14 6 9 12 21 34 80 53 48 64
REMARK Flexibility Score: inf
ROOT
ATOM      1  C   UNL A   1      35.037  23.955  25.184  1.00  0.00     0.021 C 
ENDROOT
BRANCH   1   2
ATOM      2  C   UNL A   1      34.361  25.251  24.731  1.00  0.00     0.116 C 
BRANCH   2   3
ATOM      3  N   UNL A   1      34.044  25.223  23.320  1.00  0.00    -0.356 N 
ATOM      4  C   UNL A   1      33.607  26.209  22.492  1.00  0.00     0.222 C 
ATOM      5  O   UNL A   1      33.611  25.964  21.283  1.00  0.00    -0.275 OA
ATOM      6  H   UNL A   1      34.164  24.346  22.889  1.00  0.00     0.163 HD
BRANCH   4   7
ATOM      7  C   UNL A   1      33.202  27.579  23.009  1.00  0.00     0.130 C 
BRANCH   7   8
ATOM      8  C   UNL A   1      32.331  27.653  24.277  1.00  0.00     0.131 C 
BRANCH   8   9
ATOM      9  N   UNL A   1      30.920  27.837  23.944  1.00  0.00    -0.348 N 
ATOM     10  C   UNL A   1      29.831  27.060  24.194  1.00  0.00     0.224 C 
ATOM     11  O   UNL A   1      28.789  27.327  23.589  1.00  0.00    -0.275 OA
ATOM     12  H   UNL A   1      30.724  28.668  23.453  1.00  0.00     0.164 HD
BRANCH  10  13
ATOM     13  C   UNL A   1      29.863  25.972  25.250  1.00  0.00     0.135 C 
BRANCH  13  14
ATOM     14  C   UNL A   1      30.526  24.680  24.847  1.00  0.00    -0.035 A 
ATOM     15  C   UNL A   1      31.765  22.679  25.493  1.00  0.00     0.122 A 
ATOM     16  C   UNL A   1      31.100  23.861  25.832  1.00  0.00     0.051 A 
ATOM     17  C   UNL A   1      31.865  22.304  24.145  1.00  0.00    -0.009 A 
ATOM     18  C   UNL A   1      31.237  23.092  23.166  1.00  0.00     0.007 A 
ATOM     19  C   UNL A   1      32.578  21.052  23.715  1.00  0.00     0.048 C 
ATOM     20  C   UNL A   1      30.569  24.269  23.512  1.00  0.00     0.005 A 
BRANCH  15  21
ATOM     21  O   UNL A   1      32.385  21.870  26.409  1.00  0.00    -0.496 OA
ATOM     22  C   UNL A   1      32.791  22.489  27.625  1.00  0.00     0.278 C 
ENDBRANCH  15  21
ENDBRANCH  13  14
ENDBRANCH  10  13
ENDBRANCH   8   9
BRANCH   8  23
ATOM     23  C   UNL A   1      32.695  28.692  25.324  1.00  0.00     0.027 A 
ATOM     24  C   UNL A   1      33.879  28.791  26.041  1.00  0.00     0.017 A 
ATOM     25  S   UNL A   1      31.686  30.040  25.669  1.00  0.00    -0.147 S 
ATOM     26  C   UNL A   1      33.896  29.886  26.950  1.00  0.00     0.012 A 
ATOM     27  C   UNL A   1      32.738  30.623  26.880  1.00  0.00     0.065 A 
ENDBRANCH   8  23
ENDBRANCH   7   8
ENDBRANCH   4   7
ENDBRANCH   2   3
ENDBRANCH   1   2
BRANCH   1  28
ATOM     28  C   UNL A   1      35.589  23.067  24.062  1.00  0.00     0.002 C 
BRANCH  28  29
ATOM     29  C   UNL A   1      37.043  22.598  24.205  1.00  0.00     0.002 C 
BRANCH  29  30
ATOM     30  C   UNL A   1      37.956  23.491  25.046  1.00  0.00     0.021 C 
BRANCH  30  31
ATOM     31  C   UNL A   1      38.510  22.830  26.301  1.00  0.00     0.116 C 
BRANCH  31  32
ATOM     32  N   UNL A   1      39.966  22.833  26.372  1.00  0.00    -0.352 N 
ATOM     33  C   UNL A   1      40.828  23.879  26.657  1.00  0.00     0.251 C 
ATOM     34  H   UNL A   1      40.400  21.968  26.190  1.00  0.00     0.163 HD
ATOM     35  O   UNL A   1      42.035  23.707  26.665  1.00  0.00    -0.269 OA
BRANCH  33  36
ATOM     36  C   UNL A   1      40.260  25.182  27.080  1.00  0.00     0.039 A 
ATOM     37  C   UNL A   1      40.536  26.307  26.294  1.00  0.00     0.014 A 
ATOM     38  C   UNL A   1      39.640  25.323  28.318  1.00  0.00     0.014 A 
ATOM     39  C   UNL A   1      40.417  27.576  26.854  1.00  0.00     0.010 A 
ATOM     40  C   UNL A   1      39.612  26.571  28.909  1.00  0.00     0.010 A 
ATOM     41  C   UNL A   1      40.071  27.687  28.200  1.00  0.00    -0.014 A 
BRANCH  41  42
ATOM     42  C   UNL A   1      40.286  28.895  28.986  1.00  0.00     0.031 A 
ATOM     43  C   UNL A   1      39.265  29.961  29.030  1.00  0.00     0.074 A 
ATOM     44  C   UNL A   1      41.388  28.981  29.766  1.00  0.00     0.049 A 
ATOM     45  N   UNL A   1      39.495  31.158  29.459  1.00  0.00    -0.248 NA
ATOM     46  C   UNL A   1      37.913  29.795  28.508  1.00  0.00     0.031 C 
ATOM     47  C   UNL A   1      41.619  29.907  30.872  1.00  0.00     0.029 A 
ATOM     48  N   UNL A   1      42.632  28.356  29.568  1.00  0.00    -0.354 N 
ATOM     49  C   UNL A   1      38.286  31.804  29.565  1.00  0.00     0.074 A 
ATOM     50  C   UNL A   1      37.371  30.977  28.821  1.00  0.00     0.031 C 
ATOM     51  C   UNL A   1      42.940  30.026  31.068  1.00  0.00     0.029 A 
ATOM     52  C   UNL A   1      43.596  29.301  29.995  1.00  0.00     0.049 A 
ATOM     53  H   UNL A   1      42.798  27.454  29.210  1.00  0.00     0.167 HD
ATOM     54  C   UNL A   1      38.197  32.877  30.403  1.00  0.00     0.037 A 
ATOM     55  C   UNL A   1      44.505  29.845  29.136  1.00  0.00     0.037 A 
ATOM     56  C   UNL A   1      39.532  33.344  30.789  1.00  0.00     0.049 A 
ATOM     57  C   UNL A   1      44.473  31.351  29.063  1.00  0.00     0.074 A 
ATOM     58  C   UNL A   1      40.266  33.279  31.962  1.00  0.00     0.029 A 
ATOM     59  N   UNL A   1      40.410  33.778  29.799  1.00  0.00    -0.354 N 
ATOM     60  N   UNL A   1      43.458  32.075  29.447  1.00  0.00    -0.248 NA
ATOM     61  C   UNL A   1      45.559  32.160  28.518  1.00  0.00     0.031 C 
ATOM     62  C   UNL A   1      41.610  33.624  31.656  1.00  0.00     0.029 A 
ATOM     63  C   UNL A   1      41.684  33.927  30.306  1.00  0.00     0.049 A 
ATOM     64  H   UNL A   1      40.156  33.956  28.864  1.00  0.00     0.167 HD
ATOM     65  C   UNL A   1      43.714  33.398  29.193  1.00  0.00     0.074 A 
ATOM     66  C   UNL A   1      45.052  33.401  28.634  1.00  0.00     0.031 C 
ATOM     67  C   UNL A   1      42.782  34.363  29.452  1.00  0.00     0.037 A 
BRANCH  54  68
ATOM     68  C   UNL A   1      36.925  33.385  31.074  1.00  0.00     0.064 A 
ATOM     69  C   UNL A   1      36.704  33.134  32.451  1.00  0.00     0.173 A 
ATOM     70  C   UNL A   1      35.833  33.997  30.424  1.00  0.00     0.173 A 
ATOM     71  F   UNL A   1      37.653  32.590  33.224  1.00  0.00    -0.203 F 
ATOM     72  C   UNL A   1      35.487  33.413  33.090  1.00  0.00     0.198 A 
ATOM     73  C   UNL A   1      34.631  34.308  31.071  1.00  0.00     0.198 A 
ATOM     74  F   UNL A   1      35.844  34.301  29.126  1.00  0.00    -0.203 F 
ATOM     75  F   UNL A   1      35.324  33.091  34.381  1.00  0.00    -0.200 F 
ATOM     76  C   UNL A   1      34.449  33.997  32.399  1.00  0.00     0.200 A 
ATOM     77  F   UNL A   1      33.640  34.887  30.377  1.00  0.00    -0.200 F 
ATOM     78  F   UNL A   1      33.281  34.255  33.001  1.00  0.00    -0.200 F 
ENDBRANCH  54  68
BRANCH  55  79
ATOM     79  C   UNL A   1      44.857  28.945  28.008  1.00  0.00     0.064 A 
ATOM     80  C   UNL A   1      45.741  27.878  28.257  1.00  0.00     0.173 A 
ATOM     81  C   UNL A   1      44.069  28.880  26.853  1.00  0.00     0.173 A 
ATOM     82  F   UNL A   1      46.515  27.892  29.354  1.00  0.00    -0.203 F 
ATOM     83  C   UNL A   1      45.748  26.742  27.451  1.00  0.00     0.198 A 
ATOM     84  C   UNL A   1      44.089  27.745  26.040  1.00  0.00     0.198 A 
ATOM     85  F   UNL A   1      43.195  29.857  26.573  1.00  0.00    -0.203 F 
ATOM     86  F   UNL A   1      46.519  25.694  27.779  1.00  0.00    -0.200 F 
ATOM     87  C   UNL A   1      44.900  26.665  26.360  1.00  0.00     0.200 A 
ATOM     88  F   UNL A   1      43.246  27.654  25.001  1.00  0.00    -0.200 F 
ATOM     89  F   UNL A   1      44.832  25.535  25.640  1.00  0.00    -0.200 F 
ENDBRANCH  55  79
BRANCH  67  90
ATOM     90  C   UNL A   1      42.829  35.812  29.010  1.00  0.00     0.064 A 
ATOM     91  C   UNL A   1      42.143  36.328  27.898  1.00  0.00     0.173 A 
ATOM     92  C   UNL A   1      43.481  36.781  29.816  1.00  0.00     0.173 A 
ATOM     93  F   UNL A   1      41.383  35.548  27.121  1.00  0.00    -0.203 F 
ATOM     94  C   UNL A   1      42.162  37.691  27.580  1.00  0.00     0.198 A 
ATOM     95  C   UNL A   1      43.447  38.146  29.529  1.00  0.00     0.198 A 
ATOM     96  F   UNL A   1      44.149  36.437  30.926  1.00  0.00    -0.203 F 
ATOM     97  F   UNL A   1      41.524  38.123  26.483  1.00  0.00    -0.200 F 
ATOM     98  C   UNL A   1      42.801  38.601  28.401  1.00  0.00     0.200 A 
ATOM     99  F   UNL A   1      44.026  39.017  30.368  1.00  0.00    -0.200 F 
ATOM    100  F   UNL A   1      42.774  39.909  28.118  1.00  0.00    -0.200 F 
ENDBRANCH  67  90
ENDBRANCH  41  42
ENDBRANCH  33  36
ENDBRANCH  31  32
ENDBRANCH  30  31
ENDBRANCH  29  30
ENDBRANCH  28  29
ENDBRANCH   1  28
TORSDOF 19
ENDMDL
MODEL 2
REMARK VINA RESULT:     -11.9      1.424      3.634
REMARK SMILES COc1cc(CC(=O)N[C@@H](CC(=O)NCCCCCCNC(=O)c2ccc(-c3c4nc(c(-c5c(F)c(F)c(F)c(F)c5F)c5ccc([nH]5)c(-c5c(F)c(F)c(F)c(F)c5F)c5nc(c(-c6c(F)c(F)c(F)c(F)c6F)c6ccc3[nH]6)C=C5)C=C4)cc2)c2cccs2)ccc1C
REMARK SMILES IDX 16 1 15 2 14 3 12 4 13 5 11 7 10 8 9 9 7 10 8 11 6 13 5 14
REMARK SMILES IDX 3 15 4 16 94 17 93 18 95 19 92 20 2 21 1 22 87 23 88 24
REMARK SMILES IDX 91 25 89 26 90 27 17 28 18 29 19 30 20 31 21 32 22 33 23 35
REMARK SMILES IDX 24 36 25 37 86 38 26 39 85 40 27 41 28 42 29 43 79 44 30 45
REMARK SMILES IDX 84 46 78 47 80 48 31 49 83 50 77 51 76 52 32 54 64 55 44 56
REMARK SMILES IDX 63 57 45 58 48 59 62 60 81 61 46 62 47 63 61 65 82 66 49 67
REMARK SMILES IDX 33 68 34 69 42 70 35 71 36 72 40 73 43 74 37 75 38 76 41 77
REMARK SMILES IDX 39 78 65 79 66 80 74 81 67 82 68 83 72 84 75 85 69 86 70 87
REMARK SMILES IDX 73 88 71 89 50 90 51 91 59 92 52 93 53 94 57 95 60 96 54 97
REMARK SMILES IDX 55 98 58 99 56 100
REMARK H PARENT 14 6 9 12 21 34 80 53 48 64
REMARK Flexibility Score: inf
ROOT
ATOM      1  C   UNL A   1      34.857  23.689  26.246  1.00  0.00     0.021 C 
ENDROOT
BRANCH   1   2
ATOM      2  C   UNL A   1      33.486  23.074  26.538  1.00  0.00     0.116 C 
BRANCH   2   3
ATOM      3  N   UNL A   1      32.453  24.085  26.612  1.00  0.00    -0.356 N 
ATOM      4  C   UNL A   1      31.313  24.238  25.887  1.00  0.00     0.222 C 
ATOM      5  O   UNL A   1      30.503  25.075  26.294  1.00  0.00    -0.275 OA
ATOM      6  H   UNL A   1      32.601  24.775  27.298  1.00  0.00     0.163 HD
BRANCH   4   7
ATOM      7  C   UNL A   1      31.003  23.375  24.676  1.00  0.00     0.130 C 
BRANCH   7   8
ATOM      8  C   UNL A   1      32.177  22.878  23.813  1.00  0.00     0.131 C 
BRANCH   8   9
ATOM      9  N   UNL A   1      32.256  23.608  22.550  1.00  0.00    -0.348 N 
ATOM     10  C   UNL A   1      32.774  24.831  22.252  1.00  0.00     0.224 C 
ATOM     11  O   UNL A   1      32.492  25.319  21.154  1.00  0.00    -0.275 OA
ATOM     12  H   UNL A   1      31.867  23.133  21.780  1.00  0.00     0.164 HD
BRANCH  10  13
ATOM     13  C   UNL A   1      33.742  25.528  23.188  1.00  0.00     0.135 C 
BRANCH  13  14
ATOM     14  C   UNL A   1      33.209  26.740  23.908  1.00  0.00    -0.035 A 
ATOM     15  C   UNL A   1      31.417  28.370  24.208  1.00  0.00     0.122 A 
ATOM     16  C   UNL A   1      31.927  27.221  23.597  1.00  0.00     0.051 A 
ATOM     17  C   UNL A   1      32.199  29.059  25.147  1.00  0.00    -0.009 A 
ATOM     18  C   UNL A   1      33.456  28.543  25.502  1.00  0.00     0.007 A 
ATOM     19  C   UNL A   1      31.713  30.308  25.830  1.00  0.00     0.048 C 
ATOM     20  C   UNL A   1      33.958  27.391  24.892  1.00  0.00     0.005 A 
BRANCH  15  21
ATOM     21  O   UNL A   1      30.194  28.909  23.905  1.00  0.00    -0.496 OA
ATOM     22  C   UNL A   1      29.658  28.579  22.628  1.00  0.00     0.278 C 
ENDBRANCH  15  21
ENDBRANCH  13  14
ENDBRANCH  10  13
ENDBRANCH   8   9
BRANCH   8  23
ATOM     23  C   UNL A   1      32.237  21.395  23.489  1.00  0.00     0.027 A 
ATOM     24  C   UNL A   1      31.988  20.786  22.266  1.00  0.00     0.017 A 
ATOM     25  S   UNL A   1      32.796  20.229  24.622  1.00  0.00    -0.147 S 
ATOM     26  C   UNL A   1      32.133  19.371  22.305  1.00  0.00     0.012 A 
ATOM     27  C   UNL A   1      32.525  18.932  23.546  1.00  0.00     0.065 A 
ENDBRANCH   8  23
ENDBRANCH   7   8
ENDBRANCH   4   7
ENDBRANCH   2   3
ENDBRANCH   1   2
BRANCH   1  28
ATOM     28  C   UNL A   1      35.625  23.070  25.071  1.00  0.00     0.002 C 
BRANCH  28  29
ATOM     29  C   UNL A   1      36.186  21.657  25.281  1.00  0.00     0.002 C 
BRANCH  29  30
ATOM     30  C   UNL A   1      37.706  21.547  25.393  1.00  0.00     0.021 C 
BRANCH  30  31
ATOM     31  C   UNL A   1      38.418  22.865  25.671  1.00  0.00     0.116 C 
BRANCH  31  32
ATOM     32  N   UNL A   1      39.813  22.705  26.065  1.00  0.00    -0.352 N 
ATOM     33  C   UNL A   1      40.682  23.636  26.610  1.00  0.00     0.251 C 
ATOM     34  H   UNL A   1      40.192  21.808  25.923  1.00  0.00     0.163 HD
ATOM     35  O   UNL A   1      41.833  23.332  26.875  1.00  0.00    -0.269 OA
BRANCH  33  36
ATOM     36  C   UNL A   1      40.160  24.971  26.987  1.00  0.00     0.039 A 
ATOM     37  C   UNL A   1      40.592  26.080  26.250  1.00  0.00     0.014 A 
ATOM     38  C   UNL A   1      39.422  25.146  28.154  1.00  0.00     0.014 A 
ATOM     39  C   UNL A   1      40.498  27.350  26.810  1.00  0.00     0.010 A 
ATOM     40  C   UNL A   1      39.415  26.389  28.756  1.00  0.00     0.010 A 
ATOM     41  C   UNL A   1      40.018  27.476  28.114  1.00  0.00    -0.014 A 
BRANCH  41  42
ATOM     42  C   UNL A   1      40.229  28.662  28.934  1.00  0.00     0.031 A 
ATOM     43  C   UNL A   1      39.209  29.729  28.997  1.00  0.00     0.074 A 
ATOM     44  C   UNL A   1      41.322  28.725  29.727  1.00  0.00     0.049 A 
ATOM     45  N   UNL A   1      39.436  30.914  29.459  1.00  0.00    -0.248 NA
ATOM     46  C   UNL A   1      37.862  29.579  28.457  1.00  0.00     0.031 C 
ATOM     47  C   UNL A   1      41.545  29.621  30.858  1.00  0.00     0.029 A 
ATOM     48  N   UNL A   1      42.568  28.103  29.524  1.00  0.00    -0.354 N 
ATOM     49  C   UNL A   1      38.227  31.559  29.571  1.00  0.00     0.074 A 
ATOM     50  C   UNL A   1      37.318  30.754  28.796  1.00  0.00     0.031 C 
ATOM     51  C   UNL A   1      42.864  29.732  31.071  1.00  0.00     0.029 A 
ATOM     52  C   UNL A   1      43.529  29.035  29.985  1.00  0.00     0.049 A 
ATOM     53  H   UNL A   1      42.735  27.211  29.143  1.00  0.00     0.167 HD
ATOM     54  C   UNL A   1      38.132  32.609  30.436  1.00  0.00     0.037 A 
ATOM     55  C   UNL A   1      44.447  29.599  29.149  1.00  0.00     0.037 A 
ATOM     56  C   UNL A   1      39.465  33.063  30.848  1.00  0.00     0.049 A 
ATOM     57  C   UNL A   1      44.418  31.107  29.117  1.00  0.00     0.074 A 
ATOM     58  C   UNL A   1      40.187  32.965  32.025  1.00  0.00     0.029 A 
ATOM     59  N   UNL A   1      40.353  33.522  29.878  1.00  0.00    -0.354 N 
ATOM     60  N   UNL A   1      43.401  31.822  29.510  1.00  0.00    -0.248 NA
ATOM     61  C   UNL A   1      45.511  31.928  28.604  1.00  0.00     0.031 C 
ATOM     62  C   UNL A   1      41.535  33.315  31.741  1.00  0.00     0.029 A 
ATOM     63  C   UNL A   1      41.622  33.654  30.401  1.00  0.00     0.049 A 
ATOM     64  H   UNL A   1      40.108  33.725  28.946  1.00  0.00     0.167 HD
ATOM     65  C   UNL A   1      43.662  33.151  29.294  1.00  0.00     0.074 A 
ATOM     66  C   UNL A   1      45.006  33.166  28.749  1.00  0.00     0.031 C 
ATOM     67  C   UNL A   1      42.729  34.111  29.570  1.00  0.00     0.037 A 
BRANCH  54  68
ATOM     68  C   UNL A   1      36.855  33.102  31.108  1.00  0.00     0.064 A 
ATOM     69  C   UNL A   1      35.924  33.879  30.375  1.00  0.00     0.173 A 
ATOM     70  C   UNL A   1      36.536  32.972  32.477  1.00  0.00     0.173 A 
ATOM     71  F   UNL A   1      36.059  34.071  29.056  1.00  0.00    -0.203 F 
ATOM     72  C   UNL A   1      34.824  34.510  30.971  1.00  0.00     0.198 A 
ATOM     73  C   UNL A   1      35.417  33.575  33.064  1.00  0.00     0.198 A 
ATOM     74  F   UNL A   1      37.296  32.290  33.333  1.00  0.00    -0.203 F 
ATOM     75  F   UNL A   1      34.018  35.284  30.229  1.00  0.00    -0.200 F 
ATOM     76  C   UNL A   1      34.572  34.361  32.316  1.00  0.00     0.200 A 
ATOM     77  F   UNL A   1      35.188  33.403  34.375  1.00  0.00    -0.200 F 
ATOM     78  F   UNL A   1      33.528  34.972  32.893  1.00  0.00    -0.200 F 
ENDBRANCH  54  68
BRANCH  55  79
ATOM     79  C   UNL A   1      44.808  28.730  28.002  1.00  0.00     0.064 A 
ATOM     80  C   UNL A   1      45.649  27.625  28.240  1.00  0.00     0.173 A 
ATOM     81  C   UNL A   1      44.059  28.731  26.820  1.00  0.00     0.173 A 
ATOM     82  F   UNL A   1      46.386  27.575  29.361  1.00  0.00    -0.203 F 
ATOM     83  C   UNL A   1      45.648  26.519  27.393  1.00  0.00     0.198 A 
ATOM     84  C   UNL A   1      44.070  27.626  25.967  1.00  0.00     0.198 A 
ATOM     85  F   UNL A   1      43.225  29.746  26.548  1.00  0.00    -0.203 F 
ATOM     86  F   UNL A   1      46.373  25.436  27.708  1.00  0.00    -0.200 F 
ATOM     87  C   UNL A   1      44.835  26.509  26.273  1.00  0.00     0.200 A 
ATOM     88  F   UNL A   1      43.261  27.600  24.898  1.00  0.00    -0.200 F 
ATOM     89  F   UNL A   1      44.756  25.409  25.511  1.00  0.00    -0.200 F 
ENDBRANCH  55  79
BRANCH  67  90
ATOM     90  C   UNL A   1      42.783  35.571  29.167  1.00  0.00     0.064 A 
ATOM     91  C   UNL A   1      42.066  36.129  28.095  1.00  0.00     0.173 A 
ATOM     92  C   UNL A   1      43.479  36.507  29.976  1.00  0.00     0.173 A 
ATOM     93  F   UNL A   1      41.266  35.383  27.325  1.00  0.00    -0.203 F 
ATOM     94  C   UNL A   1      42.095  37.500  27.815  1.00  0.00     0.198 A 
ATOM     95  C   UNL A   1      43.456  37.880  29.729  1.00  0.00     0.198 A 
ATOM     96  F   UNL A   1      44.181  36.121  31.051  1.00  0.00    -0.203 F 
ATOM     97  F   UNL A   1      41.424  37.973  26.755  1.00  0.00    -0.200 F 
ATOM     98  C   UNL A   1      42.777  38.376  28.638  1.00  0.00     0.200 A 
ATOM     99  F   UNL A   1      44.078  38.718  30.570  1.00  0.00    -0.200 F 
ATOM    100  F   UNL A   1      42.760  39.692  28.393  1.00  0.00    -0.200 F 
ENDBRANCH  67  90
ENDBRANCH  41  42
ENDBRANCH  33  36
ENDBRANCH  31  32
ENDBRANCH  30  31
ENDBRANCH  29  30
ENDBRANCH  28  29
ENDBRANCH   1  28
TORSDOF 19
ENDMDL
MODEL 3
REMARK VINA RESULT:     -11.6      3.442      9.155
REMARK SMILES COc1cc(CC(=O)N[C@@H](CC(=O)NCCCCCCNC(=O)c2ccc(-c3c4nc(c(-c5c(F)c(F)c(F)c(F)c5F)c5ccc([nH]5)c(-c5c(F)c(F)c(F)c(F)c5F)c5nc(c(-c6c(F)c(F)c(F)c(F)c6F)c6ccc3[nH]6)C=C5)C=C4)cc2)c2cccs2)ccc1C
REMARK SMILES IDX 16 1 15 2 14 3 12 4 13 5 11 7 10 8 9 9 7 10 8 11 6 13 5 14
REMARK SMILES IDX 3 15 4 16 94 17 93 18 95 19 92 20 2 21 1 22 87 23 88 24
REMARK SMILES IDX 91 25 89 26 90 27 17 28 18 29 19 30 20 31 21 32 22 33 23 35
REMARK SMILES IDX 24 36 25 37 86 38 26 39 85 40 27 41 28 42 29 43 79 44 30 45
REMARK SMILES IDX 84 46 78 47 80 48 31 49 83 50 77 51 76 52 32 54 64 55 44 56
REMARK SMILES IDX 63 57 45 58 48 59 62 60 81 61 46 62 47 63 61 65 82 66 49 67
REMARK SMILES IDX 33 68 34 69 42 70 35 71 36 72 40 73 43 74 37 75 38 76 41 77
REMARK SMILES IDX 39 78 65 79 66 80 74 81 67 82 68 83 72 84 75 85 69 86 70 87
REMARK SMILES IDX 73 88 71 89 50 90 51 91 59 92 52 93 53 94 57 95 60 96 54 97
REMARK SMILES IDX 55 98 58 99 56 100
REMARK H PARENT 14 6 9 12 21 34 80 53 48 64
REMARK Flexibility Score: inf
ROOT
ATOM      1  C   UNL A   1      32.402  30.080  25.489  1.00  0.00     0.021 C 
ENDROOT
BRANCH   1   2
ATOM      2  C   UNL A   1      31.018  29.536  25.126  1.00  0.00     0.116 C 
BRANCH   2   3
ATOM      3  N   UNL A   1      30.695  29.784  23.739  1.00  0.00    -0.356 N 
ATOM      4  C   UNL A   1      30.161  28.964  22.795  1.00  0.00     0.222 C 
ATOM      5  O   UNL A   1      29.796  29.490  21.740  1.00  0.00    -0.275 OA
ATOM      6  H   UNL A   1      30.894  30.696  23.426  1.00  0.00     0.163 HD
BRANCH   4   7
ATOM      7  C   UNL A   1      29.948  27.480  23.041  1.00  0.00     0.130 C 
BRANCH   7   8
ATOM      8  C   UNL A   1      31.186  26.591  23.267  1.00  0.00     0.131 C 
BRANCH   8   9
ATOM      9  N   UNL A   1      31.666  26.018  22.011  1.00  0.00    -0.348 N 
ATOM     10  C   UNL A   1      32.928  25.779  21.559  1.00  0.00     0.224 C 
ATOM     11  O   UNL A   1      33.064  25.514  20.361  1.00  0.00    -0.275 OA
ATOM     12  H   UNL A   1      30.953  25.761  21.382  1.00  0.00     0.164 HD
BRANCH  10  13
ATOM     13  C   UNL A   1      34.111  25.737  22.506  1.00  0.00     0.135 C 
BRANCH  13  14
ATOM     14  C   UNL A   1      34.309  24.446  23.260  1.00  0.00    -0.035 A 
ATOM     15  C   UNL A   1      35.332  23.255  25.128  1.00  0.00     0.122 A 
ATOM     16  C   UNL A   1      35.086  24.440  24.428  1.00  0.00     0.051 A 
ATOM     17  C   UNL A   1      34.796  22.049  24.654  1.00  0.00    -0.009 A 
ATOM     18  C   UNL A   1      33.968  22.066  23.520  1.00  0.00     0.007 A 
ATOM     19  C   UNL A   1      35.034  20.739  25.354  1.00  0.00     0.048 C 
ATOM     20  C   UNL A   1      33.722  23.254  22.829  1.00  0.00     0.005 A 
BRANCH  15  21
ATOM     21  O   UNL A   1      36.124  23.186  26.244  1.00  0.00    -0.496 OA
ATOM     22  C   UNL A   1      37.419  23.769  26.138  1.00  0.00     0.278 C 
ENDBRANCH  15  21
ENDBRANCH  13  14
ENDBRANCH  10  13
ENDBRANCH   8   9
BRANCH   8  23
ATOM     23  C   UNL A   1      31.069  25.459  24.272  1.00  0.00     0.027 A 
ATOM     24  C   UNL A   1      30.636  24.161  24.037  1.00  0.00     0.017 A 
ATOM     25  S   UNL A   1      31.629  25.606  25.891  1.00  0.00    -0.147 S 
ATOM     26  C   UNL A   1      30.647  23.346  25.203  1.00  0.00     0.012 A 
ATOM     27  C   UNL A   1      31.123  24.027  26.297  1.00  0.00     0.065 A 
ENDBRANCH   8  23
ENDBRANCH   7   8
ENDBRANCH   4   7
ENDBRANCH   2   3
ENDBRANCH   1   2
BRANCH   1  28
ATOM     28  C   UNL A   1      33.508  29.028  25.648  1.00  0.00     0.002 C 
BRANCH  28  29
ATOM     29  C   UNL A   1      33.806  28.551  27.076  1.00  0.00     0.002 C 
BRANCH  29  30
ATOM     30  C   UNL A   1      34.910  29.304  27.818  1.00  0.00     0.021 C 
BRANCH  30  31
ATOM     31  C   UNL A   1      35.168  30.716  27.308  1.00  0.00     0.116 C 
BRANCH  31  32
ATOM     32  N   UNL A   1      34.300  31.724  27.906  1.00  0.00    -0.352 N 
ATOM     33  C   UNL A   1      34.536  32.554  28.989  1.00  0.00     0.251 C 
ATOM     34  H   UNL A   1      33.418  31.827  27.481  1.00  0.00     0.163 HD
ATOM     35  O   UNL A   1      33.686  33.342  29.367  1.00  0.00    -0.269 OA
BRANCH  33  36
ATOM     36  C   UNL A   1      35.885  32.566  29.603  1.00  0.00     0.039 A 
ATOM     37  C   UNL A   1      36.926  33.182  28.897  1.00  0.00     0.014 A 
ATOM     38  C   UNL A   1      36.157  31.822  30.747  1.00  0.00     0.014 A 
ATOM     39  C   UNL A   1      38.244  32.848  29.194  1.00  0.00     0.010 A 
ATOM     40  C   UNL A   1      37.454  31.412  30.982  1.00  0.00     0.010 A 
ATOM     41  C   UNL A   1      38.488  31.870  30.158  1.00  0.00    -0.014 A 
BRANCH  41  42
ATOM     42  C   UNL A   1      39.759  31.168  30.282  1.00  0.00     0.031 A 
ATOM     43  C   UNL A   1      39.968  29.859  29.629  1.00  0.00     0.074 A 
ATOM     44  C   UNL A   1      40.787  31.781  30.912  1.00  0.00     0.049 A 
ATOM     45  N   UNL A   1      40.938  29.058  29.920  1.00  0.00    -0.248 NA
ATOM     46  C   UNL A   1      39.044  29.300  28.649  1.00  0.00     0.031 C 
ATOM     47  C   UNL A   1      42.203  31.429  30.844  1.00  0.00     0.029 A 
ATOM     48  N   UNL A   1      40.717  32.749  31.931  1.00  0.00    -0.354 N 
ATOM     49  C   UNL A   1      40.952  28.057  28.978  1.00  0.00     0.074 A 
ATOM     50  C   UNL A   1      39.676  28.167  28.320  1.00  0.00     0.031 C 
ATOM     51  C   UNL A   1      42.823  31.914  31.929  1.00  0.00     0.029 A 
ATOM     52  C   UNL A   1      41.795  32.454  32.800  1.00  0.00     0.049 A 
ATOM     53  H   UNL A   1      40.059  33.476  32.020  1.00  0.00     0.167 HD
ATOM     54  C   UNL A   1      42.113  27.367  28.785  1.00  0.00     0.037 A 
ATOM     55  C   UNL A   1      41.596  32.072  34.094  1.00  0.00     0.037 A 
ATOM     56  C   UNL A   1      43.054  27.619  29.881  1.00  0.00     0.049 A 
ATOM     57  C   UNL A   1      42.207  30.740  34.452  1.00  0.00     0.074 A 
ATOM     58  C   UNL A   1      44.230  28.341  29.984  1.00  0.00     0.029 A 
ATOM     59  N   UNL A   1      42.686  27.276  31.180  1.00  0.00    -0.354 N 
ATOM     60  N   UNL A   1      42.548  29.838  33.574  1.00  0.00    -0.248 NA
ATOM     61  C   UNL A   1      42.446  30.301  35.824  1.00  0.00     0.031 C 
ATOM     62  C   UNL A   1      44.538  28.479  31.365  1.00  0.00     0.029 A 
ATOM     63  C   UNL A   1      43.566  27.816  32.095  1.00  0.00     0.049 A 
ATOM     64  H   UNL A   1      41.906  26.723  31.414  1.00  0.00     0.167 HD
ATOM     65  C   UNL A   1      43.011  28.720  34.219  1.00  0.00     0.074 A 
ATOM     66  C   UNL A   1      42.951  29.070  35.626  1.00  0.00     0.031 C 
ATOM     67  C   UNL A   1      43.381  27.603  33.525  1.00  0.00     0.037 A 
BRANCH  54  68
ATOM     68  C   UNL A   1      42.518  26.640  27.507  1.00  0.00     0.064 A 
ATOM     69  C   UNL A   1      41.987  25.358  27.223  1.00  0.00     0.173 A 
ATOM     70  C   UNL A   1      43.505  27.063  26.591  1.00  0.00     0.173 A 
ATOM     71  F   UNL A   1      41.016  24.821  27.974  1.00  0.00    -0.203 F 
ATOM     72  C   UNL A   1      42.446  24.560  26.166  1.00  0.00     0.198 A 
ATOM     73  C   UNL A   1      43.938  26.281  25.514  1.00  0.00     0.198 A 
ATOM     74  F   UNL A   1      44.132  28.235  26.696  1.00  0.00    -0.203 F 
ATOM     75  F   UNL A   1      41.944  23.330  25.993  1.00  0.00    -0.200 F 
ATOM     76  C   UNL A   1      43.424  25.021  25.313  1.00  0.00     0.200 A 
ATOM     77  F   UNL A   1      44.884  26.758  24.691  1.00  0.00    -0.200 F 
ATOM     78  F   UNL A   1      43.875  24.258  24.308  1.00  0.00    -0.200 F 
ENDBRANCH  54  68
BRANCH  55  79
ATOM     79  C   UNL A   1      40.351  32.625  34.684  1.00  0.00     0.064 A 
ATOM     80  C   UNL A   1      40.362  33.958  35.136  1.00  0.00     0.173 A 
ATOM     81  C   UNL A   1      39.107  32.026  34.456  1.00  0.00     0.173 A 
ATOM     82  F   UNL A   1      41.530  34.578  35.366  1.00  0.00    -0.203 F 
ATOM     83  C   UNL A   1      39.185  34.697  35.238  1.00  0.00     0.198 A 
ATOM     84  C   UNL A   1      37.929  32.767  34.571  1.00  0.00     0.198 A 
ATOM     85  F   UNL A   1      39.034  30.766  34.005  1.00  0.00    -0.203 F 
ATOM     86  F   UNL A   1      39.238  35.997  35.560  1.00  0.00    -0.200 F 
ATOM     87  C   UNL A   1      37.972  34.108  34.926  1.00  0.00     0.200 A 
ATOM     88  F   UNL A   1      36.755  32.208  34.240  1.00  0.00    -0.200 F 
ATOM     89  F   UNL A   1      36.849  34.841  34.926  1.00  0.00    -0.200 F 
ENDBRANCH  55  79
BRANCH  67  90
ATOM     90  C   UNL A   1      43.680  26.234  34.102  1.00  0.00     0.064 A 
ATOM     91  C   UNL A   1      44.955  25.645  34.136  1.00  0.00     0.173 A 
ATOM     92  C   UNL A   1      42.668  25.515  34.791  1.00  0.00     0.173 A 
ATOM     93  F   UNL A   1      46.028  26.269  33.636  1.00  0.00    -0.203 F 
ATOM     94  C   UNL A   1      45.187  24.409  34.751  1.00  0.00     0.198 A 
ATOM     95  C   UNL A   1      42.917  24.313  35.454  1.00  0.00     0.198 A 
ATOM     96  F   UNL A   1      41.411  25.973  34.868  1.00  0.00    -0.203 F 
ATOM     97  F   UNL A   1      46.416  23.873  34.718  1.00  0.00    -0.200 F 
ATOM     98  C   UNL A   1      44.173  23.750  35.420  1.00  0.00     0.200 A 
ATOM     99  F   UNL A   1      41.933  23.718  36.144  1.00  0.00    -0.200 F 
ATOM    100  F   UNL A   1      44.412  22.592  36.049  1.00  0.00    -0.200 F 
ENDBRANCH  67  90
ENDBRANCH  41  42
ENDBRANCH  33  36
ENDBRANCH  31  32
ENDBRANCH  30  31
ENDBRANCH  29  30
ENDBRANCH  28  29
ENDBRANCH   1  28
TORSDOF 19
ENDMDL
