MODEL 1
REMARK VINA RESULT:     -14.0      0.000      0.000
REMARK SMILES Cc1cccc(CC(=O)N2CCC3(CCC(=O)N([C@H](C)C(=O)NCCCCCCNC(=O)c4ccc(-c5c6nc(c(-c7c(F)c(F)c(F)c(F)c7F)c7ccc([nH]7)c(-c7c(F)c(F)c(F)c(F)c7F)c7nc(c(-c8c(F)c(F)c(F)c(F)c8F)c8ccc5[nH]8)C=C7)C=C6)cc4)C3)CC2)c1
REMARK SMILES IDX 26 1 25 2 24 3 23 4 21 5 22 6 19 8 20 9 18 10 8 11 9 12
REMARK SMILES IDX 10 13 11 14 98 15 12 16 97 17 13 18 14 19 96 20 15 21 16 22
REMARK SMILES IDX 17 23 7 24 6 25 1 26 2 27 3 28 99 29 4 30 5 31 27 32 28 33
REMARK SMILES IDX 29 34 30 35 31 36 32 38 33 39 34 40 95 41 35 42 94 43 36 44
REMARK SMILES IDX 37 45 38 46 88 47 39 48 93 49 87 50 89 51 40 52 92 53 86 54
REMARK SMILES IDX 85 55 41 57 73 58 53 59 72 60 54 61 57 62 71 63 90 64 55 65
REMARK SMILES IDX 56 66 70 68 91 69 58 70 42 71 43 72 51 73 44 74 45 75 49 76
REMARK SMILES IDX 52 77 46 78 47 79 50 80 48 81 74 82 75 83 83 84 76 85 77 86
REMARK SMILES IDX 81 87 84 88 78 89 79 90 82 91 80 92 59 93 60 94 68 95 61 96
REMARK SMILES IDX 62 97 66 98 69 99 63 100 64 101 67 102 65 103
REMARK H PARENT 23 7 30 37 89 56 57 67
REMARK Flexibility Score: inf
ROOT
ATOM      1  C   UNL A   1      39.364  22.974  27.234  1.00  0.00     0.002 C 
ENDROOT
BRANCH   1   2
ATOM      2  C   UNL A   1      38.689  24.080  26.408  1.00  0.00     0.021 C 
BRANCH   2   3
ATOM      3  C   UNL A   1      37.311  23.751  25.851  1.00  0.00     0.116 C 
BRANCH   3   4
ATOM      4  N   UNL A   1      37.238  23.644  24.410  1.00  0.00    -0.354 N 
ATOM      5  C   UNL A   1      36.688  22.641  23.658  1.00  0.00     0.242 C 
ATOM      6  O   UNL A   1      36.406  22.901  22.483  1.00  0.00    -0.273 OA
ATOM      7  H   UNL A   1      37.634  24.391  23.905  1.00  0.00     0.163 HD
BRANCH   5   8
ATOM      8  C   UNL A   1      36.440  21.213  24.223  1.00  0.00     0.171 C 
ATOM      9  C   UNL A   1      37.602  20.674  25.061  1.00  0.00     0.042 C 
BRANCH   8  10
ATOM     10  N   UNL A   1      35.135  20.893  24.834  1.00  0.00    -0.330 N 
ATOM     11  C   UNL A   1      30.346  25.364  24.715  1.00  0.00     0.226 C 
ATOM     12  O   UNL A   1      30.071  25.868  23.618  1.00  0.00    -0.275 OA
ATOM     13  N   UNL A   1      30.848  24.073  24.788  1.00  0.00    -0.342 N 
ATOM     14  C   UNL A   1      31.437  23.463  23.600  1.00  0.00     0.120 C 
ATOM     15  C   UNL A   1      30.795  23.183  25.937  1.00  0.00     0.120 C 
ATOM     16  C   UNL A   1      32.857  22.961  23.915  1.00  0.00     0.030 C 
ATOM     17  C   UNL A   1      32.206  22.797  26.350  1.00  0.00     0.030 C 
ATOM     18  C   UNL A   1      32.944  22.077  25.193  1.00  0.00    -0.008 C 
ATOM     19  C   UNL A   1      32.290  20.685  24.986  1.00  0.00     0.019 C 
ATOM     20  C   UNL A   1      34.424  21.898  25.609  1.00  0.00     0.127 C 
ATOM     21  C   UNL A   1      33.131  19.753  24.141  1.00  0.00     0.101 C 
ATOM     22  C   UNL A   1      34.530  19.664  24.689  1.00  0.00     0.223 C 
ATOM     23  O   UNL A   1      35.076  18.590  24.902  1.00  0.00    -0.275 OA
BRANCH  11  24
ATOM     24  C   UNL A   1      30.350  26.272  25.946  1.00  0.00     0.135 C 
BRANCH  24  25
ATOM     25  C   UNL A   1      31.594  27.055  26.272  1.00  0.00    -0.038 A 
ATOM     26  C   UNL A   1      32.502  30.657  27.152  1.00  0.00     0.044 C 
ATOM     27  C   UNL A   1      32.624  29.197  26.833  1.00  0.00    -0.051 A 
ATOM     28  C   UNL A   1      33.885  28.617  26.658  1.00  0.00     0.003 A 
ATOM     29  C   UNL A   1      31.484  28.403  26.664  1.00  0.00     0.007 A 
ATOM     30  C   UNL A   1      34.005  27.267  26.321  1.00  0.00     0.001 A 
ATOM     31  C   UNL A   1      32.864  26.485  26.130  1.00  0.00     0.004 A 
ENDBRANCH  24  25
ENDBRANCH  11  24
ENDBRANCH   8  10
ENDBRANCH   5   8
ENDBRANCH   3   4
ENDBRANCH   2   3
ENDBRANCH   1   2
BRANCH   1  32
ATOM     32  C   UNL A   1      40.901  22.890  27.215  1.00  0.00     0.002 C 
BRANCH  32  33
ATOM     33  C   UNL A   1      41.557  22.114  26.071  1.00  0.00     0.021 C 
BRANCH  33  34
ATOM     34  C   UNL A   1      42.582  21.073  26.493  1.00  0.00     0.116 C 
BRANCH  34  35
ATOM     35  N   UNL A   1      43.242  20.394  25.384  1.00  0.00    -0.352 N 
ATOM     36  C   UNL A   1      44.264  20.848  24.566  1.00  0.00     0.251 C 
ATOM     37  H   UNL A   1      42.915  19.486  25.188  1.00  0.00     0.163 HD
ATOM     38  O   UNL A   1      44.690  20.158  23.653  1.00  0.00    -0.269 OA
BRANCH  36  39
ATOM     39  C   UNL A   1      44.938  22.124  24.907  1.00  0.00     0.039 A 
ATOM     40  C   UNL A   1      45.674  22.167  26.097  1.00  0.00     0.014 A 
ATOM     41  C   UNL A   1      44.627  23.297  24.227  1.00  0.00     0.014 A 
ATOM     42  C   UNL A   1      45.838  23.386  26.746  1.00  0.00     0.010 A 
ATOM     43  C   UNL A   1      44.690  24.489  24.918  1.00  0.00     0.010 A 
ATOM     44  C   UNL A   1      45.215  24.513  26.216  1.00  0.00    -0.014 A 
BRANCH  44  45
ATOM     45  C   UNL A   1      44.903  25.697  27.010  1.00  0.00     0.031 A 
ATOM     46  C   UNL A   1      43.579  26.341  26.923  1.00  0.00     0.074 A 
ATOM     47  C   UNL A   1      45.800  26.105  27.938  1.00  0.00     0.049 A 
ATOM     48  N   UNL A   1      43.308  27.519  27.374  1.00  0.00    -0.248 NA
ATOM     49  C   UNL A   1      42.448  25.711  26.257  1.00  0.00     0.031 C 
ATOM     50  C   UNL A   1      45.568  27.005  29.065  1.00  0.00     0.029 A 
ATOM     51  N   UNL A   1      47.195  25.928  27.916  1.00  0.00    -0.354 N 
ATOM     52  C   UNL A   1      41.942  27.690  27.322  1.00  0.00     0.074 A 
ATOM     53  C   UNL A   1      41.467  26.570  26.547  1.00  0.00     0.031 C 
ATOM     54  C   UNL A   1      46.741  27.535  29.444  1.00  0.00     0.029 A 
ATOM     55  C   UNL A   1      47.730  27.115  28.467  1.00  0.00     0.049 A 
ATOM     56  H   UNL A   1      47.693  25.144  27.587  1.00  0.00     0.167 HD
ATOM     57  C   UNL A   1      41.380  28.691  28.064  1.00  0.00     0.037 A 
ATOM     58  C   UNL A   1      48.494  27.967  27.725  1.00  0.00     0.037 A 
ATOM     59  C   UNL A   1      42.412  29.557  28.639  1.00  0.00     0.049 A 
ATOM     60  C   UNL A   1      47.953  29.376  27.650  1.00  0.00     0.074 A 
ATOM     61  C   UNL A   1      42.981  29.646  29.899  1.00  0.00     0.029 A 
ATOM     62  N   UNL A   1      43.225  30.304  27.790  1.00  0.00    -0.354 N 
ATOM     63  N   UNL A   1      46.707  29.689  27.867  1.00  0.00    -0.248 NA
ATOM     64  C   UNL A   1      48.769  30.533  27.295  1.00  0.00     0.031 C 
ATOM     65  C   UNL A   1      44.166  30.417  29.796  1.00  0.00     0.029 A 
ATOM     66  C   UNL A   1      44.309  30.811  28.477  1.00  0.00     0.049 A 
ATOM     67  H   UNL A   1      43.050  30.451  26.833  1.00  0.00     0.167 HD
ATOM     68  C   UNL A   1      46.535  31.038  27.677  1.00  0.00     0.074 A 
ATOM     69  C   UNL A   1      47.860  31.523  27.340  1.00  0.00     0.031 C 
ATOM     70  C   UNL A   1      45.309  31.628  27.803  1.00  0.00     0.037 A 
BRANCH  57  71
ATOM     71  C   UNL A   1      39.927  28.714  28.514  1.00  0.00     0.064 A 
ATOM     72  C   UNL A   1      38.919  29.241  27.674  1.00  0.00     0.173 A 
ATOM     73  C   UNL A   1      39.465  28.317  29.783  1.00  0.00     0.173 A 
ATOM     74  F   UNL A   1      39.162  29.552  26.394  1.00  0.00    -0.203 F 
ATOM     75  C   UNL A   1      37.611  29.475  28.113  1.00  0.00     0.198 A 
ATOM     76  C   UNL A   1      38.172  28.593  30.241  1.00  0.00     0.198 A 
ATOM     77  F   UNL A   1      40.221  27.585  30.606  1.00  0.00    -0.203 F 
ATOM     78  F   UNL A   1      36.709  29.997  27.269  1.00  0.00    -0.200 F 
ATOM     79  C   UNL A   1      37.248  29.188  29.410  1.00  0.00     0.200 A 
ATOM     80  F   UNL A   1      37.832  28.273  31.498  1.00  0.00    -0.200 F 
ATOM     81  F   UNL A   1      36.010  29.451  29.848  1.00  0.00    -0.200 F 
ENDBRANCH  57  71
BRANCH  58  82
ATOM     82  C   UNL A   1      49.250  27.293  26.638  1.00  0.00     0.064 A 
ATOM     83  C   UNL A   1      48.710  27.304  25.336  1.00  0.00     0.173 A 
ATOM     84  C   UNL A   1      50.608  26.984  26.772  1.00  0.00     0.173 A 
ATOM     85  F   UNL A   1      47.413  27.598  25.153  1.00  0.00    -0.203 F 
ATOM     86  C   UNL A   1      49.517  27.128  24.215  1.00  0.00     0.198 A 
ATOM     87  C   UNL A   1      51.412  26.793  25.645  1.00  0.00     0.198 A 
ATOM     88  F   UNL A   1      51.187  26.979  27.981  1.00  0.00    -0.203 F 
ATOM     89  F   UNL A   1      48.993  27.255  22.987  1.00  0.00    -0.200 F 
ATOM     90  C   UNL A   1      50.873  26.899  24.370  1.00  0.00     0.200 A 
ATOM     91  F   UNL A   1      52.732  26.607  25.792  1.00  0.00    -0.200 F 
ATOM     92  F   UNL A   1      51.671  26.825  23.295  1.00  0.00    -0.200 F 
ENDBRANCH  58  82
BRANCH  70  93
ATOM     93  C   UNL A   1      44.937  33.038  27.399  1.00  0.00     0.064 A 
ATOM     94  C   UNL A   1      44.169  33.361  26.267  1.00  0.00     0.173 A 
ATOM     95  C   UNL A   1      45.235  34.129  28.254  1.00  0.00     0.173 A 
ATOM     96  F   UNL A   1      43.710  32.413  25.441  1.00  0.00    -0.203 F 
ATOM     97  C   UNL A   1      43.787  34.676  25.980  1.00  0.00     0.198 A 
ATOM     98  C   UNL A   1      44.801  35.428  27.996  1.00  0.00     0.198 A 
ATOM     99  F   UNL A   1      45.936  33.964  29.386  1.00  0.00    -0.203 F 
ATOM    100  F   UNL A   1      43.090  34.933  24.864  1.00  0.00    -0.200 F 
ATOM    101  C   UNL A   1      44.090  35.706  26.849  1.00  0.00     0.200 A 
ATOM    102  F   UNL A   1      45.056  36.405  28.880  1.00  0.00    -0.200 F 
ATOM    103  F   UNL A   1      43.678  36.955  26.594  1.00  0.00    -0.200 F 
ENDBRANCH  70  93
ENDBRANCH  44  45
ENDBRANCH  36  39
ENDBRANCH  34  35
ENDBRANCH  33  34
ENDBRANCH  32  33
ENDBRANCH   1  32
TORSDOF 16
ENDMDL
MODEL 2
REMARK VINA RESULT:     -14.0      5.255     10.919
REMARK SMILES Cc1cccc(CC(=O)N2CCC3(CCC(=O)N([C@H](C)C(=O)NCCCCCCNC(=O)c4ccc(-c5c6nc(c(-c7c(F)c(F)c(F)c(F)c7F)c7ccc([nH]7)c(-c7c(F)c(F)c(F)c(F)c7F)c7nc(c(-c8c(F)c(F)c(F)c(F)c8F)c8ccc5[nH]8)C=C7)C=C6)cc4)C3)CC2)c1
REMARK SMILES IDX 26 1 25 2 24 3 23 4 21 5 22 6 19 8 20 9 18 10 8 11 9 12
REMARK SMILES IDX 10 13 11 14 98 15 12 16 97 17 13 18 14 19 96 20 15 21 16 22
REMARK SMILES IDX 17 23 7 24 6 25 1 26 2 27 3 28 99 29 4 30 5 31 27 32 28 33
REMARK SMILES IDX 29 34 30 35 31 36 32 38 33 39 34 40 95 41 35 42 94 43 36 44
REMARK SMILES IDX 37 45 38 46 88 47 39 48 93 49 87 50 89 51 40 52 92 53 86 54
REMARK SMILES IDX 85 55 41 57 73 58 53 59 72 60 54 61 57 62 71 63 90 64 55 65
REMARK SMILES IDX 56 66 70 68 91 69 58 70 42 71 43 72 51 73 44 74 45 75 49 76
REMARK SMILES IDX 52 77 46 78 47 79 50 80 48 81 74 82 75 83 83 84 76 85 77 86
REMARK SMILES IDX 81 87 84 88 78 89 79 90 82 91 80 92 59 93 60 94 68 95 61 96
REMARK SMILES IDX 62 97 66 98 69 99 63 100 64 101 67 102 65 103
REMARK H PARENT 23 7 30 37 89 56 57 67
REMARK Flexibility Score: inf
ROOT
ATOM      1  C   UNL A   1      35.307  30.336  27.631  1.00  0.00     0.002 C 
ENDROOT
BRANCH   1   2
ATOM      2  C   UNL A   1      33.977  29.642  27.959  1.00  0.00     0.021 C 
BRANCH   2   3
ATOM      3  C   UNL A   1      32.834  29.893  26.985  1.00  0.00     0.116 C 
BRANCH   3   4
ATOM      4  N   UNL A   1      31.764  28.922  27.026  1.00  0.00    -0.354 N 
ATOM      5  C   UNL A   1      31.734  27.666  26.482  1.00  0.00     0.242 C 
ATOM      6  O   UNL A   1      30.894  26.874  26.926  1.00  0.00    -0.273 OA
ATOM      7  H   UNL A   1      30.952  29.199  27.509  1.00  0.00     0.163 HD
BRANCH   5   8
ATOM      8  C   UNL A   1      32.686  27.231  25.331  1.00  0.00     0.171 C 
ATOM      9  C   UNL A   1      34.091  26.855  25.806  1.00  0.00     0.042 C 
BRANCH   8  10
ATOM     10  N   UNL A   1      32.193  26.299  24.298  1.00  0.00    -0.330 N 
ATOM     11  C   UNL A   1      32.916  19.846  25.178  1.00  0.00     0.226 C 
ATOM     12  O   UNL A   1      32.517  19.374  26.251  1.00  0.00    -0.275 OA
ATOM     13  N   UNL A   1      32.314  20.974  24.640  1.00  0.00    -0.342 N 
ATOM     14  C   UNL A   1      31.511  21.839  25.499  1.00  0.00     0.120 C 
ATOM     15  C   UNL A   1      32.324  21.383  23.244  1.00  0.00     0.120 C 
ATOM     16  C   UNL A   1      32.015  23.289  25.403  1.00  0.00     0.030 C 
ATOM     17  C   UNL A   1      32.957  22.758  23.120  1.00  0.00     0.030 C 
ATOM     18  C   UNL A   1      32.168  23.808  23.943  1.00  0.00    -0.008 C 
ATOM     19  C   UNL A   1      30.794  24.036  23.258  1.00  0.00     0.019 C 
ATOM     20  C   UNL A   1      32.976  25.128  23.936  1.00  0.00     0.127 C 
ATOM     21  C   UNL A   1      30.083  25.277  23.750  1.00  0.00     0.101 C 
ATOM     22  C   UNL A   1      30.989  26.476  23.653  1.00  0.00     0.223 C 
ATOM     23  O   UNL A   1      30.633  27.516  23.116  1.00  0.00    -0.275 OA
BRANCH  11  24
ATOM     24  C   UNL A   1      34.226  19.310  24.596  1.00  0.00     0.135 C 
BRANCH  24  25
ATOM     25  C   UNL A   1      35.510  20.037  24.896  1.00  0.00    -0.038 A 
ATOM     26  C   UNL A   1      36.603  23.607  25.691  1.00  0.00     0.044 C 
ATOM     27  C   UNL A   1      36.650  22.136  25.403  1.00  0.00    -0.051 A 
ATOM     28  C   UNL A   1      37.879  21.490  25.231  1.00  0.00     0.003 A 
ATOM     29  C   UNL A   1      35.471  21.396  25.260  1.00  0.00     0.007 A 
ATOM     30  C   UNL A   1      37.928  20.129  24.923  1.00  0.00     0.001 A 
ATOM     31  C   UNL A   1      36.749  19.401  24.757  1.00  0.00     0.004 A 
ENDBRANCH  24  25
ENDBRANCH  11  24
ENDBRANCH   8  10
ENDBRANCH   5   8
ENDBRANCH   3   4
ENDBRANCH   2   3
ENDBRANCH   1   2
BRANCH   1  32
ATOM     32  C   UNL A   1      35.462  31.822  28.003  1.00  0.00     0.002 C 
BRANCH  32  33
ATOM     33  C   UNL A   1      34.626  32.353  29.169  1.00  0.00     0.021 C 
BRANCH  33  34
ATOM     34  C   UNL A   1      34.728  33.850  29.416  1.00  0.00     0.116 C 
BRANCH  34  35
ATOM     35  N   UNL A   1      33.694  34.388  30.293  1.00  0.00    -0.352 N 
ATOM     36  C   UNL A   1      33.674  34.464  31.676  1.00  0.00     0.251 C 
ATOM     37  H   UNL A   1      32.898  34.747  29.837  1.00  0.00     0.163 HD
ATOM     38  O   UNL A   1      32.707  34.922  32.265  1.00  0.00    -0.269 OA
BRANCH  36  39
ATOM     39  C   UNL A   1      34.905  34.118  32.428  1.00  0.00     0.039 A 
ATOM     40  C   UNL A   1      36.025  34.936  32.242  1.00  0.00     0.014 A 
ATOM     41  C   UNL A   1      35.026  32.888  33.066  1.00  0.00     0.014 A 
ATOM     42  C   UNL A   1      37.294  34.396  32.428  1.00  0.00     0.010 A 
ATOM     43  C   UNL A   1      36.279  32.316  33.146  1.00  0.00     0.010 A 
ATOM     44  C   UNL A   1      37.404  33.044  32.741  1.00  0.00    -0.014 A 
BRANCH  44  45
ATOM     45  C   UNL A   1      38.614  32.267  32.493  1.00  0.00     0.031 A 
ATOM     46  C   UNL A   1      38.563  31.009  31.724  1.00  0.00     0.074 A 
ATOM     47  C   UNL A   1      39.805  32.797  32.854  1.00  0.00     0.049 A 
ATOM     48  N   UNL A   1      39.513  30.138  31.685  1.00  0.00    -0.248 NA
ATOM     49  C   UNL A   1      37.386  30.605  30.967  1.00  0.00     0.031 C 
ATOM     50  C   UNL A   1      41.134  32.395  32.399  1.00  0.00     0.029 A 
ATOM     51  N   UNL A   1      40.056  33.708  33.896  1.00  0.00    -0.354 N 
ATOM     52  C   UNL A   1      39.210  29.222  30.701  1.00  0.00     0.074 A 
ATOM     53  C   UNL A   1      37.842  29.515  30.345  1.00  0.00     0.031 C 
ATOM     54  C   UNL A   1      42.041  32.795  33.303  1.00  0.00     0.029 A 
ATOM     55  C   UNL A   1      41.302  33.319  34.438  1.00  0.00     0.049 A 
ATOM     56  H   UNL A   1      39.485  34.456  34.186  1.00  0.00     0.167 HD
ATOM     57  C   UNL A   1      40.208  28.421  30.222  1.00  0.00     0.037 A 
ATOM     58  C   UNL A   1      41.413  32.851  35.715  1.00  0.00     0.037 A 
ATOM     59  C   UNL A   1      41.422  28.561  31.030  1.00  0.00     0.049 A 
ATOM     60  C   UNL A   1      42.015  31.469  35.816  1.00  0.00     0.074 A 
ATOM     61  C   UNL A   1      42.604  29.262  30.853  1.00  0.00     0.029 A 
ATOM     62  N   UNL A   1      41.402  28.160  32.364  1.00  0.00    -0.354 N 
ATOM     63  N   UNL A   1      42.032  30.609  34.836  1.00  0.00    -0.248 NA
ATOM     64  C   UNL A   1      42.614  30.940  37.037  1.00  0.00     0.031 C 
ATOM     65  C   UNL A   1      43.276  29.318  32.099  1.00  0.00     0.029 A 
ATOM     66  C   UNL A   1      42.512  28.638  33.031  1.00  0.00     0.049 A 
ATOM     67  H   UNL A   1      40.694  27.613  32.774  1.00  0.00     0.167 HD
ATOM     68  C   UNL A   1      42.607  29.439  35.265  1.00  0.00     0.074 A 
ATOM     69  C   UNL A   1      42.972  29.705  36.644  1.00  0.00     0.031 C 
ATOM     70  C   UNL A   1      42.717  28.353  34.444  1.00  0.00     0.037 A 
BRANCH  57  71
ATOM     71  C   UNL A   1      40.187  27.745  28.860  1.00  0.00     0.064 A 
ATOM     72  C   UNL A   1      39.635  26.452  28.704  1.00  0.00     0.173 A 
ATOM     73  C   UNL A   1      40.764  28.266  27.687  1.00  0.00     0.173 A 
ATOM     74  F   UNL A   1      38.941  25.861  29.685  1.00  0.00    -0.203 F 
ATOM     75  C   UNL A   1      39.774  25.705  27.528  1.00  0.00     0.198 A 
ATOM     76  C   UNL A   1      40.948  27.505  26.527  1.00  0.00     0.198 A 
ATOM     77  F   UNL A   1      41.113  29.552  27.589  1.00  0.00    -0.203 F 
ATOM     78  F   UNL A   1      39.243  24.476  27.456  1.00  0.00    -0.200 F 
ATOM     79  C   UNL A   1      40.465  26.216  26.453  1.00  0.00     0.200 A 
ATOM     80  F   UNL A   1      41.595  28.037  25.480  1.00  0.00    -0.200 F 
ATOM     81  F   UNL A   1      40.640  25.488  25.343  1.00  0.00    -0.200 F 
ENDBRANCH  57  71
BRANCH  58  82
ATOM     82  C   UNL A   1      40.383  33.395  36.638  1.00  0.00     0.064 A 
ATOM     83  C   UNL A   1      39.236  32.618  36.897  1.00  0.00     0.173 A 
ATOM     84  C   UNL A   1      40.669  34.441  37.521  1.00  0.00     0.173 A 
ATOM     85  F   UNL A   1      38.919  31.600  36.082  1.00  0.00    -0.203 F 
ATOM     86  C   UNL A   1      38.477  32.808  38.050  1.00  0.00     0.198 A 
ATOM     87  C   UNL A   1      39.897  34.638  38.670  1.00  0.00     0.198 A 
ATOM     88  F   UNL A   1      41.759  35.202  37.343  1.00  0.00    -0.203 F 
ATOM     89  F   UNL A   1      37.458  31.981  38.323  1.00  0.00    -0.200 F 
ATOM     90  C   UNL A   1      38.826  33.801  38.949  1.00  0.00     0.200 A 
ATOM     91  F   UNL A   1      40.254  35.576  39.559  1.00  0.00    -0.200 F 
ATOM     92  F   UNL A   1      38.159  33.926  40.105  1.00  0.00    -0.200 F 
ENDBRANCH  58  82
BRANCH  70  93
ATOM     93  C   UNL A   1      43.108  26.948  34.850  1.00  0.00     0.064 A 
ATOM     94  C   UNL A   1      42.193  25.906  35.077  1.00  0.00     0.173 A 
ATOM     95  C   UNL A   1      44.474  26.566  34.878  1.00  0.00     0.173 A 
ATOM     96  F   UNL A   1      40.873  26.096  34.956  1.00  0.00    -0.203 F 
ATOM     97  C   UNL A   1      42.610  24.604  35.374  1.00  0.00     0.198 A 
ATOM     98  C   UNL A   1      44.883  25.254  35.114  1.00  0.00     0.198 A 
ATOM     99  F   UNL A   1      45.456  27.450  34.648  1.00  0.00    -0.203 F 
ATOM    100  F   UNL A   1      41.694  23.658  35.624  1.00  0.00    -0.200 F 
ATOM    101  C   UNL A   1      43.951  24.275  35.379  1.00  0.00     0.200 A 
ATOM    102  F   UNL A   1      46.187  24.943  35.059  1.00  0.00    -0.200 F 
ATOM    103  F   UNL A   1      44.342  23.015  35.614  1.00  0.00    -0.200 F 
ENDBRANCH  70  93
ENDBRANCH  44  45
ENDBRANCH  36  39
ENDBRANCH  34  35
ENDBRANCH  33  34
ENDBRANCH  32  33
ENDBRANCH   1  32
TORSDOF 16
ENDMDL
MODEL 3
REMARK VINA RESULT:     -13.7      5.377     10.954
REMARK SMILES Cc1cccc(CC(=O)N2CCC3(CCC(=O)N([C@H](C)C(=O)NCCCCCCNC(=O)c4ccc(-c5c6nc(c(-c7c(F)c(F)c(F)c(F)c7F)c7ccc([nH]7)c(-c7c(F)c(F)c(F)c(F)c7F)c7nc(c(-c8c(F)c(F)c(F)c(F)c8F)c8ccc5[nH]8)C=C7)C=C6)cc4)C3)CC2)c1
REMARK SMILES IDX 26 1 25 2 24 3 23 4 21 5 22 6 19 8 20 9 18 10 8 11 9 12
REMARK SMILES IDX 10 13 11 14 98 15 12 16 97 17 13 18 14 19 96 20 15 21 16 22
REMARK SMILES IDX 17 23 7 24 6 25 1 26 2 27 3 28 99 29 4 30 5 31 27 32 28 33
REMARK SMILES IDX 29 34 30 35 31 36 32 38 33 39 34 40 95 41 35 42 94 43 36 44
REMARK SMILES IDX 37 45 38 46 88 47 39 48 93 49 87 50 89 51 40 52 92 53 86 54
REMARK SMILES IDX 85 55 41 57 73 58 53 59 72 60 54 61 57 62 71 63 90 64 55 65
REMARK SMILES IDX 56 66 70 68 91 69 58 70 42 71 43 72 51 73 44 74 45 75 49 76
REMARK SMILES IDX 52 77 46 78 47 79 50 80 48 81 74 82 75 83 83 84 76 85 77 86
REMARK SMILES IDX 81 87 84 88 78 89 79 90 82 91 80 92 59 93 60 94 68 95 61 96
REMARK SMILES IDX 62 97 66 98 69 99 63 100 64 101 67 102 65 103
REMARK H PARENT 23 7 30 37 89 56 57 67
REMARK Flexibility Score: inf
ROOT
ATOM      1  C   UNL A   1      34.871  31.414  27.997  1.00  0.00     0.002 C 
ENDROOT
BRANCH   1   2
ATOM      2  C   UNL A   1      35.277  29.949  27.780  1.00  0.00     0.021 C 
BRANCH   2   3
ATOM      3  C   UNL A   1      34.331  29.113  26.929  1.00  0.00     0.116 C 
BRANCH   3   4
ATOM      4  N   UNL A   1      33.181  28.582  27.627  1.00  0.00    -0.354 N 
ATOM      5  C   UNL A   1      31.864  28.636  27.259  1.00  0.00     0.242 C 
ATOM      6  O   UNL A   1      31.092  27.828  27.789  1.00  0.00    -0.273 OA
ATOM      7  H   UNL A   1      33.370  28.121  28.476  1.00  0.00     0.163 HD
BRANCH   5   8
ATOM      8  C   UNL A   1      31.323  29.677  26.238  1.00  0.00     0.171 C 
ATOM      9  C   UNL A   1      31.876  31.088  26.449  1.00  0.00     0.042 C 
BRANCH   8  10
ATOM     10  N   UNL A   1      31.265  29.323  24.806  1.00  0.00    -0.330 N 
ATOM     11  C   UNL A   1      32.578  23.176  22.955  1.00  0.00     0.226 C 
ATOM     12  O   UNL A   1      31.965  22.269  23.533  1.00  0.00    -0.275 OA
ATOM     13  N   UNL A   1      32.002  24.430  22.807  1.00  0.00    -0.342 N 
ATOM     14  C   UNL A   1      30.884  24.812  23.664  1.00  0.00     0.120 C 
ATOM     15  C   UNL A   1      32.343  25.431  21.809  1.00  0.00     0.120 C 
ATOM     16  C   UNL A   1      31.195  26.143  24.371  1.00  0.00     0.030 C 
ATOM     17  C   UNL A   1      32.795  26.707  22.500  1.00  0.00     0.030 C 
ATOM     18  C   UNL A   1      31.675  27.270  23.411  1.00  0.00    -0.008 C 
ATOM     19  C   UNL A   1      30.527  27.795  22.508  1.00  0.00     0.019 C 
ATOM     20  C   UNL A   1      32.268  28.442  24.229  1.00  0.00     0.127 C 
ATOM     21  C   UNL A   1      29.547  28.680  23.248  1.00  0.00     0.101 C 
ATOM     22  C   UNL A   1      30.274  29.784  23.967  1.00  0.00     0.223 C 
ATOM     23  O   UNL A   1      29.945  30.957  23.858  1.00  0.00    -0.275 OA
BRANCH  11  24
ATOM     24  C   UNL A   1      34.057  22.956  22.633  1.00  0.00     0.135 C 
BRANCH  24  25
ATOM     25  C   UNL A   1      35.080  23.155  23.719  1.00  0.00    -0.038 A 
ATOM     26  C   UNL A   1      38.037  21.238  25.186  1.00  0.00     0.044 C 
ATOM     27  C   UNL A   1      36.997  22.295  24.964  1.00  0.00    -0.051 A 
ATOM     28  C   UNL A   1      36.862  23.354  25.868  1.00  0.00     0.003 A 
ATOM     29  C   UNL A   1      36.118  22.217  23.878  1.00  0.00     0.007 A 
ATOM     30  C   UNL A   1      35.869  24.318  25.689  1.00  0.00     0.001 A 
ATOM     31  C   UNL A   1      34.980  24.223  24.618  1.00  0.00     0.004 A 
ENDBRANCH  24  25
ENDBRANCH  11  24
ENDBRANCH   8  10
ENDBRANCH   5   8
ENDBRANCH   3   4
ENDBRANCH   2   3
ENDBRANCH   1   2
BRANCH   1  32
ATOM     32  C   UNL A   1      35.970  32.422  28.385  1.00  0.00     0.002 C 
BRANCH  32  33
ATOM     33  C   UNL A   1      35.690  33.362  29.560  1.00  0.00     0.021 C 
BRANCH  33  34
ATOM     34  C   UNL A   1      34.721  32.829  30.605  1.00  0.00     0.116 C 
BRANCH  34  35
ATOM     35  N   UNL A   1      34.023  33.863  31.360  1.00  0.00    -0.352 N 
ATOM     36  C   UNL A   1      34.403  34.496  32.532  1.00  0.00     0.251 C 
ATOM     37  H   UNL A   1      33.159  34.150  30.984  1.00  0.00     0.163 HD
ATOM     38  O   UNL A   1      33.681  35.329  33.057  1.00  0.00    -0.269 OA
BRANCH  36  39
ATOM     39  C   UNL A   1      35.768  34.258  33.062  1.00  0.00     0.039 A 
ATOM     40  C   UNL A   1      36.824  34.948  32.457  1.00  0.00     0.014 A 
ATOM     41  C   UNL A   1      36.020  33.197  33.925  1.00  0.00     0.014 A 
ATOM     42  C   UNL A   1      38.099  34.393  32.486  1.00  0.00     0.010 A 
ATOM     43  C   UNL A   1      37.256  32.587  33.866  1.00  0.00     0.010 A 
ATOM     44  C   UNL A   1      38.267  33.140  33.071  1.00  0.00    -0.014 A 
BRANCH  44  45
ATOM     45  C   UNL A   1      39.388  32.260  32.757  1.00  0.00     0.031 A 
ATOM     46  C   UNL A   1      39.189  31.036  31.958  1.00  0.00     0.074 A 
ATOM     47  C   UNL A   1      40.637  32.665  33.084  1.00  0.00     0.049 A 
ATOM     48  N   UNL A   1      40.049  30.081  31.859  1.00  0.00    -0.248 NA
ATOM     49  C   UNL A   1      37.952  30.768  31.238  1.00  0.00     0.031 C 
ATOM     50  C   UNL A   1      41.903  32.152  32.568  1.00  0.00     0.029 A 
ATOM     51  N   UNL A   1      41.011  33.517  34.139  1.00  0.00    -0.354 N 
ATOM     52  C   UNL A   1      39.624  29.227  30.865  1.00  0.00     0.074 A 
ATOM     53  C   UNL A   1      38.279  29.658  30.570  1.00  0.00     0.031 C 
ATOM     54  C   UNL A   1      42.876  32.438  33.446  1.00  0.00     0.029 A 
ATOM     55  C   UNL A   1      42.234  32.996  34.622  1.00  0.00     0.049 A 
ATOM     56  H   UNL A   1      40.525  34.307  34.471  1.00  0.00     0.167 HD
ATOM     57  C   UNL A   1      40.523  28.349  30.326  1.00  0.00     0.037 A 
ATOM     58  C   UNL A   1      42.345  32.482  35.881  1.00  0.00     0.037 A 
ATOM     59  C   UNL A   1      41.773  28.350  31.090  1.00  0.00     0.049 A 
ATOM     60  C   UNL A   1      42.816  31.047  35.922  1.00  0.00     0.074 A 
ATOM     61  C   UNL A   1      43.010  28.942  30.885  1.00  0.00     0.029 A 
ATOM     62  N   UNL A   1      41.764  27.914  32.412  1.00  0.00    -0.354 N 
ATOM     63  N   UNL A   1      42.715  30.219  34.921  1.00  0.00    -0.248 NA
ATOM     64  C   UNL A   1      43.406  30.428  37.105  1.00  0.00     0.031 C 
ATOM     65  C   UNL A   1      43.729  28.897  32.105  1.00  0.00     0.029 A 
ATOM     66  C   UNL A   1      42.939  28.265  33.048  1.00  0.00     0.049 A 
ATOM     67  H   UNL A   1      41.023  27.425  32.835  1.00  0.00     0.167 HD
ATOM     68  C   UNL A   1      43.191  28.988  35.297  1.00  0.00     0.074 A 
ATOM     69  C   UNL A   1      43.630  29.177  36.666  1.00  0.00     0.031 C 
ATOM     70  C   UNL A   1      43.167  27.920  34.444  1.00  0.00     0.037 A 
BRANCH  57  71
ATOM     71  C   UNL A   1      40.389  27.719  28.949  1.00  0.00     0.064 A 
ATOM     72  C   UNL A   1      39.658  26.521  28.772  1.00  0.00     0.173 A 
ATOM     73  C   UNL A   1      41.017  28.185  27.779  1.00  0.00     0.173 A 
ATOM     74  F   UNL A   1      38.901  26.008  29.751  1.00  0.00    -0.203 F 
ATOM     75  C   UNL A   1      39.673  25.792  27.577  1.00  0.00     0.198 A 
ATOM     76  C   UNL A   1      41.074  27.435  26.598  1.00  0.00     0.198 A 
ATOM     77  F   UNL A   1      41.542  29.411  27.706  1.00  0.00    -0.203 F 
ATOM     78  F   UNL A   1      38.974  24.652  27.484  1.00  0.00    -0.200 F 
ATOM     79  C   UNL A   1      40.415  26.229  26.502  1.00  0.00     0.200 A 
ATOM     80  F   UNL A   1      41.776  27.898  25.553  1.00  0.00    -0.200 F 
ATOM     81  F   UNL A   1      40.469  25.513  25.372  1.00  0.00    -0.200 F 
ENDBRANCH  57  71
BRANCH  58  82
ATOM     82  C   UNL A   1      41.406  33.093  36.857  1.00  0.00     0.064 A 
ATOM     83  C   UNL A   1      41.787  34.289  37.497  1.00  0.00     0.173 A 
ATOM     84  C   UNL A   1      40.051  32.747  36.886  1.00  0.00     0.173 A 
ATOM     85  F   UNL A   1      43.075  34.668  37.495  1.00  0.00    -0.203 F 
ATOM     86  C   UNL A   1      40.841  35.155  38.041  1.00  0.00     0.198 A 
ATOM     87  C   UNL A   1      39.105  33.612  37.445  1.00  0.00     0.198 A 
ATOM     88  F   UNL A   1      39.621  31.634  36.275  1.00  0.00    -0.203 F 
ATOM     89  F   UNL A   1      41.226  36.336  38.544  1.00  0.00    -0.200 F 
ATOM     90  C   UNL A   1      39.497  34.827  37.989  1.00  0.00     0.200 A 
ATOM     91  F   UNL A   1      37.801  33.312  37.365  1.00  0.00    -0.200 F 
ATOM     92  F   UNL A   1      38.575  35.697  38.423  1.00  0.00    -0.200 F 
ENDBRANCH  58  82
BRANCH  70  93
ATOM     93  C   UNL A   1      43.436  26.473  34.797  1.00  0.00     0.064 A 
ATOM     94  C   UNL A   1      42.436  25.526  35.071  1.00  0.00     0.173 A 
ATOM     95  C   UNL A   1      44.754  25.953  34.723  1.00  0.00     0.173 A 
ATOM     96  F   UNL A   1      41.138  25.853  35.046  1.00  0.00    -0.203 F 
ATOM     97  C   UNL A   1      42.734  24.181  35.316  1.00  0.00     0.198 A 
ATOM     98  C   UNL A   1      45.040  24.601  34.908  1.00  0.00     0.198 A 
ATOM     99  F   UNL A   1      45.805  26.737  34.441  1.00  0.00    -0.203 F 
ATOM    100  F   UNL A   1      41.744  23.328  35.613  1.00  0.00    -0.200 F 
ATOM    101  C   UNL A   1      44.031  23.716  35.222  1.00  0.00     0.200 A 
ATOM    102  F   UNL A   1      46.297  24.159  34.757  1.00  0.00    -0.200 F 
ATOM    103  F   UNL A   1      44.304  22.418  35.407  1.00  0.00    -0.200 F 
ENDBRANCH  70  93
ENDBRANCH  44  45
ENDBRANCH  36  39
ENDBRANCH  34  35
ENDBRANCH  33  34
ENDBRANCH  32  33
ENDBRANCH   1  32
TORSDOF 16
ENDMDL
