MODEL 1
REMARK VINA RESULT:     -11.7      0.000      0.000
REMARK SMILES CC(C)[C@@H](CNC(=O)NCC1C(C)(C)C1(C)C)C(=O)NCCCCCCNC(=O)c1ccc(-c2c3nc(c(-c4c(F)c(F)c(F)c(F)c4F)c4ccc([nH]4)c(-c4c(F)c(F)c(F)c(F)c4F)c4nc(c(-c5c(F)c(F)c(F)c(F)c5F)c5ccc2[nH]5)C=C4)C=C3)cc1
REMARK SMILES IDX 22 1 21 2 20 3 18 4 19 5 4 7 2 8 1 9 3 10 5 11 6 12 7 13
REMARK SMILES IDX 8 15 9 16 10 18 11 19 12 20 15 21 13 22 14 23 16 24 17 25
REMARK SMILES IDX 23 26 24 27 25 28 26 29 27 30 28 31 29 33 30 34 31 35 92 36
REMARK SMILES IDX 32 37 91 38 33 39 34 40 35 41 85 42 36 43 90 44 84 45 86 46
REMARK SMILES IDX 37 47 89 48 83 49 82 50 38 52 70 53 50 54 69 55 51 56 54 57
REMARK SMILES IDX 68 58 87 59 52 60 53 61 67 63 88 64 55 65 39 66 40 67 48 68
REMARK SMILES IDX 41 69 42 70 46 71 49 72 43 73 44 74 47 75 45 76 71 77 72 78
REMARK SMILES IDX 80 79 73 80 74 81 78 82 81 83 75 84 76 85 79 86 77 87 56 88
REMARK SMILES IDX 57 89 65 90 58 91 59 92 63 93 66 94 60 95 61 96 64 97 62 98
REMARK H PARENT 20 6 6 14 9 17 27 32 86 51 54 62
REMARK Flexibility Score: inf
ROOT
ATOM      1  C   UNL A   1      36.164  20.721  25.052  1.00  0.00     0.021 C 
ENDROOT
BRANCH   1   2
ATOM      2  C   UNL A   1      35.174  21.449  25.953  1.00  0.00     0.116 C 
BRANCH   2   3
ATOM      3  N   UNL A   1      33.881  20.802  26.001  1.00  0.00    -0.356 N 
ATOM      4  C   UNL A   1      32.758  21.018  25.265  1.00  0.00     0.225 C 
ATOM      5  O   UNL A   1      31.843  20.195  25.377  1.00  0.00    -0.275 OA
ATOM      6  H   UNL A   1      33.801  20.089  26.674  1.00  0.00     0.163 HD
BRANCH   4   7
ATOM      7  C   UNL A   1      32.589  22.219  24.332  1.00  0.00     0.100 C 
BRANCH   7   8
ATOM      8  C   UNL A   1      32.990  21.960  22.853  1.00  0.00    -0.003 C 
ATOM      9  C   UNL A   1      31.898  21.208  22.079  1.00  0.00     0.008 C 
ATOM     10  C   UNL A   1      33.277  23.286  22.132  1.00  0.00     0.008 C 
ENDBRANCH   7   8
BRANCH   7  11
ATOM     11  C   UNL A   1      31.277  22.987  24.576  1.00  0.00     0.131 C 
BRANCH  11  12
ATOM     12  N   UNL A   1      30.563  22.727  25.802  1.00  0.00    -0.337 N 
ATOM     13  C   UNL A   1      29.917  23.507  26.676  1.00  0.00     0.314 C 
ATOM     14  H   UNL A   1      30.547  21.774  26.046  1.00  0.00     0.165 HD
ATOM     15  O   UNL A   1      29.412  22.953  27.657  1.00  0.00    -0.249 OA
ATOM     16  N   UNL A   1      29.798  24.832  26.581  1.00  0.00    -0.338 N 
ATOM     17  H   UNL A   1      29.278  25.202  27.331  1.00  0.00     0.165 HD
BRANCH  16  18
ATOM     18  C   UNL A   1      30.233  25.870  25.665  1.00  0.00     0.122 C 
BRANCH  18  19
ATOM     19  C   UNL A   1      31.607  26.340  26.038  1.00  0.00     0.021 C 
ATOM     20  C   UNL A   1      32.680  26.538  24.974  1.00  0.00    -0.025 C 
ATOM     21  C   UNL A   1      32.218  27.733  25.833  1.00  0.00    -0.025 C 
ATOM     22  C   UNL A   1      34.028  25.901  25.233  1.00  0.00     0.012 C 
ATOM     23  C   UNL A   1      32.311  26.478  23.504  1.00  0.00     0.012 C 
ATOM     24  C   UNL A   1      31.491  28.873  25.165  1.00  0.00     0.012 C 
ATOM     25  C   UNL A   1      33.119  28.244  26.943  1.00  0.00     0.012 C 
ENDBRANCH  18  19
ENDBRANCH  16  18
ENDBRANCH  11  12
ENDBRANCH   7  11
ENDBRANCH   4   7
ENDBRANCH   2   3
ENDBRANCH   1   2
BRANCH   1  26
ATOM     26  C   UNL A   1      37.388  21.549  24.653  1.00  0.00     0.002 C 
BRANCH  26  27
ATOM     27  C   UNL A   1      38.283  22.016  25.808  1.00  0.00     0.002 C 
BRANCH  27  28
ATOM     28  C   UNL A   1      39.292  20.989  26.332  1.00  0.00     0.021 C 
BRANCH  28  29
ATOM     29  C   UNL A   1      39.631  19.855  25.370  1.00  0.00     0.116 C 
BRANCH  29  30
ATOM     30  N   UNL A   1      40.612  18.936  25.920  1.00  0.00    -0.352 N 
ATOM     31  C   UNL A   1      41.858  19.182  26.437  1.00  0.00     0.251 C 
ATOM     32  H   UNL A   1      40.340  17.991  25.922  1.00  0.00     0.163 HD
ATOM     33  O   UNL A   1      42.602  18.245  26.704  1.00  0.00    -0.269 OA
BRANCH  31  34
ATOM     34  C   UNL A   1      42.323  20.570  26.659  1.00  0.00     0.039 A 
ATOM     35  C   UNL A   1      42.642  21.348  25.543  1.00  0.00     0.014 A 
ATOM     36  C   UNL A   1      42.491  21.093  27.945  1.00  0.00     0.014 A 
ATOM     37  C   UNL A   1      43.087  22.661  25.713  1.00  0.00     0.010 A 
ATOM     38  C   UNL A   1      42.871  22.424  28.113  1.00  0.00     0.010 A 
ATOM     39  C   UNL A   1      43.182  23.218  26.998  1.00  0.00    -0.014 A 
BRANCH  39  40
ATOM     40  C   UNL A   1      43.604  24.630  27.180  1.00  0.00     0.031 A 
ATOM     41  C   UNL A   1      42.627  25.664  27.670  1.00  0.00     0.074 A 
ATOM     42  C   UNL A   1      44.864  24.988  26.868  1.00  0.00     0.049 A 
ATOM     43  N   UNL A   1      42.813  26.942  27.882  1.00  0.00    -0.248 NA
ATOM     44  C   UNL A   1      41.254  25.207  27.932  1.00  0.00     0.031 C 
ATOM     45  C   UNL A   1      45.887  24.090  26.330  1.00  0.00     0.029 A 
ATOM     46  N   UNL A   1      45.500  26.202  26.955  1.00  0.00    -0.354 N 
ATOM     47  C   UNL A   1      41.583  27.441  28.292  1.00  0.00     0.074 A 
ATOM     48  C   UNL A   1      40.646  26.340  28.250  1.00  0.00     0.031 C 
ATOM     49  C   UNL A   1      47.028  24.777  26.158  1.00  0.00     0.029 A 
ATOM     50  C   UNL A   1      46.810  26.167  26.545  1.00  0.00     0.049 A 
ATOM     51  H   UNL A   1      45.057  27.020  27.278  1.00  0.00     0.167 HD
ATOM     52  C   UNL A   1      41.272  28.698  28.690  1.00  0.00     0.037 A 
ATOM     53  C   UNL A   1      47.732  27.146  26.489  1.00  0.00     0.037 A 
ATOM     54  C   UNL A   1      42.213  29.785  28.756  1.00  0.00     0.049 A 
ATOM     55  C   UNL A   1      47.362  28.530  26.953  1.00  0.00     0.074 A 
ATOM     56  C   UNL A   1      42.010  31.078  29.209  1.00  0.00     0.029 A 
ATOM     57  N   UNL A   1      43.538  29.708  28.354  1.00  0.00    -0.354 N 
ATOM     58  N   UNL A   1      46.217  28.969  27.415  1.00  0.00    -0.248 NA
ATOM     59  C   UNL A   1      48.419  29.549  26.899  1.00  0.00     0.031 C 
ATOM     60  C   UNL A   1      43.199  31.794  29.039  1.00  0.00     0.029 A 
ATOM     61  C   UNL A   1      44.159  30.935  28.528  1.00  0.00     0.049 A 
ATOM     62  H   UNL A   1      43.974  28.899  27.999  1.00  0.00     0.167 HD
ATOM     63  C   UNL A   1      46.420  30.306  27.728  1.00  0.00     0.074 A 
ATOM     64  C   UNL A   1      47.806  30.599  27.425  1.00  0.00     0.031 C 
ATOM     65  C   UNL A   1      45.540  31.210  28.222  1.00  0.00     0.037 A 
BRANCH  52  66
ATOM     66  C   UNL A   1      39.850  28.968  29.092  1.00  0.00     0.064 A 
ATOM     67  C   UNL A   1      38.890  29.393  28.160  1.00  0.00     0.173 A 
ATOM     68  C   UNL A   1      39.430  28.755  30.414  1.00  0.00     0.173 A 
ATOM     69  F   UNL A   1      39.240  29.621  26.886  1.00  0.00    -0.203 F 
ATOM     70  C   UNL A   1      37.569  29.618  28.542  1.00  0.00     0.198 A 
ATOM     71  C   UNL A   1      38.103  28.953  30.786  1.00  0.00     0.198 A 
ATOM     72  F   UNL A   1      40.305  28.343  31.344  1.00  0.00    -0.203 F 
ATOM     73  F   UNL A   1      36.681  30.065  27.644  1.00  0.00    -0.200 F 
ATOM     74  C   UNL A   1      37.175  29.391  29.852  1.00  0.00     0.200 A 
ATOM     75  F   UNL A   1      37.720  28.721  32.049  1.00  0.00    -0.200 F 
ATOM     76  F   UNL A   1      35.902  29.599  30.215  1.00  0.00    -0.200 F 
ENDBRANCH  52  66
BRANCH  53  77
ATOM     77  C   UNL A   1      49.102  26.848  26.001  1.00  0.00     0.064 A 
ATOM     78  C   UNL A   1      49.438  27.010  24.650  1.00  0.00     0.173 A 
ATOM     79  C   UNL A   1      50.102  26.387  26.871  1.00  0.00     0.173 A 
ATOM     80  F   UNL A   1      48.510  27.429  23.776  1.00  0.00    -0.203 F 
ATOM     81  C   UNL A   1      50.714  26.703  24.183  1.00  0.00     0.198 A 
ATOM     82  C   UNL A   1      51.386  26.108  26.408  1.00  0.00     0.198 A 
ATOM     83  F   UNL A   1      49.833  26.218  28.174  1.00  0.00    -0.203 F 
ATOM     84  F   UNL A   1      50.993  26.822  22.878  1.00  0.00    -0.200 F 
ATOM     85  C   UNL A   1      51.688  26.257  25.063  1.00  0.00     0.200 A 
ATOM     86  F   UNL A   1      52.328  25.689  27.264  1.00  0.00    -0.200 F 
ATOM     87  F   UNL A   1      52.916  25.963  24.614  1.00  0.00    -0.200 F 
ENDBRANCH  53  77
BRANCH  65  88
ATOM     88  C   UNL A   1      46.056  32.594  28.488  1.00  0.00     0.064 A 
ATOM     89  C   UNL A   1      46.637  32.939  29.719  1.00  0.00     0.173 A 
ATOM     90  C   UNL A   1      45.990  33.581  27.494  1.00  0.00     0.173 A 
ATOM     91  F   UNL A   1      46.710  32.035  30.707  1.00  0.00    -0.203 F 
ATOM     92  C   UNL A   1      47.102  34.230  29.954  1.00  0.00     0.198 A 
ATOM     93  C   UNL A   1      46.485  34.862  27.721  1.00  0.00     0.198 A 
ATOM     94  F   UNL A   1      45.452  33.301  26.297  1.00  0.00    -0.203 F 
ATOM     95  F   UNL A   1      47.601  34.552  31.155  1.00  0.00    -0.200 F 
ATOM     96  C   UNL A   1      47.030  35.189  28.953  1.00  0.00     0.200 A 
ATOM     97  F   UNL A   1      46.428  35.784  26.749  1.00  0.00    -0.200 F 
ATOM     98  F   UNL A   1      47.481  36.430  29.181  1.00  0.00    -0.200 F 
ENDBRANCH  65  88
ENDBRANCH  39  40
ENDBRANCH  31  34
ENDBRANCH  29  30
ENDBRANCH  28  29
ENDBRANCH  27  28
ENDBRANCH  26  27
ENDBRANCH   1  26
TORSDOF 18
ENDMDL
MODEL 2
REMARK VINA RESULT:     -11.6      5.368     10.831
REMARK SMILES CC(C)[C@@H](CNC(=O)NCC1C(C)(C)C1(C)C)C(=O)NCCCCCCNC(=O)c1ccc(-c2c3nc(c(-c4c(F)c(F)c(F)c(F)c4F)c4ccc([nH]4)c(-c4c(F)c(F)c(F)c(F)c4F)c4nc(c(-c5c(F)c(F)c(F)c(F)c5F)c5ccc2[nH]5)C=C4)C=C3)cc1
REMARK SMILES IDX 22 1 21 2 20 3 18 4 19 5 4 7 2 8 1 9 3 10 5 11 6 12 7 13
REMARK SMILES IDX 8 15 9 16 10 18 11 19 12 20 15 21 13 22 14 23 16 24 17 25
REMARK SMILES IDX 23 26 24 27 25 28 26 29 27 30 28 31 29 33 30 34 31 35 92 36
REMARK SMILES IDX 32 37 91 38 33 39 34 40 35 41 85 42 36 43 90 44 84 45 86 46
REMARK SMILES IDX 37 47 89 48 83 49 82 50 38 52 70 53 50 54 69 55 51 56 54 57
REMARK SMILES IDX 68 58 87 59 52 60 53 61 67 63 88 64 55 65 39 66 40 67 48 68
REMARK SMILES IDX 41 69 42 70 46 71 49 72 43 73 44 74 47 75 45 76 71 77 72 78
REMARK SMILES IDX 80 79 73 80 74 81 78 82 81 83 75 84 76 85 79 86 77 87 56 88
REMARK SMILES IDX 57 89 65 90 58 91 59 92 63 93 66 94 60 95 61 96 64 97 62 98
REMARK H PARENT 20 6 6 14 9 17 27 32 86 51 54 62
REMARK Flexibility Score: inf
ROOT
ATOM      1  C   UNL A   1      31.787  28.267  27.255  1.00  0.00     0.021 C 
ENDROOT
BRANCH   1   2
ATOM      2  C   UNL A   1      31.946  27.481  25.959  1.00  0.00     0.116 C 
BRANCH   2   3
ATOM      3  N   UNL A   1      30.684  27.247  25.290  1.00  0.00    -0.356 N 
ATOM      4  C   UNL A   1      30.129  26.095  24.830  1.00  0.00     0.225 C 
ATOM      5  O   UNL A   1      28.949  26.144  24.464  1.00  0.00    -0.275 OA
ATOM      6  H   UNL A   1      30.139  28.054  25.145  1.00  0.00     0.163 HD
BRANCH   4   7
ATOM      7  C   UNL A   1      30.896  24.773  24.745  1.00  0.00     0.100 C 
BRANCH   7   8
ATOM      8  C   UNL A   1      30.704  23.827  25.962  1.00  0.00    -0.003 C 
ATOM      9  C   UNL A   1      30.720  22.347  25.555  1.00  0.00     0.008 C 
ATOM     10  C   UNL A   1      31.807  24.060  27.006  1.00  0.00     0.008 C 
ENDBRANCH   7   8
BRANCH   7  11
ATOM     11  C   UNL A   1      30.835  24.135  23.346  1.00  0.00     0.131 C 
BRANCH  11  12
ATOM     12  N   UNL A   1      31.653  24.709  22.307  1.00  0.00    -0.337 N 
ATOM     13  C   UNL A   1      32.847  24.392  21.792  1.00  0.00     0.314 C 
ATOM     14  H   UNL A   1      31.248  25.501  21.887  1.00  0.00     0.165 HD
ATOM     15  O   UNL A   1      33.283  25.120  20.895  1.00  0.00    -0.249 OA
ATOM     16  N   UNL A   1      33.607  23.371  22.188  1.00  0.00    -0.338 N 
ATOM     17  H   UNL A   1      34.443  23.320  21.670  1.00  0.00     0.165 HD
BRANCH  16  18
ATOM     18  C   UNL A   1      33.528  22.316  23.182  1.00  0.00     0.122 C 
BRANCH  18  19
ATOM     19  C   UNL A   1      34.221  22.743  24.441  1.00  0.00     0.021 C 
ATOM     20  C   UNL A   1      34.899  21.722  25.345  1.00  0.00    -0.025 C 
ATOM     21  C   UNL A   1      35.730  22.850  24.700  1.00  0.00    -0.025 C 
ATOM     22  C   UNL A   1      34.565  21.782  26.820  1.00  0.00     0.012 C 
ATOM     23  C   UNL A   1      35.076  20.291  24.873  1.00  0.00     0.012 C 
ATOM     24  C   UNL A   1      36.779  22.490  23.677  1.00  0.00     0.012 C 
ATOM     25  C   UNL A   1      36.187  24.020  25.553  1.00  0.00     0.012 C 
ENDBRANCH  18  19
ENDBRANCH  16  18
ENDBRANCH  11  12
ENDBRANCH   7  11
ENDBRANCH   4   7
ENDBRANCH   2   3
ENDBRANCH   1   2
BRANCH   1  26
ATOM     26  C   UNL A   1      32.207  29.736  27.162  1.00  0.00     0.002 C 
BRANCH  26  27
ATOM     27  C   UNL A   1      31.388  30.604  26.198  1.00  0.00     0.002 C 
BRANCH  27  28
ATOM     28  C   UNL A   1      31.345  32.102  26.517  1.00  0.00     0.021 C 
BRANCH  28  29
ATOM     29  C   UNL A   1      32.643  32.695  27.052  1.00  0.00     0.116 C 
BRANCH  29  30
ATOM     30  N   UNL A   1      32.467  34.042  27.567  1.00  0.00    -0.352 N 
ATOM     31  C   UNL A   1      33.110  34.683  28.594  1.00  0.00     0.251 C 
ATOM     32  H   UNL A   1      31.782  34.576  27.108  1.00  0.00     0.163 HD
ATOM     33  O   UNL A   1      32.702  35.773  28.981  1.00  0.00    -0.269 OA
BRANCH  31  34
ATOM     34  C   UNL A   1      34.281  34.065  29.256  1.00  0.00     0.039 A 
ATOM     35  C   UNL A   1      34.055  33.072  30.213  1.00  0.00     0.014 A 
ATOM     36  C   UNL A   1      35.587  34.483  28.980  1.00  0.00     0.014 A 
ATOM     37  C   UNL A   1      35.134  32.469  30.860  1.00  0.00     0.010 A 
ATOM     38  C   UNL A   1      36.668  33.834  29.577  1.00  0.00     0.010 A 
ATOM     39  C   UNL A   1      36.451  32.827  30.529  1.00  0.00    -0.014 A 
BRANCH  39  40
ATOM     40  C   UNL A   1      37.603  32.149  31.177  1.00  0.00     0.031 A 
ATOM     41  C   UNL A   1      38.377  31.088  30.445  1.00  0.00     0.074 A 
ATOM     42  C   UNL A   1      37.930  32.469  32.444  1.00  0.00     0.049 A 
ATOM     43  N   UNL A   1      39.405  30.385  30.850  1.00  0.00    -0.248 NA
ATOM     44  C   UNL A   1      37.922  30.753  29.087  1.00  0.00     0.031 C 
ATOM     45  C   UNL A   1      37.221  33.440  33.278  1.00  0.00     0.029 A 
ATOM     46  N   UNL A   1      38.939  32.010  33.253  1.00  0.00    -0.354 N 
ATOM     47  C   UNL A   1      39.711  29.523  29.806  1.00  0.00     0.074 A 
ATOM     48  C   UNL A   1      38.731  29.753  28.767  1.00  0.00     0.031 C 
ATOM     49  C   UNL A   1      37.832  33.523  34.471  1.00  0.00     0.029 A 
ATOM     50  C   UNL A   1      38.954  32.591  34.497  1.00  0.00     0.049 A 
ATOM     51  H   UNL A   1      39.590  31.327  32.969  1.00  0.00     0.167 HD
ATOM     52  C   UNL A   1      40.732  28.638  29.713  1.00  0.00     0.037 A 
ATOM     53  C   UNL A   1      39.782  32.395  35.540  1.00  0.00     0.037 A 
ATOM     54  C   UNL A   1      41.722  28.430  30.737  1.00  0.00     0.049 A 
ATOM     55  C   UNL A   1      40.918  31.417  35.403  1.00  0.00     0.074 A 
ATOM     56  C   UNL A   1      42.833  27.604  30.710  1.00  0.00     0.029 A 
ATOM     57  N   UNL A   1      41.719  29.053  31.976  1.00  0.00    -0.354 N 
ATOM     58  N   UNL A   1      41.244  30.666  34.380  1.00  0.00    -0.248 NA
ATOM     59  C   UNL A   1      41.807  31.270  36.563  1.00  0.00     0.031 C 
ATOM     60  C   UNL A   1      43.476  27.694  31.949  1.00  0.00     0.029 A 
ATOM     61  C   UNL A   1      42.796  28.614  32.731  1.00  0.00     0.049 A 
ATOM     62  H   UNL A   1      41.050  29.711  32.275  1.00  0.00     0.167 HD
ATOM     63  C   UNL A   1      42.387  29.977  34.761  1.00  0.00     0.074 A 
ATOM     64  C   UNL A   1      42.710  30.416  36.104  1.00  0.00     0.031 C 
ATOM     65  C   UNL A   1      43.104  29.062  34.065  1.00  0.00     0.037 A 
BRANCH  52  66
ATOM     66  C   UNL A   1      40.836  27.825  28.454  1.00  0.00     0.064 A 
ATOM     67  C   UNL A   1      41.577  28.272  27.348  1.00  0.00     0.173 A 
ATOM     68  C   UNL A   1      40.229  26.563  28.368  1.00  0.00     0.173 A 
ATOM     69  F   UNL A   1      42.169  29.474  27.374  1.00  0.00    -0.203 F 
ATOM     70  C   UNL A   1      41.683  27.497  26.196  1.00  0.00     0.198 A 
ATOM     71  C   UNL A   1      40.361  25.779  27.226  1.00  0.00     0.198 A 
ATOM     72  F   UNL A   1      39.514  26.085  29.399  1.00  0.00    -0.203 F 
ATOM     73  F   UNL A   1      42.358  27.964  25.137  1.00  0.00    -0.200 F 
ATOM     74  C   UNL A   1      41.082  26.249  26.137  1.00  0.00     0.200 A 
ATOM     75  F   UNL A   1      39.791  24.567  27.176  1.00  0.00    -0.200 F 
ATOM     76  F   UNL A   1      41.193  25.501  25.031  1.00  0.00    -0.200 F 
ENDBRANCH  52  66
BRANCH  53  77
ATOM     77  C   UNL A   1      39.585  33.162  36.797  1.00  0.00     0.064 A 
ATOM     78  C   UNL A   1      40.306  34.339  37.045  1.00  0.00     0.173 A 
ATOM     79  C   UNL A   1      38.681  32.732  37.780  1.00  0.00     0.173 A 
ATOM     80  F   UNL A   1      41.197  34.779  36.144  1.00  0.00    -0.203 F 
ATOM     81  C   UNL A   1      40.146  35.044  38.235  1.00  0.00     0.198 A 
ATOM     82  C   UNL A   1      38.501  33.454  38.957  1.00  0.00     0.198 A 
ATOM     83  F   UNL A   1      37.965  31.614  37.591  1.00  0.00    -0.203 F 
ATOM     84  F   UNL A   1      40.883  36.139  38.465  1.00  0.00    -0.200 F 
ATOM     85  C   UNL A   1      39.240  34.604  39.189  1.00  0.00     0.200 A 
ATOM     86  F   UNL A   1      37.615  33.033  39.870  1.00  0.00    -0.200 F 
ATOM     87  F   UNL A   1      39.085  35.284  40.332  1.00  0.00    -0.200 F 
ENDBRANCH  53  77
BRANCH  65  88
ATOM     88  C   UNL A   1      44.322  28.494  34.733  1.00  0.00     0.064 A 
ATOM     89  C   UNL A   1      44.263  27.318  35.497  1.00  0.00     0.173 A 
ATOM     90  C   UNL A   1      45.569  29.122  34.591  1.00  0.00     0.173 A 
ATOM     91  F   UNL A   1      43.092  26.689  35.675  1.00  0.00    -0.203 F 
ATOM     92  C   UNL A   1      45.401  26.811  36.118  1.00  0.00     0.198 A 
ATOM     93  C   UNL A   1      46.710  28.595  35.188  1.00  0.00     0.198 A 
ATOM     94  F   UNL A   1      45.681  30.245  33.864  1.00  0.00    -0.203 F 
ATOM     95  F   UNL A   1      45.309  25.718  36.889  1.00  0.00    -0.200 F 
ATOM     96  C   UNL A   1      46.624  27.446  35.959  1.00  0.00     0.200 A 
ATOM     97  F   UNL A   1      47.894  29.202  35.022  1.00  0.00    -0.200 F 
ATOM     98  F   UNL A   1      47.718  26.955  36.557  1.00  0.00    -0.200 F 
ENDBRANCH  65  88
ENDBRANCH  39  40
ENDBRANCH  31  34
ENDBRANCH  29  30
ENDBRANCH  28  29
ENDBRANCH  27  28
ENDBRANCH  26  27
ENDBRANCH   1  26
TORSDOF 18
ENDMDL
MODEL 3
REMARK VINA RESULT:     -11.5      0.592      7.397
REMARK SMILES CC(C)[C@@H](CNC(=O)NCC1C(C)(C)C1(C)C)C(=O)NCCCCCCNC(=O)c1ccc(-c2c3nc(c(-c4c(F)c(F)c(F)c(F)c4F)c4ccc([nH]4)c(-c4c(F)c(F)c(F)c(F)c4F)c4nc(c(-c5c(F)c(F)c(F)c(F)c5F)c5ccc2[nH]5)C=C4)C=C3)cc1
REMARK SMILES IDX 22 1 21 2 20 3 18 4 19 5 4 7 2 8 1 9 3 10 5 11 6 12 7 13
REMARK SMILES IDX 8 15 9 16 10 18 11 19 12 20 15 21 13 22 14 23 16 24 17 25
REMARK SMILES IDX 23 26 24 27 25 28 26 29 27 30 28 31 29 33 30 34 31 35 92 36
REMARK SMILES IDX 32 37 91 38 33 39 34 40 35 41 85 42 36 43 90 44 84 45 86 46
REMARK SMILES IDX 37 47 89 48 83 49 82 50 38 52 70 53 50 54 69 55 51 56 54 57
REMARK SMILES IDX 68 58 87 59 52 60 53 61 67 63 88 64 55 65 39 66 40 67 48 68
REMARK SMILES IDX 41 69 42 70 46 71 49 72 43 73 44 74 47 75 45 76 71 77 72 78
REMARK SMILES IDX 80 79 73 80 74 81 78 82 81 83 75 84 76 85 79 86 77 87 56 88
REMARK SMILES IDX 57 89 65 90 58 91 59 92 63 93 66 94 60 95 61 96 64 97 62 98
REMARK H PARENT 20 6 6 14 9 17 27 32 86 51 54 62
REMARK Flexibility Score: inf
ROOT
ATOM      1  C   UNL A   1      36.191  20.687  25.027  1.00  0.00     0.021 C 
ENDROOT
BRANCH   1   2
ATOM      2  C   UNL A   1      35.199  21.461  25.886  1.00  0.00     0.116 C 
BRANCH   2   3
ATOM      3  N   UNL A   1      33.907  20.814  25.968  1.00  0.00    -0.356 N 
ATOM      4  C   UNL A   1      32.758  21.045  25.279  1.00  0.00     0.225 C 
ATOM      5  O   UNL A   1      31.847  20.220  25.408  1.00  0.00    -0.275 OA
ATOM      6  H   UNL A   1      33.851  20.087  26.629  1.00  0.00     0.163 HD
BRANCH   4   7
ATOM      7  C   UNL A   1      32.557  22.265  24.376  1.00  0.00     0.100 C 
BRANCH   7   8
ATOM      8  C   UNL A   1      32.947  22.048  22.888  1.00  0.00    -0.003 C 
ATOM      9  C   UNL A   1      31.903  21.217  22.130  1.00  0.00     0.008 C 
ATOM     10  C   UNL A   1      33.112  23.398  22.172  1.00  0.00     0.008 C 
ENDBRANCH   7   8
BRANCH   7  11
ATOM     11  C   UNL A   1      31.233  23.001  24.653  1.00  0.00     0.131 C 
BRANCH  11  12
ATOM     12  N   UNL A   1      30.531  22.689  25.873  1.00  0.00    -0.337 N 
ATOM     13  C   UNL A   1      29.885  23.430  26.781  1.00  0.00     0.314 C 
ATOM     14  H   UNL A   1      30.524  21.727  26.081  1.00  0.00     0.165 HD
ATOM     15  O   UNL A   1      29.393  22.834  27.745  1.00  0.00    -0.249 OA
ATOM     16  N   UNL A   1      29.756  24.756  26.739  1.00  0.00    -0.338 N 
ATOM     17  H   UNL A   1      29.240  25.094  27.505  1.00  0.00     0.165 HD
BRANCH  16  18
ATOM     18  C   UNL A   1      30.176  25.832  25.859  1.00  0.00     0.122 C 
BRANCH  18  19
ATOM     19  C   UNL A   1      31.555  26.289  26.231  1.00  0.00     0.021 C 
ATOM     20  C   UNL A   1      32.617  26.514  25.162  1.00  0.00    -0.025 C 
ATOM     21  C   UNL A   1      32.167  27.686  26.058  1.00  0.00    -0.025 C 
ATOM     22  C   UNL A   1      33.967  25.868  25.389  1.00  0.00     0.012 C 
ATOM     23  C   UNL A   1      32.233  26.496  23.694  1.00  0.00     0.012 C 
ATOM     24  C   UNL A   1      31.435  28.846  25.430  1.00  0.00     0.012 C 
ATOM     25  C   UNL A   1      33.080  28.165  27.173  1.00  0.00     0.012 C 
ENDBRANCH  18  19
ENDBRANCH  16  18
ENDBRANCH  11  12
ENDBRANCH   7  11
ENDBRANCH   4   7
ENDBRANCH   2   3
ENDBRANCH   1   2
BRANCH   1  26
ATOM     26  C   UNL A   1      37.452  21.471  24.650  1.00  0.00     0.002 C 
BRANCH  26  27
ATOM     27  C   UNL A   1      38.336  21.915  25.822  1.00  0.00     0.002 C 
BRANCH  27  28
ATOM     28  C   UNL A   1      39.312  20.864  26.361  1.00  0.00     0.021 C 
BRANCH  28  29
ATOM     29  C   UNL A   1      39.596  19.694  25.425  1.00  0.00     0.116 C 
BRANCH  29  30
ATOM     30  N   UNL A   1      40.703  18.873  25.884  1.00  0.00    -0.352 N 
ATOM     31  C   UNL A   1      41.944  19.241  26.337  1.00  0.00     0.251 C 
ATOM     32  H   UNL A   1      40.537  17.904  25.866  1.00  0.00     0.163 HD
ATOM     33  O   UNL A   1      42.801  18.385  26.526  1.00  0.00    -0.269 OA
BRANCH  31  34
ATOM     34  C   UNL A   1      42.268  20.664  26.583  1.00  0.00     0.039 A 
ATOM     35  C   UNL A   1      42.306  21.117  27.904  1.00  0.00     0.014 A 
ATOM     36  C   UNL A   1      42.487  21.561  25.532  1.00  0.00     0.014 A 
ATOM     37  C   UNL A   1      42.605  22.453  28.175  1.00  0.00     0.010 A 
ATOM     38  C   UNL A   1      42.852  22.879  25.804  1.00  0.00     0.010 A 
ATOM     39  C   UNL A   1      42.905  23.340  27.129  1.00  0.00    -0.014 A 
BRANCH  39  40
ATOM     40  C   UNL A   1      43.276  24.749  27.416  1.00  0.00     0.031 A 
ATOM     41  C   UNL A   1      44.675  25.239  27.165  1.00  0.00     0.074 A 
ATOM     42  C   UNL A   1      42.354  25.581  27.939  1.00  0.00     0.049 A 
ATOM     43  N   UNL A   1      45.183  26.430  27.360  1.00  0.00    -0.248 NA
ATOM     44  C   UNL A   1      45.639  24.255  26.649  1.00  0.00     0.031 C 
ATOM     45  C   UNL A   1      40.980  25.210  28.281  1.00  0.00     0.029 A 
ATOM     46  N   UNL A   1      42.434  26.909  28.278  1.00  0.00    -0.354 N 
ATOM     47  C   UNL A   1      46.521  26.335  27.002  1.00  0.00     0.074 A 
ATOM     48  C   UNL A   1      46.761  24.960  26.625  1.00  0.00     0.031 C 
ATOM     49  C   UNL A   1      40.339  26.289  28.757  1.00  0.00     0.029 A 
ATOM     50  C   UNL A   1      41.263  27.418  28.782  1.00  0.00     0.049 A 
ATOM     51  H   UNL A   1      43.254  27.444  28.171  1.00  0.00     0.167 HD
ATOM     52  C   UNL A   1      47.457  27.314  26.967  1.00  0.00     0.037 A 
ATOM     53  C   UNL A   1      40.967  28.659  29.214  1.00  0.00     0.037 A 
ATOM     54  C   UNL A   1      47.209  28.688  27.317  1.00  0.00     0.049 A 
ATOM     55  C   UNL A   1      42.022  29.730  29.149  1.00  0.00     0.074 A 
ATOM     56  C   UNL A   1      48.075  29.767  27.252  1.00  0.00     0.029 A 
ATOM     57  N   UNL A   1      46.003  29.173  27.803  1.00  0.00    -0.354 N 
ATOM     58  N   UNL A   1      43.262  29.646  28.732  1.00  0.00    -0.248 NA
ATOM     59  C   UNL A   1      41.631  31.071  29.603  1.00  0.00     0.031 C 
ATOM     60  C   UNL A   1      47.407  30.895  27.740  1.00  0.00     0.029 A 
ATOM     61  C   UNL A   1      46.109  30.531  28.061  1.00  0.00     0.049 A 
ATOM     62  H   UNL A   1      45.192  28.633  27.942  1.00  0.00     0.167 HD
ATOM     63  C   UNL A   1      43.791  30.924  28.850  1.00  0.00     0.074 A 
ATOM     64  C   UNL A   1      42.730  31.769  29.358  1.00  0.00     0.031 C 
ATOM     65  C   UNL A   1      45.043  31.359  28.566  1.00  0.00     0.037 A 
BRANCH  52  66
ATOM     66  C   UNL A   1      48.844  26.935  26.530  1.00  0.00     0.064 A 
ATOM     67  C   UNL A   1      49.786  26.421  27.435  1.00  0.00     0.173 A 
ATOM     68  C   UNL A   1      49.220  27.042  25.183  1.00  0.00     0.173 A 
ATOM     69  F   UNL A   1      49.480  26.307  28.736  1.00  0.00    -0.203 F 
ATOM     70  C   UNL A   1      51.061  26.053  27.011  1.00  0.00     0.198 A 
ATOM     71  C   UNL A   1      50.486  26.646  24.758  1.00  0.00     0.198 A 
ATOM     72  F   UNL A   1      48.357  27.521  24.275  1.00  0.00    -0.203 F 
ATOM     73  F   UNL A   1      51.957  25.606  27.901  1.00  0.00    -0.200 F 
ATOM     74  C   UNL A   1      51.407  26.158  25.673  1.00  0.00     0.200 A 
ATOM     75  F   UNL A   1      50.815  26.736  23.462  1.00  0.00    -0.200 F 
ATOM     76  F   UNL A   1      52.631  25.794  25.266  1.00  0.00    -0.200 F 
ENDBRANCH  52  66
BRANCH  53  77
ATOM     77  C   UNL A   1      39.604  28.963  29.719  1.00  0.00     0.064 A 
ATOM     78  C   UNL A   1      39.290  28.818  31.078  1.00  0.00     0.173 A 
ATOM     79  C   UNL A   1      38.586  29.396  28.857  1.00  0.00     0.173 A 
ATOM     80  F   UNL A   1      40.224  28.387  31.938  1.00  0.00    -0.203 F 
ATOM     81  C   UNL A   1      38.004  29.074  31.551  1.00  0.00     0.198 A 
ATOM     82  C   UNL A   1      37.309  29.678  29.336  1.00  0.00     0.198 A 
ATOM     83  F   UNL A   1      38.835  29.554  27.549  1.00  0.00    -0.203 F 
ATOM     84  F   UNL A   1      37.720  28.880  32.846  1.00  0.00    -0.200 F 
ATOM     85  C   UNL A   1      37.016  29.508  30.681  1.00  0.00     0.200 A 
ATOM     86  F   UNL A   1      36.360  30.111  28.494  1.00  0.00    -0.200 F 
ATOM     87  F   UNL A   1      35.781  29.755  31.137  1.00  0.00    -0.200 F 
ENDBRANCH  53  77
BRANCH  65  88
ATOM     88  C   UNL A   1      45.324  32.818  28.773  1.00  0.00     0.064 A 
ATOM     89  C   UNL A   1      45.079  33.766  27.767  1.00  0.00     0.173 A 
ATOM     90  C   UNL A   1      45.824  33.279  30.000  1.00  0.00     0.173 A 
ATOM     91  F   UNL A   1      44.615  33.374  26.571  1.00  0.00    -0.203 F 
ATOM     92  C   UNL A   1      45.355  35.115  27.972  1.00  0.00     0.198 A 
ATOM     93  C   UNL A   1      46.070  34.632  30.213  1.00  0.00     0.198 A 
ATOM     94  F   UNL A   1      46.068  32.416  30.998  1.00  0.00    -0.203 F 
ATOM     95  F   UNL A   1      45.166  35.993  26.977  1.00  0.00    -0.200 F 
ATOM     96  C   UNL A   1      45.845  35.548  29.195  1.00  0.00     0.200 A 
ATOM     97  F   UNL A   1      46.529  35.052  31.400  1.00  0.00    -0.200 F 
ATOM     98  F   UNL A   1      46.108  36.847  29.391  1.00  0.00    -0.200 F 
ENDBRANCH  65  88
ENDBRANCH  39  40
ENDBRANCH  31  34
ENDBRANCH  29  30
ENDBRANCH  28  29
ENDBRANCH  27  28
ENDBRANCH  26  27
ENDBRANCH   1  26
TORSDOF 18
ENDMDL
