MODEL 1
REMARK VINA RESULT:     -12.3      0.000      0.000
REMARK SMILES C[C@@H](C(=O)NCCCCCCNC(=O)c1ccc(-c2c3nc(c(-c4c(F)c(F)c(F)c(F)c4F)c4ccc([nH]4)c(-c4c(F)c(F)c(F)c(F)c4F)c4nc(c(-c5c(F)c(F)c(F)c(F)c5F)c5ccc2[nH]5)C=C4)C=C3)cc1)c1ccc(-c2cccc(OC(=O)Nc3ccccc3)c2)c(F)c1
REMARK SMILES IDX 7 1 6 2 5 3 3 4 4 5 2 7 1 8 78 9 79 10 100 11 80 12 98 13
REMARK SMILES IDX 81 14 99 15 82 16 83 17 97 18 84 19 86 20 85 21 87 22 88 23
REMARK SMILES IDX 89 24 90 25 91 27 92 28 96 29 93 30 95 31 94 32 8 33 9 34
REMARK SMILES IDX 10 35 11 36 12 37 13 38 14 40 15 41 16 42 77 43 17 44 76 45
REMARK SMILES IDX 18 46 19 47 20 48 70 49 21 50 75 51 69 52 71 53 22 54 74 55
REMARK SMILES IDX 68 56 67 57 23 59 55 60 35 61 54 62 36 63 39 64 53 65 72 66
REMARK SMILES IDX 37 67 38 68 52 70 73 71 40 72 24 73 25 74 33 75 26 76 27 77
REMARK SMILES IDX 31 78 34 79 28 80 29 81 32 82 30 83 56 84 57 85 65 86 58 87
REMARK SMILES IDX 59 88 63 89 66 90 60 91 61 92 64 93 62 94 41 95 42 96 50 97
REMARK SMILES IDX 43 98 44 99 48 100 51 101 45 102 46 103 49 104 47 105
REMARK H PARENT 5 6 90 26 12 39 71 58 39 69
REMARK Flexibility Score: inf
ROOT
ATOM      1  C   UNL A   1      34.700  33.186  29.373  1.00  0.00     0.021 C 
ENDROOT
BRANCH   1   2
ATOM      2  C   UNL A   1      34.221  32.441  28.124  1.00  0.00     0.116 C 
BRANCH   2   3
ATOM      3  N   UNL A   1      35.061  31.287  27.887  1.00  0.00    -0.356 N 
ATOM      4  C   UNL A   1      34.755  30.099  27.290  1.00  0.00     0.227 C 
ATOM      5  O   UNL A   1      35.552  29.175  27.456  1.00  0.00    -0.274 OA
ATOM      6  H   UNL A   1      35.988  31.370  28.204  1.00  0.00     0.163 HD
BRANCH   4   7
ATOM      7  C   UNL A   1      33.498  29.984  26.408  1.00  0.00     0.105 C 
ATOM      8  C   UNL A   1      32.236  30.404  27.176  1.00  0.00     0.023 C 
BRANCH   7   9
ATOM      9  C   UNL A   1      33.387  28.594  25.782  1.00  0.00    -0.033 A 
ATOM     10  C   UNL A   1      32.846  27.532  26.530  1.00  0.00     0.005 A 
ATOM     11  C   UNL A   1      33.798  28.328  24.470  1.00  0.00     0.044 A 
ATOM     12  C   UNL A   1      32.730  26.246  25.987  1.00  0.00     0.012 A 
ATOM     13  C   UNL A   1      33.692  27.049  23.942  1.00  0.00     0.131 A 
ATOM     14  C   UNL A   1      33.171  25.982  24.686  1.00  0.00     0.018 A 
ATOM     15  F   UNL A   1      34.131  26.851  22.688  1.00  0.00    -0.206 F 
BRANCH  14  16
ATOM     16  C   UNL A   1      33.189  24.626  24.136  1.00  0.00    -0.012 A 
ATOM     17  C   UNL A   1      32.695  24.319  22.862  1.00  0.00     0.009 A 
ATOM     18  C   UNL A   1      33.743  23.594  24.912  1.00  0.00     0.056 A 
ATOM     19  C   UNL A   1      32.773  23.013  22.369  1.00  0.00     0.004 A 
ATOM     20  C   UNL A   1      33.811  22.296  24.428  1.00  0.00     0.133 A 
ATOM     21  C   UNL A   1      33.333  22.000  23.151  1.00  0.00     0.047 A 
BRANCH  20  22
ATOM     22  O   UNL A   1      34.339  21.207  25.162  1.00  0.00    -0.410 OA
BRANCH  22  23
ATOM     23  C   UNL A   1      33.745  20.599  26.270  1.00  0.00     0.417 C 
ATOM     24  O   UNL A   1      33.571  21.113  27.372  1.00  0.00    -0.224 OA
ATOM     25  N   UNL A   1      33.223  19.355  26.030  1.00  0.00    -0.291 N 
ATOM     26  H   UNL A   1      32.667  18.993  26.756  1.00  0.00     0.173 HD
BRANCH  25  27
ATOM     27  C   UNL A   1      33.353  18.517  24.915  1.00  0.00     0.044 A 
ATOM     28  C   UNL A   1      32.461  18.727  23.859  1.00  0.00     0.026 A 
ATOM     29  C   UNL A   1      34.285  17.481  24.828  1.00  0.00     0.026 A 
ATOM     30  C   UNL A   1      32.533  17.945  22.706  1.00  0.00     0.002 A 
ATOM     31  C   UNL A   1      34.342  16.684  23.682  1.00  0.00     0.002 A 
ATOM     32  C   UNL A   1      33.475  16.922  22.618  1.00  0.00     0.000 A 
ENDBRANCH  25  27
ENDBRANCH  22  23
ENDBRANCH  20  22
ENDBRANCH  14  16
ENDBRANCH   7   9
ENDBRANCH   4   7
ENDBRANCH   2   3
ENDBRANCH   1   2
BRANCH   1  33
ATOM     33  C   UNL A   1      35.417  34.507  29.069  1.00  0.00     0.002 C 
BRANCH  33  34
ATOM     34  C   UNL A   1      34.603  35.500  28.235  1.00  0.00     0.002 C 
BRANCH  34  35
ATOM     35  C   UNL A   1      33.558  36.293  29.023  1.00  0.00     0.021 C 
BRANCH  35  36
ATOM     36  C   UNL A   1      32.645  35.441  29.901  1.00  0.00     0.116 C 
BRANCH  36  37
ATOM     37  N   UNL A   1      32.247  36.141  31.110  1.00  0.00    -0.352 N 
ATOM     38  C   UNL A   1      32.713  36.008  32.392  1.00  0.00     0.251 C 
ATOM     39  H   UNL A   1      31.535  36.811  30.991  1.00  0.00     0.163 HD
ATOM     40  O   UNL A   1      32.112  36.537  33.321  1.00  0.00    -0.269 OA
BRANCH  38  41
ATOM     41  C   UNL A   1      33.929  35.211  32.665  1.00  0.00     0.039 A 
ATOM     42  C   UNL A   1      35.176  35.801  32.444  1.00  0.00     0.014 A 
ATOM     43  C   UNL A   1      33.849  33.884  33.098  1.00  0.00     0.014 A 
ATOM     44  C   UNL A   1      36.341  35.076  32.700  1.00  0.00     0.010 A 
ATOM     45  C   UNL A   1      35.011  33.185  33.421  1.00  0.00     0.010 A 
ATOM     46  C   UNL A   1      36.269  33.771  33.216  1.00  0.00    -0.014 A 
BRANCH  46  47
ATOM     47  C   UNL A   1      37.508  33.021  33.543  1.00  0.00     0.031 A 
ATOM     48  C   UNL A   1      38.258  33.301  34.815  1.00  0.00     0.074 A 
ATOM     49  C   UNL A   1      37.970  32.101  32.674  1.00  0.00     0.049 A 
ATOM     50  N   UNL A   1      39.355  32.745  35.267  1.00  0.00    -0.248 NA
ATOM     51  C   UNL A   1      37.718  34.356  35.685  1.00  0.00     0.031 C 
ATOM     52  C   UNL A   1      37.363  31.782  31.380  1.00  0.00     0.029 A 
ATOM     53  N   UNL A   1      39.058  31.267  32.745  1.00  0.00    -0.354 N 
ATOM     54  C   UNL A   1      39.631  33.380  36.471  1.00  0.00     0.074 A 
ATOM     55  C   UNL A   1      38.627  34.405  36.649  1.00  0.00     0.031 C 
ATOM     56  C   UNL A   1      38.074  30.806  30.791  1.00  0.00     0.029 A 
ATOM     57  C   UNL A   1      39.199  30.452  31.650  1.00  0.00     0.049 A 
ATOM     58  H   UNL A   1      39.678  31.255  33.510  1.00  0.00     0.167 HD
ATOM     59  C   UNL A   1      40.616  33.111  37.362  1.00  0.00     0.037 A 
ATOM     60  C   UNL A   1      40.131  29.522  31.369  1.00  0.00     0.037 A 
ATOM     61  C   UNL A   1      41.611  32.085  37.187  1.00  0.00     0.049 A 
ATOM     62  C   UNL A   1      41.211  29.241  32.379  1.00  0.00     0.074 A 
ATOM     63  C   UNL A   1      42.633  31.715  38.044  1.00  0.00     0.029 A 
ATOM     64  N   UNL A   1      41.707  31.260  36.076  1.00  0.00    -0.354 N 
ATOM     65  N   UNL A   1      41.423  29.803  33.544  1.00  0.00    -0.248 NA
ATOM     66  C   UNL A   1      42.173  28.182  32.041  1.00  0.00     0.031 C 
ATOM     67  C   UNL A   1      43.369  30.693  37.436  1.00  0.00     0.029 A 
ATOM     68  C   UNL A   1      42.777  30.392  36.221  1.00  0.00     0.049 A 
ATOM     69  H   UNL A   1      41.102  31.287  35.298  1.00  0.00     0.167 HD
ATOM     70  C   UNL A   1      42.524  29.155  34.086  1.00  0.00     0.074 A 
ATOM     71  C   UNL A   1      42.920  28.138  33.135  1.00  0.00     0.031 C 
ATOM     72  C   UNL A   1      43.155  29.384  35.264  1.00  0.00     0.037 A 
BRANCH  59  73
ATOM     73  C   UNL A   1      40.654  33.928  38.621  1.00  0.00     0.064 A 
ATOM     74  C   UNL A   1      39.891  33.573  39.745  1.00  0.00     0.173 A 
ATOM     75  C   UNL A   1      41.493  35.047  38.726  1.00  0.00     0.173 A 
ATOM     76  F   UNL A   1      39.063  32.518  39.693  1.00  0.00    -0.203 F 
ATOM     77  C   UNL A   1      39.948  34.322  40.917  1.00  0.00     0.198 A 
ATOM     78  C   UNL A   1      41.569  35.777  39.910  1.00  0.00     0.198 A 
ATOM     79  F   UNL A   1      42.247  35.428  37.685  1.00  0.00    -0.203 F 
ATOM     80  F   UNL A   1      39.178  33.988  41.961  1.00  0.00    -0.200 F 
ATOM     81  C   UNL A   1      40.794  35.417  41.002  1.00  0.00     0.200 A 
ATOM     82  F   UNL A   1      42.397  36.828  39.996  1.00  0.00    -0.200 F 
ATOM     83  F   UNL A   1      40.856  36.130  42.135  1.00  0.00    -0.200 F 
ENDBRANCH  59  73
BRANCH  60  84
ATOM     84  C   UNL A   1      40.074  28.774  30.086  1.00  0.00     0.064 A 
ATOM     85  C   UNL A   1      39.420  27.537  29.997  1.00  0.00     0.173 A 
ATOM     86  C   UNL A   1      40.687  29.273  28.927  1.00  0.00     0.173 A 
ATOM     87  F   UNL A   1      38.835  27.009  31.083  1.00  0.00    -0.203 F 
ATOM     88  C   UNL A   1      39.407  26.814  28.806  1.00  0.00     0.198 A 
ATOM     89  C   UNL A   1      40.646  28.564  27.729  1.00  0.00     0.198 A 
ATOM     90  F   UNL A   1      41.319  30.456  28.957  1.00  0.00    -0.203 F 
ATOM     91  F   UNL A   1      38.822  25.609  28.764  1.00  0.00    -0.200 F 
ATOM     92  C   UNL A   1      40.016  27.330  27.671  1.00  0.00     0.200 A 
ATOM     93  F   UNL A   1      41.222  29.073  26.632  1.00  0.00    -0.200 F 
ATOM     94  F   UNL A   1      40.002  26.635  26.527  1.00  0.00    -0.200 F 
ENDBRANCH  60  84
BRANCH  72  95
ATOM     95  C   UNL A   1      44.322  28.499  35.596  1.00  0.00     0.064 A 
ATOM     96  C   UNL A   1      44.154  27.290  36.289  1.00  0.00     0.173 A 
ATOM     97  C   UNL A   1      45.620  28.856  35.203  1.00  0.00     0.173 A 
ATOM     98  F   UNL A   1      42.934  26.912  36.700  1.00  0.00    -0.203 F 
ATOM     99  C   UNL A   1      45.247  26.489  36.604  1.00  0.00     0.198 A 
ATOM    100  C   UNL A   1      46.707  28.036  35.493  1.00  0.00     0.198 A 
ATOM    101  F   UNL A   1      45.834  29.998  34.532  1.00  0.00    -0.203 F 
ATOM    102  F   UNL A   1      45.070  25.368  37.316  1.00  0.00    -0.200 F 
ATOM    103  C   UNL A   1      46.522  26.859  36.202  1.00  0.00     0.200 A 
ATOM    104  F   UNL A   1      47.937  28.390  35.092  1.00  0.00    -0.200 F 
ATOM    105  F   UNL A   1      47.574  26.087  36.507  1.00  0.00    -0.200 F 
ENDBRANCH  72  95
ENDBRANCH  46  47
ENDBRANCH  38  41
ENDBRANCH  36  37
ENDBRANCH  35  36
ENDBRANCH  34  35
ENDBRANCH  33  34
ENDBRANCH   1  33
TORSDOF 18
ENDMDL
MODEL 2
REMARK VINA RESULT:     -12.0      4.210      6.178
REMARK SMILES C[C@@H](C(=O)NCCCCCCNC(=O)c1ccc(-c2c3nc(c(-c4c(F)c(F)c(F)c(F)c4F)c4ccc([nH]4)c(-c4c(F)c(F)c(F)c(F)c4F)c4nc(c(-c5c(F)c(F)c(F)c(F)c5F)c5ccc2[nH]5)C=C4)C=C3)cc1)c1ccc(-c2cccc(OC(=O)Nc3ccccc3)c2)c(F)c1
REMARK SMILES IDX 7 1 6 2 5 3 3 4 4 5 2 7 1 8 78 9 79 10 100 11 80 12 98 13
REMARK SMILES IDX 81 14 99 15 82 16 83 17 97 18 84 19 86 20 85 21 87 22 88 23
REMARK SMILES IDX 89 24 90 25 91 27 92 28 96 29 93 30 95 31 94 32 8 33 9 34
REMARK SMILES IDX 10 35 11 36 12 37 13 38 14 40 15 41 16 42 77 43 17 44 76 45
REMARK SMILES IDX 18 46 19 47 20 48 70 49 21 50 75 51 69 52 71 53 22 54 74 55
REMARK SMILES IDX 68 56 67 57 23 59 55 60 35 61 54 62 36 63 39 64 53 65 72 66
REMARK SMILES IDX 37 67 38 68 52 70 73 71 40 72 24 73 25 74 33 75 26 76 27 77
REMARK SMILES IDX 31 78 34 79 28 80 29 81 32 82 30 83 56 84 57 85 65 86 58 87
REMARK SMILES IDX 59 88 63 89 66 90 60 91 61 92 64 93 62 94 41 95 42 96 50 97
REMARK SMILES IDX 43 98 44 99 48 100 51 101 45 102 46 103 49 104 47 105
REMARK H PARENT 5 6 90 26 12 39 71 58 39 69
REMARK Flexibility Score: inf
ROOT
ATOM      1  C   UNL A   1      31.181  30.658  25.007  1.00  0.00     0.021 C 
ENDROOT
BRANCH   1   2
ATOM      2  C   UNL A   1      29.721  30.495  24.572  1.00  0.00     0.116 C 
BRANCH   2   3
ATOM      3  N   UNL A   1      29.590  30.805  23.165  1.00  0.00    -0.356 N 
ATOM      4  C   UNL A   1      29.278  29.984  22.121  1.00  0.00     0.227 C 
ATOM      5  O   UNL A   1      29.500  30.418  20.990  1.00  0.00    -0.274 OA
ATOM      6  H   UNL A   1      29.748  31.746  22.926  1.00  0.00     0.163 HD
BRANCH   4   7
ATOM      7  C   UNL A   1      28.623  28.617  22.390  1.00  0.00     0.105 C 
ATOM      8  C   UNL A   1      27.351  28.762  23.237  1.00  0.00     0.023 C 
BRANCH   7   9
ATOM      9  C   UNL A   1      29.629  27.628  22.980  1.00  0.00    -0.033 A 
ATOM     10  C   UNL A   1      30.882  27.454  22.362  1.00  0.00     0.005 A 
ATOM     11  C   UNL A   1      29.357  26.880  24.131  1.00  0.00     0.044 A 
ATOM     12  C   UNL A   1      31.826  26.557  22.876  1.00  0.00     0.012 A 
ATOM     13  C   UNL A   1      30.293  25.983  24.629  1.00  0.00     0.131 A 
ATOM     14  C   UNL A   1      31.535  25.791  24.011  1.00  0.00     0.018 A 
ATOM     15  F   UNL A   1      29.962  25.274  25.720  1.00  0.00    -0.206 F 
BRANCH  14  16
ATOM     16  C   UNL A   1      32.443  24.750  24.495  1.00  0.00    -0.012 A 
ATOM     17  C   UNL A   1      33.442  24.998  25.445  1.00  0.00     0.009 A 
ATOM     18  C   UNL A   1      32.290  23.444  24.000  1.00  0.00     0.056 A 
ATOM     19  C   UNL A   1      34.256  23.957  25.902  1.00  0.00     0.004 A 
ATOM     20  C   UNL A   1      33.105  22.414  24.445  1.00  0.00     0.133 A 
ATOM     21  C   UNL A   1      34.087  22.664  25.404  1.00  0.00     0.047 A 
BRANCH  20  22
ATOM     22  O   UNL A   1      33.018  21.080  23.976  1.00  0.00    -0.410 OA
BRANCH  22  23
ATOM     23  C   UNL A   1      32.241  20.637  22.904  1.00  0.00     0.417 C 
ATOM     24  O   UNL A   1      31.683  21.347  22.072  1.00  0.00    -0.224 OA
ATOM     25  N   UNL A   1      32.216  19.277  22.738  1.00  0.00    -0.291 N 
ATOM     26  H   UNL A   1      31.807  18.971  21.898  1.00  0.00     0.173 HD
BRANCH  25  27
ATOM     27  C   UNL A   1      32.682  18.253  23.573  1.00  0.00     0.044 A 
ATOM     28  C   UNL A   1      33.589  17.346  23.015  1.00  0.00     0.026 A 
ATOM     29  C   UNL A   1      32.263  18.077  24.893  1.00  0.00     0.026 A 
ATOM     30  C   UNL A   1      34.112  16.305  23.783  1.00  0.00     0.002 A 
ATOM     31  C   UNL A   1      32.771  17.022  25.655  1.00  0.00     0.002 A 
ATOM     32  C   UNL A   1      33.702  16.143  25.105  1.00  0.00     0.000 A 
ENDBRANCH  25  27
ENDBRANCH  22  23
ENDBRANCH  20  22
ENDBRANCH  14  16
ENDBRANCH   7   9
ENDBRANCH   4   7
ENDBRANCH   2   3
ENDBRANCH   1   2
BRANCH   1  33
ATOM     33  C   UNL A   1      31.904  29.328  25.257  1.00  0.00     0.002 C 
BRANCH  33  34
ATOM     34  C   UNL A   1      31.709  28.747  26.659  1.00  0.00     0.002 C 
BRANCH  34  35
ATOM     35  C   UNL A   1      32.953  28.086  27.258  1.00  0.00     0.021 C 
BRANCH  35  36
ATOM     36  C   UNL A   1      34.224  28.926  27.164  1.00  0.00     0.116 C 
BRANCH  36  37
ATOM     37  N   UNL A   1      34.072  30.216  27.815  1.00  0.00    -0.352 N 
ATOM     38  C   UNL A   1      34.917  30.867  28.674  1.00  0.00     0.251 C 
ATOM     39  H   UNL A   1      33.235  30.693  27.609  1.00  0.00     0.163 HD
ATOM     40  O   UNL A   1      34.528  31.857  29.285  1.00  0.00    -0.269 OA
BRANCH  38  41
ATOM     41  C   UNL A   1      36.296  30.372  28.883  1.00  0.00     0.039 A 
ATOM     42  C   UNL A   1      37.257  30.644  27.907  1.00  0.00     0.014 A 
ATOM     43  C   UNL A   1      36.635  29.616  30.009  1.00  0.00     0.014 A 
ATOM     44  C   UNL A   1      38.567  30.196  28.081  1.00  0.00     0.010 A 
ATOM     45  C   UNL A   1      37.958  29.230  30.216  1.00  0.00     0.010 A 
ATOM     46  C   UNL A   1      38.936  29.509  29.250  1.00  0.00    -0.014 A 
BRANCH  46  47
ATOM     47  C   UNL A   1      40.342  29.082  29.462  1.00  0.00     0.031 A 
ATOM     48  C   UNL A   1      41.305  29.965  30.206  1.00  0.00     0.074 A 
ATOM     49  C   UNL A   1      40.757  27.904  28.958  1.00  0.00     0.049 A 
ATOM     50  N   UNL A   1      42.568  29.758  30.486  1.00  0.00    -0.248 NA
ATOM     51  C   UNL A   1      40.790  31.259  30.678  1.00  0.00     0.031 C 
ATOM     52  C   UNL A   1      39.933  26.987  28.167  1.00  0.00     0.029 A 
ATOM     53  N   UNL A   1      41.975  27.276  29.031  1.00  0.00    -0.354 N 
ATOM     54  C   UNL A   1      42.992  30.890  31.170  1.00  0.00     0.074 A 
ATOM     55  C   UNL A   1      41.874  31.808  31.205  1.00  0.00     0.031 C 
ATOM     56  C   UNL A   1      40.662  25.904  27.850  1.00  0.00     0.029 A 
ATOM     57  C   UNL A   1      42.009  26.064  28.388  1.00  0.00     0.049 A 
ATOM     58  H   UNL A   1      42.752  27.659  29.501  1.00  0.00     0.167 HD
ATOM     59  C   UNL A   1      44.196  31.130  31.743  1.00  0.00     0.037 A 
ATOM     60  C   UNL A   1      43.014  25.179  28.248  1.00  0.00     0.037 A 
ATOM     61  C   UNL A   1      45.306  30.213  31.715  1.00  0.00     0.049 A 
ATOM     62  C   UNL A   1      44.340  25.469  28.899  1.00  0.00     0.074 A 
ATOM     63  C   UNL A   1      46.558  30.350  32.289  1.00  0.00     0.029 A 
ATOM     64  N   UNL A   1      45.295  28.981  31.076  1.00  0.00    -0.354 N 
ATOM     65  N   UNL A   1      44.709  26.514  29.598  1.00  0.00    -0.248 NA
ATOM     66  C   UNL A   1      45.385  24.446  28.755  1.00  0.00     0.031 C 
ATOM     67  C   UNL A   1      47.317  29.220  31.967  1.00  0.00     0.029 A 
ATOM     68  C   UNL A   1      46.521  28.355  31.232  1.00  0.00     0.049 A 
ATOM     69  H   UNL A   1      44.528  28.607  30.583  1.00  0.00     0.167 HD
ATOM     70  C   UNL A   1      46.016  26.266  29.995  1.00  0.00     0.074 A 
ATOM     71  C   UNL A   1      46.368  24.960  29.481  1.00  0.00     0.031 C 
ATOM     72  C   UNL A   1      46.854  27.053  30.715  1.00  0.00     0.037 A 
BRANCH  59  73
ATOM     73  C   UNL A   1      44.372  32.432  32.471  1.00  0.00     0.064 A 
ATOM     74  C   UNL A   1      44.128  32.536  33.850  1.00  0.00     0.173 A 
ATOM     75  C   UNL A   1      44.831  33.574  31.800  1.00  0.00     0.173 A 
ATOM     76  F   UNL A   1      43.675  31.475  34.537  1.00  0.00    -0.203 F 
ATOM     77  C   UNL A   1      44.314  33.740  34.523  1.00  0.00     0.198 A 
ATOM     78  C   UNL A   1      45.044  34.769  32.482  1.00  0.00     0.198 A 
ATOM     79  F   UNL A   1      45.084  33.530  30.483  1.00  0.00    -0.203 F 
ATOM     80  F   UNL A   1      44.033  33.824  35.831  1.00  0.00    -0.200 F 
ATOM     81  C   UNL A   1      44.780  34.853  33.841  1.00  0.00     0.200 A 
ATOM     82  F   UNL A   1      45.508  35.842  31.825  1.00  0.00    -0.200 F 
ATOM     83  F   UNL A   1      44.970  36.008  34.493  1.00  0.00    -0.200 F 
ENDBRANCH  59  73
BRANCH  60  84
ATOM     84  C   UNL A   1      42.802  23.926  27.477  1.00  0.00     0.064 A 
ATOM     85  C   UNL A   1      42.278  22.779  28.089  1.00  0.00     0.173 A 
ATOM     86  C   UNL A   1      43.134  23.846  26.117  1.00  0.00     0.173 A 
ATOM     87  F   UNL A   1      41.963  22.800  29.393  1.00  0.00    -0.203 F 
ATOM     88  C   UNL A   1      42.123  21.591  27.378  1.00  0.00     0.198 A 
ATOM     89  C   UNL A   1      42.948  22.667  25.399  1.00  0.00     0.198 A 
ATOM     90  F   UNL A   1      43.631  24.918  25.482  1.00  0.00    -0.203 F 
ATOM     91  F   UNL A   1      41.671  20.494  28.001  1.00  0.00    -0.200 F 
ATOM     92  C   UNL A   1      42.453  21.537  26.032  1.00  0.00     0.200 A 
ATOM     93  F   UNL A   1      43.254  22.624  24.095  1.00  0.00    -0.200 F 
ATOM     94  F   UNL A   1      42.303  20.395  25.348  1.00  0.00    -0.200 F 
ENDBRANCH  60  84
BRANCH  72  95
ATOM     95  C   UNL A   1      48.220  26.505  31.010  1.00  0.00     0.064 A 
ATOM     96  C   UNL A   1      48.470  25.730  32.153  1.00  0.00     0.173 A 
ATOM     97  C   UNL A   1      49.287  26.742  30.130  1.00  0.00     0.173 A 
ATOM     98  F   UNL A   1      47.487  25.486  33.032  1.00  0.00    -0.203 F 
ATOM     99  C   UNL A   1      49.746  25.243  32.421  1.00  0.00     0.198 A 
ATOM    100  C   UNL A   1      50.554  26.227  30.386  1.00  0.00     0.198 A 
ATOM    101  F   UNL A   1      49.098  27.471  29.019  1.00  0.00    -0.203 F 
ATOM    102  F   UNL A   1      49.975  24.554  33.547  1.00  0.00    -0.200 F 
ATOM    103  C   UNL A   1      50.786  25.487  31.535  1.00  0.00     0.200 A 
ATOM    104  F   UNL A   1      51.554  26.454  29.523  1.00  0.00    -0.200 F 
ATOM    105  F   UNL A   1      52.014  25.017  31.795  1.00  0.00    -0.200 F 
ENDBRANCH  72  95
ENDBRANCH  46  47
ENDBRANCH  38  41
ENDBRANCH  36  37
ENDBRANCH  35  36
ENDBRANCH  34  35
ENDBRANCH  33  34
ENDBRANCH   1  33
TORSDOF 18
ENDMDL
MODEL 3
REMARK VINA RESULT:     -12.0      4.258     10.149
REMARK SMILES C[C@@H](C(=O)NCCCCCCNC(=O)c1ccc(-c2c3nc(c(-c4c(F)c(F)c(F)c(F)c4F)c4ccc([nH]4)c(-c4c(F)c(F)c(F)c(F)c4F)c4nc(c(-c5c(F)c(F)c(F)c(F)c5F)c5ccc2[nH]5)C=C4)C=C3)cc1)c1ccc(-c2cccc(OC(=O)Nc3ccccc3)c2)c(F)c1
REMARK SMILES IDX 7 1 6 2 5 3 3 4 4 5 2 7 1 8 78 9 79 10 100 11 80 12 98 13
REMARK SMILES IDX 81 14 99 15 82 16 83 17 97 18 84 19 86 20 85 21 87 22 88 23
REMARK SMILES IDX 89 24 90 25 91 27 92 28 96 29 93 30 95 31 94 32 8 33 9 34
REMARK SMILES IDX 10 35 11 36 12 37 13 38 14 40 15 41 16 42 77 43 17 44 76 45
REMARK SMILES IDX 18 46 19 47 20 48 70 49 21 50 75 51 69 52 71 53 22 54 74 55
REMARK SMILES IDX 68 56 67 57 23 59 55 60 35 61 54 62 36 63 39 64 53 65 72 66
REMARK SMILES IDX 37 67 38 68 52 70 73 71 40 72 24 73 25 74 33 75 26 76 27 77
REMARK SMILES IDX 31 78 34 79 28 80 29 81 32 82 30 83 56 84 57 85 65 86 58 87
REMARK SMILES IDX 59 88 63 89 66 90 60 91 61 92 64 93 62 94 41 95 42 96 50 97
REMARK SMILES IDX 43 98 44 99 48 100 51 101 45 102 46 103 49 104 47 105
REMARK H PARENT 5 6 90 26 12 39 71 58 39 69
REMARK Flexibility Score: inf
ROOT
ATOM      1  C   UNL A   1      35.708  20.168  25.361  1.00  0.00     0.021 C 
ENDROOT
BRANCH   1   2
ATOM      2  C   UNL A   1      35.119  19.082  24.458  1.00  0.00     0.116 C 
BRANCH   2   3
ATOM      3  N   UNL A   1      34.234  18.232  25.224  1.00  0.00    -0.356 N 
ATOM      4  C   UNL A   1      32.889  18.041  25.098  1.00  0.00     0.227 C 
ATOM      5  O   UNL A   1      32.318  17.487  26.039  1.00  0.00    -0.274 OA
ATOM      6  H   UNL A   1      34.665  17.715  25.942  1.00  0.00     0.163 HD
BRANCH   4   7
ATOM      7  C   UNL A   1      32.173  18.456  23.800  1.00  0.00     0.105 C 
ATOM      8  C   UNL A   1      32.754  17.722  22.583  1.00  0.00     0.023 C 
BRANCH   7   9
ATOM      9  C   UNL A   1      32.161  19.976  23.636  1.00  0.00    -0.033 A 
ATOM     10  C   UNL A   1      32.265  20.540  22.351  1.00  0.00     0.005 A 
ATOM     11  C   UNL A   1      32.040  20.846  24.726  1.00  0.00     0.044 A 
ATOM     12  C   UNL A   1      32.257  21.929  22.165  1.00  0.00     0.012 A 
ATOM     13  C   UNL A   1      32.046  22.221  24.536  1.00  0.00     0.131 A 
ATOM     14  C   UNL A   1      32.166  22.792  23.263  1.00  0.00     0.018 A 
ATOM     15  F   UNL A   1      31.956  23.004  25.624  1.00  0.00    -0.206 F 
BRANCH  14  16
ATOM     16  C   UNL A   1      32.290  24.243  23.117  1.00  0.00    -0.012 A 
ATOM     17  C   UNL A   1      32.930  24.842  22.026  1.00  0.00     0.009 A 
ATOM     18  C   UNL A   1      31.723  25.067  24.105  1.00  0.00     0.056 A 
ATOM     19  C   UNL A   1      32.985  26.235  21.916  1.00  0.00     0.004 A 
ATOM     20  C   UNL A   1      31.787  26.449  24.002  1.00  0.00     0.133 A 
ATOM     21  C   UNL A   1      32.412  27.040  22.903  1.00  0.00     0.047 A 
BRANCH  20  22
ATOM     22  O   UNL A   1      31.255  27.337  24.968  1.00  0.00    -0.410 OA
BRANCH  22  23
ATOM     23  C   UNL A   1      30.819  26.992  26.248  1.00  0.00     0.417 C 
ATOM     24  O   UNL A   1      29.982  26.135  26.521  1.00  0.00    -0.224 OA
ATOM     25  N   UNL A   1      31.489  27.610  27.270  1.00  0.00    -0.291 N 
ATOM     26  H   UNL A   1      31.298  27.254  28.166  1.00  0.00     0.173 HD
BRANCH  25  27
ATOM     27  C   UNL A   1      32.406  28.670  27.241  1.00  0.00     0.044 A 
ATOM     28  C   UNL A   1      33.763  28.330  27.238  1.00  0.00     0.026 A 
ATOM     29  C   UNL A   1      32.038  30.016  27.256  1.00  0.00     0.026 A 
ATOM     30  C   UNL A   1      34.741  29.325  27.196  1.00  0.00     0.002 A 
ATOM     31  C   UNL A   1      33.017  31.011  27.236  1.00  0.00     0.002 A 
ATOM     32  C   UNL A   1      34.367  30.667  27.195  1.00  0.00     0.000 A 
ENDBRANCH  25  27
ENDBRANCH  22  23
ENDBRANCH  20  22
ENDBRANCH  14  16
ENDBRANCH   7   9
ENDBRANCH   4   7
ENDBRANCH   2   3
ENDBRANCH   1   2
BRANCH   1  33
ATOM     33  C   UNL A   1      35.187  21.578  25.055  1.00  0.00     0.002 C 
BRANCH  33  34
ATOM     34  C   UNL A   1      35.775  22.219  23.795  1.00  0.00     0.002 C 
BRANCH  34  35
ATOM     35  C   UNL A   1      36.563  23.508  24.040  1.00  0.00     0.021 C 
BRANCH  35  36
ATOM     36  C   UNL A   1      37.137  23.642  25.448  1.00  0.00     0.116 C 
BRANCH  36  37
ATOM     37  N   UNL A   1      38.225  22.709  25.682  1.00  0.00    -0.352 N 
ATOM     38  C   UNL A   1      39.476  22.934  26.195  1.00  0.00     0.251 C 
ATOM     39  H   UNL A   1      38.036  21.774  25.436  1.00  0.00     0.163 HD
ATOM     40  O   UNL A   1      40.333  22.060  26.127  1.00  0.00    -0.269 OA
BRANCH  38  41
ATOM     41  C   UNL A   1      39.805  24.237  26.815  1.00  0.00     0.039 A 
ATOM     42  C   UNL A   1      39.437  24.455  28.144  1.00  0.00     0.014 A 
ATOM     43  C   UNL A   1      40.436  25.251  26.087  1.00  0.00     0.014 A 
ATOM     44  C   UNL A   1      39.741  25.671  28.757  1.00  0.00     0.010 A 
ATOM     45  C   UNL A   1      40.802  26.437  26.720  1.00  0.00     0.010 A 
ATOM     46  C   UNL A   1      40.450  26.663  28.059  1.00  0.00    -0.014 A 
BRANCH  46  47
ATOM     47  C   UNL A   1      40.824  27.934  28.729  1.00  0.00     0.031 A 
ATOM     48  C   UNL A   1      42.230  28.159  29.212  1.00  0.00     0.074 A 
ATOM     49  C   UNL A   1      39.883  28.879  28.924  1.00  0.00     0.049 A 
ATOM     50  N   UNL A   1      42.738  29.204  29.816  1.00  0.00    -0.248 NA
ATOM     51  C   UNL A   1      43.185  27.059  29.010  1.00  0.00     0.031 C 
ATOM     52  C   UNL A   1      38.472  28.754  28.553  1.00  0.00     0.029 A 
ATOM     53  N   UNL A   1      39.969  30.128  29.484  1.00  0.00    -0.354 N 
ATOM     54  C   UNL A   1      44.069  28.888  30.060  1.00  0.00     0.074 A 
ATOM     55  C   UNL A   1      44.273  27.532  29.599  1.00  0.00     0.031 C 
ATOM     56  C   UNL A   1      37.831  29.889  28.874  1.00  0.00     0.029 A 
ATOM     57  C   UNL A   1      38.778  30.809  29.498  1.00  0.00     0.049 A 
ATOM     58  H   UNL A   1      40.808  30.502  29.842  1.00  0.00     0.167 HD
ATOM     59  C   UNL A   1      45.039  29.670  30.592  1.00  0.00     0.037 A 
ATOM     60  C   UNL A   1      38.480  32.037  29.961  1.00  0.00     0.037 A 
ATOM     61  C   UNL A   1      44.837  31.022  31.044  1.00  0.00     0.049 A 
ATOM     62  C   UNL A   1      39.579  32.885  30.544  1.00  0.00     0.074 A 
ATOM     63  C   UNL A   1      45.762  31.906  31.572  1.00  0.00     0.029 A 
ATOM     64  N   UNL A   1      43.620  31.688  31.017  1.00  0.00    -0.354 N 
ATOM     65  N   UNL A   1      40.847  32.599  30.709  1.00  0.00    -0.248 NA
ATOM     66  C   UNL A   1      39.207  34.236  30.989  1.00  0.00     0.031 C 
ATOM     67  C   UNL A   1      45.099  33.093  31.899  1.00  0.00     0.029 A 
ATOM     68  C   UNL A   1      43.769  32.967  31.530  1.00  0.00     0.049 A 
ATOM     69  H   UNL A   1      42.775  31.308  30.683  1.00  0.00     0.167 HD
ATOM     70  C   UNL A   1      41.428  33.736  31.254  1.00  0.00     0.074 A 
ATOM     71  C   UNL A   1      40.378  34.727  31.368  1.00  0.00     0.031 C 
ATOM     72  C   UNL A   1      42.713  33.941  31.634  1.00  0.00     0.037 A 
BRANCH  59  73
ATOM     73  C   UNL A   1      46.419  29.087  30.697  1.00  0.00     0.064 A 
ATOM     74  C   UNL A   1      47.407  29.371  29.741  1.00  0.00     0.173 A 
ATOM     75  C   UNL A   1      46.776  28.275  31.784  1.00  0.00     0.173 A 
ATOM     76  F   UNL A   1      47.114  30.133  28.675  1.00  0.00    -0.203 F 
ATOM     77  C   UNL A   1      48.691  28.846  29.856  1.00  0.00     0.198 A 
ATOM     78  C   UNL A   1      48.070  27.775  31.911  1.00  0.00     0.198 A 
ATOM     79  F   UNL A   1      45.873  27.974  32.730  1.00  0.00    -0.203 F 
ATOM     80  F   UNL A   1      49.603  29.098  28.907  1.00  0.00    -0.200 F 
ATOM     81  C   UNL A   1      49.023  28.056  30.946  1.00  0.00     0.200 A 
ATOM     82  F   UNL A   1      48.394  27.023  32.972  1.00  0.00    -0.200 F 
ATOM     83  F   UNL A   1      50.264  27.561  31.061  1.00  0.00    -0.200 F 
ENDBRANCH  59  73
BRANCH  60  84
ATOM     84  C   UNL A   1      37.087  32.549  29.876  1.00  0.00     0.064 A 
ATOM     85  C   UNL A   1      36.651  33.279  28.762  1.00  0.00     0.173 A 
ATOM     86  C   UNL A   1      36.170  32.332  30.914  1.00  0.00     0.173 A 
ATOM     87  F   UNL A   1      37.497  33.529  27.751  1.00  0.00    -0.203 F 
ATOM     88  C   UNL A   1      35.359  33.799  28.703  1.00  0.00     0.198 A 
ATOM     89  C   UNL A   1      34.869  32.824  30.840  1.00  0.00     0.198 A 
ATOM     90  F   UNL A   1      36.535  31.632  31.999  1.00  0.00    -0.203 F 
ATOM     91  F   UNL A   1      34.986  34.539  27.651  1.00  0.00    -0.200 F 
ATOM     92  C   UNL A   1      34.467  33.566  29.739  1.00  0.00     0.200 A 
ATOM     93  F   UNL A   1      34.006  32.585  31.837  1.00  0.00    -0.200 F 
ATOM     94  F   UNL A   1      33.226  34.065  29.682  1.00  0.00    -0.200 F 
ENDBRANCH  60  84
BRANCH  72  95
ATOM     95  C   UNL A   1      43.056  35.296  32.181  1.00  0.00     0.064 A 
ATOM     96  C   UNL A   1      43.665  36.278  31.383  1.00  0.00     0.173 A 
ATOM     97  C   UNL A   1      42.756  35.624  33.511  1.00  0.00     0.173 A 
ATOM     98  F   UNL A   1      43.985  36.009  30.108  1.00  0.00    -0.203 F 
ATOM     99  C   UNL A   1      43.992  37.524  31.909  1.00  0.00     0.198 A 
ATOM    100  C   UNL A   1      43.056  36.882  34.024  1.00  0.00     0.198 A 
ATOM    101  F   UNL A   1      42.167  34.724  34.313  1.00  0.00    -0.203 F 
ATOM    102  F   UNL A   1      44.625  38.425  31.146  1.00  0.00    -0.200 F 
ATOM    103  C   UNL A   1      43.683  37.828  33.227  1.00  0.00     0.200 A 
ATOM    104  F   UNL A   1      42.746  37.178  35.294  1.00  0.00    -0.200 F 
ATOM    105  F   UNL A   1      43.999  39.028  33.731  1.00  0.00    -0.200 F 
ENDBRANCH  72  95
ENDBRANCH  46  47
ENDBRANCH  38  41
ENDBRANCH  36  37
ENDBRANCH  35  36
ENDBRANCH  34  35
ENDBRANCH  33  34
ENDBRANCH   1  33
TORSDOF 18
ENDMDL
