MODEL 1
REMARK VINA RESULT:     -12.4      0.000      0.000
REMARK SMILES Cc1ccc(C#N)cc1Nc1cc(C)c(N)c(C(=O)NCCCCCCNC(=O)c2ccc(-c3c4nc(c(-c5c(F)c(F)c(F)c(F)c5F)c5ccc([nH]5)c(-c5c(F)c(F)c(F)c(F)c5F)c5nc(c(-c6c(F)c(F)c(F)c(F)c6F)c6ccc3[nH]6)C=C5)C=C4)cc2)c1
REMARK SMILES IDX 23 1 22 2 21 3 20 4 18 5 19 6 17 8 11 9 12 10 93 11 13 12
REMARK SMILES IDX 14 13 15 14 10 15 9 17 1 18 2 19 3 20 4 21 8 22 5 23 6 24
REMARK SMILES IDX 7 25 16 26 24 29 25 30 26 31 27 32 28 33 29 35 30 36 31 37
REMARK SMILES IDX 92 38 32 39 91 40 33 41 34 42 35 43 85 44 36 45 90 46 84 47
REMARK SMILES IDX 86 48 37 49 89 50 83 51 82 52 38 54 70 55 50 56 69 57 51 58
REMARK SMILES IDX 54 59 68 60 87 61 52 62 53 63 67 65 88 66 55 67 39 68 40 69
REMARK SMILES IDX 48 70 41 71 42 72 46 73 49 74 43 75 44 76 47 77 45 78 71 79
REMARK SMILES IDX 72 80 80 81 73 82 74 83 78 84 81 85 75 86 76 87 79 88 77 89
REMARK SMILES IDX 56 90 57 91 65 92 58 93 59 94 63 95 66 96 60 97 61 98 64 99
REMARK SMILES IDX 62 100
REMARK H PARENT 20 7 10 16 16 27 16 28 27 34 86 53 54 64
REMARK Flexibility Score: inf
ROOT
ATOM      1  C   UNL A   1      32.289  29.613  27.243  1.00  0.00     0.002 C 
ENDROOT
BRANCH   1   2
ATOM      2  C   UNL A   1      33.791  29.290  27.272  1.00  0.00     0.021 C 
BRANCH   2   3
ATOM      3  C   UNL A   1      34.154  28.162  26.303  1.00  0.00     0.116 C 
BRANCH   3   4
ATOM      4  N   UNL A   1      34.191  28.687  24.954  1.00  0.00    -0.352 N 
ATOM      5  C   UNL A   1      33.553  28.381  23.780  1.00  0.00     0.253 C 
ATOM      6  O   UNL A   1      33.958  29.003  22.792  1.00  0.00    -0.269 OA
ATOM      7  H   UNL A   1      34.820  29.436  24.857  1.00  0.00     0.163 HD
BRANCH   5   8
ATOM      8  C   UNL A   1      32.384  27.437  23.657  1.00  0.00     0.065 A 
ATOM      9  C   UNL A   1      31.471  25.176  23.823  1.00  0.00     0.040 A 
ATOM     10  C   UNL A   1      30.184  25.695  23.743  1.00  0.00     0.031 A 
ATOM     11  C   UNL A   1      32.551  26.048  23.687  1.00  0.00     0.042 A 
ATOM     12  C   UNL A   1      29.966  27.075  23.571  1.00  0.00    -0.025 A 
ATOM     13  C   UNL A   1      28.537  27.519  23.401  1.00  0.00     0.047 C 
ATOM     14  C   UNL A   1      31.064  27.965  23.583  1.00  0.00     0.047 A 
BRANCH   9  15
ATOM     15  N   UNL A   1      31.690  23.829  24.165  1.00  0.00    -0.355 N 
ATOM     16  H   UNL A   1      31.244  23.159  23.599  1.00  0.00     0.167 HD
BRANCH  15  17
ATOM     17  C   UNL A   1      32.479  23.325  25.231  1.00  0.00     0.043 A 
ATOM     18  C   UNL A   1      30.462  23.401  26.783  1.00  0.00     0.046 C 
ATOM     19  C   UNL A   1      31.913  23.118  26.508  1.00  0.00    -0.027 A 
ATOM     20  C   UNL A   1      32.710  22.622  27.557  1.00  0.00     0.007 A 
ATOM     21  C   UNL A   1      34.055  22.317  27.353  1.00  0.00     0.020 A 
ATOM     22  C   UNL A   1      33.830  22.974  25.039  1.00  0.00     0.045 A 
ATOM     23  C   UNL A   1      34.617  22.489  26.090  1.00  0.00     0.054 A 
BRANCH  23  24
ATOM     24  C   UNL A   1      36.002  22.179  25.875  1.00  0.00     0.099 C 
ATOM     25  N   UNL A   1      37.121  21.934  25.711  1.00  0.00    -0.192 NA
ENDBRANCH  23  24
ENDBRANCH  15  17
ENDBRANCH   9  15
BRANCH  14  26
ATOM     26  N   UNL A   1      30.851  29.333  23.402  1.00  0.00    -0.398 N 
ATOM     27  H   UNL A   1      30.790  29.928  24.184  1.00  0.00     0.156 HD
ATOM     28  H   UNL A   1      30.763  29.702  22.494  1.00  0.00     0.156 HD
ENDBRANCH  14  26
ENDBRANCH   5   8
ENDBRANCH   3   4
ENDBRANCH   2   3
ENDBRANCH   1   2
BRANCH   1  29
ATOM     29  C   UNL A   1      31.902  30.716  26.249  1.00  0.00     0.002 C 
BRANCH  29  30
ATOM     30  C   UNL A   1      31.511  32.039  26.905  1.00  0.00     0.021 C 
BRANCH  30  31
ATOM     31  C   UNL A   1      32.698  32.784  27.498  1.00  0.00     0.116 C 
BRANCH  31  32
ATOM     32  N   UNL A   1      32.413  34.203  27.668  1.00  0.00    -0.352 N 
ATOM     33  C   UNL A   1      32.942  35.090  28.572  1.00  0.00     0.251 C 
ATOM     34  H   UNL A   1      31.748  34.578  27.046  1.00  0.00     0.163 HD
ATOM     35  O   UNL A   1      32.437  36.194  28.742  1.00  0.00    -0.269 OA
BRANCH  33  36
ATOM     36  C   UNL A   1      34.115  34.674  29.364  1.00  0.00     0.039 A 
ATOM     37  C   UNL A   1      35.377  34.644  28.770  1.00  0.00     0.014 A 
ATOM     38  C   UNL A   1      33.937  34.236  30.677  1.00  0.00     0.014 A 
ATOM     39  C   UNL A   1      36.414  33.981  29.409  1.00  0.00     0.010 A 
ATOM     40  C   UNL A   1      35.016  33.673  31.363  1.00  0.00     0.010 A 
ATOM     41  C   UNL A   1      36.245  33.483  30.710  1.00  0.00    -0.014 A 
BRANCH  41  42
ATOM     42  C   UNL A   1      37.359  32.744  31.358  1.00  0.00     0.031 A 
ATOM     43  C   UNL A   1      38.049  31.614  30.642  1.00  0.00     0.074 A 
ATOM     44  C   UNL A   1      37.784  33.130  32.577  1.00  0.00     0.049 A 
ATOM     45  N   UNL A   1      39.025  30.846  31.060  1.00  0.00    -0.248 NA
ATOM     46  C   UNL A   1      37.585  31.296  29.282  1.00  0.00     0.031 C 
ATOM     47  C   UNL A   1      37.212  34.229  33.358  1.00  0.00     0.029 A 
ATOM     48  N   UNL A   1      38.803  32.659  33.365  1.00  0.00    -0.354 N 
ATOM     49  C   UNL A   1      39.274  29.950  30.029  1.00  0.00     0.074 A 
ATOM     50  C   UNL A   1      38.326  30.241  28.977  1.00  0.00     0.031 C 
ATOM     51  C   UNL A   1      37.913  34.376  34.491  1.00  0.00     0.029 A 
ATOM     52  C   UNL A   1      38.930  33.333  34.555  1.00  0.00     0.049 A 
ATOM     53  H   UNL A   1      39.386  31.911  33.104  1.00  0.00     0.167 HD
ATOM     54  C   UNL A   1      40.221  28.984  29.964  1.00  0.00     0.037 A 
ATOM     55  C   UNL A   1      39.754  33.118  35.598  1.00  0.00     0.037 A 
ATOM     56  C   UNL A   1      41.178  28.715  31.006  1.00  0.00     0.049 A 
ATOM     57  C   UNL A   1      40.746  31.992  35.524  1.00  0.00     0.074 A 
ATOM     58  C   UNL A   1      42.192  27.773  31.019  1.00  0.00     0.029 A 
ATOM     59  N   UNL A   1      41.238  29.383  32.220  1.00  0.00    -0.354 N 
ATOM     60  N   UNL A   1      40.990  31.169  34.533  1.00  0.00    -0.248 NA
ATOM     61  C   UNL A   1      41.577  31.763  36.713  1.00  0.00     0.031 C 
ATOM     62  C   UNL A   1      42.822  27.826  32.264  1.00  0.00     0.029 A 
ATOM     63  C   UNL A   1      42.250  28.849  33.002  1.00  0.00     0.049 A 
ATOM     64  H   UNL A   1      40.649  30.126  32.487  1.00  0.00     0.167 HD
ATOM     65  C   UNL A   1      42.010  30.337  34.971  1.00  0.00     0.074 A 
ATOM     66  C   UNL A   1      42.362  30.775  36.305  1.00  0.00     0.031 C 
ATOM     67  C   UNL A   1      42.596  29.298  34.328  1.00  0.00     0.037 A 
BRANCH  54  68
ATOM     68  C   UNL A   1      40.282  28.130  28.727  1.00  0.00     0.064 A 
ATOM     69  C   UNL A   1      41.040  28.506  27.609  1.00  0.00     0.173 A 
ATOM     70  C   UNL A   1      39.655  26.875  28.701  1.00  0.00     0.173 A 
ATOM     71  F   UNL A   1      41.653  29.700  27.577  1.00  0.00    -0.203 F 
ATOM     72  C   UNL A   1      41.162  27.661  26.508  1.00  0.00     0.198 A 
ATOM     73  C   UNL A   1      39.805  26.018  27.613  1.00  0.00     0.198 A 
ATOM     74  F   UNL A   1      38.924  26.461  29.747  1.00  0.00    -0.203 F 
ATOM     75  F   UNL A   1      41.870  28.054  25.440  1.00  0.00    -0.200 F 
ATOM     76  C   UNL A   1      40.557  26.413  26.516  1.00  0.00     0.200 A 
ATOM     77  F   UNL A   1      39.238  24.805  27.633  1.00  0.00    -0.200 F 
ATOM     78  F   UNL A   1      40.700  25.590  25.469  1.00  0.00    -0.200 F 
ENDBRANCH  54  68
BRANCH  55  79
ATOM     79  C   UNL A   1      39.661  33.986  36.802  1.00  0.00     0.064 A 
ATOM     80  C   UNL A   1      38.873  33.615  37.899  1.00  0.00     0.173 A 
ATOM     81  C   UNL A   1      40.369  35.196  36.887  1.00  0.00     0.173 A 
ATOM     82  F   UNL A   1      38.163  32.478  37.860  1.00  0.00    -0.203 F 
ATOM     83  C   UNL A   1      38.786  34.425  39.029  1.00  0.00     0.198 A 
ATOM     84  C   UNL A   1      40.311  35.986  38.033  1.00  0.00     0.198 A 
ATOM     85  F   UNL A   1      41.141  35.597  35.866  1.00  0.00    -0.203 F 
ATOM     86  F   UNL A   1      37.991  34.068  40.047  1.00  0.00    -0.200 F 
ATOM     87  C   UNL A   1      39.513  35.604  39.099  1.00  0.00     0.200 A 
ATOM     88  F   UNL A   1      41.033  37.112  38.103  1.00  0.00    -0.200 F 
ATOM     89  F   UNL A   1      39.440  36.375  40.192  1.00  0.00    -0.200 F 
ENDBRANCH  55  79
BRANCH  67  90
ATOM     90  C   UNL A   1      43.695  28.564  35.044  1.00  0.00     0.064 A 
ATOM     91  C   UNL A   1      43.431  27.432  35.830  1.00  0.00     0.173 A 
ATOM     92  C   UNL A   1      45.034  28.954  34.884  1.00  0.00     0.173 A 
ATOM     93  F   UNL A   1      42.168  27.025  36.025  1.00  0.00    -0.203 F 
ATOM     94  C   UNL A   1      44.465  26.731  36.443  1.00  0.00     0.198 A 
ATOM     95  C   UNL A   1      46.068  28.227  35.468  1.00  0.00     0.198 A 
ATOM     96  F   UNL A   1      45.344  30.023  34.135  1.00  0.00    -0.203 F 
ATOM     97  F   UNL A   1      44.185  25.679  37.225  1.00  0.00    -0.200 F 
ATOM     98  C   UNL A   1      45.782  27.120  36.252  1.00  0.00     0.200 A 
ATOM     99  F   UNL A   1      47.341  28.592  35.262  1.00  0.00    -0.200 F 
ATOM    100  F   UNL A   1      46.777  26.430  36.827  1.00  0.00    -0.200 F 
ENDBRANCH  67  90
ENDBRANCH  41  42
ENDBRANCH  33  36
ENDBRANCH  31  32
ENDBRANCH  30  31
ENDBRANCH  29  30
ENDBRANCH   1  29
TORSDOF 17
ENDMDL
MODEL 2
REMARK VINA RESULT:     -12.3      0.787      7.206
REMARK SMILES Cc1ccc(C#N)cc1Nc1cc(C)c(N)c(C(=O)NCCCCCCNC(=O)c2ccc(-c3c4nc(c(-c5c(F)c(F)c(F)c(F)c5F)c5ccc([nH]5)c(-c5c(F)c(F)c(F)c(F)c5F)c5nc(c(-c6c(F)c(F)c(F)c(F)c6F)c6ccc3[nH]6)C=C5)C=C4)cc2)c1
REMARK SMILES IDX 23 1 22 2 21 3 20 4 18 5 19 6 17 8 11 9 12 10 93 11 13 12
REMARK SMILES IDX 14 13 15 14 10 15 9 17 1 18 2 19 3 20 4 21 8 22 5 23 6 24
REMARK SMILES IDX 7 25 16 26 24 29 25 30 26 31 27 32 28 33 29 35 30 36 31 37
REMARK SMILES IDX 92 38 32 39 91 40 33 41 34 42 35 43 85 44 36 45 90 46 84 47
REMARK SMILES IDX 86 48 37 49 89 50 83 51 82 52 38 54 70 55 50 56 69 57 51 58
REMARK SMILES IDX 54 59 68 60 87 61 52 62 53 63 67 65 88 66 55 67 39 68 40 69
REMARK SMILES IDX 48 70 41 71 42 72 46 73 49 74 43 75 44 76 47 77 45 78 71 79
REMARK SMILES IDX 72 80 80 81 73 82 74 83 78 84 81 85 75 86 76 87 79 88 77 89
REMARK SMILES IDX 56 90 57 91 65 92 58 93 59 94 63 95 66 96 60 97 61 98 64 99
REMARK SMILES IDX 62 100
REMARK H PARENT 20 7 10 16 16 27 16 28 27 34 86 53 54 64
REMARK Flexibility Score: inf
ROOT
ATOM      1  C   UNL A   1      32.250  29.542  26.946  1.00  0.00     0.002 C 
ENDROOT
BRANCH   1   2
ATOM      2  C   UNL A   1      33.736  29.173  26.817  1.00  0.00     0.021 C 
BRANCH   2   3
ATOM      3  C   UNL A   1      33.948  27.937  25.939  1.00  0.00     0.116 C 
BRANCH   3   4
ATOM      4  N   UNL A   1      34.098  28.352  24.561  1.00  0.00    -0.352 N 
ATOM      5  C   UNL A   1      33.376  28.166  23.410  1.00  0.00     0.253 C 
ATOM      6  O   UNL A   1      33.915  28.595  22.385  1.00  0.00    -0.269 OA
ATOM      7  H   UNL A   1      34.907  28.893  24.415  1.00  0.00     0.163 HD
BRANCH   5   8
ATOM      8  C   UNL A   1      31.991  27.574  23.352  1.00  0.00     0.065 A 
ATOM      9  C   UNL A   1      30.482  25.691  23.737  1.00  0.00     0.040 A 
ATOM     10  C   UNL A   1      29.392  26.532  23.552  1.00  0.00     0.031 A 
ATOM     11  C   UNL A   1      31.763  26.208  23.544  1.00  0.00     0.042 A 
ATOM     12  C   UNL A   1      29.568  27.888  23.217  1.00  0.00    -0.025 A 
ATOM     13  C   UNL A   1      28.320  28.686  22.945  1.00  0.00     0.047 C 
ATOM     14  C   UNL A   1      30.870  28.435  23.169  1.00  0.00     0.047 A 
BRANCH   9  15
ATOM     15  N   UNL A   1      30.315  24.386  24.236  1.00  0.00    -0.355 N 
ATOM     16  H   UNL A   1      29.451  23.955  24.046  1.00  0.00     0.167 HD
BRANCH  15  17
ATOM     17  C   UNL A   1      31.248  23.619  24.981  1.00  0.00     0.043 A 
ATOM     18  C   UNL A   1      31.248  25.377  26.824  1.00  0.00     0.046 C 
ATOM     19  C   UNL A   1      31.722  24.079  26.229  1.00  0.00    -0.027 A 
ATOM     20  C   UNL A   1      32.652  23.309  26.955  1.00  0.00     0.007 A 
ATOM     21  C   UNL A   1      33.107  22.086  26.465  1.00  0.00     0.020 A 
ATOM     22  C   UNL A   1      31.693  22.363  24.524  1.00  0.00     0.045 A 
ATOM     23  C   UNL A   1      32.624  21.608  25.249  1.00  0.00     0.054 A 
BRANCH  23  24
ATOM     24  C   UNL A   1      33.090  20.350  24.739  1.00  0.00     0.099 C 
ATOM     25  N   UNL A   1      33.461  19.338  24.318  1.00  0.00    -0.192 NA
ENDBRANCH  23  24
ENDBRANCH  15  17
ENDBRANCH   9  15
BRANCH  14  26
ATOM     26  N   UNL A   1      31.048  29.777  22.828  1.00  0.00    -0.398 N 
ATOM     27  H   UNL A   1      30.298  30.408  22.909  1.00  0.00     0.156 HD
ATOM     28  H   UNL A   1      31.924  30.091  22.508  1.00  0.00     0.156 HD
ENDBRANCH  14  26
ENDBRANCH   5   8
ENDBRANCH   3   4
ENDBRANCH   2   3
ENDBRANCH   1   2
BRANCH   1  29
ATOM     29  C   UNL A   1      31.844  30.798  26.163  1.00  0.00     0.002 C 
BRANCH  29  30
ATOM     30  C   UNL A   1      31.535  32.008  27.042  1.00  0.00     0.021 C 
BRANCH  30  31
ATOM     31  C   UNL A   1      32.779  32.785  27.447  1.00  0.00     0.116 C 
BRANCH  31  32
ATOM     32  N   UNL A   1      32.485  34.197  27.662  1.00  0.00    -0.352 N 
ATOM     33  C   UNL A   1      33.012  35.057  28.593  1.00  0.00     0.251 C 
ATOM     34  H   UNL A   1      31.817  34.588  27.054  1.00  0.00     0.163 HD
ATOM     35  O   UNL A   1      32.500  36.153  28.800  1.00  0.00    -0.269 OA
BRANCH  33  36
ATOM     36  C   UNL A   1      34.189  34.623  29.368  1.00  0.00     0.039 A 
ATOM     37  C   UNL A   1      35.456  34.669  28.787  1.00  0.00     0.014 A 
ATOM     38  C   UNL A   1      34.013  34.095  30.648  1.00  0.00     0.014 A 
ATOM     39  C   UNL A   1      36.506  33.995  29.392  1.00  0.00     0.010 A 
ATOM     40  C   UNL A   1      35.101  33.519  31.306  1.00  0.00     0.010 A 
ATOM     41  C   UNL A   1      36.341  33.407  30.656  1.00  0.00    -0.014 A 
BRANCH  41  42
ATOM     42  C   UNL A   1      37.471  32.659  31.265  1.00  0.00     0.031 A 
ATOM     43  C   UNL A   1      37.951  32.992  32.654  1.00  0.00     0.074 A 
ATOM     44  C   UNL A   1      38.029  31.641  30.584  1.00  0.00     0.049 A 
ATOM     45  N   UNL A   1      38.934  32.458  33.336  1.00  0.00    -0.248 NA
ATOM     46  C   UNL A   1      37.243  34.064  33.372  1.00  0.00     0.031 C 
ATOM     47  C   UNL A   1      37.632  31.207  29.242  1.00  0.00     0.029 A 
ATOM     48  N   UNL A   1      39.036  30.774  30.927  1.00  0.00    -0.354 N 
ATOM     49  C   UNL A   1      38.973  33.139  34.545  1.00  0.00     0.074 A 
ATOM     50  C   UNL A   1      37.941  34.150  34.495  1.00  0.00     0.031 C 
ATOM     51  C   UNL A   1      38.353  30.133  28.894  1.00  0.00     0.029 A 
ATOM     52  C   UNL A   1      39.319  29.852  29.950  1.00  0.00     0.049 A 
ATOM     53  H   UNL A   1      39.510  30.810  31.788  1.00  0.00     0.167 HD
ATOM     54  C   UNL A   1      39.788  32.925  35.606  1.00  0.00     0.037 A 
ATOM     55  C   UNL A   1      40.271  28.900  29.894  1.00  0.00     0.037 A 
ATOM     56  C   UNL A   1      40.798  31.900  35.659  1.00  0.00     0.049 A 
ATOM     57  C   UNL A   1      41.206  28.736  31.059  1.00  0.00     0.074 A 
ATOM     58  C   UNL A   1      41.654  31.591  36.701  1.00  0.00     0.029 A 
ATOM     59  N   UNL A   1      41.092  31.022  34.626  1.00  0.00    -0.354 N 
ATOM     60  N   UNL A   1      41.216  29.368  32.207  1.00  0.00    -0.248 NA
ATOM     61  C   UNL A   1      42.264  27.727  30.920  1.00  0.00     0.031 C 
ATOM     62  C   UNL A   1      42.509  30.571  36.276  1.00  0.00     0.029 A 
ATOM     63  C   UNL A   1      42.139  30.194  34.996  1.00  0.00     0.049 A 
ATOM     64  H   UNL A   1      40.625  30.991  33.760  1.00  0.00     0.167 HD
ATOM     65  C   UNL A   1      42.266  28.824  32.933  1.00  0.00     0.074 A 
ATOM     66  C   UNL A   1      42.851  27.788  32.108  1.00  0.00     0.031 C 
ATOM     67  C   UNL A   1      42.710  29.160  34.169  1.00  0.00     0.037 A 
BRANCH  54  68
ATOM     68  C   UNL A   1      39.635  33.813  36.809  1.00  0.00     0.064 A 
ATOM     69  C   UNL A   1      40.197  35.097  36.853  1.00  0.00     0.173 A 
ATOM     70  C   UNL A   1      38.832  33.413  37.889  1.00  0.00     0.173 A 
ATOM     71  F   UNL A   1      40.980  35.528  35.852  1.00  0.00    -0.203 F 
ATOM     72  C   UNL A   1      39.967  35.945  37.936  1.00  0.00     0.198 A 
ATOM     73  C   UNL A   1      38.578  34.273  38.954  1.00  0.00     0.198 A 
ATOM     74  F   UNL A   1      38.263  32.198  37.895  1.00  0.00    -0.203 F 
ATOM     75  F   UNL A   1      40.538  37.156  37.968  1.00  0.00    -0.200 F 
ATOM     76  C   UNL A   1      39.148  35.538  38.978  1.00  0.00     0.200 A 
ATOM     77  F   UNL A   1      37.768  33.886  39.949  1.00  0.00    -0.200 F 
ATOM     78  F   UNL A   1      38.905  36.364  40.004  1.00  0.00    -0.200 F 
ENDBRANCH  54  68
BRANCH  55  79
ATOM     79  C   UNL A   1      40.387  28.043  28.684  1.00  0.00     0.064 A 
ATOM     80  C   UNL A   1      39.739  26.803  28.614  1.00  0.00     0.173 A 
ATOM     81  C   UNL A   1      41.133  28.453  27.568  1.00  0.00     0.173 A 
ATOM     82  F   UNL A   1      39.028  26.359  29.661  1.00  0.00    -0.203 F 
ATOM     83  C   UNL A   1      39.845  26.000  27.482  1.00  0.00     0.198 A 
ATOM     84  C   UNL A   1      41.207  27.665  26.421  1.00  0.00     0.198 A 
ATOM     85  F   UNL A   1      41.771  29.633  27.581  1.00  0.00    -0.203 F 
ATOM     86  F   UNL A   1      39.251  24.798  27.458  1.00  0.00    -0.200 F 
ATOM     87  C   UNL A   1      40.569  26.435  26.383  1.00  0.00     0.200 A 
ATOM     88  F   UNL A   1      41.890  28.102  25.355  1.00  0.00    -0.200 F 
ATOM     89  F   UNL A   1      40.658  25.668  25.288  1.00  0.00    -0.200 F 
ENDBRANCH  55  79
BRANCH  67  90
ATOM     90  C   UNL A   1      43.878  28.393  34.722  1.00  0.00     0.064 A 
ATOM     91  C   UNL A   1      45.194  28.859  34.585  1.00  0.00     0.173 A 
ATOM     92  C   UNL A   1      43.672  27.217  35.461  1.00  0.00     0.173 A 
ATOM     93  F   UNL A   1      45.446  29.971  33.878  1.00  0.00    -0.203 F 
ATOM     94  C   UNL A   1      46.261  28.166  35.150  1.00  0.00     0.198 A 
ATOM     95  C   UNL A   1      44.738  26.548  36.056  1.00  0.00     0.198 A 
ATOM     96  F   UNL A   1      42.432  26.733  35.631  1.00  0.00    -0.203 F 
ATOM     97  F   UNL A   1      47.513  28.606  34.967  1.00  0.00    -0.200 F 
ATOM     98  C   UNL A   1      46.031  27.019  35.895  1.00  0.00     0.200 A 
ATOM     99  F   UNL A   1      44.510  25.453  36.795  1.00  0.00    -0.200 F 
ATOM    100  F   UNL A   1      47.058  26.366  36.456  1.00  0.00    -0.200 F 
ENDBRANCH  67  90
ENDBRANCH  41  42
ENDBRANCH  33  36
ENDBRANCH  31  32
ENDBRANCH  30  31
ENDBRANCH  29  30
ENDBRANCH   1  29
TORSDOF 17
ENDMDL
MODEL 3
REMARK VINA RESULT:     -12.3      1.939      7.541
REMARK SMILES Cc1ccc(C#N)cc1Nc1cc(C)c(N)c(C(=O)NCCCCCCNC(=O)c2ccc(-c3c4nc(c(-c5c(F)c(F)c(F)c(F)c5F)c5ccc([nH]5)c(-c5c(F)c(F)c(F)c(F)c5F)c5nc(c(-c6c(F)c(F)c(F)c(F)c6F)c6ccc3[nH]6)C=C5)C=C4)cc2)c1
REMARK SMILES IDX 23 1 22 2 21 3 20 4 18 5 19 6 17 8 11 9 12 10 93 11 13 12
REMARK SMILES IDX 14 13 15 14 10 15 9 17 1 18 2 19 3 20 4 21 8 22 5 23 6 24
REMARK SMILES IDX 7 25 16 26 24 29 25 30 26 31 27 32 28 33 29 35 30 36 31 37
REMARK SMILES IDX 92 38 32 39 91 40 33 41 34 42 35 43 85 44 36 45 90 46 84 47
REMARK SMILES IDX 86 48 37 49 89 50 83 51 82 52 38 54 70 55 50 56 69 57 51 58
REMARK SMILES IDX 54 59 68 60 87 61 52 62 53 63 67 65 88 66 55 67 39 68 40 69
REMARK SMILES IDX 48 70 41 71 42 72 46 73 49 74 43 75 44 76 47 77 45 78 71 79
REMARK SMILES IDX 72 80 80 81 73 82 74 83 78 84 81 85 75 86 76 87 79 88 77 89
REMARK SMILES IDX 56 90 57 91 65 92 58 93 59 94 63 95 66 96 60 97 61 98 64 99
REMARK SMILES IDX 62 100
REMARK H PARENT 20 7 10 16 16 27 16 28 27 34 86 53 54 64
REMARK Flexibility Score: inf
ROOT
ATOM      1  C   UNL A   1      31.783  29.303  27.208  1.00  0.00     0.002 C 
ENDROOT
BRANCH   1   2
ATOM      2  C   UNL A   1      32.458  27.982  26.808  1.00  0.00     0.021 C 
BRANCH   2   3
ATOM      3  C   UNL A   1      31.454  26.830  26.712  1.00  0.00     0.116 C 
BRANCH   3   4
ATOM      4  N   UNL A   1      31.268  26.476  25.320  1.00  0.00    -0.352 N 
ATOM      5  C   UNL A   1      31.746  25.487  24.501  1.00  0.00     0.253 C 
ATOM      6  O   UNL A   1      31.432  25.601  23.311  1.00  0.00    -0.269 OA
ATOM      7  H   UNL A   1      30.656  27.090  24.853  1.00  0.00     0.163 HD
BRANCH   5   8
ATOM      8  C   UNL A   1      32.521  24.282  24.971  1.00  0.00     0.065 A 
ATOM      9  C   UNL A   1      32.634  21.878  25.390  1.00  0.00     0.040 A 
ATOM     10  C   UNL A   1      34.012  21.973  25.542  1.00  0.00     0.031 A 
ATOM     11  C   UNL A   1      31.902  23.049  25.198  1.00  0.00     0.042 A 
ATOM     12  C   UNL A   1      34.668  23.216  25.462  1.00  0.00    -0.025 A 
ATOM     13  C   UNL A   1      36.148  23.220  25.735  1.00  0.00     0.047 C 
ATOM     14  C   UNL A   1      33.934  24.375  25.120  1.00  0.00     0.047 A 
BRANCH   9  15
ATOM     15  N   UNL A   1      32.000  20.625  25.300  1.00  0.00    -0.355 N 
ATOM     16  H   UNL A   1      31.196  20.502  25.855  1.00  0.00     0.167 HD
BRANCH  15  17
ATOM     17  C   UNL A   1      32.384  19.517  24.500  1.00  0.00     0.043 A 
ATOM     18  C   UNL A   1      31.908  20.855  22.386  1.00  0.00     0.046 C 
ATOM     19  C   UNL A   1      32.340  19.598  23.091  1.00  0.00    -0.027 A 
ATOM     20  C   UNL A   1      32.720  18.489  22.312  1.00  0.00     0.007 A 
ATOM     21  C   UNL A   1      33.154  17.307  22.910  1.00  0.00     0.020 A 
ATOM     22  C   UNL A   1      32.863  18.327  25.082  1.00  0.00     0.045 A 
ATOM     23  C   UNL A   1      33.231  17.226  24.299  1.00  0.00     0.054 A 
BRANCH  23  24
ATOM     24  C   UNL A   1      33.675  16.011  24.920  1.00  0.00     0.099 C 
ATOM     25  N   UNL A   1      34.045  15.034  25.419  1.00  0.00    -0.192 NA
ENDBRANCH  23  24
ENDBRANCH  15  17
ENDBRANCH   9  15
BRANCH  14  26
ATOM     26  N   UNL A   1      34.580  25.611  25.050  1.00  0.00    -0.398 N 
ATOM     27  H   UNL A   1      34.605  26.198  25.840  1.00  0.00     0.156 HD
ATOM     28  H   UNL A   1      35.011  25.894  24.212  1.00  0.00     0.156 HD
ENDBRANCH  14  26
ENDBRANCH   5   8
ENDBRANCH   3   4
ENDBRANCH   2   3
ENDBRANCH   1   2
BRANCH   1  29
ATOM     29  C   UNL A   1      32.081  30.473  26.261  1.00  0.00     0.002 C 
BRANCH  29  30
ATOM     30  C   UNL A   1      31.682  31.840  26.814  1.00  0.00     0.021 C 
BRANCH  30  31
ATOM     31  C   UNL A   1      32.846  32.593  27.441  1.00  0.00     0.116 C 
BRANCH  31  32
ATOM     32  N   UNL A   1      32.522  33.997  27.662  1.00  0.00    -0.352 N 
ATOM     33  C   UNL A   1      33.027  34.864  28.599  1.00  0.00     0.251 C 
ATOM     34  H   UNL A   1      31.848  34.377  27.053  1.00  0.00     0.163 HD
ATOM     35  O   UNL A   1      32.493  35.947  28.809  1.00  0.00    -0.269 OA
BRANCH  33  36
ATOM     36  C   UNL A   1      34.211  34.451  29.376  1.00  0.00     0.039 A 
ATOM     37  C   UNL A   1      35.484  34.588  28.824  1.00  0.00     0.014 A 
ATOM     38  C   UNL A   1      34.038  33.852  30.625  1.00  0.00     0.014 A 
ATOM     39  C   UNL A   1      36.556  33.937  29.417  1.00  0.00     0.010 A 
ATOM     40  C   UNL A   1      35.142  33.298  31.277  1.00  0.00     0.010 A 
ATOM     41  C   UNL A   1      36.398  33.280  30.648  1.00  0.00    -0.014 A 
BRANCH  41  42
ATOM     42  C   UNL A   1      37.552  32.560  31.243  1.00  0.00     0.031 A 
ATOM     43  C   UNL A   1      38.047  32.910  32.622  1.00  0.00     0.074 A 
ATOM     44  C   UNL A   1      38.122  31.550  30.558  1.00  0.00     0.049 A 
ATOM     45  N   UNL A   1      39.051  32.401  33.292  1.00  0.00    -0.248 NA
ATOM     46  C   UNL A   1      37.327  33.971  33.346  1.00  0.00     0.031 C 
ATOM     47  C   UNL A   1      37.713  31.100  29.226  1.00  0.00     0.029 A 
ATOM     48  N   UNL A   1      39.152  30.706  30.890  1.00  0.00    -0.354 N 
ATOM     49  C   UNL A   1      39.095  33.089  34.497  1.00  0.00     0.074 A 
ATOM     50  C   UNL A   1      38.040  34.078  34.457  1.00  0.00     0.031 C 
ATOM     51  C   UNL A   1      38.451  30.040  28.872  1.00  0.00     0.029 A 
ATOM     52  C   UNL A   1      39.440  29.785  29.914  1.00  0.00     0.049 A 
ATOM     53  H   UNL A   1      39.638  30.757  31.744  1.00  0.00     0.167 HD
ATOM     54  C   UNL A   1      39.930  32.899  35.546  1.00  0.00     0.037 A 
ATOM     55  C   UNL A   1      40.410  28.854  29.848  1.00  0.00     0.037 A 
ATOM     56  C   UNL A   1      40.963  31.896  35.588  1.00  0.00     0.049 A 
ATOM     57  C   UNL A   1      41.366  28.715  30.999  1.00  0.00     0.074 A 
ATOM     58  C   UNL A   1      41.841  31.611  36.618  1.00  0.00     0.029 A 
ATOM     59  N   UNL A   1      41.259  31.018  34.556  1.00  0.00    -0.354 N 
ATOM     60  N   UNL A   1      41.380  29.354  32.143  1.00  0.00    -0.248 NA
ATOM     61  C   UNL A   1      42.443  27.728  30.849  1.00  0.00     0.031 C 
ATOM     62  C   UNL A   1      42.711  30.607  36.186  1.00  0.00     0.029 A 
ATOM     63  C   UNL A   1      42.329  30.214  34.913  1.00  0.00     0.049 A 
ATOM     64  H   UNL A   1      40.779  30.972  33.697  1.00  0.00     0.167 HD
ATOM     65  C   UNL A   1      42.453  28.837  32.855  1.00  0.00     0.074 A 
ATOM     66  C   UNL A   1      43.047  27.808  32.027  1.00  0.00     0.031 C 
ATOM     67  C   UNL A   1      42.909  29.189  34.082  1.00  0.00     0.037 A 
BRANCH  54  68
ATOM     68  C   UNL A   1      39.777  33.790  36.747  1.00  0.00     0.064 A 
ATOM     69  C   UNL A   1      40.355  35.067  36.795  1.00  0.00     0.173 A 
ATOM     70  C   UNL A   1      38.959  33.402  37.819  1.00  0.00     0.173 A 
ATOM     71  F   UNL A   1      41.154  35.487  35.801  1.00  0.00    -0.203 F 
ATOM     72  C   UNL A   1      40.126  35.918  37.875  1.00  0.00     0.198 A 
ATOM     73  C   UNL A   1      38.705  34.266  38.881  1.00  0.00     0.198 A 
ATOM     74  F   UNL A   1      38.373  32.194  37.820  1.00  0.00    -0.203 F 
ATOM     75  F   UNL A   1      40.712  37.123  37.911  1.00  0.00    -0.200 F 
ATOM     76  C   UNL A   1      39.291  35.523  38.909  1.00  0.00     0.200 A 
ATOM     77  F   UNL A   1      37.881  33.890  39.868  1.00  0.00    -0.200 F 
ATOM     78  F   UNL A   1      39.049  36.354  39.932  1.00  0.00    -0.200 F 
ENDBRANCH  54  68
BRANCH  55  79
ATOM     79  C   UNL A   1      40.525  27.992  28.641  1.00  0.00     0.064 A 
ATOM     80  C   UNL A   1      39.837  26.776  28.555  1.00  0.00     0.173 A 
ATOM     81  C   UNL A   1      41.312  28.375  27.543  1.00  0.00     0.173 A 
ATOM     82  F   UNL A   1      39.086  26.357  29.584  1.00  0.00    -0.203 F 
ATOM     83  C   UNL A   1      39.942  25.968  27.425  1.00  0.00     0.198 A 
ATOM     84  C   UNL A   1      41.386  27.585  26.398  1.00  0.00     0.198 A 
ATOM     85  F   UNL A   1      41.990  29.533  27.572  1.00  0.00    -0.203 F 
ATOM     86  F   UNL A   1      39.308  24.788  27.387  1.00  0.00    -0.200 F 
ATOM     87  C   UNL A   1      40.707  26.378  26.344  1.00  0.00     0.200 A 
ATOM     88  F   UNL A   1      42.109  27.997  25.349  1.00  0.00    -0.200 F 
ATOM     89  F   UNL A   1      40.796  25.608  25.251  1.00  0.00    -0.200 F 
ENDBRANCH  55  79
BRANCH  67  90
ATOM     90  C   UNL A   1      44.101  28.449  34.622  1.00  0.00     0.064 A 
ATOM     91  C   UNL A   1      43.967  27.209  35.264  1.00  0.00     0.173 A 
ATOM     92  C   UNL A   1      45.398  28.952  34.431  1.00  0.00     0.173 A 
ATOM     93  F   UNL A   1      42.749  26.690  35.483  1.00  0.00    -0.203 F 
ATOM     94  C   UNL A   1      45.085  26.510  35.710  1.00  0.00     0.198 A 
ATOM     95  C   UNL A   1      46.515  28.232  34.845  1.00  0.00     0.198 A 
ATOM     96  F   UNL A   1      45.584  30.129  33.815  1.00  0.00    -0.203 F 
ATOM     97  F   UNL A   1      44.929  25.349  36.361  1.00  0.00    -0.200 F 
ATOM     98  C   UNL A   1      46.357  27.015  35.490  1.00  0.00     0.200 A 
ATOM     99  F   UNL A   1      47.744  28.712  34.610  1.00  0.00    -0.200 F 
ATOM    100  F   UNL A   1      47.433  26.330  35.902  1.00  0.00    -0.200 F 
ENDBRANCH  67  90
ENDBRANCH  41  42
ENDBRANCH  33  36
ENDBRANCH  31  32
ENDBRANCH  30  31
ENDBRANCH  29  30
ENDBRANCH   1  29
TORSDOF 17
ENDMDL
