MODEL 1
REMARK VINA RESULT:     -12.2      0.000      0.000
REMARK SMILES O=C(CNC(=O)[C@H]1CC[C@@H](Cn2cnc3ccccc3c2=O)CC1)NCCCCCCNC(=O)c1ccc(-c2c3nc(c(-c4c(F)c(F)c(F)c(F)c4F)c4ccc([nH]4)c(-c4c(F)c(F)c(F)c(F)c4F)c4nc(c(-c5c(F)c(F)c(F)c(F)c5F)c5ccc2[nH]5)C=C4)C=C3)cc1
REMARK SMILES IDX 27 1 26 2 25 3 1 4 2 5 3 7 4 8 5 9 6 11 7 12 24 13 8 14
REMARK SMILES IDX 23 15 9 16 10 17 11 18 12 19 13 20 21 21 14 22 20 23 22 24
REMARK SMILES IDX 15 25 19 26 16 27 18 28 17 29 28 30 29 31 30 32 31 33 32 34
REMARK SMILES IDX 33 35 34 37 35 38 36 39 97 40 37 41 96 42 38 43 39 44 40 45
REMARK SMILES IDX 90 46 41 47 95 48 89 49 91 50 42 51 94 52 88 53 87 54 43 56
REMARK SMILES IDX 75 57 55 58 74 59 56 60 59 61 73 62 92 63 57 64 58 65 72 67
REMARK SMILES IDX 93 68 60 69 44 70 45 71 53 72 46 73 47 74 51 75 54 76 48 77
REMARK SMILES IDX 49 78 52 79 50 80 76 81 77 82 85 83 78 84 79 85 83 86 86 87
REMARK SMILES IDX 80 88 81 89 84 90 82 91 61 92 62 93 70 94 63 95 64 96 68 97
REMARK SMILES IDX 71 98 65 99 66 100 69 101 67 102
REMARK H PARENT 25 6 4 10 32 36 91 55 59 66
REMARK Flexibility Score: inf
ROOT
ATOM      1  C   UNL A   1      36.062  31.400  28.107  1.00  0.00     0.021 C 
ENDROOT
BRANCH   1   2
ATOM      2  C   UNL A   1      35.238  30.191  27.659  1.00  0.00     0.116 C 
BRANCH   2   3
ATOM      3  N   UNL A   1      34.058  30.571  26.915  1.00  0.00    -0.355 N 
ATOM      4  O   UNL A   1      32.775  28.813  27.629  1.00  0.00    -0.273 OA
ATOM      5  C   UNL A   1      32.889  29.843  26.970  1.00  0.00     0.239 C 
ATOM      6  H   UNL A   1      34.090  31.377  26.351  1.00  0.00     0.163 HD
BRANCH   5   7
ATOM      7  C   UNL A   1      31.779  30.332  26.033  1.00  0.00     0.216 C 
BRANCH   7   8
ATOM      8  N   UNL A   1      32.006  30.043  24.618  1.00  0.00    -0.347 N 
ATOM      9  C   UNL A   1      31.724  28.953  23.859  1.00  0.00     0.223 C 
ATOM     10  H   UNL A   1      32.446  30.773  24.125  1.00  0.00     0.164 HD
ATOM     11  O   UNL A   1      32.044  29.005  22.669  1.00  0.00    -0.275 OA
BRANCH   9  12
ATOM     12  C   UNL A   1      31.081  27.685  24.422  1.00  0.00     0.078 C 
ATOM     13  C   UNL A   1      30.154  27.023  23.400  1.00  0.00     0.014 C 
ATOM     14  C   UNL A   1      32.084  26.737  25.085  1.00  0.00     0.014 C 
ATOM     15  C   UNL A   1      29.562  25.705  23.893  1.00  0.00     0.006 C 
ATOM     16  C   UNL A   1      31.455  25.410  25.505  1.00  0.00     0.006 C 
ATOM     17  C   UNL A   1      30.633  24.726  24.400  1.00  0.00     0.009 C 
BRANCH  17  18
ATOM     18  C   UNL A   1      31.462  24.156  23.224  1.00  0.00     0.130 C 
BRANCH  18  19
ATOM     19  N   UNL A   1      32.506  23.227  23.639  1.00  0.00    -0.298 N 
ATOM     20  C   UNL A   1      32.162  22.039  24.239  1.00  0.00     0.203 A 
ATOM     21  C   UNL A   1      33.835  23.543  23.390  1.00  0.00     0.261 A 
ATOM     22  N   UNL A   1      32.998  21.153  24.664  1.00  0.00    -0.238 NA
ATOM     23  C   UNL A   1      34.832  22.583  23.888  1.00  0.00     0.066 A 
ATOM     24  O   UNL A   1      34.210  24.552  22.799  1.00  0.00    -0.269 OA
ATOM     25  C   UNL A   1      34.365  21.425  24.511  1.00  0.00     0.077 A 
ATOM     26  C   UNL A   1      36.203  22.834  23.753  1.00  0.00     0.016 A 
ATOM     27  C   UNL A   1      35.297  20.509  25.001  1.00  0.00     0.029 A 
ATOM     28  C   UNL A   1      37.122  21.914  24.251  1.00  0.00     0.001 A 
ATOM     29  C   UNL A   1      36.669  20.751  24.875  1.00  0.00     0.002 A 
ENDBRANCH  18  19
ENDBRANCH  17  18
ENDBRANCH   9  12
ENDBRANCH   7   8
ENDBRANCH   5   7
ENDBRANCH   2   3
ENDBRANCH   1   2
BRANCH   1  30
ATOM     30  C   UNL A   1      35.363  32.756  27.953  1.00  0.00     0.002 C 
BRANCH  30  31
ATOM     31  C   UNL A   1      34.714  33.330  29.217  1.00  0.00     0.002 C 
BRANCH  31  32
ATOM     32  C   UNL A   1      33.503  34.231  28.979  1.00  0.00     0.021 C 
BRANCH  32  33
ATOM     33  C   UNL A   1      33.629  35.644  29.536  1.00  0.00     0.116 C 
BRANCH  33  34
ATOM     34  N   UNL A   1      32.595  35.970  30.508  1.00  0.00    -0.352 N 
ATOM     35  C   UNL A   1      32.544  35.688  31.853  1.00  0.00     0.251 C 
ATOM     36  H   UNL A   1      31.822  36.462  30.150  1.00  0.00     0.163 HD
ATOM     37  O   UNL A   1      31.530  35.933  32.501  1.00  0.00    -0.269 OA
BRANCH  35  38
ATOM     38  C   UNL A   1      33.701  35.045  32.515  1.00  0.00     0.039 A 
ATOM     39  C   UNL A   1      34.930  35.702  32.602  1.00  0.00     0.014 A 
ATOM     40  C   UNL A   1      33.561  33.751  33.026  1.00  0.00     0.014 A 
ATOM     41  C   UNL A   1      36.055  35.004  33.031  1.00  0.00     0.010 A 
ATOM     42  C   UNL A   1      34.677  33.079  33.534  1.00  0.00     0.010 A 
ATOM     43  C   UNL A   1      35.945  33.680  33.488  1.00  0.00    -0.014 A 
BRANCH  43  44
ATOM     44  C   UNL A   1      37.172  32.942  33.888  1.00  0.00     0.031 A 
ATOM     45  C   UNL A   1      37.797  31.932  32.962  1.00  0.00     0.074 A 
ATOM     46  C   UNL A   1      37.765  33.234  35.061  1.00  0.00     0.049 A 
ATOM     47  N   UNL A   1      38.886  31.223  33.128  1.00  0.00    -0.248 NA
ATOM     48  C   UNL A   1      37.113  31.684  31.683  1.00  0.00     0.031 C 
ATOM     49  C   UNL A   1      37.265  34.202  36.037  1.00  0.00     0.029 A 
ATOM     50  N   UNL A   1      38.930  32.768  35.618  1.00  0.00    -0.354 N 
ATOM     51  C   UNL A   1      39.008  30.438  31.988  1.00  0.00     0.074 A 
ATOM     52  C   UNL A   1      37.868  30.733  31.149  1.00  0.00     0.031 C 
ATOM     53  C   UNL A   1      38.145  34.302  37.044  1.00  0.00     0.029 A 
ATOM     54  C   UNL A   1      39.240  33.366  36.815  1.00  0.00     0.049 A 
ATOM     55  H   UNL A   1      39.489  32.074  35.200  1.00  0.00     0.167 HD
ATOM     56  C   UNL A   1      39.991  29.563  31.665  1.00  0.00     0.037 A 
ATOM     57  C   UNL A   1      40.286  33.176  37.641  1.00  0.00     0.037 A 
ATOM     58  C   UNL A   1      41.139  29.287  32.488  1.00  0.00     0.049 A 
ATOM     59  C   UNL A   1      41.339  32.168  37.279  1.00  0.00     0.074 A 
ATOM     60  C   UNL A   1      42.196  28.430  32.233  1.00  0.00     0.029 A 
ATOM     61  N   UNL A   1      41.383  29.865  33.724  1.00  0.00    -0.354 N 
ATOM     62  N   UNL A   1      41.443  31.436  36.198  1.00  0.00    -0.248 NA
ATOM     63  C   UNL A   1      42.416  31.954  38.256  1.00  0.00     0.031 C 
ATOM     64  C   UNL A   1      43.061  28.461  33.333  1.00  0.00     0.029 A 
ATOM     65  C   UNL A   1      42.564  29.368  34.254  1.00  0.00     0.049 A 
ATOM     66  H   UNL A   1      40.803  30.530  34.162  1.00  0.00     0.167 HD
ATOM     67  C   UNL A   1      42.595  30.680  36.358  1.00  0.00     0.074 A 
ATOM     68  C   UNL A   1      43.169  31.058  37.632  1.00  0.00     0.031 C 
ATOM     69  C   UNL A   1      43.123  29.751  35.525  1.00  0.00     0.037 A 
BRANCH  56  70
ATOM     70  C   UNL A   1      39.873  28.830  30.361  1.00  0.00     0.064 A 
ATOM     71  C   UNL A   1      40.371  29.372  29.166  1.00  0.00     0.173 A 
ATOM     72  C   UNL A   1      39.319  27.541  30.317  1.00  0.00     0.173 A 
ATOM     73  F   UNL A   1      40.900  30.604  29.154  1.00  0.00    -0.203 F 
ATOM     74  C   UNL A   1      40.305  28.656  27.973  1.00  0.00     0.198 A 
ATOM     75  C   UNL A   1      39.277  26.819  29.127  1.00  0.00     0.198 A 
ATOM     76  F   UNL A   1      38.836  26.974  31.432  1.00  0.00    -0.203 F 
ATOM     77  F   UNL A   1      40.759  29.207  26.839  1.00  0.00    -0.200 F 
ATOM     78  C   UNL A   1      39.767  27.378  27.956  1.00  0.00     0.200 A 
ATOM     79  F   UNL A   1      38.769  25.578  29.114  1.00  0.00    -0.200 F 
ATOM     80  F   UNL A   1      39.718  26.686  26.809  1.00  0.00    -0.200 F 
ENDBRANCH  56  70
BRANCH  57  81
ATOM     81  C   UNL A   1      40.385  33.975  38.889  1.00  0.00     0.064 A 
ATOM     82  C   UNL A   1      39.810  33.517  40.082  1.00  0.00     0.173 A 
ATOM     83  C   UNL A   1      41.086  35.189  38.923  1.00  0.00     0.173 A 
ATOM     84  F   UNL A   1      39.113  32.371  40.092  1.00  0.00    -0.203 F 
ATOM     85  C   UNL A   1      39.932  34.245  41.263  1.00  0.00     0.198 A 
ATOM     86  C   UNL A   1      41.230  35.903  40.111  1.00  0.00     0.198 A 
ATOM     87  F   UNL A   1      41.655  35.667  37.807  1.00  0.00    -0.203 F 
ATOM     88  F   UNL A   1      39.352  33.798  42.386  1.00  0.00    -0.200 F 
ATOM     89  C   UNL A   1      40.651  35.431  41.279  1.00  0.00     0.200 A 
ATOM     90  F   UNL A   1      41.939  37.040  40.125  1.00  0.00    -0.200 F 
ATOM     91  F   UNL A   1      40.783  36.122  42.420  1.00  0.00    -0.200 F 
ENDBRANCH  57  81
BRANCH  69  92
ATOM     92  C   UNL A   1      44.392  29.079  35.957  1.00  0.00     0.064 A 
ATOM     93  C   UNL A   1      44.372  27.847  36.626  1.00  0.00     0.173 A 
ATOM     94  C   UNL A   1      45.639  29.639  35.642  1.00  0.00     0.173 A 
ATOM     95  F   UNL A   1      43.204  27.278  36.959  1.00  0.00    -0.203 F 
ATOM     96  C   UNL A   1      45.557  27.205  36.976  1.00  0.00     0.198 A 
ATOM     97  C   UNL A   1      46.821  28.983  35.972  1.00  0.00     0.198 A 
ATOM     98  F   UNL A   1      45.709  30.814  34.998  1.00  0.00    -0.203 F 
ATOM     99  F   UNL A   1      45.517  26.044  37.642  1.00  0.00    -0.200 F 
ATOM    100  C   UNL A   1      46.780  27.770  36.641  1.00  0.00     0.200 A 
ATOM    101  F   UNL A   1      48.001  29.524  35.638  1.00  0.00    -0.200 F 
ATOM    102  F   UNL A   1      47.919  27.145  36.968  1.00  0.00    -0.200 F 
ENDBRANCH  69  92
ENDBRANCH  43  44
ENDBRANCH  35  38
ENDBRANCH  33  34
ENDBRANCH  32  33
ENDBRANCH  31  32
ENDBRANCH  30  31
ENDBRANCH   1  30
TORSDOF 17
ENDMDL
MODEL 2
REMARK VINA RESULT:     -12.2      0.345      7.165
REMARK SMILES O=C(CNC(=O)[C@H]1CC[C@@H](Cn2cnc3ccccc3c2=O)CC1)NCCCCCCNC(=O)c1ccc(-c2c3nc(c(-c4c(F)c(F)c(F)c(F)c4F)c4ccc([nH]4)c(-c4c(F)c(F)c(F)c(F)c4F)c4nc(c(-c5c(F)c(F)c(F)c(F)c5F)c5ccc2[nH]5)C=C4)C=C3)cc1
REMARK SMILES IDX 27 1 26 2 25 3 1 4 2 5 3 7 4 8 5 9 6 11 7 12 24 13 8 14
REMARK SMILES IDX 23 15 9 16 10 17 11 18 12 19 13 20 21 21 14 22 20 23 22 24
REMARK SMILES IDX 15 25 19 26 16 27 18 28 17 29 28 30 29 31 30 32 31 33 32 34
REMARK SMILES IDX 33 35 34 37 35 38 36 39 97 40 37 41 96 42 38 43 39 44 40 45
REMARK SMILES IDX 90 46 41 47 95 48 89 49 91 50 42 51 94 52 88 53 87 54 43 56
REMARK SMILES IDX 75 57 55 58 74 59 56 60 59 61 73 62 92 63 57 64 58 65 72 67
REMARK SMILES IDX 93 68 60 69 44 70 45 71 53 72 46 73 47 74 51 75 54 76 48 77
REMARK SMILES IDX 49 78 52 79 50 80 76 81 77 82 85 83 78 84 79 85 83 86 86 87
REMARK SMILES IDX 80 88 81 89 84 90 82 91 61 92 62 93 70 94 63 95 64 96 68 97
REMARK SMILES IDX 71 98 65 99 66 100 69 101 67 102
REMARK H PARENT 25 6 4 10 32 36 91 55 59 66
REMARK Flexibility Score: inf
ROOT
ATOM      1  C   UNL A   1      36.078  31.399  28.080  1.00  0.00     0.021 C 
ENDROOT
BRANCH   1   2
ATOM      2  C   UNL A   1      35.262  30.186  27.628  1.00  0.00     0.116 C 
BRANCH   2   3
ATOM      3  N   UNL A   1      34.076  30.563  26.891  1.00  0.00    -0.355 N 
ATOM      4  O   UNL A   1      32.806  28.795  27.604  1.00  0.00    -0.273 OA
ATOM      5  C   UNL A   1      32.911  29.828  26.948  1.00  0.00     0.239 C 
ATOM      6  H   UNL A   1      34.101  31.371  26.329  1.00  0.00     0.163 HD
BRANCH   5   7
ATOM      7  C   UNL A   1      31.794  30.315  26.018  1.00  0.00     0.216 C 
BRANCH   7   8
ATOM      8  N   UNL A   1      32.015  30.027  24.602  1.00  0.00    -0.347 N 
ATOM      9  C   UNL A   1      31.734  28.935  23.845  1.00  0.00     0.223 C 
ATOM     10  H   UNL A   1      32.447  30.760  24.106  1.00  0.00     0.164 HD
ATOM     11  O   UNL A   1      32.046  28.990  22.652  1.00  0.00    -0.275 OA
BRANCH   9  12
ATOM     12  C   UNL A   1      31.102  27.663  24.410  1.00  0.00     0.078 C 
ATOM     13  C   UNL A   1      30.177  26.993  23.393  1.00  0.00     0.014 C 
ATOM     14  C   UNL A   1      32.114  26.724  25.072  1.00  0.00     0.014 C 
ATOM     15  C   UNL A   1      29.597  25.671  23.889  1.00  0.00     0.006 C 
ATOM     16  C   UNL A   1      31.497  25.393  25.496  1.00  0.00     0.006 C 
ATOM     17  C   UNL A   1      30.677  24.701  24.394  1.00  0.00     0.009 C 
BRANCH  17  18
ATOM     18  C   UNL A   1      31.506  24.136  23.216  1.00  0.00     0.130 C 
BRANCH  18  19
ATOM     19  N   UNL A   1      32.565  23.224  23.631  1.00  0.00    -0.298 N 
ATOM     20  C   UNL A   1      32.241  22.032  24.235  1.00  0.00     0.203 A 
ATOM     21  C   UNL A   1      33.889  23.559  23.377  1.00  0.00     0.261 A 
ATOM     22  N   UNL A   1      33.091  21.160  24.660  1.00  0.00    -0.238 NA
ATOM     23  C   UNL A   1      34.902  22.615  23.875  1.00  0.00     0.066 A 
ATOM     24  O   UNL A   1      34.247  24.572  22.784  1.00  0.00    -0.269 OA
ATOM     25  C   UNL A   1      34.454  21.452  24.502  1.00  0.00     0.077 A 
ATOM     26  C   UNL A   1      36.268  22.887  23.736  1.00  0.00     0.016 A 
ATOM     27  C   UNL A   1      35.401  20.551  24.992  1.00  0.00     0.029 A 
ATOM     28  C   UNL A   1      37.202  21.982  24.234  1.00  0.00     0.001 A 
ATOM     29  C   UNL A   1      36.769  20.814  24.862  1.00  0.00     0.002 A 
ENDBRANCH  18  19
ENDBRANCH  17  18
ENDBRANCH   9  12
ENDBRANCH   7   8
ENDBRANCH   5   7
ENDBRANCH   2   3
ENDBRANCH   1   2
BRANCH   1  30
ATOM     30  C   UNL A   1      35.368  32.750  27.941  1.00  0.00     0.002 C 
BRANCH  30  31
ATOM     31  C   UNL A   1      34.718  33.308  29.212  1.00  0.00     0.002 C 
BRANCH  31  32
ATOM     32  C   UNL A   1      33.463  34.149  28.991  1.00  0.00     0.021 C 
BRANCH  32  33
ATOM     33  C   UNL A   1      33.504  35.545  29.601  1.00  0.00     0.116 C 
BRANCH  33  34
ATOM     34  N   UNL A   1      32.509  35.742  30.645  1.00  0.00    -0.352 N 
ATOM     35  C   UNL A   1      32.566  35.408  31.978  1.00  0.00     0.251 C 
ATOM     36  H   UNL A   1      31.675  36.178  30.355  1.00  0.00     0.163 HD
ATOM     37  O   UNL A   1      31.578  35.539  32.694  1.00  0.00    -0.269 OA
BRANCH  35  38
ATOM     38  C   UNL A   1      33.813  34.845  32.542  1.00  0.00     0.039 A 
ATOM     39  C   UNL A   1      34.997  35.584  32.535  1.00  0.00     0.014 A 
ATOM     40  C   UNL A   1      33.802  33.545  33.056  1.00  0.00     0.014 A 
ATOM     41  C   UNL A   1      36.198  34.964  32.870  1.00  0.00     0.010 A 
ATOM     42  C   UNL A   1      34.998  32.950  33.470  1.00  0.00     0.010 A 
ATOM     43  C   UNL A   1      36.214  33.636  33.328  1.00  0.00    -0.014 A 
BRANCH  43  44
ATOM     44  C   UNL A   1      37.517  32.983  33.625  1.00  0.00     0.031 A 
ATOM     45  C   UNL A   1      38.221  33.231  34.932  1.00  0.00     0.074 A 
ATOM     46  C   UNL A   1      38.032  32.108  32.740  1.00  0.00     0.049 A 
ATOM     47  N   UNL A   1      39.342  32.720  35.376  1.00  0.00    -0.248 NA
ATOM     48  C   UNL A   1      37.586  34.176  35.864  1.00  0.00     0.031 C 
ATOM     49  C   UNL A   1      37.438  31.772  31.446  1.00  0.00     0.029 A 
ATOM     50  N   UNL A   1      39.155  31.320  32.807  1.00  0.00    -0.354 N 
ATOM     51  C   UNL A   1      39.554  33.289  36.625  1.00  0.00     0.074 A 
ATOM     52  C   UNL A   1      38.462  34.208  36.860  1.00  0.00     0.031 C 
ATOM     53  C   UNL A   1      38.166  30.807  30.867  1.00  0.00     0.029 A 
ATOM     54  C   UNL A   1      39.310  30.497  31.719  1.00  0.00     0.049 A 
ATOM     55  H   UNL A   1      39.786  31.343  33.562  1.00  0.00     0.167 HD
ATOM     56  C   UNL A   1      40.559  33.054  37.503  1.00  0.00     0.037 A 
ATOM     57  C   UNL A   1      40.270  29.597  31.435  1.00  0.00     0.037 A 
ATOM     58  C   UNL A   1      41.632  32.120  37.281  1.00  0.00     0.049 A 
ATOM     59  C   UNL A   1      41.395  29.387  32.406  1.00  0.00     0.074 A 
ATOM     60  C   UNL A   1      42.684  31.801  38.123  1.00  0.00     0.029 A 
ATOM     61  N   UNL A   1      41.789  31.353  36.137  1.00  0.00    -0.354 N 
ATOM     62  N   UNL A   1      41.581  29.930  33.584  1.00  0.00    -0.248 NA
ATOM     63  C   UNL A   1      42.451  28.446  32.005  1.00  0.00     0.031 C 
ATOM     64  C   UNL A   1      43.499  30.869  37.472  1.00  0.00     0.029 A 
ATOM     65  C   UNL A   1      42.932  30.576  36.242  1.00  0.00     0.049 A 
ATOM     66  H   UNL A   1      41.179  31.359  35.364  1.00  0.00     0.167 HD
ATOM     67  C   UNL A   1      42.766  29.395  34.068  1.00  0.00     0.074 A 
ATOM     68  C   UNL A   1      43.246  28.467  33.066  1.00  0.00     0.031 C 
ATOM     69  C   UNL A   1      43.401  29.657  35.236  1.00  0.00     0.037 A 
BRANCH  56  70
ATOM     70  C   UNL A   1      40.555  33.820  38.793  1.00  0.00     0.064 A 
ATOM     71  C   UNL A   1      39.815  33.384  39.903  1.00  0.00     0.173 A 
ATOM     72  C   UNL A   1      41.353  34.965  38.944  1.00  0.00     0.173 A 
ATOM     73  F   UNL A   1      39.028  32.302  39.807  1.00  0.00    -0.203 F 
ATOM     74  C   UNL A   1      39.864  34.075  41.112  1.00  0.00     0.198 A 
ATOM     75  C   UNL A   1      41.418  35.638  40.161  1.00  0.00     0.198 A 
ATOM     76  F   UNL A   1      42.084  35.419  37.916  1.00  0.00    -0.203 F 
ATOM     77  F   UNL A   1      39.125  33.658  42.149  1.00  0.00    -0.200 F 
ATOM     78  C   UNL A   1      40.671  35.195  41.243  1.00  0.00     0.200 A 
ATOM     79  F   UNL A   1      42.209  36.713  40.290  1.00  0.00    -0.200 F 
ATOM     80  F   UNL A   1      40.728  35.849  42.411  1.00  0.00    -0.200 F 
ENDBRANCH  56  70
BRANCH  57  81
ATOM     81  C   UNL A   1      40.191  28.820  30.171  1.00  0.00     0.064 A 
ATOM     82  C   UNL A   1      40.794  29.294  28.999  1.00  0.00     0.173 A 
ATOM     83  C   UNL A   1      39.546  27.576  30.120  1.00  0.00     0.173 A 
ATOM     84  F   UNL A   1      41.405  30.488  28.995  1.00  0.00    -0.203 F 
ATOM     85  C   UNL A   1      40.755  28.551  27.821  1.00  0.00     0.198 A 
ATOM     86  C   UNL A   1      39.530  26.822  28.949  1.00  0.00     0.198 A 
ATOM     87  F   UNL A   1      38.955  27.081  31.217  1.00  0.00    -0.203 F 
ATOM     88  F   UNL A   1      41.319  29.036  26.707  1.00  0.00    -0.200 F 
ATOM     89  C   UNL A   1      40.132  27.311  27.800  1.00  0.00     0.200 A 
ATOM     90  F   UNL A   1      38.941  25.618  28.937  1.00  0.00    -0.200 F 
ATOM     91  F   UNL A   1      40.110  26.589  26.671  1.00  0.00    -0.200 F 
ENDBRANCH  57  81
BRANCH  69  92
ATOM     92  C   UNL A   1      44.682  28.927  35.504  1.00  0.00     0.064 A 
ATOM     93  C   UNL A   1      45.926  29.526  35.262  1.00  0.00     0.173 A 
ATOM     94  C   UNL A   1      44.667  27.643  36.069  1.00  0.00     0.173 A 
ATOM     95  F   UNL A   1      45.992  30.747  34.711  1.00  0.00    -0.203 F 
ATOM     96  C   UNL A   1      47.111  28.860  35.563  1.00  0.00     0.198 A 
ATOM     97  C   UNL A   1      45.853  26.990  36.392  1.00  0.00     0.198 A 
ATOM     98  F   UNL A   1      43.501  27.031  36.325  1.00  0.00    -0.203 F 
ATOM     99  F   UNL A   1      48.289  29.437  35.295  1.00  0.00    -0.200 F 
ATOM    100  C   UNL A   1      47.073  27.596  36.136  1.00  0.00     0.200 A 
ATOM    101  F   UNL A   1      45.814  25.774  36.956  1.00  0.00    -0.200 F 
ATOM    102  F   UNL A   1      48.214  26.962  36.437  1.00  0.00    -0.200 F 
ENDBRANCH  69  92
ENDBRANCH  43  44
ENDBRANCH  35  38
ENDBRANCH  33  34
ENDBRANCH  32  33
ENDBRANCH  31  32
ENDBRANCH  30  31
ENDBRANCH   1  30
TORSDOF 17
ENDMDL
MODEL 3
REMARK VINA RESULT:     -11.7      1.351      2.252
REMARK SMILES O=C(CNC(=O)[C@H]1CC[C@@H](Cn2cnc3ccccc3c2=O)CC1)NCCCCCCNC(=O)c1ccc(-c2c3nc(c(-c4c(F)c(F)c(F)c(F)c4F)c4ccc([nH]4)c(-c4c(F)c(F)c(F)c(F)c4F)c4nc(c(-c5c(F)c(F)c(F)c(F)c5F)c5ccc2[nH]5)C=C4)C=C3)cc1
REMARK SMILES IDX 27 1 26 2 25 3 1 4 2 5 3 7 4 8 5 9 6 11 7 12 24 13 8 14
REMARK SMILES IDX 23 15 9 16 10 17 11 18 12 19 13 20 21 21 14 22 20 23 22 24
REMARK SMILES IDX 15 25 19 26 16 27 18 28 17 29 28 30 29 31 30 32 31 33 32 34
REMARK SMILES IDX 33 35 34 37 35 38 36 39 97 40 37 41 96 42 38 43 39 44 40 45
REMARK SMILES IDX 90 46 41 47 95 48 89 49 91 50 42 51 94 52 88 53 87 54 43 56
REMARK SMILES IDX 75 57 55 58 74 59 56 60 59 61 73 62 92 63 57 64 58 65 72 67
REMARK SMILES IDX 93 68 60 69 44 70 45 71 53 72 46 73 47 74 51 75 54 76 48 77
REMARK SMILES IDX 49 78 52 79 50 80 76 81 77 82 85 83 78 84 79 85 83 86 86 87
REMARK SMILES IDX 80 88 81 89 84 90 82 91 61 92 62 93 70 94 63 95 64 96 68 97
REMARK SMILES IDX 71 98 65 99 66 100 69 101 67 102
REMARK H PARENT 25 6 4 10 32 36 91 55 59 66
REMARK Flexibility Score: inf
ROOT
ATOM      1  C   UNL A   1      34.869  30.436  28.099  1.00  0.00     0.021 C 
ENDROOT
BRANCH   1   2
ATOM      2  C   UNL A   1      34.823  29.433  26.944  1.00  0.00     0.116 C 
BRANCH   2   3
ATOM      3  N   UNL A   1      33.472  29.138  26.522  1.00  0.00    -0.355 N 
ATOM      4  O   UNL A   1      33.976  28.949  24.296  1.00  0.00    -0.273 OA
ATOM      5  C   UNL A   1      33.149  28.902  25.203  1.00  0.00     0.239 C 
ATOM      6  H   UNL A   1      32.758  29.106  27.199  1.00  0.00     0.163 HD
BRANCH   5   7
ATOM      7  C   UNL A   1      31.653  28.715  24.928  1.00  0.00     0.216 C 
BRANCH   7   8
ATOM      8  N   UNL A   1      31.030  27.624  25.675  1.00  0.00    -0.347 N 
ATOM      9  C   UNL A   1      31.322  26.300  25.760  1.00  0.00     0.223 C 
ATOM     10  H   UNL A   1      30.256  27.900  26.217  1.00  0.00     0.164 HD
ATOM     11  O   UNL A   1      30.599  25.616  26.489  1.00  0.00    -0.275 OA
BRANCH   9  12
ATOM     12  C   UNL A   1      32.455  25.641  24.973  1.00  0.00     0.078 C 
ATOM     13  C   UNL A   1      33.749  25.586  25.788  1.00  0.00     0.014 C 
ATOM     14  C   UNL A   1      32.052  24.316  24.321  1.00  0.00     0.014 C 
ATOM     15  C   UNL A   1      34.880  24.854  25.069  1.00  0.00     0.006 C 
ATOM     16  C   UNL A   1      33.230  23.595  23.669  1.00  0.00     0.006 C 
ATOM     17  C   UNL A   1      34.464  23.459  24.576  1.00  0.00     0.009 C 
BRANCH  17  18
ATOM     18  C   UNL A   1      34.302  22.479  25.762  1.00  0.00     0.130 C 
BRANCH  18  19
ATOM     19  N   UNL A   1      33.860  21.147  25.365  1.00  0.00    -0.298 N 
ATOM     20  C   UNL A   1      32.517  20.861  25.316  1.00  0.00     0.203 A 
ATOM     21  C   UNL A   1      34.808  20.196  25.008  1.00  0.00     0.261 A 
ATOM     22  N   UNL A   1      32.014  19.716  24.999  1.00  0.00    -0.238 NA
ATOM     23  C   UNL A   1      34.289  18.861  24.673  1.00  0.00     0.066 A 
ATOM     24  O   UNL A   1      36.017  20.403  24.964  1.00  0.00    -0.269 OA
ATOM     25  C   UNL A   1      32.905  18.679  24.688  1.00  0.00     0.077 A 
ATOM     26  C   UNL A   1      35.158  17.807  24.367  1.00  0.00     0.016 A 
ATOM     27  C   UNL A   1      32.396  17.415  24.386  1.00  0.00     0.029 A 
ATOM     28  C   UNL A   1      34.637  16.550  24.072  1.00  0.00     0.001 A 
ATOM     29  C   UNL A   1      33.255  16.354  24.081  1.00  0.00     0.002 A 
ENDBRANCH  18  19
ENDBRANCH  17  18
ENDBRANCH   9  12
ENDBRANCH   7   8
ENDBRANCH   5   7
ENDBRANCH   2   3
ENDBRANCH   1   2
BRANCH   1  30
ATOM     30  C   UNL A   1      34.730  31.907  27.689  1.00  0.00     0.002 C 
BRANCH  30  31
ATOM     31  C   UNL A   1      34.552  32.914  28.830  1.00  0.00     0.002 C 
BRANCH  31  32
ATOM     32  C   UNL A   1      33.450  33.951  28.622  1.00  0.00     0.021 C 
BRANCH  32  33
ATOM     33  C   UNL A   1      33.765  35.345  29.150  1.00  0.00     0.116 C 
BRANCH  33  34
ATOM     34  N   UNL A   1      32.784  35.827  30.112  1.00  0.00    -0.352 N 
ATOM     35  C   UNL A   1      32.753  35.669  31.479  1.00  0.00     0.251 C 
ATOM     36  H   UNL A   1      32.037  36.340  29.730  1.00  0.00     0.163 HD
ATOM     37  O   UNL A   1      31.778  36.042  32.124  1.00  0.00    -0.269 OA
BRANCH  35  38
ATOM     38  C   UNL A   1      33.882  35.007  32.169  1.00  0.00     0.039 A 
ATOM     39  C   UNL A   1      35.101  35.666  32.339  1.00  0.00     0.014 A 
ATOM     40  C   UNL A   1      33.727  33.693  32.622  1.00  0.00     0.014 A 
ATOM     41  C   UNL A   1      36.210  34.958  32.794  1.00  0.00     0.010 A 
ATOM     42  C   UNL A   1      34.822  33.008  33.156  1.00  0.00     0.010 A 
ATOM     43  C   UNL A   1      36.087  33.617  33.194  1.00  0.00    -0.014 A 
BRANCH  43  44
ATOM     44  C   UNL A   1      37.299  32.869  33.622  1.00  0.00     0.031 A 
ATOM     45  C   UNL A   1      37.946  31.864  32.706  1.00  0.00     0.074 A 
ATOM     46  C   UNL A   1      37.859  33.149  34.814  1.00  0.00     0.049 A 
ATOM     47  N   UNL A   1      39.027  31.149  32.897  1.00  0.00    -0.248 NA
ATOM     48  C   UNL A   1      37.298  31.630  31.406  1.00  0.00     0.031 C 
ATOM     49  C   UNL A   1      37.335  34.111  35.784  1.00  0.00     0.029 A 
ATOM     50  N   UNL A   1      39.006  32.673  35.401  1.00  0.00    -0.354 N 
ATOM     51  C   UNL A   1      39.178  30.373  31.755  1.00  0.00     0.074 A 
ATOM     52  C   UNL A   1      38.064  30.680  30.886  1.00  0.00     0.031 C 
ATOM     53  C   UNL A   1      38.186  34.199  36.817  1.00  0.00     0.029 A 
ATOM     54  C   UNL A   1      39.283  33.259  36.611  1.00  0.00     0.049 A 
ATOM     55  H   UNL A   1      39.573  31.980  34.993  1.00  0.00     0.167 HD
ATOM     56  C   UNL A   1      40.166  29.496  31.453  1.00  0.00     0.037 A 
ATOM     57  C   UNL A   1      40.304  33.058  37.466  1.00  0.00     0.037 A 
ATOM     58  C   UNL A   1      41.289  29.209  32.306  1.00  0.00     0.049 A 
ATOM     59  C   UNL A   1      41.363  32.048  37.125  1.00  0.00     0.074 A 
ATOM     60  C   UNL A   1      42.349  28.349  32.075  1.00  0.00     0.029 A 
ATOM     61  N   UNL A   1      41.499  29.775  33.554  1.00  0.00    -0.354 N 
ATOM     62  N   UNL A   1      41.494  31.324  36.041  1.00  0.00    -0.248 NA
ATOM     63  C   UNL A   1      42.410  31.821  38.131  1.00  0.00     0.031 C 
ATOM     64  C   UNL A   1      43.181  28.366  33.199  1.00  0.00     0.029 A 
ATOM     65  C   UNL A   1      42.662  29.268  34.113  1.00  0.00     0.049 A 
ATOM     66  H   UNL A   1      40.910  30.439  33.980  1.00  0.00     0.167 HD
ATOM     67  C   UNL A   1      42.638  30.562  36.228  1.00  0.00     0.074 A 
ATOM     68  C   UNL A   1      43.177  30.926  37.522  1.00  0.00     0.031 C 
ATOM     69  C   UNL A   1      43.186  29.637  35.403  1.00  0.00     0.037 A 
BRANCH  56  70
ATOM     70  C   UNL A   1      40.083  28.774  30.140  1.00  0.00     0.064 A 
ATOM     71  C   UNL A   1      40.669  29.296  28.977  1.00  0.00     0.173 A 
ATOM     72  C   UNL A   1      39.470  27.514  30.058  1.00  0.00     0.173 A 
ATOM     73  F   UNL A   1      41.257  30.502  29.000  1.00  0.00    -0.203 F 
ATOM     74  C   UNL A   1      40.632  28.589  27.777  1.00  0.00     0.198 A 
ATOM     75  C   UNL A   1      39.457  26.800  28.863  1.00  0.00     0.198 A 
ATOM     76  F   UNL A   1      38.901  26.968  31.143  1.00  0.00    -0.203 F 
ATOM     77  F   UNL A   1      41.171  29.121  26.672  1.00  0.00    -0.200 F 
ATOM     78  C   UNL A   1      40.035  27.339  27.723  1.00  0.00     0.200 A 
ATOM     79  F   UNL A   1      38.890  25.585  28.816  1.00  0.00    -0.200 F 
ATOM     80  F   UNL A   1      40.013  26.654  26.571  1.00  0.00    -0.200 F 
ENDBRANCH  56  70
BRANCH  57  81
ATOM     81  C   UNL A   1      40.370  33.845  38.723  1.00  0.00     0.064 A 
ATOM     82  C   UNL A   1      41.117  35.028  38.790  1.00  0.00     0.173 A 
ATOM     83  C   UNL A   1      39.660  33.453  39.866  1.00  0.00     0.173 A 
ATOM     84  F   UNL A   1      41.829  35.432  37.728  1.00  0.00    -0.203 F 
ATOM     85  C   UNL A   1      41.152  35.790  39.956  1.00  0.00     0.198 A 
ATOM     86  C   UNL A   1      39.673  34.229  41.023  1.00  0.00     0.198 A 
ATOM     87  F   UNL A   1      38.929  32.329  39.850  1.00  0.00    -0.203 F 
ATOM     88  F   UNL A   1      41.893  36.906  40.003  1.00  0.00    -0.200 F 
ATOM     89  C   UNL A   1      40.421  35.396  41.067  1.00  0.00     0.200 A 
ATOM     90  F   UNL A   1      38.954  33.853  42.089  1.00  0.00    -0.200 F 
ATOM     91  F   UNL A   1      40.441  36.139  42.183  1.00  0.00    -0.200 F 
ENDBRANCH  57  81
BRANCH  69  92
ATOM     92  C   UNL A   1      44.439  28.956  35.865  1.00  0.00     0.064 A 
ATOM     93  C   UNL A   1      44.391  27.753  36.584  1.00  0.00     0.173 A 
ATOM     94  C   UNL A   1      45.699  29.476  35.532  1.00  0.00     0.173 A 
ATOM     95  F   UNL A   1      43.211  27.224  36.936  1.00  0.00    -0.203 F 
ATOM     96  C   UNL A   1      45.561  27.101  36.963  1.00  0.00     0.198 A 
ATOM     97  C   UNL A   1      46.866  28.808  35.891  1.00  0.00     0.198 A 
ATOM     98  F   UNL A   1      45.796  30.621  34.840  1.00  0.00    -0.203 F 
ATOM     99  F   UNL A   1      45.494  25.968  37.675  1.00  0.00    -0.200 F 
ATOM    100  C   UNL A   1      46.797  27.624  36.609  1.00  0.00     0.200 A 
ATOM    101  F   UNL A   1      48.058  29.309  35.539  1.00  0.00    -0.200 F 
ATOM    102  F   UNL A   1      47.921  26.988  36.964  1.00  0.00    -0.200 F 
ENDBRANCH  69  92
ENDBRANCH  43  44
ENDBRANCH  35  38
ENDBRANCH  33  34
ENDBRANCH  32  33
ENDBRANCH  31  32
ENDBRANCH  30  31
ENDBRANCH   1  30
TORSDOF 17
ENDMDL
