MODEL 1
REMARK VINA RESULT:     -11.7      0.000      0.000
REMARK SMILES COc1cc(Cl)ccc1-c1ccc(CC(=O)NCCCCCCNC(=O)c2ccc(-c3c4nc(c(-c5c(F)c(F)c(F)c(F)c5F)c5ccc([nH]5)c(-c5c(F)c(F)c(F)c(F)c5F)c5nc(c(-c6c(F)c(F)c(F)c(F)c6F)c6ccc3[nH]6)C=C5)C=C4)cc2)cc1
REMARK SMILES IDX 20 1 19 2 18 3 17 4 15 5 16 6 14 8 13 9 10 10 11 11 91 12
REMARK SMILES IDX 12 13 90 14 9 15 3 16 4 17 5 18 8 19 6 20 7 21 2 22 1 23
REMARK SMILES IDX 21 24 22 25 23 26 24 27 25 28 26 30 27 31 28 32 89 33 29 34
REMARK SMILES IDX 88 35 30 36 31 37 32 38 82 39 33 40 87 41 81 42 83 43 34 44
REMARK SMILES IDX 86 45 80 46 79 47 35 49 67 50 47 51 66 52 48 53 51 54 65 55
REMARK SMILES IDX 84 56 49 57 50 58 64 60 85 61 52 62 36 63 37 64 45 65 38 66
REMARK SMILES IDX 39 67 43 68 46 69 40 70 41 71 44 72 42 73 68 74 69 75 77 76
REMARK SMILES IDX 70 77 71 78 75 79 78 80 72 81 73 82 76 83 74 84 53 85 54 86
REMARK SMILES IDX 62 87 55 88 56 89 60 90 63 91 57 92 58 93 61 94 59 95
REMARK H PARENT 17 7 24 29 83 48 51 59
REMARK Flexibility Score: inf
ROOT
ATOM      1  C   UNL A   1      34.053  25.791  24.896  1.00  0.00     0.002 C 
ENDROOT
BRANCH   1   2
ATOM      2  C   UNL A   1      35.062  24.700  25.281  1.00  0.00     0.021 C 
BRANCH   2   3
ATOM      3  C   UNL A   1      34.417  23.464  25.911  1.00  0.00     0.116 C 
BRANCH   3   4
ATOM      4  N   UNL A   1      34.063  22.488  24.899  1.00  0.00    -0.356 N 
ATOM      5  C   UNL A   1      32.884  21.825  24.720  1.00  0.00     0.224 C 
ATOM      6  O   UNL A   1      32.838  20.935  23.868  1.00  0.00    -0.275 OA
ATOM      7  H   UNL A   1      34.772  22.274  24.250  1.00  0.00     0.163 HD
BRANCH   5   8
ATOM      8  C   UNL A   1      31.651  22.228  25.511  1.00  0.00     0.135 C 
BRANCH   8   9
ATOM      9  C   UNL A   1      31.025  23.532  25.079  1.00  0.00    -0.039 A 
ATOM     10  C   UNL A   1      29.932  26.011  24.243  1.00  0.00    -0.015 A 
ATOM     11  C   UNL A   1      29.942  25.641  25.598  1.00  0.00     0.009 A 
ATOM     12  C   UNL A   1      30.463  25.103  23.315  1.00  0.00     0.009 A 
ATOM     13  C   UNL A   1      30.482  24.419  26.014  1.00  0.00     0.005 A 
ATOM     14  C   UNL A   1      30.979  23.872  23.721  1.00  0.00     0.005 A 
BRANCH  10  15
ATOM     15  C   UNL A   1      29.405  27.321  23.808  1.00  0.00     0.024 A 
ATOM     16  C   UNL A   1      30.214  28.475  23.708  1.00  0.00     0.128 A 
ATOM     17  C   UNL A   1      29.675  29.696  23.284  1.00  0.00     0.067 A 
ATOM     18  C   UNL A   1      28.318  29.790  22.991  1.00  0.00     0.044 A 
ATOM     19  C   UNL A   1      28.035  27.452  23.505  1.00  0.00     0.014 A 
ATOM     20  Cl  UNL A   1      27.656  31.294  22.480  1.00  0.00    -0.084 Cl
ATOM     21  C   UNL A   1      27.493  28.676  23.103  1.00  0.00     0.021 A 
BRANCH  16  22
ATOM     22  O   UNL A   1      31.564  28.356  23.940  1.00  0.00    -0.496 OA
ATOM     23  C   UNL A   1      32.346  28.454  22.752  1.00  0.00     0.278 C 
ENDBRANCH  16  22
ENDBRANCH  10  15
ENDBRANCH   8   9
ENDBRANCH   5   8
ENDBRANCH   3   4
ENDBRANCH   2   3
ENDBRANCH   1   2
BRANCH   1  24
ATOM     24  C   UNL A   1      33.410  26.525  26.079  1.00  0.00     0.002 C 
BRANCH  24  25
ATOM     25  C   UNL A   1      33.888  27.964  26.282  1.00  0.00     0.021 C 
BRANCH  25  26
ATOM     26  C   UNL A   1      33.476  28.582  27.615  1.00  0.00     0.116 C 
BRANCH  26  27
ATOM     27  N   UNL A   1      33.595  30.032  27.604  1.00  0.00    -0.352 N 
ATOM     28  C   UNL A   1      34.642  30.826  28.001  1.00  0.00     0.251 C 
ATOM     29  H   UNL A   1      32.809  30.516  27.260  1.00  0.00     0.163 HD
ATOM     30  O   UNL A   1      34.494  32.039  28.117  1.00  0.00    -0.269 OA
BRANCH  28  31
ATOM     31  C   UNL A   1      35.948  30.212  28.312  1.00  0.00     0.039 A 
ATOM     32  C   UNL A   1      36.931  30.167  27.320  1.00  0.00     0.014 A 
ATOM     33  C   UNL A   1      36.206  29.692  29.583  1.00  0.00     0.014 A 
ATOM     34  C   UNL A   1      38.200  29.674  27.627  1.00  0.00     0.010 A 
ATOM     35  C   UNL A   1      37.492  29.269  29.908  1.00  0.00     0.010 A 
ATOM     36  C   UNL A   1      38.504  29.266  28.937  1.00  0.00    -0.014 A 
BRANCH  36  37
ATOM     37  C   UNL A   1      39.882  28.868  29.320  1.00  0.00     0.031 A 
ATOM     38  C   UNL A   1      40.742  29.796  30.129  1.00  0.00     0.074 A 
ATOM     39  C   UNL A   1      40.385  27.704  28.866  1.00  0.00     0.049 A 
ATOM     40  N   UNL A   1      41.997  29.665  30.481  1.00  0.00    -0.248 NA
ATOM     41  C   UNL A   1      40.118  31.047  30.582  1.00  0.00     0.031 C 
ATOM     42  C   UNL A   1      39.660  26.738  28.039  1.00  0.00     0.029 A 
ATOM     43  N   UNL A   1      41.627  27.142  29.021  1.00  0.00    -0.354 N 
ATOM     44  C   UNL A   1      42.312  30.817  31.189  1.00  0.00     0.074 A 
ATOM     45  C   UNL A   1      41.136  31.661  31.167  1.00  0.00     0.031 C 
ATOM     46  C   UNL A   1      40.461  25.694  27.777  1.00  0.00     0.029 A 
ATOM     47  C   UNL A   1      41.771  25.939  28.375  1.00  0.00     0.049 A 
ATOM     48  H   UNL A   1      42.346  27.561  29.547  1.00  0.00     0.167 HD
ATOM     49  C   UNL A   1      43.472  31.133  31.815  1.00  0.00     0.037 A 
ATOM     50  C   UNL A   1      42.842  25.130  28.262  1.00  0.00     0.037 A 
ATOM     51  C   UNL A   1      44.635  30.285  31.837  1.00  0.00     0.049 A 
ATOM     52  C   UNL A   1      44.132  25.525  28.930  1.00  0.00     0.074 A 
ATOM     53  C   UNL A   1      45.839  30.489  32.490  1.00  0.00     0.029 A 
ATOM     54  N   UNL A   1      44.746  29.075  31.166  1.00  0.00    -0.354 N 
ATOM     55  N   UNL A   1      44.398  26.584  29.654  1.00  0.00    -0.248 NA
ATOM     56  C   UNL A   1      45.271  24.611  28.762  1.00  0.00     0.031 C 
ATOM     57  C   UNL A   1      46.697  29.434  32.164  1.00  0.00     0.029 A 
ATOM     58  C   UNL A   1      46.010  28.540  31.360  1.00  0.00     0.049 A 
ATOM     59  H   UNL A   1      44.032  28.659  30.631  1.00  0.00     0.167 HD
ATOM     60  C   UNL A   1      45.722  26.453  30.052  1.00  0.00     0.074 A 
ATOM     61  C   UNL A   1      46.200  25.202  29.500  1.00  0.00     0.031 C 
ATOM     62  C   UNL A   1      46.473  27.292  30.805  1.00  0.00     0.037 A 
BRANCH  49  63
ATOM     63  C   UNL A   1      43.541  32.457  32.521  1.00  0.00     0.064 A 
ATOM     64  C   UNL A   1      43.921  33.632  31.853  1.00  0.00     0.173 A 
ATOM     65  C   UNL A   1      43.187  32.561  33.876  1.00  0.00     0.173 A 
ATOM     66  F   UNL A   1      44.276  33.588  30.560  1.00  0.00    -0.203 F 
ATOM     67  C   UNL A   1      43.981  34.852  32.524  1.00  0.00     0.198 A 
ATOM     68  C   UNL A   1      43.215  33.788  34.533  1.00  0.00     0.198 A 
ATOM     69  F   UNL A   1      42.807  31.472  34.562  1.00  0.00    -0.203 F 
ATOM     70  F   UNL A   1      44.403  35.948  31.878  1.00  0.00    -0.200 F 
ATOM     71  C   UNL A   1      43.621  34.930  33.860  1.00  0.00     0.200 A 
ATOM     72  F   UNL A   1      42.851  33.865  35.821  1.00  0.00    -0.200 F 
ATOM     73  F   UNL A   1      43.673  36.106  34.501  1.00  0.00    -0.200 F 
ENDBRANCH  49  63
BRANCH  50  74
ATOM     74  C   UNL A   1      42.737  23.862  27.492  1.00  0.00     0.064 A 
ATOM     75  C   UNL A   1      42.257  22.692  28.097  1.00  0.00     0.173 A 
ATOM     76  C   UNL A   1      43.111  23.793  26.143  1.00  0.00     0.173 A 
ATOM     77  F   UNL A   1      41.906  22.704  29.391  1.00  0.00    -0.203 F 
ATOM     78  C   UNL A   1      42.172  21.497  27.386  1.00  0.00     0.198 A 
ATOM     79  C   UNL A   1      42.997  22.604  25.424  1.00  0.00     0.198 A 
ATOM     80  F   UNL A   1      43.573  24.884  25.514  1.00  0.00    -0.203 F 
ATOM     81  F   UNL A   1      41.753  20.383  28.001  1.00  0.00    -0.200 F 
ATOM     82  C   UNL A   1      42.535  21.455  26.049  1.00  0.00     0.200 A 
ATOM     83  F   UNL A   1      43.332  22.573  24.127  1.00  0.00    -0.200 F 
ATOM     84  F   UNL A   1      42.448  20.307  25.363  1.00  0.00    -0.200 F 
ENDBRANCH  50  74
BRANCH  62  85
ATOM     85  C   UNL A   1      47.886  26.878  31.103  1.00  0.00     0.064 A 
ATOM     86  C   UNL A   1      48.195  26.034  32.180  1.00  0.00     0.173 A 
ATOM     87  C   UNL A   1      48.938  27.292  30.271  1.00  0.00     0.173 A 
ATOM     88  F   UNL A   1      47.228  25.624  33.015  1.00  0.00    -0.203 F 
ATOM     89  C   UNL A   1      49.507  25.637  32.426  1.00  0.00     0.198 A 
ATOM     90  C   UNL A   1      50.244  26.866  30.500  1.00  0.00     0.198 A 
ATOM     91  F   UNL A   1      48.697  28.095  29.224  1.00  0.00    -0.203 F 
ATOM     92  F   UNL A   1      49.784  24.868  33.488  1.00  0.00    -0.200 F 
ATOM     93  C   UNL A   1      50.528  26.046  31.580  1.00  0.00     0.200 A 
ATOM     94  F   UNL A   1      51.226  27.248  29.673  1.00  0.00    -0.200 F 
ATOM     95  F   UNL A   1      51.787  25.651  31.811  1.00  0.00    -0.200 F 
ENDBRANCH  62  85
ENDBRANCH  36  37
ENDBRANCH  28  31
ENDBRANCH  26  27
ENDBRANCH  25  26
ENDBRANCH  24  25
ENDBRANCH   1  24
TORSDOF 16
ENDMDL
MODEL 2
REMARK VINA RESULT:     -11.6      2.829      7.687
REMARK SMILES COc1cc(Cl)ccc1-c1ccc(CC(=O)NCCCCCCNC(=O)c2ccc(-c3c4nc(c(-c5c(F)c(F)c(F)c(F)c5F)c5ccc([nH]5)c(-c5c(F)c(F)c(F)c(F)c5F)c5nc(c(-c6c(F)c(F)c(F)c(F)c6F)c6ccc3[nH]6)C=C5)C=C4)cc2)cc1
REMARK SMILES IDX 20 1 19 2 18 3 17 4 15 5 16 6 14 8 13 9 10 10 11 11 91 12
REMARK SMILES IDX 12 13 90 14 9 15 3 16 4 17 5 18 8 19 6 20 7 21 2 22 1 23
REMARK SMILES IDX 21 24 22 25 23 26 24 27 25 28 26 30 27 31 28 32 89 33 29 34
REMARK SMILES IDX 88 35 30 36 31 37 32 38 82 39 33 40 87 41 81 42 83 43 34 44
REMARK SMILES IDX 86 45 80 46 79 47 35 49 67 50 47 51 66 52 48 53 51 54 65 55
REMARK SMILES IDX 84 56 49 57 50 58 64 60 85 61 52 62 36 63 37 64 45 65 38 66
REMARK SMILES IDX 39 67 43 68 46 69 40 70 41 71 44 72 42 73 68 74 69 75 77 76
REMARK SMILES IDX 70 77 71 78 75 79 78 80 72 81 73 82 76 83 74 84 53 85 54 86
REMARK SMILES IDX 62 87 55 88 56 89 60 90 63 91 57 92 58 93 61 94 59 95
REMARK H PARENT 17 7 24 29 83 48 51 59
REMARK Flexibility Score: inf
ROOT
ATOM      1  C   UNL A   1      33.966  25.690  25.794  1.00  0.00     0.002 C 
ENDROOT
BRANCH   1   2
ATOM      2  C   UNL A   1      34.909  24.646  25.180  1.00  0.00     0.021 C 
BRANCH   2   3
ATOM      3  C   UNL A   1      34.367  23.217  25.247  1.00  0.00     0.116 C 
BRANCH   3   4
ATOM      4  N   UNL A   1      33.833  22.923  26.562  1.00  0.00    -0.356 N 
ATOM      5  C   UNL A   1      32.542  22.681  26.932  1.00  0.00     0.224 C 
ATOM      6  O   UNL A   1      32.287  22.580  28.134  1.00  0.00    -0.275 OA
ATOM      7  H   UNL A   1      34.494  22.893  27.291  1.00  0.00     0.163 HD
BRANCH   5   8
ATOM      8  C   UNL A   1      31.469  22.479  25.875  1.00  0.00     0.135 C 
BRANCH   8   9
ATOM      9  C   UNL A   1      30.967  23.752  25.237  1.00  0.00    -0.039 A 
ATOM     10  C   UNL A   1      30.111  26.163  24.016  1.00  0.00    -0.015 A 
ATOM     11  C   UNL A   1      29.993  25.969  25.402  1.00  0.00     0.009 A 
ATOM     12  C   UNL A   1      30.648  25.116  23.253  1.00  0.00     0.009 A 
ATOM     13  C   UNL A   1      30.417  24.780  26.007  1.00  0.00     0.005 A 
ATOM     14  C   UNL A   1      31.048  23.919  23.849  1.00  0.00     0.005 A 
BRANCH  10  15
ATOM     15  C   UNL A   1      29.709  27.435  23.382  1.00  0.00     0.024 A 
ATOM     16  C   UNL A   1      28.362  27.853  23.291  1.00  0.00     0.128 A 
ATOM     17  C   UNL A   1      28.025  29.070  22.687  1.00  0.00     0.067 A 
ATOM     18  C   UNL A   1      29.021  29.867  22.133  1.00  0.00     0.044 A 
ATOM     19  C   UNL A   1      30.693  28.267  22.809  1.00  0.00     0.014 A 
ATOM     20  Cl  UNL A   1      28.605  31.359  21.382  1.00  0.00    -0.084 Cl
ATOM     21  C   UNL A   1      30.354  29.472  22.187  1.00  0.00     0.021 A 
BRANCH  16  22
ATOM     22  O   UNL A   1      27.393  27.087  23.895  1.00  0.00    -0.496 OA
ATOM     23  C   UNL A   1      26.111  27.711  23.904  1.00  0.00     0.278 C 
ENDBRANCH  16  22
ENDBRANCH  10  15
ENDBRANCH   8   9
ENDBRANCH   5   8
ENDBRANCH   3   4
ENDBRANCH   2   3
ENDBRANCH   1   2
BRANCH   1  24
ATOM     24  C   UNL A   1      33.619  26.869  24.876  1.00  0.00     0.002 C 
BRANCH  24  25
ATOM     25  C   UNL A   1      33.022  28.085  25.586  1.00  0.00     0.021 C 
BRANCH  25  26
ATOM     26  C   UNL A   1      33.535  29.428  25.074  1.00  0.00     0.116 C 
BRANCH  26  27
ATOM     27  N   UNL A   1      32.935  30.547  25.785  1.00  0.00    -0.352 N 
ATOM     28  C   UNL A   1      33.324  31.145  26.958  1.00  0.00     0.251 C 
ATOM     29  H   UNL A   1      32.133  30.933  25.364  1.00  0.00     0.163 HD
ATOM     30  O   UNL A   1      32.582  31.944  27.524  1.00  0.00    -0.269 OA
BRANCH  28  31
ATOM     31  C   UNL A   1      34.631  30.806  27.554  1.00  0.00     0.039 A 
ATOM     32  C   UNL A   1      35.622  31.788  27.619  1.00  0.00     0.014 A 
ATOM     33  C   UNL A   1      34.874  29.525  28.058  1.00  0.00     0.014 A 
ATOM     34  C   UNL A   1      36.829  31.510  28.262  1.00  0.00     0.010 A 
ATOM     35  C   UNL A   1      36.047  29.272  28.763  1.00  0.00     0.010 A 
ATOM     36  C   UNL A   1      37.032  30.265  28.880  1.00  0.00    -0.014 A 
BRANCH  36  37
ATOM     37  C   UNL A   1      38.248  29.993  29.687  1.00  0.00     0.031 A 
ATOM     38  C   UNL A   1      39.313  29.069  29.169  1.00  0.00     0.074 A 
ATOM     39  C   UNL A   1      38.351  30.517  30.924  1.00  0.00     0.049 A 
ATOM     40  N   UNL A   1      40.397  28.639  29.764  1.00  0.00    -0.248 NA
ATOM     41  C   UNL A   1      39.121  28.538  27.812  1.00  0.00     0.031 C 
ATOM     42  C   UNL A   1      37.365  31.397  31.552  1.00  0.00     0.029 A 
ATOM     43  N   UNL A   1      39.326  30.375  31.880  1.00  0.00    -0.354 N 
ATOM     44  C   UNL A   1      41.010  27.784  28.859  1.00  0.00     0.074 A 
ATOM     45  C   UNL A   1      40.150  27.711  27.697  1.00  0.00     0.031 C 
ATOM     46  C   UNL A   1      37.793  31.732  32.779  1.00  0.00     0.029 A 
ATOM     47  C   UNL A   1      39.058  31.053  33.043  1.00  0.00     0.049 A 
ATOM     48  H   UNL A   1      40.140  29.837  31.745  1.00  0.00     0.167 HD
ATOM     49  C   UNL A   1      42.194  27.134  28.980  1.00  0.00     0.037 A 
ATOM     50  C   UNL A   1      39.745  31.109  34.201  1.00  0.00     0.037 A 
ATOM     51  C   UNL A   1      43.047  27.218  30.136  1.00  0.00     0.049 A 
ATOM     52  C   UNL A   1      41.034  30.343  34.325  1.00  0.00     0.074 A 
ATOM     53  C   UNL A   1      44.292  26.644  30.333  1.00  0.00     0.029 A 
ATOM     54  N   UNL A   1      42.740  27.911  31.299  1.00  0.00    -0.354 N 
ATOM     55  N   UNL A   1      41.640  29.593  33.437  1.00  0.00    -0.248 NA
ATOM     56  C   UNL A   1      41.735  30.431  35.614  1.00  0.00     0.031 C 
ATOM     57  C   UNL A   1      44.708  26.937  31.635  1.00  0.00     0.029 A 
ATOM     58  C   UNL A   1      43.754  27.747  32.229  1.00  0.00     0.049 A 
ATOM     59  H   UNL A   1      41.922  28.440  31.441  1.00  0.00     0.167 HD
ATOM     60  C   UNL A   1      42.803  29.142  34.047  1.00  0.00     0.074 A 
ATOM     61  C   UNL A   1      42.827  29.717  35.376  1.00  0.00     0.031 C 
ATOM     62  C   UNL A   1      43.765  28.327  33.550  1.00  0.00     0.037 A 
BRANCH  49  63
ATOM     63  C   UNL A   1      42.630  26.269  27.831  1.00  0.00     0.064 A 
ATOM     64  C   UNL A   1      43.525  26.735  26.855  1.00  0.00     0.173 A 
ATOM     65  C   UNL A   1      42.177  24.945  27.724  1.00  0.00     0.173 A 
ATOM     66  F   UNL A   1      43.983  27.994  26.905  1.00  0.00    -0.203 F 
ATOM     67  C   UNL A   1      43.918  25.920  25.795  1.00  0.00     0.198 A 
ATOM     68  C   UNL A   1      42.600  24.123  26.684  1.00  0.00     0.198 A 
ATOM     69  F   UNL A   1      41.328  24.444  28.635  1.00  0.00    -0.203 F 
ATOM     70  F   UNL A   1      44.727  26.407  24.845  1.00  0.00    -0.200 F 
ATOM     71  C   UNL A   1      43.461  24.614  25.715  1.00  0.00     0.200 A 
ATOM     72  F   UNL A   1      42.170  22.855  26.616  1.00  0.00    -0.200 F 
ATOM     73  F   UNL A   1      43.846  23.830  24.698  1.00  0.00    -0.200 F 
ENDBRANCH  49  63
BRANCH  50  74
ATOM     74  C   UNL A   1      39.231  31.928  35.330  1.00  0.00     0.064 A 
ATOM     75  C   UNL A   1      39.514  33.299  35.411  1.00  0.00     0.173 A 
ATOM     76  C   UNL A   1      38.450  31.363  36.348  1.00  0.00     0.173 A 
ATOM     77  F   UNL A   1      40.274  33.882  34.472  1.00  0.00    -0.203 F 
ATOM     78  C   UNL A   1      39.050  34.069  36.476  1.00  0.00     0.198 A 
ATOM     79  C   UNL A   1      37.960  32.139  37.396  1.00  0.00     0.198 A 
ATOM     80  F   UNL A   1      38.146  30.056  36.317  1.00  0.00    -0.203 F 
ATOM     81  F   UNL A   1      39.373  35.367  36.552  1.00  0.00    -0.200 F 
ATOM     82  C   UNL A   1      38.268  33.490  37.463  1.00  0.00     0.200 A 
ATOM     83  F   UNL A   1      37.190  31.580  38.339  1.00  0.00    -0.200 F 
ATOM     84  F   UNL A   1      37.815  34.232  38.484  1.00  0.00    -0.200 F 
ENDBRANCH  50  74
BRANCH  62  85
ATOM     85  C   UNL A   1      44.940  28.024  34.435  1.00  0.00     0.064 A 
ATOM     86  C   UNL A   1      46.069  28.856  34.472  1.00  0.00     0.173 A 
ATOM     87  C   UNL A   1      44.917  26.912  35.292  1.00  0.00     0.173 A 
ATOM     88  F   UNL A   1      46.149  29.921  33.660  1.00  0.00    -0.203 F 
ATOM     89  C   UNL A   1      47.138  28.576  35.319  1.00  0.00     0.198 A 
ATOM     90  C   UNL A   1      45.973  26.654  36.162  1.00  0.00     0.198 A 
ATOM     91  F   UNL A   1      43.859  26.087  35.301  1.00  0.00    -0.203 F 
ATOM     92  F   UNL A   1      48.225  29.360  35.303  1.00  0.00    -0.200 F 
ATOM     93  C   UNL A   1      47.084  27.481  36.170  1.00  0.00     0.200 A 
ATOM     94  F   UNL A   1      45.912  25.606  36.994  1.00  0.00    -0.200 F 
ATOM     95  F   UNL A   1      48.109  27.221  36.993  1.00  0.00    -0.200 F 
ENDBRANCH  62  85
ENDBRANCH  36  37
ENDBRANCH  28  31
ENDBRANCH  26  27
ENDBRANCH  25  26
ENDBRANCH  24  25
ENDBRANCH   1  24
TORSDOF 16
ENDMDL
MODEL 3
REMARK VINA RESULT:     -11.6      4.086      9.269
REMARK SMILES COc1cc(Cl)ccc1-c1ccc(CC(=O)NCCCCCCNC(=O)c2ccc(-c3c4nc(c(-c5c(F)c(F)c(F)c(F)c5F)c5ccc([nH]5)c(-c5c(F)c(F)c(F)c(F)c5F)c5nc(c(-c6c(F)c(F)c(F)c(F)c6F)c6ccc3[nH]6)C=C5)C=C4)cc2)cc1
REMARK SMILES IDX 20 1 19 2 18 3 17 4 15 5 16 6 14 8 13 9 10 10 11 11 91 12
REMARK SMILES IDX 12 13 90 14 9 15 3 16 4 17 5 18 8 19 6 20 7 21 2 22 1 23
REMARK SMILES IDX 21 24 22 25 23 26 24 27 25 28 26 30 27 31 28 32 89 33 29 34
REMARK SMILES IDX 88 35 30 36 31 37 32 38 82 39 33 40 87 41 81 42 83 43 34 44
REMARK SMILES IDX 86 45 80 46 79 47 35 49 67 50 47 51 66 52 48 53 51 54 65 55
REMARK SMILES IDX 84 56 49 57 50 58 64 60 85 61 52 62 36 63 37 64 45 65 38 66
REMARK SMILES IDX 39 67 43 68 46 69 40 70 41 71 44 72 42 73 68 74 69 75 77 76
REMARK SMILES IDX 70 77 71 78 75 79 78 80 72 81 73 82 76 83 74 84 53 85 54 86
REMARK SMILES IDX 62 87 55 88 56 89 60 90 63 91 57 92 58 93 61 94 59 95
REMARK H PARENT 17 7 24 29 83 48 51 59
REMARK Flexibility Score: inf
ROOT
ATOM      1  C   UNL A   1      32.806  29.684  26.976  1.00  0.00     0.002 C 
ENDROOT
BRANCH   1   2
ATOM      2  C   UNL A   1      33.905  28.958  26.190  1.00  0.00     0.021 C 
BRANCH   2   3
ATOM      3  C   UNL A   1      33.368  27.923  25.199  1.00  0.00     0.116 C 
BRANCH   3   4
ATOM      4  N   UNL A   1      33.910  28.142  23.872  1.00  0.00    -0.356 N 
ATOM      5  C   UNL A   1      33.484  27.640  22.677  1.00  0.00     0.224 C 
ATOM      6  O   UNL A   1      34.172  27.851  21.675  1.00  0.00    -0.275 OA
ATOM      7  H   UNL A   1      34.694  28.735  23.827  1.00  0.00     0.163 HD
BRANCH   5   8
ATOM      8  C   UNL A   1      32.161  26.898  22.586  1.00  0.00     0.135 C 
BRANCH   8   9
ATOM      9  C   UNL A   1      32.251  25.416  22.861  1.00  0.00    -0.039 A 
ATOM     10  C   UNL A   1      32.406  22.651  23.467  1.00  0.00    -0.015 A 
ATOM     11  C   UNL A   1      33.525  23.354  22.993  1.00  0.00     0.009 A 
ATOM     12  C   UNL A   1      31.203  23.358  23.611  1.00  0.00     0.009 A 
ATOM     13  C   UNL A   1      33.452  24.720  22.694  1.00  0.00     0.005 A 
ATOM     14  C   UNL A   1      31.118  24.713  23.291  1.00  0.00     0.005 A 
BRANCH  10  15
ATOM     15  C   UNL A   1      32.493  21.221  23.827  1.00  0.00     0.024 A 
ATOM     16  C   UNL A   1      32.869  20.778  25.116  1.00  0.00     0.128 A 
ATOM     17  C   UNL A   1      32.932  19.413  25.418  1.00  0.00     0.067 A 
ATOM     18  C   UNL A   1      32.660  18.472  24.429  1.00  0.00     0.044 A 
ATOM     19  C   UNL A   1      32.225  20.241  22.850  1.00  0.00     0.014 A 
ATOM     20  Cl  UNL A   1      32.748  16.793  24.799  1.00  0.00    -0.084 Cl
ATOM     21  C   UNL A   1      32.310  18.877  23.146  1.00  0.00     0.021 A 
BRANCH  16  22
ATOM     22  O   UNL A   1      33.076  21.716  26.099  1.00  0.00    -0.496 OA
ATOM     23  C   UNL A   1      34.441  21.811  26.503  1.00  0.00     0.278 C 
ENDBRANCH  16  22
ENDBRANCH  10  15
ENDBRANCH   8   9
ENDBRANCH   5   8
ENDBRANCH   3   4
ENDBRANCH   2   3
ENDBRANCH   1   2
BRANCH   1  24
ATOM     24  C   UNL A   1      31.832  30.505  26.121  1.00  0.00     0.002 C 
BRANCH  24  25
ATOM     25  C   UNL A   1      31.514  31.899  26.665  1.00  0.00     0.021 C 
BRANCH  25  26
ATOM     26  C   UNL A   1      32.696  32.600  27.329  1.00  0.00     0.116 C 
BRANCH  26  27
ATOM     27  N   UNL A   1      32.416  34.003  27.598  1.00  0.00    -0.352 N 
ATOM     28  C   UNL A   1      32.973  34.840  28.533  1.00  0.00     0.251 C 
ATOM     29  H   UNL A   1      31.726  34.412  27.027  1.00  0.00     0.163 HD
ATOM     30  O   UNL A   1      32.472  35.938  28.761  1.00  0.00    -0.269 OA
BRANCH  28  31
ATOM     31  C   UNL A   1      34.169  34.407  29.283  1.00  0.00     0.039 A 
ATOM     32  C   UNL A   1      34.012  33.895  30.573  1.00  0.00     0.014 A 
ATOM     33  C   UNL A   1      35.441  34.496  28.710  1.00  0.00     0.014 A 
ATOM     34  C   UNL A   1      35.121  33.396  31.258  1.00  0.00     0.010 A 
ATOM     35  C   UNL A   1      36.533  33.932  29.363  1.00  0.00     0.010 A 
ATOM     36  C   UNL A   1      36.382  33.367  30.638  1.00  0.00    -0.014 A 
BRANCH  36  37
ATOM     37  C   UNL A   1      37.547  32.717  31.291  1.00  0.00     0.031 A 
ATOM     38  C   UNL A   1      38.247  31.568  30.624  1.00  0.00     0.074 A 
ATOM     39  C   UNL A   1      37.919  33.113  32.523  1.00  0.00     0.049 A 
ATOM     40  N   UNL A   1      39.219  30.816  31.077  1.00  0.00    -0.248 NA
ATOM     41  C   UNL A   1      37.776  31.197  29.282  1.00  0.00     0.031 C 
ATOM     42  C   UNL A   1      37.292  34.192  33.289  1.00  0.00     0.029 A 
ATOM     43  N   UNL A   1      38.905  32.645  33.356  1.00  0.00    -0.354 N 
ATOM     44  C   UNL A   1      39.469  29.883  30.081  1.00  0.00     0.074 A 
ATOM     45  C   UNL A   1      38.510  30.125  29.024  1.00  0.00     0.031 C 
ATOM     46  C   UNL A   1      37.920  34.317  34.468  1.00  0.00     0.029 A 
ATOM     47  C   UNL A   1      38.960  33.297  34.563  1.00  0.00     0.049 A 
ATOM     48  H   UNL A   1      39.515  31.912  33.111  1.00  0.00     0.167 HD
ATOM     49  C   UNL A   1      40.425  28.923  30.044  1.00  0.00     0.037 A 
ATOM     50  C   UNL A   1      39.749  33.087  35.635  1.00  0.00     0.037 A 
ATOM     51  C   UNL A   1      41.380  28.692  31.096  1.00  0.00     0.049 A 
ATOM     52  C   UNL A   1      40.773  31.986  35.585  1.00  0.00     0.074 A 
ATOM     53  C   UNL A   1      42.424  27.783  31.130  1.00  0.00     0.029 A 
ATOM     54  N   UNL A   1      41.402  29.370  32.308  1.00  0.00    -0.354 N 
ATOM     55  N   UNL A   1      41.048  31.153  34.611  1.00  0.00    -0.248 NA
ATOM     56  C   UNL A   1      41.598  31.793  36.787  1.00  0.00     0.031 C 
ATOM     57  C   UNL A   1      43.036  27.867  32.384  1.00  0.00     0.029 A 
ATOM     58  C   UNL A   1      42.417  28.872  33.110  1.00  0.00     0.049 A 
ATOM     59  H   UNL A   1      40.786  30.095  32.560  1.00  0.00     0.167 HD
ATOM     60  C   UNL A   1      42.091  30.359  35.068  1.00  0.00     0.074 A 
ATOM     61  C   UNL A   1      42.411  30.820  36.403  1.00  0.00     0.031 C 
ATOM     62  C   UNL A   1      42.726  29.341  34.438  1.00  0.00     0.037 A 
BRANCH  49  63
ATOM     63  C   UNL A   1      40.479  28.044  28.826  1.00  0.00     0.064 A 
ATOM     64  C   UNL A   1      39.768  26.836  28.755  1.00  0.00     0.173 A 
ATOM     65  C   UNL A   1      41.224  28.431  27.701  1.00  0.00     0.173 A 
ATOM     66  F   UNL A   1      39.046  26.415  29.805  1.00  0.00    -0.203 F 
ATOM     67  C   UNL A   1      39.830  26.032  27.619  1.00  0.00     0.198 A 
ATOM     68  C   UNL A   1      41.255  27.642  26.555  1.00  0.00     0.198 A 
ATOM     69  F   UNL A   1      41.916  29.581  27.710  1.00  0.00    -0.203 F 
ATOM     70  F   UNL A   1      39.188  24.856  27.598  1.00  0.00    -0.200 F 
ATOM     71  C   UNL A   1      40.567  26.439  26.518  1.00  0.00     0.200 A 
ATOM     72  F   UNL A   1      41.956  28.045  25.484  1.00  0.00    -0.200 F 
ATOM     73  F   UNL A   1      40.620  25.668  25.423  1.00  0.00    -0.200 F 
ENDBRANCH  49  63
BRANCH  50  74
ATOM     74  C   UNL A   1      39.606  33.944  36.841  1.00  0.00     0.064 A 
ATOM     75  C   UNL A   1      38.816  33.535  37.924  1.00  0.00     0.173 A 
ATOM     76  C   UNL A   1      40.253  35.184  36.938  1.00  0.00     0.173 A 
ATOM     77  F   UNL A   1      38.160  32.365  37.870  1.00  0.00    -0.203 F 
ATOM     78  C   UNL A   1      38.664  34.341  39.050  1.00  0.00     0.198 A 
ATOM     79  C   UNL A   1      40.126  35.975  38.078  1.00  0.00     0.198 A 
ATOM     80  F   UNL A   1      41.025  35.621  35.932  1.00  0.00    -0.203 F 
ATOM     81  F   UNL A   1      37.866  33.946  40.052  1.00  0.00    -0.200 F 
ATOM     82  C   UNL A   1      39.325  35.557  39.130  1.00  0.00     0.200 A 
ATOM     83  F   UNL A   1      40.781  37.142  38.157  1.00  0.00    -0.200 F 
ATOM     84  F   UNL A   1      39.185  36.330  40.216  1.00  0.00    -0.200 F 
ENDBRANCH  50  74
BRANCH  62  85
ATOM     85  C   UNL A   1      43.850  28.668  35.172  1.00  0.00     0.064 A 
ATOM     86  C   UNL A   1      45.174  29.122  35.069  1.00  0.00     0.173 A 
ATOM     87  C   UNL A   1      43.593  27.584  36.026  1.00  0.00     0.173 A 
ATOM     88  F   UNL A   1      45.475  30.143  34.253  1.00  0.00    -0.203 F 
ATOM     89  C   UNL A   1      46.200  28.503  35.778  1.00  0.00     0.198 A 
ATOM     90  C   UNL A   1      44.617  26.990  36.759  1.00  0.00     0.198 A 
ATOM     91  F   UNL A   1      42.345  27.113  36.165  1.00  0.00    -0.203 F 
ATOM     92  F   UNL A   1      47.463  28.925  35.628  1.00  0.00    -0.200 F 
ATOM     93  C   UNL A   1      45.919  27.445  36.630  1.00  0.00     0.200 A 
ATOM     94  F   UNL A   1      44.341  25.978  37.593  1.00  0.00    -0.200 F 
ATOM     95  F   UNL A   1      46.907  26.860  37.321  1.00  0.00    -0.200 F 
ENDBRANCH  62  85
ENDBRANCH  36  37
ENDBRANCH  28  31
ENDBRANCH  26  27
ENDBRANCH  25  26
ENDBRANCH  24  25
ENDBRANCH   1  24
TORSDOF 16
ENDMDL
