MODEL 1
REMARK VINA RESULT:     -12.0      0.000      0.000
REMARK SMILES C[C@@H](C(=O)NCCCCCCNC(=O)c1ccc(-c2c3nc(c(-c4c(F)c(F)c(F)c(F)c4F)c4ccc([nH]4)c(-c4c(F)c(F)c(F)c(F)c4F)c4nc(c(-c5c(F)c(F)c(F)c(F)c5F)c5ccc2[nH]5)C=C4)C=C3)cc1)c1ccc(Cc2ccsc2)cc1F
REMARK SMILES IDX 8 1 7 2 6 3 5 4 3 5 4 6 2 8 1 9 78 10 79 11 89 12 80 13
REMARK SMILES IDX 88 14 90 15 81 16 82 17 83 18 84 19 87 20 85 21 86 22 9 23
REMARK SMILES IDX 10 24 11 25 12 26 13 27 14 29 15 30 16 31 77 32 17 33 76 34
REMARK SMILES IDX 18 35 19 36 20 37 70 38 21 39 75 40 69 41 71 42 22 43 74 44
REMARK SMILES IDX 68 45 67 46 23 48 55 49 35 50 54 51 36 52 39 53 53 54 72 55
REMARK SMILES IDX 37 56 38 57 52 59 73 60 40 61 24 62 25 63 33 64 26 65 27 66
REMARK SMILES IDX 31 67 34 68 28 69 29 70 32 71 30 72 56 73 57 74 65 75 58 76
REMARK SMILES IDX 59 77 63 78 66 79 60 80 61 81 64 82 62 83 41 84 42 85 50 86
REMARK SMILES IDX 43 87 44 88 48 89 51 90 45 91 46 92 49 93 47 94
REMARK H PARENT 5 7 12 28 71 47 39 58
REMARK Flexibility Score: inf
ROOT
ATOM      1  C   UNL A   1      32.087  29.408  26.165  1.00  0.00     0.002 C 
ENDROOT
BRANCH   1   2
ATOM      2  C   UNL A   1      33.404  29.055  25.458  1.00  0.00     0.021 C 
BRANCH   2   3
ATOM      3  C   UNL A   1      33.715  27.557  25.410  1.00  0.00     0.116 C 
BRANCH   3   4
ATOM      4  N   UNL A   1      34.050  27.150  24.063  1.00  0.00    -0.356 N 
ATOM      5  C   UNL A   1      33.460  26.257  23.222  1.00  0.00     0.227 C 
ATOM      6  O   UNL A   1      34.063  26.059  22.164  1.00  0.00    -0.274 OA
ATOM      7  H   UNL A   1      34.844  27.596  23.691  1.00  0.00     0.163 HD
BRANCH   5   8
ATOM      8  C   UNL A   1      32.109  25.609  23.586  1.00  0.00     0.108 C 
ATOM      9  C   UNL A   1      31.812  24.341  22.780  1.00  0.00     0.023 C 
BRANCH   8  10
ATOM     10  C   UNL A   1      30.898  26.532  23.462  1.00  0.00    -0.000 A 
ATOM     11  C   UNL A   1      30.863  27.620  22.579  1.00  0.00     0.008 A 
ATOM     12  C   UNL A   1      29.725  26.233  24.164  1.00  0.00     0.127 A 
ATOM     13  C   UNL A   1      29.712  28.399  22.442  1.00  0.00     0.004 A 
ATOM     14  C   UNL A   1      28.567  27.004  24.030  1.00  0.00     0.043 A 
ATOM     15  F   UNL A   1      29.683  25.151  24.957  1.00  0.00    -0.207 F 
ATOM     16  C   UNL A   1      28.549  28.107  23.166  1.00  0.00    -0.041 A 
BRANCH  16  17
ATOM     17  C   UNL A   1      27.296  28.923  22.960  1.00  0.00     0.072 C 
BRANCH  17  18
ATOM     18  C   UNL A   1      27.694  30.349  22.699  1.00  0.00    -0.033 A 
ATOM     19  C   UNL A   1      28.115  31.305  23.691  1.00  0.00     0.015 A 
ATOM     20  C   UNL A   1      27.793  30.906  21.435  1.00  0.00     0.068 A 
ATOM     21  C   UNL A   1      28.484  32.516  23.150  1.00  0.00     0.065 A 
ATOM     22  S   UNL A   1      28.353  32.522  21.450  1.00  0.00    -0.152 S 
ENDBRANCH  17  18
ENDBRANCH  16  17
ENDBRANCH   8  10
ENDBRANCH   5   8
ENDBRANCH   3   4
ENDBRANCH   2   3
ENDBRANCH   1   2
BRANCH   1  23
ATOM     23  C   UNL A   1      31.461  30.741  25.749  1.00  0.00     0.002 C 
BRANCH  23  24
ATOM     24  C   UNL A   1      31.343  31.771  26.873  1.00  0.00     0.021 C 
BRANCH  24  25
ATOM     25  C   UNL A   1      32.633  32.525  27.173  1.00  0.00     0.116 C 
BRANCH  25  26
ATOM     26  N   UNL A   1      32.391  33.926  27.481  1.00  0.00    -0.352 N 
ATOM     27  C   UNL A   1      32.966  34.709  28.447  1.00  0.00     0.251 C 
ATOM     28  H   UNL A   1      31.720  34.373  26.917  1.00  0.00     0.163 HD
ATOM     29  O   UNL A   1      32.504  35.819  28.705  1.00  0.00    -0.269 OA
BRANCH  27  30
ATOM     30  C   UNL A   1      34.135  34.206  29.199  1.00  0.00     0.039 A 
ATOM     31  C   UNL A   1      33.921  33.435  30.344  1.00  0.00     0.014 A 
ATOM     32  C   UNL A   1      35.435  34.490  28.773  1.00  0.00     0.014 A 
ATOM     33  C   UNL A   1      35.013  32.895  31.026  1.00  0.00     0.010 A 
ATOM     34  C   UNL A   1      36.518  33.887  29.408  1.00  0.00     0.010 A 
ATOM     35  C   UNL A   1      36.318  33.087  30.542  1.00  0.00    -0.014 A 
BRANCH  35  36
ATOM     36  C   UNL A   1      37.484  32.452  31.208  1.00  0.00     0.031 A 
ATOM     37  C   UNL A   1      38.210  31.315  30.544  1.00  0.00     0.074 A 
ATOM     38  C   UNL A   1      37.852  32.862  32.438  1.00  0.00     0.049 A 
ATOM     39  N   UNL A   1      39.207  30.593  30.992  1.00  0.00    -0.248 NA
ATOM     40  C   UNL A   1      37.738  30.917  29.208  1.00  0.00     0.031 C 
ATOM     41  C   UNL A   1      37.199  33.924  33.206  1.00  0.00     0.029 A 
ATOM     42  N   UNL A   1      38.859  32.428  33.265  1.00  0.00    -0.354 N 
ATOM     43  C   UNL A   1      39.471  29.656  30.003  1.00  0.00     0.074 A 
ATOM     44  C   UNL A   1      38.498  29.862  28.953  1.00  0.00     0.031 C 
ATOM     45  C   UNL A   1      37.835  34.075  34.378  1.00  0.00     0.029 A 
ATOM     46  C   UNL A   1      38.910  33.093  34.466  1.00  0.00     0.049 A 
ATOM     47  H   UNL A   1      39.485  31.709  33.020  1.00  0.00     0.167 HD
ATOM     48  C   UNL A   1      40.453  28.724  29.964  1.00  0.00     0.037 A 
ATOM     49  C   UNL A   1      39.725  32.920  35.525  1.00  0.00     0.037 A 
ATOM     50  C   UNL A   1      41.434  28.538  31.001  1.00  0.00     0.049 A 
ATOM     51  C   UNL A   1      40.796  31.863  35.459  1.00  0.00     0.074 A 
ATOM     52  C   UNL A   1      42.504  27.661  31.026  1.00  0.00     0.029 A 
ATOM     53  N   UNL A   1      41.462  29.240  32.197  1.00  0.00    -0.354 N 
ATOM     54  N   UNL A   1      41.084  31.033  34.486  1.00  0.00    -0.248 NA
ATOM     55  C   UNL A   1      41.663  31.724  36.639  1.00  0.00     0.031 C 
ATOM     56  C   UNL A   1      43.145  27.789  32.263  1.00  0.00     0.029 A 
ATOM     57  C   UNL A   1      42.515  28.793  32.981  1.00  0.00     0.049 A 
ATOM     58  H   UNL A   1      40.828  29.948  32.453  1.00  0.00     0.167 HD
ATOM     59  C   UNL A   1      42.181  30.301  34.920  1.00  0.00     0.074 A 
ATOM     60  C   UNL A   1      42.518  30.795  36.238  1.00  0.00     0.031 C 
ATOM     61  C   UNL A   1      42.847  29.305  34.285  1.00  0.00     0.037 A 
BRANCH  48  62
ATOM     62  C   UNL A   1      40.523  27.828  28.760  1.00  0.00     0.064 A 
ATOM     63  C   UNL A   1      39.798  26.629  28.690  1.00  0.00     0.173 A 
ATOM     64  C   UNL A   1      41.273  28.205  27.636  1.00  0.00     0.173 A 
ATOM     65  F   UNL A   1      39.072  26.216  29.740  1.00  0.00    -0.203 F 
ATOM     66  C   UNL A   1      39.839  25.831  27.550  1.00  0.00     0.198 A 
ATOM     67  C   UNL A   1      41.285  27.422  26.486  1.00  0.00     0.198 A 
ATOM     68  F   UNL A   1      41.981  29.346  27.647  1.00  0.00    -0.203 F 
ATOM     69  F   UNL A   1      39.170  24.669  27.522  1.00  0.00    -0.200 F 
ATOM     70  C   UNL A   1      40.574  26.233  26.445  1.00  0.00     0.200 A 
ATOM     71  F   UNL A   1      41.984  27.820  25.413  1.00  0.00    -0.200 F 
ATOM     72  F   UNL A   1      40.599  25.473  25.342  1.00  0.00    -0.200 F 
ENDBRANCH  48  62
BRANCH  49  73
ATOM     73  C   UNL A   1      39.573  33.770  36.737  1.00  0.00     0.064 A 
ATOM     74  C   UNL A   1      38.809  33.339  37.831  1.00  0.00     0.173 A 
ATOM     75  C   UNL A   1      40.159  35.042  36.815  1.00  0.00     0.173 A 
ATOM     76  F   UNL A   1      38.211  32.139  37.798  1.00  0.00    -0.203 F 
ATOM     77  C   UNL A   1      38.611  34.159  38.940  1.00  0.00     0.198 A 
ATOM     78  C   UNL A   1      39.990  35.847  37.939  1.00  0.00     0.198 A 
ATOM     79  F   UNL A   1      40.905  35.501  35.799  1.00  0.00    -0.203 F 
ATOM     80  F   UNL A   1      37.824  33.746  39.943  1.00  0.00    -0.200 F 
ATOM     81  C   UNL A   1      39.205  35.410  38.995  1.00  0.00     0.200 A 
ATOM     82  F   UNL A   1      40.579  37.048  37.995  1.00  0.00    -0.200 F 
ATOM     83  F   UNL A   1      39.011  36.200  40.060  1.00  0.00    -0.200 F 
ENDBRANCH  49  73
BRANCH  61  84
ATOM     84  C   UNL A   1      44.040  28.718  34.984  1.00  0.00     0.064 A 
ATOM     85  C   UNL A   1      45.328  29.247  34.822  1.00  0.00     0.173 A 
ATOM     86  C   UNL A   1      43.882  27.633  35.862  1.00  0.00     0.173 A 
ATOM     87  F   UNL A   1      45.536  30.275  33.984  1.00  0.00    -0.203 F 
ATOM     88  C   UNL A   1      46.419  28.692  35.487  1.00  0.00     0.198 A 
ATOM     89  C   UNL A   1      44.969  27.105  36.553  1.00  0.00     0.198 A 
ATOM     90  F   UNL A   1      42.670  27.094  36.060  1.00  0.00    -0.203 F 
ATOM     91  F   UNL A   1      47.650  29.180  35.274  1.00  0.00    -0.200 F 
ATOM     92  C   UNL A   1      46.237  27.629  36.357  1.00  0.00     0.200 A 
ATOM     93  F   UNL A   1      44.788  26.089  37.407  1.00  0.00    -0.200 F 
ATOM     94  F   UNL A   1      47.287  27.103  37.004  1.00  0.00    -0.200 F 
ENDBRANCH  61  84
ENDBRANCH  35  36
ENDBRANCH  27  30
ENDBRANCH  25  26
ENDBRANCH  24  25
ENDBRANCH  23  24
ENDBRANCH   1  23
TORSDOF 16
ENDMDL
MODEL 2
REMARK VINA RESULT:     -11.7      0.808      7.231
REMARK SMILES C[C@@H](C(=O)NCCCCCCNC(=O)c1ccc(-c2c3nc(c(-c4c(F)c(F)c(F)c(F)c4F)c4ccc([nH]4)c(-c4c(F)c(F)c(F)c(F)c4F)c4nc(c(-c5c(F)c(F)c(F)c(F)c5F)c5ccc2[nH]5)C=C4)C=C3)cc1)c1ccc(Cc2ccsc2)cc1F
REMARK SMILES IDX 8 1 7 2 6 3 5 4 3 5 4 6 2 8 1 9 78 10 79 11 89 12 80 13
REMARK SMILES IDX 88 14 90 15 81 16 82 17 83 18 84 19 87 20 85 21 86 22 9 23
REMARK SMILES IDX 10 24 11 25 12 26 13 27 14 29 15 30 16 31 77 32 17 33 76 34
REMARK SMILES IDX 18 35 19 36 20 37 70 38 21 39 75 40 69 41 71 42 22 43 74 44
REMARK SMILES IDX 68 45 67 46 23 48 55 49 35 50 54 51 36 52 39 53 53 54 72 55
REMARK SMILES IDX 37 56 38 57 52 59 73 60 40 61 24 62 25 63 33 64 26 65 27 66
REMARK SMILES IDX 31 67 34 68 28 69 29 70 32 71 30 72 56 73 57 74 65 75 58 76
REMARK SMILES IDX 59 77 63 78 66 79 60 80 61 81 64 82 62 83 41 84 42 85 50 86
REMARK SMILES IDX 43 87 44 88 48 89 51 90 45 91 46 92 49 93 47 94
REMARK H PARENT 5 7 12 28 71 47 39 58
REMARK Flexibility Score: inf
ROOT
ATOM      1  C   UNL A   1      32.387  29.491  27.246  1.00  0.00     0.002 C 
ENDROOT
BRANCH   1   2
ATOM      2  C   UNL A   1      33.737  28.951  26.754  1.00  0.00     0.021 C 
BRANCH   2   3
ATOM      3  C   UNL A   1      33.656  28.121  25.470  1.00  0.00     0.116 C 
BRANCH   3   4
ATOM      4  N   UNL A   1      33.662  26.707  25.777  1.00  0.00    -0.356 N 
ATOM      5  C   UNL A   1      33.177  25.637  25.090  1.00  0.00     0.227 C 
ATOM      6  O   UNL A   1      33.250  24.558  25.683  1.00  0.00    -0.274 OA
ATOM      7  H   UNL A   1      34.092  26.480  26.632  1.00  0.00     0.163 HD
BRANCH   5   8
ATOM      8  C   UNL A   1      32.637  25.803  23.655  1.00  0.00     0.108 C 
ATOM      9  C   UNL A   1      33.652  26.435  22.699  1.00  0.00     0.023 C 
BRANCH   8  10
ATOM     10  C   UNL A   1      31.338  26.600  23.544  1.00  0.00    -0.000 A 
ATOM     11  C   UNL A   1      31.261  27.832  22.881  1.00  0.00     0.008 A 
ATOM     12  C   UNL A   1      30.143  26.047  24.018  1.00  0.00     0.127 A 
ATOM     13  C   UNL A   1      30.041  28.498  22.739  1.00  0.00     0.004 A 
ATOM     14  C   UNL A   1      28.918  26.703  23.876  1.00  0.00     0.043 A 
ATOM     15  F   UNL A   1      30.154  24.830  24.585  1.00  0.00    -0.207 F 
ATOM     16  C   UNL A   1      28.853  27.948  23.237  1.00  0.00    -0.041 A 
BRANCH  16  17
ATOM     17  C   UNL A   1      27.535  28.652  23.020  1.00  0.00     0.072 C 
BRANCH  17  18
ATOM     18  C   UNL A   1      27.817  30.077  22.628  1.00  0.00    -0.033 A 
ATOM     19  C   UNL A   1      28.010  31.181  23.532  1.00  0.00     0.015 A 
ATOM     20  C   UNL A   1      28.017  30.494  21.323  1.00  0.00     0.068 A 
ATOM     21  C   UNL A   1      28.319  32.358  22.888  1.00  0.00     0.065 A 
ATOM     22  S   UNL A   1      28.403  32.155  21.197  1.00  0.00    -0.152 S 
ENDBRANCH  17  18
ENDBRANCH  16  17
ENDBRANCH   8  10
ENDBRANCH   5   8
ENDBRANCH   3   4
ENDBRANCH   2   3
ENDBRANCH   1   2
BRANCH   1  23
ATOM     23  C   UNL A   1      31.576  30.264  26.203  1.00  0.00     0.002 C 
BRANCH  23  24
ATOM     24  C   UNL A   1      31.403  31.754  26.501  1.00  0.00     0.021 C 
BRANCH  24  25
ATOM     25  C   UNL A   1      32.691  32.471  26.887  1.00  0.00     0.116 C 
BRANCH  25  26
ATOM     26  N   UNL A   1      32.447  33.834  27.334  1.00  0.00    -0.352 N 
ATOM     27  C   UNL A   1      33.004  34.510  28.387  1.00  0.00     0.251 C 
ATOM     28  H   UNL A   1      31.789  34.341  26.805  1.00  0.00     0.163 HD
ATOM     29  O   UNL A   1      32.540  35.589  28.750  1.00  0.00    -0.269 OA
BRANCH  27  30
ATOM     30  C   UNL A   1      34.155  33.925  29.107  1.00  0.00     0.039 A 
ATOM     31  C   UNL A   1      33.915  33.026  30.149  1.00  0.00     0.014 A 
ATOM     32  C   UNL A   1      35.465  34.259  28.751  1.00  0.00     0.014 A 
ATOM     33  C   UNL A   1      34.992  32.413  30.792  1.00  0.00     0.010 A 
ATOM     34  C   UNL A   1      36.534  33.589  29.340  1.00  0.00     0.010 A 
ATOM     35  C   UNL A   1      36.308  32.662  30.368  1.00  0.00    -0.014 A 
BRANCH  35  36
ATOM     36  C   UNL A   1      37.460  31.956  30.987  1.00  0.00     0.031 A 
ATOM     37  C   UNL A   1      37.929  32.335  32.364  1.00  0.00     0.074 A 
ATOM     38  C   UNL A   1      38.118  31.014  30.283  1.00  0.00     0.049 A 
ATOM     39  N   UNL A   1      38.951  31.879  33.046  1.00  0.00    -0.248 NA
ATOM     40  C   UNL A   1      37.166  33.383  33.061  1.00  0.00     0.031 C 
ATOM     41  C   UNL A   1      37.788  30.592  28.921  1.00  0.00     0.029 A 
ATOM     42  N   UNL A   1      39.210  30.248  30.611  1.00  0.00    -0.354 N 
ATOM     43  C   UNL A   1      38.957  32.588  34.239  1.00  0.00     0.074 A 
ATOM     44  C   UNL A   1      37.873  33.543  34.170  1.00  0.00     0.031 C 
ATOM     45  C   UNL A   1      38.641  29.628  28.540  1.00  0.00     0.029 A 
ATOM     46  C   UNL A   1      39.606  29.396  29.609  1.00  0.00     0.049 A 
ATOM     47  H   UNL A   1      39.665  30.305  31.482  1.00  0.00     0.167 HD
ATOM     48  C   UNL A   1      39.779  32.440  35.305  1.00  0.00     0.037 A 
ATOM     49  C   UNL A   1      40.639  28.533  29.555  1.00  0.00     0.037 A 
ATOM     50  C   UNL A   1      40.842  31.472  35.379  1.00  0.00     0.049 A 
ATOM     51  C   UNL A   1      41.547  28.403  30.750  1.00  0.00     0.074 A 
ATOM     52  C   UNL A   1      41.690  31.204  36.438  1.00  0.00     0.029 A 
ATOM     53  N   UNL A   1      41.205  30.617  34.348  1.00  0.00    -0.354 N 
ATOM     54  N   UNL A   1      41.497  29.027  31.902  1.00  0.00    -0.248 NA
ATOM     55  C   UNL A   1      42.653  27.441  30.639  1.00  0.00     0.031 C 
ATOM     56  C   UNL A   1      42.605  30.228  36.031  1.00  0.00     0.029 A 
ATOM     57  C   UNL A   1      42.285  29.840  34.739  1.00  0.00     0.049 A 
ATOM     58  H   UNL A   1      40.762  30.569  33.471  1.00  0.00     0.167 HD
ATOM     59  C   UNL A   1      42.537  28.510  32.663  1.00  0.00     0.074 A 
ATOM     60  C   UNL A   1      43.193  27.509  31.848  1.00  0.00     0.031 C 
ATOM     61  C   UNL A   1      42.918  28.837  33.922  1.00  0.00     0.037 A 
BRANCH  48  62
ATOM     62  C   UNL A   1      39.565  33.342  36.487  1.00  0.00     0.064 A 
ATOM     63  C   UNL A   1      38.715  32.982  37.544  1.00  0.00     0.173 A 
ATOM     64  C   UNL A   1      40.267  34.551  36.595  1.00  0.00     0.173 A 
ATOM     65  F   UNL A   1      38.012  31.840  37.488  1.00  0.00    -0.203 F 
ATOM     66  C   UNL A   1      38.561  33.809  38.654  1.00  0.00     0.198 A 
ATOM     67  C   UNL A   1      40.135  35.360  37.721  1.00  0.00     0.198 A 
ATOM     68  F   UNL A   1      41.097  34.942  35.615  1.00  0.00    -0.203 F 
ATOM     69  F   UNL A   1      37.712  33.463  39.632  1.00  0.00    -0.200 F 
ATOM     70  C   UNL A   1      39.278  34.991  38.746  1.00  0.00     0.200 A 
ATOM     71  F   UNL A   1      40.842  36.495  37.814  1.00  0.00    -0.200 F 
ATOM     72  F   UNL A   1      39.142  35.778  39.822  1.00  0.00    -0.200 F 
ENDBRANCH  48  62
BRANCH  49  73
ATOM     73  C   UNL A   1      40.872  27.716  28.334  1.00  0.00     0.064 A 
ATOM     74  C   UNL A   1      40.297  26.445  28.193  1.00  0.00     0.173 A 
ATOM     75  C   UNL A   1      41.699  28.173  27.297  1.00  0.00     0.173 A 
ATOM     76  F   UNL A   1      39.514  25.954  29.166  1.00  0.00    -0.203 F 
ATOM     77  C   UNL A   1      40.566  25.650  27.081  1.00  0.00     0.198 A 
ATOM     78  C   UNL A   1      41.939  27.392  26.168  1.00  0.00     0.198 A 
ATOM     79  F   UNL A   1      42.270  29.384  27.376  1.00  0.00    -0.203 F 
ATOM     80  F   UNL A   1      40.053  24.414  27.005  1.00  0.00    -0.200 F 
ATOM     81  C   UNL A   1      41.383  26.126  26.068  1.00  0.00     0.200 A 
ATOM     82  F   UNL A   1      42.716  27.863  25.184  1.00  0.00    -0.200 F 
ATOM     83  F   UNL A   1      41.644  25.360  25.000  1.00  0.00    -0.200 F 
ENDBRANCH  49  73
BRANCH  61  84
ATOM     84  C   UNL A   1      44.065  28.072  34.517  1.00  0.00     0.064 A 
ATOM     85  C   UNL A   1      45.386  28.538  34.438  1.00  0.00     0.173 A 
ATOM     86  C   UNL A   1      43.833  26.875  35.212  1.00  0.00     0.173 A 
ATOM     87  F   UNL A   1      45.664  29.670  33.773  1.00  0.00    -0.203 F 
ATOM     88  C   UNL A   1      46.434  27.817  35.005  1.00  0.00     0.198 A 
ATOM     89  C   UNL A   1      44.879  26.177  35.809  1.00  0.00     0.198 A 
ATOM     90  F   UNL A   1      42.587  26.389  35.325  1.00  0.00    -0.203 F 
ATOM     91  F   UNL A   1      47.694  28.254  34.869  1.00  0.00    -0.200 F 
ATOM     92  C   UNL A   1      46.179  26.643  35.696  1.00  0.00     0.200 A 
ATOM     93  F   UNL A   1      44.627  25.052  36.492  1.00  0.00    -0.200 F 
ATOM     94  F   UNL A   1      47.188  25.957  36.250  1.00  0.00    -0.200 F 
ENDBRANCH  61  84
ENDBRANCH  35  36
ENDBRANCH  27  30
ENDBRANCH  25  26
ENDBRANCH  24  25
ENDBRANCH  23  24
ENDBRANCH   1  23
TORSDOF 16
ENDMDL
MODEL 3
REMARK VINA RESULT:     -11.7      2.748      4.431
REMARK SMILES C[C@@H](C(=O)NCCCCCCNC(=O)c1ccc(-c2c3nc(c(-c4c(F)c(F)c(F)c(F)c4F)c4ccc([nH]4)c(-c4c(F)c(F)c(F)c(F)c4F)c4nc(c(-c5c(F)c(F)c(F)c(F)c5F)c5ccc2[nH]5)C=C4)C=C3)cc1)c1ccc(Cc2ccsc2)cc1F
REMARK SMILES IDX 8 1 7 2 6 3 5 4 3 5 4 6 2 8 1 9 78 10 79 11 89 12 80 13
REMARK SMILES IDX 88 14 90 15 81 16 82 17 83 18 84 19 87 20 85 21 86 22 9 23
REMARK SMILES IDX 10 24 11 25 12 26 13 27 14 29 15 30 16 31 77 32 17 33 76 34
REMARK SMILES IDX 18 35 19 36 20 37 70 38 21 39 75 40 69 41 71 42 22 43 74 44
REMARK SMILES IDX 68 45 67 46 23 48 55 49 35 50 54 51 36 52 39 53 53 54 72 55
REMARK SMILES IDX 37 56 38 57 52 59 73 60 40 61 24 62 25 63 33 64 26 65 27 66
REMARK SMILES IDX 31 67 34 68 28 69 29 70 32 71 30 72 56 73 57 74 65 75 58 76
REMARK SMILES IDX 59 77 63 78 66 79 60 80 61 81 64 82 62 83 41 84 42 85 50 86
REMARK SMILES IDX 43 87 44 88 48 89 51 90 45 91 46 92 49 93 47 94
REMARK H PARENT 5 7 12 28 71 47 39 58
REMARK Flexibility Score: inf
ROOT
ATOM      1  C   UNL A   1      32.468  29.808  27.113  1.00  0.00     0.002 C 
ENDROOT
BRANCH   1   2
ATOM      2  C   UNL A   1      31.784  28.497  27.526  1.00  0.00     0.021 C 
BRANCH   2   3
ATOM      3  C   UNL A   1      32.115  27.301  26.629  1.00  0.00     0.116 C 
BRANCH   3   4
ATOM      4  N   UNL A   1      31.187  26.217  26.864  1.00  0.00    -0.356 N 
ATOM      5  C   UNL A   1      30.842  25.148  26.094  1.00  0.00     0.227 C 
ATOM      6  O   UNL A   1      29.929  24.453  26.545  1.00  0.00    -0.274 OA
ATOM      7  H   UNL A   1      30.724  26.260  27.730  1.00  0.00     0.163 HD
BRANCH   5   8
ATOM      8  C   UNL A   1      31.606  24.839  24.791  1.00  0.00     0.108 C 
ATOM      9  C   UNL A   1      30.696  24.766  23.562  1.00  0.00     0.023 C 
BRANCH   8  10
ATOM     10  C   UNL A   1      32.445  23.563  24.823  1.00  0.00    -0.000 A 
ATOM     11  C   UNL A   1      32.165  22.452  24.016  1.00  0.00     0.008 A 
ATOM     12  C   UNL A   1      33.611  23.519  25.597  1.00  0.00     0.127 A 
ATOM     13  C   UNL A   1      32.995  21.330  24.021  1.00  0.00     0.004 A 
ATOM     14  C   UNL A   1      34.451  22.402  25.605  1.00  0.00     0.043 A 
ATOM     15  F   UNL A   1      33.967  24.591  26.322  1.00  0.00    -0.207 F 
ATOM     16  C   UNL A   1      34.147  21.285  24.817  1.00  0.00    -0.041 A 
BRANCH  16  17
ATOM     17  C   UNL A   1      35.066  20.088  24.764  1.00  0.00     0.072 C 
BRANCH  17  18
ATOM     18  C   UNL A   1      34.227  18.841  24.809  1.00  0.00    -0.033 A 
ATOM     19  C   UNL A   1      32.980  18.686  25.513  1.00  0.00     0.015 A 
ATOM     20  C   UNL A   1      34.510  17.692  24.090  1.00  0.00     0.068 A 
ATOM     21  C   UNL A   1      32.401  17.451  25.317  1.00  0.00     0.065 A 
ATOM     22  S   UNL A   1      33.329  16.470  24.275  1.00  0.00    -0.152 S 
ENDBRANCH  17  18
ENDBRANCH  16  17
ENDBRANCH   8  10
ENDBRANCH   5   8
ENDBRANCH   3   4
ENDBRANCH   2   3
ENDBRANCH   1   2
BRANCH   1  23
ATOM     23  C   UNL A   1      31.638  30.719  26.204  1.00  0.00     0.002 C 
BRANCH  23  24
ATOM     24  C   UNL A   1      31.400  32.126  26.752  1.00  0.00     0.021 C 
BRANCH  24  25
ATOM     25  C   UNL A   1      32.661  32.837  27.228  1.00  0.00     0.116 C 
BRANCH  25  26
ATOM     26  N   UNL A   1      32.406  34.222  27.593  1.00  0.00    -0.352 N 
ATOM     27  C   UNL A   1      32.979  34.974  28.585  1.00  0.00     0.251 C 
ATOM     28  H   UNL A   1      31.725  34.683  27.051  1.00  0.00     0.163 HD
ATOM     29  O   UNL A   1      32.506  36.067  28.889  1.00  0.00    -0.269 OA
BRANCH  27  30
ATOM     30  C   UNL A   1      34.158  34.455  29.309  1.00  0.00     0.039 A 
ATOM     31  C   UNL A   1      33.971  33.817  30.537  1.00  0.00     0.014 A 
ATOM     32  C   UNL A   1      35.442  34.593  28.775  1.00  0.00     0.014 A 
ATOM     33  C   UNL A   1      35.067  33.262  31.200  1.00  0.00     0.010 A 
ATOM     34  C   UNL A   1      36.521  33.971  29.397  1.00  0.00     0.010 A 
ATOM     35  C   UNL A   1      36.345  33.302  30.617  1.00  0.00    -0.014 A 
BRANCH  35  36
ATOM     36  C   UNL A   1      37.506  32.645  31.270  1.00  0.00     0.031 A 
ATOM     37  C   UNL A   1      38.214  31.506  30.589  1.00  0.00     0.074 A 
ATOM     38  C   UNL A   1      37.886  33.036  32.502  1.00  0.00     0.049 A 
ATOM     39  N   UNL A   1      39.204  30.767  31.023  1.00  0.00    -0.248 NA
ATOM     40  C   UNL A   1      37.729  31.130  29.251  1.00  0.00     0.031 C 
ATOM     41  C   UNL A   1      37.251  34.097  33.286  1.00  0.00     0.029 A 
ATOM     42  N   UNL A   1      38.892  32.580  33.319  1.00  0.00    -0.354 N 
ATOM     43  C   UNL A   1      39.450  29.838  30.022  1.00  0.00     0.074 A 
ATOM     44  C   UNL A   1      38.474  30.068  28.980  1.00  0.00     0.031 C 
ATOM     45  C   UNL A   1      37.895  34.226  34.456  1.00  0.00     0.029 A 
ATOM     46  C   UNL A   1      38.959  33.230  34.527  1.00  0.00     0.049 A 
ATOM     47  H   UNL A   1      39.507  31.856  33.062  1.00  0.00     0.167 HD
ATOM     48  C   UNL A   1      40.420  28.893  29.967  1.00  0.00     0.037 A 
ATOM     49  C   UNL A   1      39.777  33.035  35.579  1.00  0.00     0.037 A 
ATOM     50  C   UNL A   1      41.405  28.683  30.996  1.00  0.00     0.049 A 
ATOM     51  C   UNL A   1      40.834  31.965  35.495  1.00  0.00     0.074 A 
ATOM     52  C   UNL A   1      42.463  27.793  31.005  1.00  0.00     0.029 A 
ATOM     53  N   UNL A   1      41.448  29.371  32.200  1.00  0.00    -0.354 N 
ATOM     54  N   UNL A   1      41.106  31.142  34.511  1.00  0.00    -0.248 NA
ATOM     55  C   UNL A   1      41.705  31.802  36.668  1.00  0.00     0.031 C 
ATOM     56  C   UNL A   1      43.113  27.898  32.239  1.00  0.00     0.029 A 
ATOM     57  C   UNL A   1      42.500  28.902  32.972  1.00  0.00     0.049 A 
ATOM     58  H   UNL A   1      40.825  30.084  32.467  1.00  0.00     0.167 HD
ATOM     59  C   UNL A   1      42.195  30.392  34.930  1.00  0.00     0.074 A 
ATOM     60  C   UNL A   1      42.546  30.866  36.252  1.00  0.00     0.031 C 
ATOM     61  C   UNL A   1      42.845  29.395  34.281  1.00  0.00     0.037 A 
BRANCH  48  62
ATOM     62  C   UNL A   1      40.472  28.011  28.752  1.00  0.00     0.064 A 
ATOM     63  C   UNL A   1      41.238  28.350  27.627  1.00  0.00     0.173 A 
ATOM     64  C   UNL A   1      39.799  26.780  28.738  1.00  0.00     0.173 A 
ATOM     65  F   UNL A   1      41.894  29.520  27.583  1.00  0.00    -0.203 F 
ATOM     66  C   UNL A   1      41.310  27.501  26.526  1.00  0.00     0.198 A 
ATOM     67  C   UNL A   1      39.900  25.919  27.650  1.00  0.00     0.198 A 
ATOM     68  F   UNL A   1      39.056  26.403  29.791  1.00  0.00    -0.203 F 
ATOM     69  F   UNL A   1      42.015  27.866  25.445  1.00  0.00    -0.200 F 
ATOM     70  C   UNL A   1      40.650  26.282  26.542  1.00  0.00     0.200 A 
ATOM     71  F   UNL A   1      39.273  24.734  27.674  1.00  0.00    -0.200 F 
ATOM     72  F   UNL A   1      40.735  25.458  25.489  1.00  0.00    -0.200 F 
ENDBRANCH  48  62
BRANCH  49  73
ATOM     73  C   UNL A   1      39.642  33.873  36.802  1.00  0.00     0.064 A 
ATOM     74  C   UNL A   1      38.874  33.442  37.893  1.00  0.00     0.173 A 
ATOM     75  C   UNL A   1      40.250  35.133  36.893  1.00  0.00     0.173 A 
ATOM     76  F   UNL A   1      38.256  32.252  37.847  1.00  0.00    -0.203 F 
ATOM     77  C   UNL A   1      38.693  34.251  39.012  1.00  0.00     0.198 A 
ATOM     78  C   UNL A   1      40.097  35.928  38.027  1.00  0.00     0.198 A 
ATOM     79  F   UNL A   1      41.001  35.592  35.880  1.00  0.00    -0.203 F 
ATOM     80  F   UNL A   1      37.902  33.840  40.012  1.00  0.00    -0.200 F 
ATOM     81  C   UNL A   1      39.308  35.491  39.080  1.00  0.00     0.200 A 
ATOM     82  F   UNL A   1      40.707  37.118  38.095  1.00  0.00    -0.200 F 
ATOM     83  F   UNL A   1      39.130  36.272  40.155  1.00  0.00    -0.200 F 
ENDBRANCH  49  73
BRANCH  61  84
ATOM     84  C   UNL A   1      44.034  28.784  34.966  1.00  0.00     0.064 A 
ATOM     85  C   UNL A   1      45.329  29.296  34.800  1.00  0.00     0.173 A 
ATOM     86  C   UNL A   1      43.867  27.694  35.835  1.00  0.00     0.173 A 
ATOM     87  F   UNL A   1      45.545  30.328  33.969  1.00  0.00    -0.203 F 
ATOM     88  C   UNL A   1      46.416  28.720  35.452  1.00  0.00     0.198 A 
ATOM     89  C   UNL A   1      44.950  27.144  36.514  1.00  0.00     0.198 A 
ATOM     90  F   UNL A   1      42.648  27.171  36.038  1.00  0.00    -0.203 F 
ATOM     91  F   UNL A   1      47.652  29.192  35.234  1.00  0.00    -0.200 F 
ATOM     92  C   UNL A   1      46.225  27.652  36.314  1.00  0.00     0.200 A 
ATOM     93  F   UNL A   1      44.761  26.123  37.360  1.00  0.00    -0.200 F 
ATOM     94  F   UNL A   1      47.271  27.105  36.949  1.00  0.00    -0.200 F 
ENDBRANCH  61  84
ENDBRANCH  35  36
ENDBRANCH  27  30
ENDBRANCH  25  26
ENDBRANCH  24  25
ENDBRANCH  23  24
ENDBRANCH   1  23
TORSDOF 16
ENDMDL
