MODEL 1
REMARK VINA RESULT:     -11.1      0.000      0.000
REMARK SMILES CC[C@@H](C)[C@@H](C(=O)NCCCCCCNC(=O)c1ccc(-c2c3nc(c(-c4c(F)c(F)c(F)c(F)c4F)c4ccc([nH]4)c(-c4c(F)c(F)c(F)c(F)c4F)c4nc(c(-c5c(F)c(F)c(F)c(F)c5F)c5ccc2[nH]5)C=C4)C=C3)cc1)S(=O)(=O)c1ccc(OC)cc1
REMARK SMILES IDX 11 1 10 2 9 3 8 4 6 5 7 6 5 8 3 9 4 10 2 11 1 12 81 13 82 14
REMARK SMILES IDX 83 15 84 16 85 17 91 18 86 19 90 20 87 21 88 22 89 23 12 24
REMARK SMILES IDX 13 25 14 26 15 27 16 28 17 30 18 31 19 32 80 33 20 34 79 35
REMARK SMILES IDX 21 36 22 37 23 38 73 39 24 40 78 41 72 42 74 43 25 44 77 45
REMARK SMILES IDX 71 46 70 47 26 49 58 50 38 51 57 52 39 53 42 54 56 55 75 56
REMARK SMILES IDX 40 57 41 58 55 60 76 61 43 62 27 63 28 64 36 65 29 66 30 67
REMARK SMILES IDX 34 68 37 69 31 70 32 71 35 72 33 73 59 74 60 75 68 76 61 77
REMARK SMILES IDX 62 78 66 79 69 80 63 81 64 82 67 83 65 84 44 85 45 86 53 87
REMARK SMILES IDX 46 88 47 89 51 90 54 91 48 92 49 93 52 94 50 95
REMARK H PARENT 8 7 15 29 74 48 42 59
REMARK Flexibility Score: inf
ROOT
ATOM      1  C   UNL A   1      32.403  29.952  26.647  1.00  0.00     0.002 C 
ENDROOT
BRANCH   1   2
ATOM      2  C   UNL A   1      31.739  28.936  27.579  1.00  0.00     0.021 C 
BRANCH   2   3
ATOM      3  C   UNL A   1      32.088  27.464  27.298  1.00  0.00     0.116 C 
BRANCH   3   4
ATOM      4  N   UNL A   1      31.009  26.851  26.549  1.00  0.00    -0.355 N 
ATOM      5  C   UNL A   1      30.931  26.521  25.227  1.00  0.00     0.239 C 
ATOM      6  O   UNL A   1      29.808  26.643  24.735  1.00  0.00    -0.274 OA
ATOM      7  H   UNL A   1      30.205  26.640  27.077  1.00  0.00     0.163 HD
BRANCH   5   8
ATOM      8  C   UNL A   1      32.140  26.018  24.425  1.00  0.00     0.205 C 
BRANCH   8   9
ATOM      9  C   UNL A   1      32.326  26.663  23.007  1.00  0.00     0.014 C 
ATOM     10  C   UNL A   1      33.657  26.276  22.341  1.00  0.00     0.009 C 
BRANCH   9  11
ATOM     11  C   UNL A   1      32.246  28.198  23.058  1.00  0.00     0.002 C 
ATOM     12  C   UNL A   1      33.563  28.952  22.931  1.00  0.00     0.004 C 
ENDBRANCH   9  11
ENDBRANCH   8   9
BRANCH   8  13
ATOM     13  S   UNL A   1      31.964  24.195  24.393  1.00  0.00     0.190 S 
ATOM     14  O   UNL A   1      31.023  23.766  25.405  1.00  0.00    -0.223 OA
ATOM     15  O   UNL A   1      31.696  23.805  23.011  1.00  0.00    -0.223 OA
BRANCH  13  16
ATOM     16  C   UNL A   1      33.543  23.489  24.851  1.00  0.00     0.068 A 
ATOM     17  C   UNL A   1      34.553  24.304  25.361  1.00  0.00     0.024 A 
ATOM     18  C   UNL A   1      33.784  22.127  24.638  1.00  0.00     0.024 A 
ATOM     19  C   UNL A   1      35.839  23.783  25.529  1.00  0.00     0.048 A 
ATOM     20  C   UNL A   1      35.068  21.607  24.836  1.00  0.00     0.048 A 
ATOM     21  C   UNL A   1      36.107  22.439  25.255  1.00  0.00     0.118 A 
BRANCH  21  22
ATOM     22  O   UNL A   1      37.414  22.077  25.424  1.00  0.00    -0.497 OA
ATOM     23  C   UNL A   1      37.776  20.768  25.002  1.00  0.00     0.278 C 
ENDBRANCH  21  22
ENDBRANCH  13  16
ENDBRANCH   8  13
ENDBRANCH   5   8
ENDBRANCH   3   4
ENDBRANCH   2   3
ENDBRANCH   1   2
BRANCH   1  24
ATOM     24  C   UNL A   1      31.435  30.862  25.894  1.00  0.00     0.002 C 
BRANCH  24  25
ATOM     25  C   UNL A   1      31.248  32.255  26.501  1.00  0.00     0.021 C 
BRANCH  25  26
ATOM     26  C   UNL A   1      32.454  32.791  27.267  1.00  0.00     0.116 C 
BRANCH  26  27
ATOM     27  N   UNL A   1      32.312  34.199  27.596  1.00  0.00    -0.352 N 
ATOM     28  C   UNL A   1      32.934  34.934  28.573  1.00  0.00     0.251 C 
ATOM     29  H   UNL A   1      31.675  34.699  27.036  1.00  0.00     0.163 HD
ATOM     30  O   UNL A   1      32.529  36.056  28.858  1.00  0.00    -0.269 OA
BRANCH  28  31
ATOM     31  C   UNL A   1      34.091  34.365  29.295  1.00  0.00     0.039 A 
ATOM     32  C   UNL A   1      33.878  33.728  30.520  1.00  0.00     0.014 A 
ATOM     33  C   UNL A   1      35.383  34.476  28.773  1.00  0.00     0.014 A 
ATOM     34  C   UNL A   1      34.955  33.153  31.196  1.00  0.00     0.010 A 
ATOM     35  C   UNL A   1      36.443  33.838  29.411  1.00  0.00     0.010 A 
ATOM     36  C   UNL A   1      36.242  33.177  30.631  1.00  0.00    -0.014 A 
BRANCH  36  37
ATOM     37  C   UNL A   1      37.389  32.520  31.307  1.00  0.00     0.031 A 
ATOM     38  C   UNL A   1      38.104  31.377  30.642  1.00  0.00     0.074 A 
ATOM     39  C   UNL A   1      37.751  32.916  32.542  1.00  0.00     0.049 A 
ATOM     40  N   UNL A   1      39.086  30.637  31.094  1.00  0.00    -0.248 NA
ATOM     41  C   UNL A   1      37.635  30.996  29.300  1.00  0.00     0.031 C 
ATOM     42  C   UNL A   1      37.109  33.986  33.308  1.00  0.00     0.029 A 
ATOM     43  N   UNL A   1      38.741  32.460  33.376  1.00  0.00    -0.354 N 
ATOM     44  C   UNL A   1      39.343  29.703  30.099  1.00  0.00     0.074 A 
ATOM     45  C   UNL A   1      38.377  29.929  29.047  1.00  0.00     0.031 C 
ATOM     46  C   UNL A   1      37.737  34.120  34.487  1.00  0.00     0.029 A 
ATOM     47  C   UNL A   1      38.799  33.123  34.577  1.00  0.00     0.049 A 
ATOM     48  H   UNL A   1      39.352  31.726  33.135  1.00  0.00     0.167 HD
ATOM     49  C   UNL A   1      40.315  28.760  30.057  1.00  0.00     0.037 A 
ATOM     50  C   UNL A   1      39.613  32.941  35.634  1.00  0.00     0.037 A 
ATOM     51  C   UNL A   1      41.284  28.550  31.100  1.00  0.00     0.049 A 
ATOM     52  C   UNL A   1      40.668  31.869  35.572  1.00  0.00     0.074 A 
ATOM     53  C   UNL A   1      42.339  27.655  31.131  1.00  0.00     0.029 A 
ATOM     54  N   UNL A   1      41.314  29.244  32.301  1.00  0.00    -0.354 N 
ATOM     55  N   UNL A   1      40.945  31.036  34.599  1.00  0.00    -0.248 NA
ATOM     56  C   UNL A   1      41.528  31.719  36.753  1.00  0.00     0.031 C 
ATOM     57  C   UNL A   1      42.976  27.771  32.372  1.00  0.00     0.029 A 
ATOM     58  C   UNL A   1      42.354  28.780  33.091  1.00  0.00     0.049 A 
ATOM     59  H   UNL A   1      40.688  29.960  32.555  1.00  0.00     0.167 HD
ATOM     60  C   UNL A   1      42.028  30.285  35.037  1.00  0.00     0.074 A 
ATOM     61  C   UNL A   1      42.366  30.771  36.358  1.00  0.00     0.031 C 
ATOM     62  C   UNL A   1      42.682  29.281  34.402  1.00  0.00     0.037 A 
BRANCH  49  63
ATOM     63  C   UNL A   1      40.375  27.882  28.839  1.00  0.00     0.064 A 
ATOM     64  C   UNL A   1      41.155  28.226  27.722  1.00  0.00     0.173 A 
ATOM     65  C   UNL A   1      39.669  26.671  28.795  1.00  0.00     0.173 A 
ATOM     66  F   UNL A   1      41.842  29.378  27.706  1.00  0.00    -0.203 F 
ATOM     67  C   UNL A   1      41.196  27.406  26.597  1.00  0.00     0.198 A 
ATOM     68  C   UNL A   1      39.740  25.838  27.682  1.00  0.00     0.198 A 
ATOM     69  F   UNL A   1      38.914  26.290  29.836  1.00  0.00    -0.203 F 
ATOM     70  F   UNL A   1      41.902  27.784  25.522  1.00  0.00    -0.200 F 
ATOM     71  C   UNL A   1      40.495  26.210  26.579  1.00  0.00     0.200 A 
ATOM     72  F   UNL A   1      39.072  24.676  27.672  1.00  0.00    -0.200 F 
ATOM     73  F   UNL A   1      40.540  25.420  25.498  1.00  0.00    -0.200 F 
ENDBRANCH  49  63
BRANCH  50  74
ATOM     74  C   UNL A   1      39.480  33.810  36.833  1.00  0.00     0.064 A 
ATOM     75  C   UNL A   1      38.709  33.405  37.932  1.00  0.00     0.173 A 
ATOM     76  C   UNL A   1      40.112  35.059  36.905  1.00  0.00     0.173 A 
ATOM     77  F   UNL A   1      38.068  32.227  37.902  1.00  0.00    -0.203 F 
ATOM     78  C   UNL A   1      38.558  34.225  39.048  1.00  0.00     0.198 A 
ATOM     79  C   UNL A   1      39.985  35.866  38.035  1.00  0.00     0.198 A 
ATOM     80  F   UNL A   1      40.865  35.492  35.885  1.00  0.00    -0.203 F 
ATOM     81  F   UNL A   1      37.777  33.832  40.063  1.00  0.00    -0.200 F 
ATOM     82  C   UNL A   1      39.201  35.452  39.101  1.00  0.00     0.200 A 
ATOM     83  F   UNL A   1      40.620  37.044  38.089  1.00  0.00    -0.200 F 
ATOM     84  F   UNL A   1      39.059  36.239  40.176  1.00  0.00    -0.200 F 
ENDBRANCH  50  74
BRANCH  62  85
ATOM     85  C   UNL A   1      43.855  28.667  35.111  1.00  0.00     0.064 A 
ATOM     86  C   UNL A   1      43.717  27.527  35.916  1.00  0.00     0.173 A 
ATOM     87  C   UNL A   1      45.141  29.207  34.952  1.00  0.00     0.173 A 
ATOM     88  F   UNL A   1      42.507  26.983  36.114  1.00  0.00    -0.203 F 
ATOM     89  C   UNL A   1      44.819  26.967  36.558  1.00  0.00     0.198 A 
ATOM     90  C   UNL A   1      46.245  28.624  35.568  1.00  0.00     0.198 A 
ATOM     91  F   UNL A   1      45.329  30.293  34.186  1.00  0.00    -0.203 F 
ATOM     92  F   UNL A   1      44.655  25.909  37.364  1.00  0.00    -0.200 F 
ATOM     93  C   UNL A   1      46.082  27.511  36.377  1.00  0.00     0.200 A 
ATOM     94  F   UNL A   1      47.467  29.142  35.379  1.00  0.00    -0.200 F 
ATOM     95  F   UNL A   1      47.141  26.965  36.988  1.00  0.00    -0.200 F 
ENDBRANCH  62  85
ENDBRANCH  36  37
ENDBRANCH  28  31
ENDBRANCH  26  27
ENDBRANCH  25  26
ENDBRANCH  24  25
ENDBRANCH   1  24
TORSDOF 18
ENDMDL
MODEL 2
REMARK VINA RESULT:     -11.1      4.043      8.362
REMARK SMILES CC[C@@H](C)[C@@H](C(=O)NCCCCCCNC(=O)c1ccc(-c2c3nc(c(-c4c(F)c(F)c(F)c(F)c4F)c4ccc([nH]4)c(-c4c(F)c(F)c(F)c(F)c4F)c4nc(c(-c5c(F)c(F)c(F)c(F)c5F)c5ccc2[nH]5)C=C4)C=C3)cc1)S(=O)(=O)c1ccc(OC)cc1
REMARK SMILES IDX 11 1 10 2 9 3 8 4 6 5 7 6 5 8 3 9 4 10 2 11 1 12 81 13 82 14
REMARK SMILES IDX 83 15 84 16 85 17 91 18 86 19 90 20 87 21 88 22 89 23 12 24
REMARK SMILES IDX 13 25 14 26 15 27 16 28 17 30 18 31 19 32 80 33 20 34 79 35
REMARK SMILES IDX 21 36 22 37 23 38 73 39 24 40 78 41 72 42 74 43 25 44 77 45
REMARK SMILES IDX 71 46 70 47 26 49 58 50 38 51 57 52 39 53 42 54 56 55 75 56
REMARK SMILES IDX 40 57 41 58 55 60 76 61 43 62 27 63 28 64 36 65 29 66 30 67
REMARK SMILES IDX 34 68 37 69 31 70 32 71 35 72 33 73 59 74 60 75 68 76 61 77
REMARK SMILES IDX 62 78 66 79 69 80 63 81 64 82 67 83 65 84 44 85 45 86 53 87
REMARK SMILES IDX 46 88 47 89 51 90 54 91 48 92 49 93 52 94 50 95
REMARK H PARENT 8 7 15 29 74 48 42 59
REMARK Flexibility Score: inf
ROOT
ATOM      1  C   UNL A   1      33.462  22.407  24.161  1.00  0.00     0.002 C 
ENDROOT
BRANCH   1   2
ATOM      2  C   UNL A   1      32.663  21.906  25.365  1.00  0.00     0.021 C 
BRANCH   2   3
ATOM      3  C   UNL A   1      32.455  22.939  26.488  1.00  0.00     0.116 C 
BRANCH   3   4
ATOM      4  N   UNL A   1      31.217  23.655  26.255  1.00  0.00    -0.355 N 
ATOM      5  C   UNL A   1      31.004  24.959  25.912  1.00  0.00     0.239 C 
ATOM      6  O   UNL A   1      29.985  25.454  26.394  1.00  0.00    -0.274 OA
ATOM      7  H   UNL A   1      30.400  23.116  26.361  1.00  0.00     0.163 HD
BRANCH   5   8
ATOM      8  C   UNL A   1      31.947  25.737  24.983  1.00  0.00     0.205 C 
BRANCH   8   9
ATOM      9  C   UNL A   1      32.307  27.191  25.449  1.00  0.00     0.014 C 
ATOM     10  C   UNL A   1      33.617  27.712  24.836  1.00  0.00     0.009 C 
BRANCH   9  11
ATOM     11  C   UNL A   1      32.423  27.293  26.980  1.00  0.00     0.002 C 
ATOM     12  C   UNL A   1      31.618  28.398  27.650  1.00  0.00     0.004 C 
ENDBRANCH   9  11
ENDBRANCH   8   9
BRANCH   8  13
ATOM     13  S   UNL A   1      31.158  25.661  23.332  1.00  0.00     0.190 S 
ATOM     14  O   UNL A   1      32.164  25.723  22.294  1.00  0.00    -0.223 OA
ATOM     15  O   UNL A   1      30.254  24.514  23.331  1.00  0.00    -0.223 OA
BRANCH  13  16
ATOM     16  C   UNL A   1      30.155  27.131  23.142  1.00  0.00     0.068 A 
ATOM     17  C   UNL A   1      28.842  27.148  23.611  1.00  0.00     0.024 A 
ATOM     18  C   UNL A   1      30.670  28.242  22.465  1.00  0.00     0.024 A 
ATOM     19  C   UNL A   1      28.008  28.221  23.285  1.00  0.00     0.048 A 
ATOM     20  C   UNL A   1      29.835  29.325  22.167  1.00  0.00     0.048 A 
ATOM     21  C   UNL A   1      28.494  29.306  22.551  1.00  0.00     0.118 A 
BRANCH  21  22
ATOM     22  O   UNL A   1      27.560  30.263  22.269  1.00  0.00    -0.497 OA
ATOM     23  C   UNL A   1      27.823  31.576  22.748  1.00  0.00     0.278 C 
ENDBRANCH  21  22
ENDBRANCH  13  16
ENDBRANCH   8  13
ENDBRANCH   5   8
ENDBRANCH   3   4
ENDBRANCH   2   3
ENDBRANCH   1   2
BRANCH   1  24
ATOM     24  C   UNL A   1      34.979  22.379  24.340  1.00  0.00     0.002 C 
BRANCH  24  25
ATOM     25  C   UNL A   1      35.621  23.734  24.648  1.00  0.00     0.021 C 
BRANCH  25  26
ATOM     26  C   UNL A   1      36.440  23.780  25.936  1.00  0.00     0.116 C 
BRANCH  26  27
ATOM     27  N   UNL A   1      37.466  22.752  25.968  1.00  0.00    -0.352 N 
ATOM     28  C   UNL A   1      38.803  22.863  26.257  1.00  0.00     0.251 C 
ATOM     29  H   UNL A   1      37.157  21.843  25.750  1.00  0.00     0.163 HD
ATOM     30  O   UNL A   1      39.568  21.935  26.016  1.00  0.00    -0.269 OA
BRANCH  28  31
ATOM     31  C   UNL A   1      39.325  24.112  26.849  1.00  0.00     0.039 A 
ATOM     32  C   UNL A   1      39.999  25.020  26.030  1.00  0.00     0.014 A 
ATOM     33  C   UNL A   1      39.165  24.376  28.214  1.00  0.00     0.014 A 
ATOM     34  C   UNL A   1      40.465  26.221  26.568  1.00  0.00     0.010 A 
ATOM     35  C   UNL A   1      39.565  25.604  28.731  1.00  0.00     0.010 A 
ATOM     36  C   UNL A   1      40.225  26.536  27.916  1.00  0.00    -0.014 A 
BRANCH  36  37
ATOM     37  C   UNL A   1      40.661  27.834  28.491  1.00  0.00     0.031 A 
ATOM     38  C   UNL A   1      42.102  28.048  28.861  1.00  0.00     0.074 A 
ATOM     39  C   UNL A   1      39.750  28.796  28.732  1.00  0.00     0.049 A 
ATOM     40  N   UNL A   1      42.667  29.086  29.428  1.00  0.00    -0.248 NA
ATOM     41  C   UNL A   1      43.028  26.941  28.580  1.00  0.00     0.031 C 
ATOM     42  C   UNL A   1      38.317  28.690  28.454  1.00  0.00     0.029 A 
ATOM     43  N   UNL A   1      39.892  30.049  29.272  1.00  0.00    -0.354 N 
ATOM     44  C   UNL A   1      44.006  28.751  29.579  1.00  0.00     0.074 A 
ATOM     45  C   UNL A   1      44.158  27.394  29.101  1.00  0.00     0.031 C 
ATOM     46  C   UNL A   1      37.716  29.840  28.802  1.00  0.00     0.029 A 
ATOM     47  C   UNL A   1      38.713  30.747  29.363  1.00  0.00     0.049 A 
ATOM     48  H   UNL A   1      40.758  30.413  29.567  1.00  0.00     0.167 HD
ATOM     49  C   UNL A   1      45.020  29.515  30.051  1.00  0.00     0.037 A 
ATOM     50  C   UNL A   1      38.464  31.977  29.850  1.00  0.00     0.037 A 
ATOM     51  C   UNL A   1      44.865  30.870  30.511  1.00  0.00     0.049 A 
ATOM     52  C   UNL A   1      39.605  32.797  30.391  1.00  0.00     0.074 A 
ATOM     53  C   UNL A   1      45.837  31.746  30.959  1.00  0.00     0.029 A 
ATOM     54  N   UNL A   1      43.655  31.545  30.584  1.00  0.00    -0.354 N 
ATOM     55  N   UNL A   1      40.878  32.495  30.467  1.00  0.00    -0.248 NA
ATOM     56  C   UNL A   1      39.273  34.131  30.906  1.00  0.00     0.031 C 
ATOM     57  C   UNL A   1      45.210  32.933  31.353  1.00  0.00     0.029 A 
ATOM     58  C   UNL A   1      43.853  32.818  31.094  1.00  0.00     0.049 A 
ATOM     59  H   UNL A   1      42.784  31.174  30.314  1.00  0.00     0.167 HD
ATOM     60  C   UNL A   1      41.503  33.610  31.010  1.00  0.00     0.074 A 
ATOM     61  C   UNL A   1      40.470  34.601  31.229  1.00  0.00     0.031 C 
ATOM     62  C   UNL A   1      42.814  33.796  31.300  1.00  0.00     0.037 A 
BRANCH  49  63
ATOM     63  C   UNL A   1      46.390  28.900  30.091  1.00  0.00     0.064 A 
ATOM     64  C   UNL A   1      46.860  28.225  31.230  1.00  0.00     0.173 A 
ATOM     65  C   UNL A   1      47.235  28.961  28.973  1.00  0.00     0.173 A 
ATOM     66  F   UNL A   1      46.098  28.147  32.332  1.00  0.00    -0.203 F 
ATOM     67  C   UNL A   1      48.135  27.666  31.258  1.00  0.00     0.198 A 
ATOM     68  C   UNL A   1      48.495  28.370  28.993  1.00  0.00     0.198 A 
ATOM     69  F   UNL A   1      46.834  29.587  27.857  1.00  0.00    -0.203 F 
ATOM     70  F   UNL A   1      48.582  27.076  32.376  1.00  0.00    -0.200 F 
ATOM     71  C   UNL A   1      48.949  27.732  30.137  1.00  0.00     0.200 A 
ATOM     72  F   UNL A   1      49.276  28.424  27.904  1.00  0.00    -0.200 F 
ATOM     73  F   UNL A   1      50.174  27.189  30.163  1.00  0.00    -0.200 F 
ENDBRANCH  49  63
BRANCH  50  74
ATOM     74  C   UNL A   1      37.080  32.520  29.826  1.00  0.00     0.064 A 
ATOM     75  C   UNL A   1      36.614  33.250  28.723  1.00  0.00     0.173 A 
ATOM     76  C   UNL A   1      36.199  32.328  30.899  1.00  0.00     0.173 A 
ATOM     77  F   UNL A   1      37.427  33.478  27.680  1.00  0.00    -0.203 F 
ATOM     78  C   UNL A   1      35.328  33.785  28.704  1.00  0.00     0.198 A 
ATOM     79  C   UNL A   1      34.902  32.837  30.867  1.00  0.00     0.198 A 
ATOM     80  F   UNL A   1      36.593  31.633  31.976  1.00  0.00    -0.203 F 
ATOM     81  F   UNL A   1      34.926  34.518  27.657  1.00  0.00    -0.200 F 
ATOM     82  C   UNL A   1      34.472  33.573  29.773  1.00  0.00     0.200 A 
ATOM     83  F   UNL A   1      34.072  32.618  31.895  1.00  0.00    -0.200 F 
ATOM     84  F   UNL A   1      33.233  34.084  29.753  1.00  0.00    -0.200 F 
ENDBRANCH  50  74
BRANCH  62  85
ATOM     85  C   UNL A   1      43.214  35.135  31.851  1.00  0.00     0.064 A 
ATOM     86  C   UNL A   1      43.648  36.176  31.018  1.00  0.00     0.173 A 
ATOM     87  C   UNL A   1      43.124  35.390  33.228  1.00  0.00     0.173 A 
ATOM     88  F   UNL A   1      43.768  35.978  29.697  1.00  0.00    -0.203 F 
ATOM     89  C   UNL A   1      44.006  37.414  31.547  1.00  0.00     0.198 A 
ATOM     90  C   UNL A   1      43.449  36.640  33.749  1.00  0.00     0.198 A 
ATOM     91  F   UNL A   1      42.706  34.431  34.068  1.00  0.00    -0.203 F 
ATOM     92  F   UNL A   1      44.468  38.377  30.737  1.00  0.00    -0.200 F 
ATOM     93  C   UNL A   1      43.898  37.647  32.910  1.00  0.00     0.200 A 
ATOM     94  F   UNL A   1      43.330  36.867  35.065  1.00  0.00    -0.200 F 
ATOM     95  F   UNL A   1      44.233  38.841  33.414  1.00  0.00    -0.200 F 
ENDBRANCH  62  85
ENDBRANCH  36  37
ENDBRANCH  28  31
ENDBRANCH  26  27
ENDBRANCH  25  26
ENDBRANCH  24  25
ENDBRANCH   1  24
TORSDOF 18
ENDMDL
MODEL 3
REMARK VINA RESULT:     -11.1      1.363      3.339
REMARK SMILES CC[C@@H](C)[C@@H](C(=O)NCCCCCCNC(=O)c1ccc(-c2c3nc(c(-c4c(F)c(F)c(F)c(F)c4F)c4ccc([nH]4)c(-c4c(F)c(F)c(F)c(F)c4F)c4nc(c(-c5c(F)c(F)c(F)c(F)c5F)c5ccc2[nH]5)C=C4)C=C3)cc1)S(=O)(=O)c1ccc(OC)cc1
REMARK SMILES IDX 11 1 10 2 9 3 8 4 6 5 7 6 5 8 3 9 4 10 2 11 1 12 81 13 82 14
REMARK SMILES IDX 83 15 84 16 85 17 91 18 86 19 90 20 87 21 88 22 89 23 12 24
REMARK SMILES IDX 13 25 14 26 15 27 16 28 17 30 18 31 19 32 80 33 20 34 79 35
REMARK SMILES IDX 21 36 22 37 23 38 73 39 24 40 78 41 72 42 74 43 25 44 77 45
REMARK SMILES IDX 71 46 70 47 26 49 58 50 38 51 57 52 39 53 42 54 56 55 75 56
REMARK SMILES IDX 40 57 41 58 55 60 76 61 43 62 27 63 28 64 36 65 29 66 30 67
REMARK SMILES IDX 34 68 37 69 31 70 32 71 35 72 33 73 59 74 60 75 68 76 61 77
REMARK SMILES IDX 62 78 66 79 69 80 63 81 64 82 67 83 65 84 44 85 45 86 53 87
REMARK SMILES IDX 46 88 47 89 51 90 54 91 48 92 49 93 52 94 50 95
REMARK H PARENT 8 7 15 29 74 48 42 59
REMARK Flexibility Score: inf
ROOT
ATOM      1  C   UNL A   1      32.888  30.118  26.124  1.00  0.00     0.002 C 
ENDROOT
BRANCH   1   2
ATOM      2  C   UNL A   1      33.024  29.010  27.169  1.00  0.00     0.021 C 
BRANCH   2   3
ATOM      3  C   UNL A   1      32.562  27.615  26.708  1.00  0.00     0.116 C 
BRANCH   3   4
ATOM      4  N   UNL A   1      33.560  27.050  25.823  1.00  0.00    -0.355 N 
ATOM      5  C   UNL A   1      33.492  25.966  24.996  1.00  0.00     0.239 C 
ATOM      6  O   UNL A   1      34.547  25.340  24.885  1.00  0.00    -0.274 OA
ATOM      7  H   UNL A   1      34.425  27.522  25.818  1.00  0.00     0.163 HD
BRANCH   5   8
ATOM      8  C   UNL A   1      32.210  25.574  24.247  1.00  0.00     0.205 C 
BRANCH   8   9
ATOM      9  C   UNL A   1      32.059  24.048  23.917  1.00  0.00     0.014 C 
ATOM     10  C   UNL A   1      30.678  23.689  23.345  1.00  0.00     0.009 C 
BRANCH   9  11
ATOM     11  C   UNL A   1      32.309  23.165  25.153  1.00  0.00     0.002 C 
ATOM     12  C   UNL A   1      33.235  21.973  24.960  1.00  0.00     0.004 C 
ENDBRANCH   9  11
ENDBRANCH   8   9
BRANCH   8  13
ATOM     13  S   UNL A   1      32.171  26.659  22.771  1.00  0.00     0.190 S 
ATOM     14  O   UNL A   1      33.360  27.483  22.725  1.00  0.00    -0.223 OA
ATOM     15  O   UNL A   1      31.889  25.813  21.614  1.00  0.00    -0.223 OA
BRANCH  13  16
ATOM     16  C   UNL A   1      30.793  27.784  22.959  1.00  0.00     0.068 A 
ATOM     17  C   UNL A   1      29.550  27.305  23.375  1.00  0.00     0.024 A 
ATOM     18  C   UNL A   1      30.946  29.134  22.629  1.00  0.00     0.024 A 
ATOM     19  C   UNL A   1      28.438  28.149  23.330  1.00  0.00     0.048 A 
ATOM     20  C   UNL A   1      29.831  29.980  22.613  1.00  0.00     0.048 A 
ATOM     21  C   UNL A   1      28.568  29.483  22.937  1.00  0.00     0.118 A 
BRANCH  21  22
ATOM     22  O   UNL A   1      27.393  30.180  22.899  1.00  0.00    -0.497 OA
ATOM     23  C   UNL A   1      27.454  31.560  23.238  1.00  0.00     0.278 C 
ENDBRANCH  21  22
ENDBRANCH  13  16
ENDBRANCH   8  13
ENDBRANCH   5   8
ENDBRANCH   3   4
ENDBRANCH   2   3
ENDBRANCH   1   2
BRANCH   1  24
ATOM     24  C   UNL A   1      31.483  30.697  25.979  1.00  0.00     0.002 C 
BRANCH  24  25
ATOM     25  C   UNL A   1      31.304  32.115  26.527  1.00  0.00     0.021 C 
BRANCH  25  26
ATOM     26  C   UNL A   1      32.550  32.718  27.171  1.00  0.00     0.116 C 
BRANCH  26  27
ATOM     27  N   UNL A   1      32.361  34.113  27.528  1.00  0.00    -0.352 N 
ATOM     28  C   UNL A   1      32.958  34.849  28.520  1.00  0.00     0.251 C 
ATOM     29  H   UNL A   1      31.708  34.603  26.978  1.00  0.00     0.163 HD
ATOM     30  O   UNL A   1      32.516  35.950  28.828  1.00  0.00    -0.269 OA
BRANCH  28  31
ATOM     31  C   UNL A   1      34.134  34.304  29.231  1.00  0.00     0.039 A 
ATOM     32  C   UNL A   1      33.941  33.625  30.437  1.00  0.00     0.014 A 
ATOM     33  C   UNL A   1      35.423  34.480  28.719  1.00  0.00     0.014 A 
ATOM     34  C   UNL A   1      35.038  33.072  31.101  1.00  0.00     0.010 A 
ATOM     35  C   UNL A   1      36.504  33.866  29.343  1.00  0.00     0.010 A 
ATOM     36  C   UNL A   1      36.325  33.162  30.543  1.00  0.00    -0.014 A 
BRANCH  36  37
ATOM     37  C   UNL A   1      37.494  32.531  31.205  1.00  0.00     0.031 A 
ATOM     38  C   UNL A   1      38.234  31.413  30.525  1.00  0.00     0.074 A 
ATOM     39  C   UNL A   1      37.854  32.926  32.441  1.00  0.00     0.049 A 
ATOM     40  N   UNL A   1      39.240  30.697  30.963  1.00  0.00    -0.248 NA
ATOM     41  C   UNL A   1      37.766  31.032  29.183  1.00  0.00     0.031 C 
ATOM     42  C   UNL A   1      37.188  33.971  33.220  1.00  0.00     0.029 A 
ATOM     43  N   UNL A   1      38.862  32.490  33.264  1.00  0.00    -0.354 N 
ATOM     44  C   UNL A   1      39.515  29.779  29.959  1.00  0.00     0.074 A 
ATOM     45  C   UNL A   1      38.535  29.987  28.916  1.00  0.00     0.031 C 
ATOM     46  C   UNL A   1      37.821  34.113  34.396  1.00  0.00     0.029 A 
ATOM     47  C   UNL A   1      38.911  33.144  34.470  1.00  0.00     0.049 A 
ATOM     48  H   UNL A   1      39.490  31.775  33.012  1.00  0.00     0.167 HD
ATOM     49  C   UNL A   1      40.511  28.862  29.902  1.00  0.00     0.037 A 
ATOM     50  C   UNL A   1      39.736  32.975  35.520  1.00  0.00     0.037 A 
ATOM     51  C   UNL A   1      41.493  28.670  30.936  1.00  0.00     0.049 A 
ATOM     52  C   UNL A   1      40.820  31.933  35.441  1.00  0.00     0.074 A 
ATOM     53  C   UNL A   1      42.572  27.804  30.952  1.00  0.00     0.029 A 
ATOM     54  N   UNL A   1      41.513  29.354  32.143  1.00  0.00    -0.354 N 
ATOM     55  N   UNL A   1      41.113  31.116  34.459  1.00  0.00    -0.248 NA
ATOM     56  C   UNL A   1      41.692  31.796  36.615  1.00  0.00     0.031 C 
ATOM     57  C   UNL A   1      43.214  27.927  32.189  1.00  0.00     0.029 A 
ATOM     58  C   UNL A   1      42.571  28.912  32.921  1.00  0.00     0.049 A 
ATOM     59  H   UNL A   1      40.870  30.051  32.407  1.00  0.00     0.167 HD
ATOM     60  C   UNL A   1      42.218  30.390  34.883  1.00  0.00     0.074 A 
ATOM     61  C   UNL A   1      42.553  30.875  36.205  1.00  0.00     0.031 C 
ATOM     62  C   UNL A   1      42.894  29.410  34.234  1.00  0.00     0.037 A 
BRANCH  49  63
ATOM     63  C   UNL A   1      40.587  27.997  28.676  1.00  0.00     0.064 A 
ATOM     64  C   UNL A   1      41.313  28.391  27.540  1.00  0.00     0.173 A 
ATOM     65  C   UNL A   1      39.949  26.747  28.642  1.00  0.00     0.173 A 
ATOM     66  F   UNL A   1      41.933  29.580  27.514  1.00  0.00    -0.203 F 
ATOM     67  C   UNL A   1      41.369  27.582  26.407  1.00  0.00     0.198 A 
ATOM     68  C   UNL A   1      40.036  25.927  27.521  1.00  0.00     0.198 A 
ATOM     69  F   UNL A   1      39.247  26.318  29.701  1.00  0.00    -0.203 F 
ATOM     70  F   UNL A   1      42.022  28.006  25.316  1.00  0.00    -0.200 F 
ATOM     71  C   UNL A   1      40.737  26.349  26.401  1.00  0.00     0.200 A 
ATOM     72  F   UNL A   1      39.435  24.729  27.521  1.00  0.00    -0.200 F 
ATOM     73  F   UNL A   1      40.795  25.569  25.312  1.00  0.00    -0.200 F 
ENDBRANCH  49  63
BRANCH  50  74
ATOM     74  C   UNL A   1      39.589  33.830  36.728  1.00  0.00     0.064 A 
ATOM     75  C   UNL A   1      38.817  33.405  37.818  1.00  0.00     0.173 A 
ATOM     76  C   UNL A   1      40.207  35.085  36.816  1.00  0.00     0.173 A 
ATOM     77  F   UNL A   1      38.188  32.221  37.772  1.00  0.00    -0.203 F 
ATOM     78  C   UNL A   1      38.652  34.212  38.942  1.00  0.00     0.198 A 
ATOM     79  C   UNL A   1      40.067  35.878  37.953  1.00  0.00     0.198 A 
ATOM     80  F   UNL A   1      40.961  35.536  35.803  1.00  0.00    -0.203 F 
ATOM     81  F   UNL A   1      37.870  33.800  39.949  1.00  0.00    -0.200 F 
ATOM     82  C   UNL A   1      39.282  35.445  39.011  1.00  0.00     0.200 A 
ATOM     83  F   UNL A   1      40.689  37.062  38.023  1.00  0.00    -0.200 F 
ATOM     84  F   UNL A   1      39.126  36.219  40.094  1.00  0.00    -0.200 F 
ENDBRANCH  50  74
BRANCH  62  85
ATOM     85  C   UNL A   1      44.089  28.823  34.930  1.00  0.00     0.064 A 
ATOM     86  C   UNL A   1      43.983  27.689  35.749  1.00  0.00     0.173 A 
ATOM     87  C   UNL A   1      45.363  29.381  34.744  1.00  0.00     0.173 A 
ATOM     88  F   UNL A   1      42.785  27.128  35.972  1.00  0.00    -0.203 F 
ATOM     89  C   UNL A   1      45.103  27.153  36.378  1.00  0.00     0.198 A 
ATOM     90  C   UNL A   1      46.486  28.822  35.347  1.00  0.00     0.198 A 
ATOM     91  F   UNL A   1      45.521  30.461  33.964  1.00  0.00    -0.203 F 
ATOM     92  F   UNL A   1      44.970  26.100  37.197  1.00  0.00    -0.200 F 
ATOM     93  C   UNL A   1      46.355  27.715  36.170  1.00  0.00     0.200 A 
ATOM     94  F   UNL A   1      47.696  29.357  35.133  1.00  0.00    -0.200 F 
ATOM     95  F   UNL A   1      47.433  27.192  36.769  1.00  0.00    -0.200 F 
ENDBRANCH  62  85
ENDBRANCH  36  37
ENDBRANCH  28  31
ENDBRANCH  26  27
ENDBRANCH  25  26
ENDBRANCH  24  25
ENDBRANCH   1  24
TORSDOF 18
ENDMDL
