MODEL 1
REMARK VINA RESULT:     -12.6      0.000      0.000
REMARK SMILES Cc1nn(-c2ccncn2)c(C)c1[C@@H](C)C(=O)NCCCCCCNC(=O)c1ccc(-c2c3nc(c(-c4c(F)c(F)c(F)c(F)c4F)c4ccc([nH]4)c(-c4c(F)c(F)c(F)c(F)c4F)c4nc(c(-c5c(F)c(F)c(F)c(F)c5F)c5ccc2[nH]5)C=C4)C=C3)cc1
REMARK SMILES IDX 21 1 20 2 19 3 18 4 16 5 17 6 14 8 15 9 13 10 1 11 2 12 3 13
REMARK SMILES IDX 4 14 11 15 12 16 5 17 6 18 10 19 7 20 9 21 8 22 22 23 23 24
REMARK SMILES IDX 24 25 25 26 26 27 27 29 28 30 29 31 90 32 30 33 89 34 31 35
REMARK SMILES IDX 32 36 33 37 83 38 34 39 88 40 82 41 84 42 35 43 87 44 81 45
REMARK SMILES IDX 80 46 36 48 68 49 48 50 67 51 49 52 52 53 66 54 85 55 50 56
REMARK SMILES IDX 51 57 65 59 86 60 53 61 37 62 38 63 46 64 39 65 40 66 44 67
REMARK SMILES IDX 47 68 41 69 42 70 45 71 43 72 69 73 70 74 78 75 71 76 72 77
REMARK SMILES IDX 76 78 79 79 73 80 74 81 77 82 75 83 54 84 55 85 63 86 56 87
REMARK SMILES IDX 57 88 61 89 64 90 58 91 59 92 62 93 60 94
REMARK H PARENT 18 7 25 28 84 47 52 58
REMARK Flexibility Score: inf
ROOT
ATOM      1  C   UNL A   1      39.095  21.764  26.144  1.00  0.00     0.002 C 
ENDROOT
BRANCH   1   2
ATOM      2  C   UNL A   1      38.755  23.230  26.433  1.00  0.00     0.021 C 
BRANCH   2   3
ATOM      3  C   UNL A   1      37.484  23.724  25.737  1.00  0.00     0.116 C 
BRANCH   3   4
ATOM      4  N   UNL A   1      37.411  23.342  24.347  1.00  0.00    -0.356 N 
ATOM      5  C   UNL A   1      36.339  23.258  23.507  1.00  0.00     0.227 C 
ATOM      6  O   UNL A   1      36.580  22.973  22.328  1.00  0.00    -0.274 OA
ATOM      7  H   UNL A   1      38.274  23.102  23.938  1.00  0.00     0.163 HD
BRANCH   5   8
ATOM      8  C   UNL A   1      34.889  23.556  23.947  1.00  0.00     0.109 C 
ATOM      9  C   UNL A   1      34.830  24.641  25.010  1.00  0.00     0.023 C 
BRANCH   8  10
ATOM     10  C   UNL A   1      34.074  22.298  24.174  1.00  0.00     0.009 A 
ATOM     11  C   UNL A   1      32.079  22.791  22.521  1.00  0.00     0.069 C 
ATOM     12  C   UNL A   1      32.903  21.953  23.435  1.00  0.00     0.064 A 
ATOM     13  N   UNL A   1      32.546  20.686  23.639  1.00  0.00    -0.171 NA
ATOM     14  N   UNL A   1      33.389  20.222  24.587  1.00  0.00    -0.219 N 
ATOM     15  C   UNL A   1      34.182  21.256  25.101  1.00  0.00     0.047 A 
ATOM     16  C   UNL A   1      35.040  21.099  26.307  1.00  0.00     0.067 C 
BRANCH  14  17
ATOM     17  C   UNL A   1      33.459  18.811  24.851  1.00  0.00     0.156 A 
ATOM     18  C   UNL A   1      34.414  18.024  24.240  1.00  0.00     0.069 A 
ATOM     19  N   UNL A   1      32.499  18.277  25.647  1.00  0.00    -0.217 NA
ATOM     20  C   UNL A   1      34.293  16.666  24.421  1.00  0.00     0.117 A 
ATOM     21  C   UNL A   1      32.475  16.944  25.747  1.00  0.00     0.224 A 
ATOM     22  N   UNL A   1      33.319  16.094  25.144  1.00  0.00    -0.245 NA
ENDBRANCH  14  17
ENDBRANCH   8  10
ENDBRANCH   5   8
ENDBRANCH   3   4
ENDBRANCH   2   3
ENDBRANCH   1   2
BRANCH   1  23
ATOM     23  C   UNL A   1      40.334  21.201  26.864  1.00  0.00     0.002 C 
BRANCH  23  24
ATOM     24  C   UNL A   1      41.085  20.061  26.161  1.00  0.00     0.021 C 
BRANCH  24  25
ATOM     25  C   UNL A   1      42.435  19.742  26.786  1.00  0.00     0.116 C 
BRANCH  25  26
ATOM     26  N   UNL A   1      43.504  19.633  25.792  1.00  0.00    -0.352 N 
ATOM     27  C   UNL A   1      44.123  20.629  25.061  1.00  0.00     0.251 C 
ATOM     28  H   UNL A   1      43.827  18.719  25.620  1.00  0.00     0.163 HD
ATOM     29  O   UNL A   1      44.756  20.370  24.053  1.00  0.00    -0.269 OA
BRANCH  27  30
ATOM     30  C   UNL A   1      44.001  22.023  25.525  1.00  0.00     0.039 A 
ATOM     31  C   UNL A   1      43.049  22.893  24.987  1.00  0.00     0.014 A 
ATOM     32  C   UNL A   1      44.854  22.444  26.537  1.00  0.00     0.014 A 
ATOM     33  C   UNL A   1      42.915  24.165  25.541  1.00  0.00     0.010 A 
ATOM     34  C   UNL A   1      44.590  23.608  27.203  1.00  0.00     0.010 A 
ATOM     35  C   UNL A   1      43.680  24.507  26.668  1.00  0.00    -0.014 A 
BRANCH  35  36
ATOM     36  C   UNL A   1      43.477  25.766  27.375  1.00  0.00     0.031 A 
ATOM     37  C   UNL A   1      44.439  26.840  27.007  1.00  0.00     0.074 A 
ATOM     38  C   UNL A   1      42.376  26.016  28.118  1.00  0.00     0.049 A 
ATOM     39  N   UNL A   1      45.305  27.422  27.769  1.00  0.00    -0.248 NA
ATOM     40  C   UNL A   1      44.540  27.230  25.592  1.00  0.00     0.031 C 
ATOM     41  C   UNL A   1      41.188  25.176  28.318  1.00  0.00     0.029 A 
ATOM     42  N   UNL A   1      42.041  27.152  28.786  1.00  0.00    -0.354 N 
ATOM     43  C   UNL A   1      45.930  28.383  26.980  1.00  0.00     0.074 A 
ATOM     44  C   UNL A   1      45.541  28.112  25.621  1.00  0.00     0.031 C 
ATOM     45  C   UNL A   1      40.187  25.915  28.846  1.00  0.00     0.029 A 
ATOM     46  C   UNL A   1      40.711  27.224  29.185  1.00  0.00     0.049 A 
ATOM     47  H   UNL A   1      42.690  27.868  28.972  1.00  0.00     0.167 HD
ATOM     48  C   UNL A   1      46.531  29.468  27.542  1.00  0.00     0.037 A 
ATOM     49  C   UNL A   1      40.089  28.299  29.733  1.00  0.00     0.037 A 
ATOM     50  C   UNL A   1      46.799  29.249  28.941  1.00  0.00     0.049 A 
ATOM     51  C   UNL A   1      41.153  29.190  30.260  1.00  0.00     0.074 A 
ATOM     52  C   UNL A   1      47.531  28.309  29.643  1.00  0.00     0.029 A 
ATOM     53  N   UNL A   1      45.946  29.808  29.862  1.00  0.00    -0.354 N 
ATOM     54  N   UNL A   1      41.917  28.886  31.272  1.00  0.00    -0.248 NA
ATOM     55  C   UNL A   1      41.679  30.208  29.361  1.00  0.00     0.031 C 
ATOM     56  C   UNL A   1      46.727  27.993  30.779  1.00  0.00     0.029 A 
ATOM     57  C   UNL A   1      45.602  28.817  30.748  1.00  0.00     0.049 A 
ATOM     58  H   UNL A   1      45.638  30.743  29.882  1.00  0.00     0.167 HD
ATOM     59  C   UNL A   1      43.178  29.331  30.905  1.00  0.00     0.074 A 
ATOM     60  C   UNL A   1      42.954  30.207  29.756  1.00  0.00     0.031 C 
ATOM     61  C   UNL A   1      44.305  28.721  31.375  1.00  0.00     0.037 A 
BRANCH  48  62
ATOM     62  C   UNL A   1      46.550  30.840  26.917  1.00  0.00     0.064 A 
ATOM     63  C   UNL A   1      47.753  31.572  26.888  1.00  0.00     0.173 A 
ATOM     64  C   UNL A   1      45.384  31.576  26.611  1.00  0.00     0.173 A 
ATOM     65  F   UNL A   1      48.920  30.982  27.190  1.00  0.00    -0.203 F 
ATOM     66  C   UNL A   1      47.775  32.948  26.635  1.00  0.00     0.198 A 
ATOM     67  C   UNL A   1      45.416  32.935  26.305  1.00  0.00     0.198 A 
ATOM     68  F   UNL A   1      44.161  31.042  26.701  1.00  0.00    -0.203 F 
ATOM     69  F   UNL A   1      48.927  33.624  26.735  1.00  0.00    -0.200 F 
ATOM     70  C   UNL A   1      46.606  33.627  26.347  1.00  0.00     0.200 A 
ATOM     71  F   UNL A   1      44.268  33.578  26.047  1.00  0.00    -0.200 F 
ATOM     72  F   UNL A   1      46.616  34.953  26.159  1.00  0.00    -0.200 F 
ENDBRANCH  48  62
BRANCH  49  73
ATOM     73  C   UNL A   1      38.687  28.756  29.572  1.00  0.00     0.064 A 
ATOM     74  C   UNL A   1      37.875  29.005  30.692  1.00  0.00     0.173 A 
ATOM     75  C   UNL A   1      38.213  29.246  28.341  1.00  0.00     0.173 A 
ATOM     76  F   UNL A   1      38.265  28.601  31.909  1.00  0.00    -0.203 F 
ATOM     77  C   UNL A   1      36.689  29.740  30.591  1.00  0.00     0.198 A 
ATOM     78  C   UNL A   1      37.029  29.978  28.240  1.00  0.00     0.198 A 
ATOM     79  F   UNL A   1      38.938  29.104  27.225  1.00  0.00    -0.203 F 
ATOM     80  F   UNL A   1      35.978  30.014  31.694  1.00  0.00    -0.200 F 
ATOM     81  C   UNL A   1      36.275  30.240  29.368  1.00  0.00     0.200 A 
ATOM     82  F   UNL A   1      36.658  30.484  27.055  1.00  0.00    -0.200 F 
ATOM     83  F   UNL A   1      35.178  31.005  29.284  1.00  0.00    -0.200 F 
ENDBRANCH  49  73
BRANCH  61  84
ATOM     84  C   UNL A   1      44.150  27.707  32.479  1.00  0.00     0.064 A 
ATOM     85  C   UNL A   1      44.047  26.319  32.273  1.00  0.00     0.173 A 
ATOM     86  C   UNL A   1      44.247  28.149  33.804  1.00  0.00     0.173 A 
ATOM     87  F   UNL A   1      44.052  25.799  31.041  1.00  0.00    -0.203 F 
ATOM     88  C   UNL A   1      43.992  25.427  33.344  1.00  0.00     0.198 A 
ATOM     89  C   UNL A   1      44.232  27.253  34.871  1.00  0.00     0.198 A 
ATOM     90  F   UNL A   1      44.404  29.455  34.066  1.00  0.00    -0.203 F 
ATOM     91  F   UNL A   1      43.877  24.109  33.117  1.00  0.00    -0.200 F 
ATOM     92  C   UNL A   1      44.092  25.895  34.641  1.00  0.00     0.200 A 
ATOM     93  F   UNL A   1      44.378  27.708  36.124  1.00  0.00    -0.200 F 
ATOM     94  F   UNL A   1      44.078  25.036  35.671  1.00  0.00    -0.200 F 
ENDBRANCH  61  84
ENDBRANCH  35  36
ENDBRANCH  27  30
ENDBRANCH  25  26
ENDBRANCH  24  25
ENDBRANCH  23  24
ENDBRANCH   1  23
TORSDOF 15
ENDMDL
MODEL 2
REMARK VINA RESULT:     -12.2      3.142      8.401
REMARK SMILES Cc1nn(-c2ccncn2)c(C)c1[C@@H](C)C(=O)NCCCCCCNC(=O)c1ccc(-c2c3nc(c(-c4c(F)c(F)c(F)c(F)c4F)c4ccc([nH]4)c(-c4c(F)c(F)c(F)c(F)c4F)c4nc(c(-c5c(F)c(F)c(F)c(F)c5F)c5ccc2[nH]5)C=C4)C=C3)cc1
REMARK SMILES IDX 21 1 20 2 19 3 18 4 16 5 17 6 14 8 15 9 13 10 1 11 2 12 3 13
REMARK SMILES IDX 4 14 11 15 12 16 5 17 6 18 10 19 7 20 9 21 8 22 22 23 23 24
REMARK SMILES IDX 24 25 25 26 26 27 27 29 28 30 29 31 90 32 30 33 89 34 31 35
REMARK SMILES IDX 32 36 33 37 83 38 34 39 88 40 82 41 84 42 35 43 87 44 81 45
REMARK SMILES IDX 80 46 36 48 68 49 48 50 67 51 49 52 52 53 66 54 85 55 50 56
REMARK SMILES IDX 51 57 65 59 86 60 53 61 37 62 38 63 46 64 39 65 40 66 44 67
REMARK SMILES IDX 47 68 41 69 42 70 45 71 43 72 69 73 70 74 78 75 71 76 72 77
REMARK SMILES IDX 76 78 79 79 73 80 74 81 77 82 75 83 54 84 55 85 63 86 56 87
REMARK SMILES IDX 57 88 61 89 64 90 58 91 59 92 62 93 60 94
REMARK H PARENT 18 7 25 28 84 47 52 58
REMARK Flexibility Score: inf
ROOT
ATOM      1  C   UNL A   1      33.024  26.729  25.902  1.00  0.00     0.002 C 
ENDROOT
BRANCH   1   2
ATOM      2  C   UNL A   1      31.715  26.737  26.699  1.00  0.00     0.021 C 
BRANCH   2   3
ATOM      3  C   UNL A   1      30.518  26.161  25.939  1.00  0.00     0.116 C 
BRANCH   3   4
ATOM      4  N   UNL A   1      30.175  24.820  26.347  1.00  0.00    -0.356 N 
ATOM      5  C   UNL A   1      30.620  23.614  25.892  1.00  0.00     0.227 C 
ATOM      6  O   UNL A   1      30.206  22.611  26.485  1.00  0.00    -0.274 OA
ATOM      7  H   UNL A   1      29.510  24.767  27.072  1.00  0.00     0.163 HD
BRANCH   5   8
ATOM      8  C   UNL A   1      31.636  23.463  24.739  1.00  0.00     0.109 C 
ATOM      9  C   UNL A   1      30.991  23.694  23.381  1.00  0.00     0.023 C 
BRANCH   8  10
ATOM     10  C   UNL A   1      32.531  22.250  24.900  1.00  0.00     0.009 A 
ATOM     11  C   UNL A   1      34.104  23.146  26.817  1.00  0.00     0.069 C 
ATOM     12  C   UNL A   1      33.529  22.116  25.910  1.00  0.00     0.064 A 
ATOM     13  N   UNL A   1      33.973  20.863  26.001  1.00  0.00    -0.171 NA
ATOM     14  N   UNL A   1      33.372  20.193  24.994  1.00  0.00    -0.219 N 
ATOM     15  C   UNL A   1      32.666  21.070  24.160  1.00  0.00     0.047 A 
ATOM     16  C   UNL A   1      32.093  20.661  22.849  1.00  0.00     0.067 C 
BRANCH  14  17
ATOM     17  C   UNL A   1      33.418  18.757  24.965  1.00  0.00     0.156 A 
ATOM     18  C   UNL A   1      34.404  18.095  24.262  1.00  0.00     0.069 A 
ATOM     19  N   UNL A   1      32.408  18.088  25.575  1.00  0.00    -0.217 NA
ATOM     20  C   UNL A   1      34.266  16.731  24.152  1.00  0.00     0.117 A 
ATOM     21  C   UNL A   1      32.371  16.764  25.397  1.00  0.00     0.224 A 
ATOM     22  N   UNL A   1      33.246  16.041  24.683  1.00  0.00    -0.245 NA
ENDBRANCH  14  17
ENDBRANCH   8  10
ENDBRANCH   5   8
ENDBRANCH   3   4
ENDBRANCH   2   3
ENDBRANCH   1   2
BRANCH   1  23
ATOM     23  C   UNL A   1      33.796  28.060  25.851  1.00  0.00     0.002 C 
BRANCH  23  24
ATOM     24  C   UNL A   1      33.046  29.315  26.323  1.00  0.00     0.021 C 
BRANCH  24  25
ATOM     25  C   UNL A   1      33.642  29.950  27.569  1.00  0.00     0.116 C 
BRANCH  25  26
ATOM     26  N   UNL A   1      34.085  31.326  27.343  1.00  0.00    -0.352 N 
ATOM     27  C   UNL A   1      35.254  31.946  27.746  1.00  0.00     0.251 C 
ATOM     28  H   UNL A   1      33.462  31.891  26.830  1.00  0.00     0.163 HD
ATOM     29  O   UNL A   1      35.345  33.161  27.770  1.00  0.00    -0.269 OA
BRANCH  27  30
ATOM     30  C   UNL A   1      36.394  31.105  28.151  1.00  0.00     0.039 A 
ATOM     31  C   UNL A   1      36.509  29.776  27.734  1.00  0.00     0.014 A 
ATOM     32  C   UNL A   1      37.372  31.684  28.949  1.00  0.00     0.014 A 
ATOM     33  C   UNL A   1      37.662  29.067  28.065  1.00  0.00     0.010 A 
ATOM     34  C   UNL A   1      38.577  31.057  29.104  1.00  0.00     0.010 A 
ATOM     35  C   UNL A   1      38.704  29.727  28.735  1.00  0.00    -0.014 A 
BRANCH  35  36
ATOM     36  C   UNL A   1      39.987  29.077  28.978  1.00  0.00     0.031 A 
ATOM     37  C   UNL A   1      40.258  28.762  30.406  1.00  0.00     0.074 A 
ATOM     38  C   UNL A   1      40.757  28.589  27.980  1.00  0.00     0.049 A 
ATOM     39  N   UNL A   1      41.205  29.224  31.154  1.00  0.00    -0.248 NA
ATOM     40  C   UNL A   1      39.285  27.928  31.132  1.00  0.00     0.031 C 
ATOM     41  C   UNL A   1      40.478  28.538  26.539  1.00  0.00     0.029 A 
ATOM     42  N   UNL A   1      41.942  27.927  28.066  1.00  0.00    -0.354 N 
ATOM     43  C   UNL A   1      41.063  28.598  32.389  1.00  0.00     0.074 A 
ATOM     44  C   UNL A   1      39.782  27.942  32.370  1.00  0.00     0.031 C 
ATOM     45  C   UNL A   1      41.335  27.685  25.935  1.00  0.00     0.029 A 
ATOM     46  C   UNL A   1      42.329  27.269  26.904  1.00  0.00     0.049 A 
ATOM     47  H   UNL A   1      42.483  27.914  28.888  1.00  0.00     0.167 HD
ATOM     48  C   UNL A   1      42.121  28.477  33.237  1.00  0.00     0.037 A 
ATOM     49  C   UNL A   1      43.383  26.424  26.767  1.00  0.00     0.037 A 
ATOM     50  C   UNL A   1      43.169  29.406  32.899  1.00  0.00     0.049 A 
ATOM     51  C   UNL A   1      44.300  26.691  27.904  1.00  0.00     0.074 A 
ATOM     52  C   UNL A   1      43.235  30.784  32.796  1.00  0.00     0.029 A 
ATOM     53  N   UNL A   1      44.255  28.937  32.200  1.00  0.00    -0.354 N 
ATOM     54  N   UNL A   1      44.973  27.799  28.045  1.00  0.00    -0.248 NA
ATOM     55  C   UNL A   1      44.100  25.918  29.121  1.00  0.00     0.031 C 
ATOM     56  C   UNL A   1      44.021  31.027  31.631  1.00  0.00     0.029 A 
ATOM     57  C   UNL A   1      44.458  29.795  31.146  1.00  0.00     0.049 A 
ATOM     58  H   UNL A   1      44.787  28.137  32.414  1.00  0.00     0.167 HD
ATOM     59  C   UNL A   1      44.896  28.084  29.400  1.00  0.00     0.074 A 
ATOM     60  C   UNL A   1      44.416  26.851  30.023  1.00  0.00     0.031 C 
ATOM     61  C   UNL A   1      44.943  29.371  29.855  1.00  0.00     0.037 A 
BRANCH  48  62
ATOM     62  C   UNL A   1      42.349  27.289  34.137  1.00  0.00     0.064 A 
ATOM     63  C   UNL A   1      41.969  27.362  35.491  1.00  0.00     0.173 A 
ATOM     64  C   UNL A   1      43.182  26.200  33.798  1.00  0.00     0.173 A 
ATOM     65  F   UNL A   1      41.202  28.370  35.932  1.00  0.00    -0.203 F 
ATOM     66  C   UNL A   1      42.441  26.449  36.441  1.00  0.00     0.198 A 
ATOM     67  C   UNL A   1      43.606  25.261  34.737  1.00  0.00     0.198 A 
ATOM     68  F   UNL A   1      43.709  26.059  32.576  1.00  0.00    -0.203 F 
ATOM     69  F   UNL A   1      42.149  26.627  37.737  1.00  0.00    -0.200 F 
ATOM     70  C   UNL A   1      43.261  25.402  36.063  1.00  0.00     0.200 A 
ATOM     71  F   UNL A   1      44.416  24.264  34.351  1.00  0.00    -0.200 F 
ATOM     72  F   UNL A   1      43.759  24.560  36.977  1.00  0.00    -0.200 F 
ENDBRANCH  48  62
BRANCH  49  73
ATOM     73  C   UNL A   1      43.513  25.215  25.917  1.00  0.00     0.064 A 
ATOM     74  C   UNL A   1      44.674  24.987  25.159  1.00  0.00     0.173 A 
ATOM     75  C   UNL A   1      42.642  24.119  26.063  1.00  0.00     0.173 A 
ATOM     76  F   UNL A   1      45.575  25.966  24.995  1.00  0.00    -0.203 F 
ATOM     77  C   UNL A   1      44.966  23.728  24.623  1.00  0.00     0.198 A 
ATOM     78  C   UNL A   1      42.932  22.864  25.528  1.00  0.00     0.198 A 
ATOM     79  F   UNL A   1      41.535  24.222  26.808  1.00  0.00    -0.203 F 
ATOM     80  F   UNL A   1      46.118  23.534  23.964  1.00  0.00    -0.200 F 
ATOM     81  C   UNL A   1      44.103  22.663  24.821  1.00  0.00     0.200 A 
ATOM     82  F   UNL A   1      42.104  21.835  25.756  1.00  0.00    -0.200 F 
ATOM     83  F   UNL A   1      44.419  21.441  24.371  1.00  0.00    -0.200 F 
ENDBRANCH  49  73
BRANCH  61  84
ATOM     84  C   UNL A   1      45.314  30.452  28.872  1.00  0.00     0.064 A 
ATOM     85  C   UNL A   1      44.390  31.146  28.070  1.00  0.00     0.173 A 
ATOM     86  C   UNL A   1      46.642  30.894  28.843  1.00  0.00     0.173 A 
ATOM     87  F   UNL A   1      43.084  30.859  28.111  1.00  0.00    -0.203 F 
ATOM     88  C   UNL A   1      44.788  32.196  27.244  1.00  0.00     0.198 A 
ATOM     89  C   UNL A   1      47.031  31.969  28.047  1.00  0.00     0.198 A 
ATOM     90  F   UNL A   1      47.562  30.312  29.627  1.00  0.00    -0.203 F 
ATOM     91  F   UNL A   1      43.887  32.829  26.477  1.00  0.00    -0.200 F 
ATOM     92  C   UNL A   1      46.107  32.611  27.238  1.00  0.00     0.200 A 
ATOM     93  F   UNL A   1      48.300  32.399  28.083  1.00  0.00    -0.200 F 
ATOM     94  F   UNL A   1      46.486  33.645  26.473  1.00  0.00    -0.200 F 
ENDBRANCH  61  84
ENDBRANCH  35  36
ENDBRANCH  27  30
ENDBRANCH  25  26
ENDBRANCH  24  25
ENDBRANCH  23  24
ENDBRANCH   1  23
TORSDOF 15
ENDMDL
MODEL 3
REMARK VINA RESULT:     -12.0      2.241      3.116
REMARK SMILES Cc1nn(-c2ccncn2)c(C)c1[C@@H](C)C(=O)NCCCCCCNC(=O)c1ccc(-c2c3nc(c(-c4c(F)c(F)c(F)c(F)c4F)c4ccc([nH]4)c(-c4c(F)c(F)c(F)c(F)c4F)c4nc(c(-c5c(F)c(F)c(F)c(F)c5F)c5ccc2[nH]5)C=C4)C=C3)cc1
REMARK SMILES IDX 21 1 20 2 19 3 18 4 16 5 17 6 14 8 15 9 13 10 1 11 2 12 3 13
REMARK SMILES IDX 4 14 11 15 12 16 5 17 6 18 10 19 7 20 9 21 8 22 22 23 23 24
REMARK SMILES IDX 24 25 25 26 26 27 27 29 28 30 29 31 90 32 30 33 89 34 31 35
REMARK SMILES IDX 32 36 33 37 83 38 34 39 88 40 82 41 84 42 35 43 87 44 81 45
REMARK SMILES IDX 80 46 36 48 68 49 48 50 67 51 49 52 52 53 66 54 85 55 50 56
REMARK SMILES IDX 51 57 65 59 86 60 53 61 37 62 38 63 46 64 39 65 40 66 44 67
REMARK SMILES IDX 47 68 41 69 42 70 45 71 43 72 69 73 70 74 78 75 71 76 72 77
REMARK SMILES IDX 76 78 79 79 73 80 74 81 77 82 75 83 54 84 55 85 63 86 56 87
REMARK SMILES IDX 57 88 61 89 64 90 58 91 59 92 62 93 60 94
REMARK H PARENT 18 7 25 28 84 47 52 58
REMARK Flexibility Score: inf
ROOT
ATOM      1  C   UNL A   1      37.188  23.481  25.732  1.00  0.00     0.002 C 
ENDROOT
BRANCH   1   2
ATOM      2  C   UNL A   1      35.714  23.509  26.151  1.00  0.00     0.021 C 
BRANCH   2   3
ATOM      3  C   UNL A   1      34.927  24.689  25.579  1.00  0.00     0.116 C 
BRANCH   3   4
ATOM      4  N   UNL A   1      33.510  24.432  25.473  1.00  0.00    -0.356 N 
ATOM      5  C   UNL A   1      32.828  23.545  24.693  1.00  0.00     0.227 C 
ATOM      6  O   UNL A   1      31.604  23.484  24.864  1.00  0.00    -0.274 OA
ATOM      7  H   UNL A   1      32.945  24.987  26.057  1.00  0.00     0.163 HD
BRANCH   5   8
ATOM      8  C   UNL A   1      33.512  22.602  23.680  1.00  0.00     0.109 C 
ATOM      9  C   UNL A   1      33.526  23.190  22.278  1.00  0.00     0.023 C 
BRANCH   8  10
ATOM     10  C   UNL A   1      33.078  21.157  23.837  1.00  0.00     0.009 A 
ATOM     11  C   UNL A   1      31.664  20.904  21.625  1.00  0.00     0.069 C 
ATOM     12  C   UNL A   1      32.363  20.420  22.847  1.00  0.00     0.064 A 
ATOM     13  N   UNL A   1      32.352  19.115  23.116  1.00  0.00    -0.171 NA
ATOM     14  N   UNL A   1      32.946  18.990  24.323  1.00  0.00    -0.219 N 
ATOM     15  C   UNL A   1      33.189  20.247  24.893  1.00  0.00     0.047 A 
ATOM     16  C   UNL A   1      33.623  20.428  26.305  1.00  0.00     0.067 C 
BRANCH  14  17
ATOM     17  C   UNL A   1      33.343  17.692  24.792  1.00  0.00     0.156 A 
ATOM     18  C   UNL A   1      34.633  17.238  24.610  1.00  0.00     0.069 A 
ATOM     19  N   UNL A   1      32.381  16.904  25.335  1.00  0.00    -0.217 NA
ATOM     20  C   UNL A   1      34.871  15.923  24.937  1.00  0.00     0.117 A 
ATOM     21  C   UNL A   1      32.724  15.641  25.611  1.00  0.00     0.224 A 
ATOM     22  N   UNL A   1      33.931  15.092  25.412  1.00  0.00    -0.245 NA
ENDBRANCH  14  17
ENDBRANCH   8  10
ENDBRANCH   5   8
ENDBRANCH   3   4
ENDBRANCH   2   3
ENDBRANCH   1   2
BRANCH   1  23
ATOM     23  C   UNL A   1      37.632  22.270  24.891  1.00  0.00     0.002 C 
BRANCH  23  24
ATOM     24  C   UNL A   1      38.514  21.226  25.591  1.00  0.00     0.021 C 
BRANCH  24  25
ATOM     25  C   UNL A   1      39.568  21.831  26.505  1.00  0.00     0.116 C 
BRANCH  25  26
ATOM     26  N   UNL A   1      40.902  21.831  25.903  1.00  0.00    -0.352 N 
ATOM     27  C   UNL A   1      41.812  22.868  25.794  1.00  0.00     0.251 C 
ATOM     28  H   UNL A   1      41.194  20.971  25.522  1.00  0.00     0.163 HD
ATOM     29  O   UNL A   1      42.731  22.816  24.997  1.00  0.00    -0.269 OA
BRANCH  27  30
ATOM     30  C   UNL A   1      41.646  24.046  26.664  1.00  0.00     0.039 A 
ATOM     31  C   UNL A   1      42.303  24.147  27.893  1.00  0.00     0.014 A 
ATOM     32  C   UNL A   1      40.827  25.072  26.211  1.00  0.00     0.014 A 
ATOM     33  C   UNL A   1      42.186  25.331  28.619  1.00  0.00     0.010 A 
ATOM     34  C   UNL A   1      40.873  26.294  26.824  1.00  0.00     0.010 A 
ATOM     35  C   UNL A   1      41.483  26.411  28.063  1.00  0.00    -0.014 A 
BRANCH  35  36
ATOM     36  C   UNL A   1      41.452  27.717  28.712  1.00  0.00     0.031 A 
ATOM     37  C   UNL A   1      42.562  28.626  28.318  1.00  0.00     0.074 A 
ATOM     38  C   UNL A   1      40.387  28.153  29.421  1.00  0.00     0.049 A 
ATOM     39  N   UNL A   1      43.492  29.112  29.072  1.00  0.00    -0.248 NA
ATOM     40  C   UNL A   1      42.737  28.934  26.890  1.00  0.00     0.031 C 
ATOM     41  C   UNL A   1      39.089  27.500  29.633  1.00  0.00     0.029 A 
ATOM     42  N   UNL A   1      40.209  29.354  30.034  1.00  0.00    -0.354 N 
ATOM     43  C   UNL A   1      44.259  29.939  28.256  1.00  0.00     0.074 A 
ATOM     44  C   UNL A   1      43.853  29.665  26.902  1.00  0.00     0.031 C 
ATOM     45  C   UNL A   1      38.197  28.397  30.109  1.00  0.00     0.029 A 
ATOM     46  C   UNL A   1      38.897  29.632  30.403  1.00  0.00     0.049 A 
ATOM     47  H   UNL A   1      40.951  29.978  30.203  1.00  0.00     0.167 HD
ATOM     48  C   UNL A   1      45.000  30.951  28.783  1.00  0.00     0.037 A 
ATOM     49  C   UNL A   1      38.428  30.807  30.892  1.00  0.00     0.037 A 
ATOM     50  C   UNL A   1      45.214  30.759  30.195  1.00  0.00     0.049 A 
ATOM     51  C   UNL A   1      39.601  31.561  31.402  1.00  0.00     0.074 A 
ATOM     52  C   UNL A   1      45.795  29.757  30.951  1.00  0.00     0.029 A 
ATOM     53  N   UNL A   1      44.437  31.474  31.075  1.00  0.00    -0.354 N 
ATOM     54  N   UNL A   1      40.299  31.198  32.442  1.00  0.00    -0.248 NA
ATOM     55  C   UNL A   1      40.278  32.453  30.473  1.00  0.00     0.031 C 
ATOM     56  C   UNL A   1      44.939  29.609  32.083  1.00  0.00     0.029 A 
ATOM     57  C   UNL A   1      43.944  30.582  31.995  1.00  0.00     0.049 A 
ATOM     58  H   UNL A   1      44.267  32.443  31.050  1.00  0.00     0.167 HD
ATOM     59  C   UNL A   1      41.615  31.441  32.082  1.00  0.00     0.074 A 
ATOM     60  C   UNL A   1      41.535  32.288  30.892  1.00  0.00     0.031 C 
ATOM     61  C   UNL A   1      42.638  30.699  32.599  1.00  0.00     0.037 A 
BRANCH  48  62
ATOM     62  C   UNL A   1      45.224  32.277  28.102  1.00  0.00     0.064 A 
ATOM     63  C   UNL A   1      44.132  33.143  27.897  1.00  0.00     0.173 A 
ATOM     64  C   UNL A   1      46.399  32.602  27.389  1.00  0.00     0.173 A 
ATOM     65  F   UNL A   1      42.956  32.916  28.501  1.00  0.00    -0.203 F 
ATOM     66  C   UNL A   1      44.197  34.214  26.998  1.00  0.00     0.198 A 
ATOM     67  C   UNL A   1      46.477  33.702  26.536  1.00  0.00     0.198 A 
ATOM     68  F   UNL A   1      47.480  31.814  27.401  1.00  0.00    -0.203 F 
ATOM     69  F   UNL A   1      43.098  34.939  26.747  1.00  0.00    -0.200 F 
ATOM     70  C   UNL A   1      45.368  34.489  26.317  1.00  0.00     0.200 A 
ATOM     71  F   UNL A   1      47.617  33.939  25.872  1.00  0.00    -0.200 F 
ATOM     72  F   UNL A   1      45.417  35.478  25.416  1.00  0.00    -0.200 F 
ENDBRANCH  48  62
BRANCH  49  73
ATOM     73  C   UNL A   1      37.108  31.452  30.685  1.00  0.00     0.064 A 
ATOM     74  C   UNL A   1      36.205  31.610  31.750  1.00  0.00     0.173 A 
ATOM     75  C   UNL A   1      36.828  32.191  29.520  1.00  0.00     0.173 A 
ATOM     76  F   UNL A   1      36.411  30.968  32.908  1.00  0.00    -0.203 F 
ATOM     77  C   UNL A   1      35.120  32.490  31.669  1.00  0.00     0.198 A 
ATOM     78  C   UNL A   1      35.746  33.068  29.439  1.00  0.00     0.198 A 
ATOM     79  F   UNL A   1      37.656  32.146  28.469  1.00  0.00    -0.203 F 
ATOM     80  F   UNL A   1      34.322  32.665  32.733  1.00  0.00    -0.200 F 
ATOM     81  C   UNL A   1      34.901  33.230  30.520  1.00  0.00     0.200 A 
ATOM     82  F   UNL A   1      35.565  33.802  28.332  1.00  0.00    -0.200 F 
ATOM     83  F   UNL A   1      33.906  34.127  30.470  1.00  0.00    -0.200 F 
ENDBRANCH  49  73
BRANCH  61  84
ATOM     84  C   UNL A   1      42.325  29.768  33.742  1.00  0.00     0.064 A 
ATOM     85  C   UNL A   1      41.882  28.441  33.586  1.00  0.00     0.173 A 
ATOM     86  C   UNL A   1      42.615  30.194  35.044  1.00  0.00     0.173 A 
ATOM     87  F   UNL A   1      41.678  27.917  32.373  1.00  0.00    -0.203 F 
ATOM     88  C   UNL A   1      41.692  27.604  34.685  1.00  0.00     0.198 A 
ATOM     89  C   UNL A   1      42.463  29.343  36.136  1.00  0.00     0.198 A 
ATOM     90  F   UNL A   1      43.095  31.429  35.255  1.00  0.00    -0.203 F 
ATOM     91  F   UNL A   1      41.253  26.348  34.507  1.00  0.00    -0.200 F 
ATOM     92  C   UNL A   1      41.989  28.054  35.958  1.00  0.00     0.200 A 
ATOM     93  F   UNL A   1      42.799  29.769  37.362  1.00  0.00    -0.200 F 
ATOM     94  F   UNL A   1      41.844  27.238  37.013  1.00  0.00    -0.200 F 
ENDBRANCH  61  84
ENDBRANCH  35  36
ENDBRANCH  27  30
ENDBRANCH  25  26
ENDBRANCH  24  25
ENDBRANCH  23  24
ENDBRANCH   1  23
TORSDOF 15
ENDMDL
