MODEL 1
REMARK VINA RESULT:     -11.4      0.000      0.000
REMARK SMILES COc1ccc(C(=O)NCCCCCCNC(=O)c2ccc(-c3c4nc(c(-c5c(F)c(F)c(F)c(F)c5F)c5ccc([nH]5)c(-c5c(F)c(F)c(F)c(F)c5F)c5nc(c(-c6c(F)c(F)c(F)c(F)c6F)c6ccc3[nH]6)C=C5)C=C4)cc2)cc1NCc1cc(C#N)cs1
REMARK SMILES IDX 11 1 10 2 9 3 7 4 8 5 6 7 3 8 4 9 83 10 5 11 82 12 2 13 1 14
REMARK SMILES IDX 84 15 85 17 86 18 87 19 92 20 88 21 91 22 89 23 90 24 12 25
REMARK SMILES IDX 13 26 14 27 15 28 16 29 17 30 18 32 19 33 20 34 81 35 21 36
REMARK SMILES IDX 80 37 22 38 23 39 24 40 74 41 25 42 79 43 73 44 75 45 26 46
REMARK SMILES IDX 78 47 72 48 71 49 27 51 59 52 39 53 58 54 40 55 43 56 57 57
REMARK SMILES IDX 76 58 41 59 42 60 56 62 77 63 44 64 28 65 29 66 37 67 30 68
REMARK SMILES IDX 31 69 35 70 38 71 32 72 33 73 36 74 34 75 60 76 61 77 69 78
REMARK SMILES IDX 62 79 63 80 67 81 70 82 64 83 65 84 68 85 66 86 45 87 46 88
REMARK SMILES IDX 54 89 47 90 48 91 52 92 55 93 49 94 50 95 53 96 51 97
REMARK H PARENT 9 6 84 16 16 31 75 50 43 61
REMARK Flexibility Score: inf
ROOT
ATOM      1  C   UNL A   1      36.604  23.173  24.755  1.00  0.00     0.021 C 
ENDROOT
BRANCH   1   2
ATOM      2  C   UNL A   1      35.949  24.063  25.814  1.00  0.00     0.116 C 
BRANCH   2   3
ATOM      3  N   UNL A   1      35.274  25.169  25.167  1.00  0.00    -0.352 N 
ATOM      4  C   UNL A   1      33.966  25.376  24.812  1.00  0.00     0.251 C 
ATOM      5  O   UNL A   1      33.696  26.425  24.227  1.00  0.00    -0.269 OA
ATOM      6  H   UNL A   1      35.871  25.918  24.938  1.00  0.00     0.163 HD
BRANCH   4   7
ATOM      7  C   UNL A   1      32.869  24.433  25.168  1.00  0.00     0.042 A 
ATOM      8  C   UNL A   1      30.849  22.675  26.019  1.00  0.00     0.142 A 
ATOM      9  C   UNL A   1      30.892  24.009  26.467  1.00  0.00     0.049 A 
ATOM     10  C   UNL A   1      31.835  22.189  25.136  1.00  0.00     0.078 A 
ATOM     11  C   UNL A   1      31.917  24.868  26.085  1.00  0.00     0.018 A 
ATOM     12  C   UNL A   1      32.738  23.146  24.638  1.00  0.00     0.043 A 
BRANCH   8  13
ATOM     13  O   UNL A   1      29.710  22.041  26.449  1.00  0.00    -0.495 OA
ATOM     14  C   UNL A   1      28.992  22.578  27.543  1.00  0.00     0.278 C 
ENDBRANCH   8  13
BRANCH  10  15
ATOM     15  N   UNL A   1      31.911  20.874  24.694  1.00  0.00    -0.377 N 
ATOM     16  H   UNL A   1      31.316  20.219  25.126  1.00  0.00     0.161 HD
BRANCH  15  17
ATOM     17  C   UNL A   1      32.796  20.380  23.643  1.00  0.00     0.160 C 
BRANCH  17  18
ATOM     18  C   UNL A   1      33.217  18.941  23.801  1.00  0.00     0.025 A 
ATOM     19  C   UNL A   1      34.241  18.432  24.580  1.00  0.00     0.036 A 
ATOM     20  S   UNL A   1      32.378  17.688  22.983  1.00  0.00    -0.146 S 
ATOM     21  C   UNL A   1      34.345  17.011  24.488  1.00  0.00     0.063 A 
ATOM     22  C   UNL A   1      33.388  16.478  23.655  1.00  0.00     0.084 A 
BRANCH  21  23
ATOM     23  C   UNL A   1      35.323  16.213  25.172  1.00  0.00     0.100 C 
ATOM     24  N   UNL A   1      36.119  15.576  25.719  1.00  0.00    -0.192 NA
ENDBRANCH  21  23
ENDBRANCH  17  18
ENDBRANCH  15  17
ENDBRANCH  10  15
ENDBRANCH   4   7
ENDBRANCH   2   3
ENDBRANCH   1   2
BRANCH   1  25
ATOM     25  C   UNL A   1      37.413  22.031  25.381  1.00  0.00     0.002 C 
BRANCH  25  26
ATOM     26  C   UNL A   1      37.087  20.649  24.801  1.00  0.00     0.002 C 
BRANCH  26  27
ATOM     27  C   UNL A   1      38.215  19.625  24.944  1.00  0.00     0.021 C 
BRANCH  27  28
ATOM     28  C   UNL A   1      39.362  20.111  25.820  1.00  0.00     0.116 C 
BRANCH  28  29
ATOM     29  N   UNL A   1      40.381  19.083  25.971  1.00  0.00    -0.352 N 
ATOM     30  C   UNL A   1      41.740  19.221  26.079  1.00  0.00     0.251 C 
ATOM     31  H   UNL A   1      40.046  18.157  25.999  1.00  0.00     0.163 HD
ATOM     32  O   UNL A   1      42.479  18.256  25.915  1.00  0.00    -0.269 OA
BRANCH  30  33
ATOM     33  C   UNL A   1      42.309  20.547  26.385  1.00  0.00     0.039 A 
ATOM     34  C   UNL A   1      42.808  21.328  25.342  1.00  0.00     0.014 A 
ATOM     35  C   UNL A   1      42.346  21.014  27.702  1.00  0.00     0.014 A 
ATOM     36  C   UNL A   1      43.299  22.604  25.617  1.00  0.00     0.010 A 
ATOM     37  C   UNL A   1      42.749  22.318  27.960  1.00  0.00     0.010 A 
ATOM     38  C   UNL A   1      43.239  23.123  26.922  1.00  0.00    -0.014 A 
BRANCH  38  39
ATOM     39  C   UNL A   1      43.684  24.506  27.215  1.00  0.00     0.031 A 
ATOM     40  C   UNL A   1      42.697  25.534  27.692  1.00  0.00     0.074 A 
ATOM     41  C   UNL A   1      44.967  24.851  26.993  1.00  0.00     0.049 A 
ATOM     42  N   UNL A   1      42.885  26.804  27.948  1.00  0.00    -0.248 NA
ATOM     43  C   UNL A   1      41.309  25.083  27.876  1.00  0.00     0.031 C 
ATOM     44  C   UNL A   1      46.004  23.953  26.484  1.00  0.00     0.029 A 
ATOM     45  N   UNL A   1      45.614  26.050  27.158  1.00  0.00    -0.354 N 
ATOM     46  C   UNL A   1      41.640  27.304  28.309  1.00  0.00     0.074 A 
ATOM     47  C   UNL A   1      40.695  26.217  28.179  1.00  0.00     0.031 C 
ATOM     48  C   UNL A   1      47.163  24.625  26.401  1.00  0.00     0.029 A 
ATOM     49  C   UNL A   1      46.939  26.011  26.798  1.00  0.00     0.049 A 
ATOM     50  H   UNL A   1      45.172  26.859  27.500  1.00  0.00     0.167 HD
ATOM     51  C   UNL A   1      41.321  28.551  28.728  1.00  0.00     0.037 A 
ATOM     52  C   UNL A   1      47.866  26.988  26.771  1.00  0.00     0.037 A 
ATOM     53  C   UNL A   1      42.273  29.624  28.863  1.00  0.00     0.049 A 
ATOM     54  C   UNL A   1      47.483  28.371  27.222  1.00  0.00     0.074 A 
ATOM     55  C   UNL A   1      42.066  30.903  29.345  1.00  0.00     0.029 A 
ATOM     56  N   UNL A   1      43.609  29.547  28.495  1.00  0.00    -0.354 N 
ATOM     57  N   UNL A   1      46.321  28.813  27.642  1.00  0.00    -0.248 NA
ATOM     58  C   UNL A   1      48.540  29.391  27.203  1.00  0.00     0.031 C 
ATOM     59  C   UNL A   1      43.252  31.625  29.190  1.00  0.00     0.029 A 
ATOM     60  C   UNL A   1      44.226  30.772  28.696  1.00  0.00     0.049 A 
ATOM     61  H   UNL A   1      44.053  28.741  28.143  1.00  0.00     0.167 HD
ATOM     62  C   UNL A   1      46.513  30.150  27.963  1.00  0.00     0.074 A 
ATOM     63  C   UNL A   1      47.909  30.442  27.705  1.00  0.00     0.031 C 
ATOM     64  C   UNL A   1      45.616  31.053  28.432  1.00  0.00     0.037 A 
BRANCH  51  65
ATOM     65  C   UNL A   1      39.878  28.832  29.047  1.00  0.00     0.064 A 
ATOM     66  C   UNL A   1      39.347  28.645  30.333  1.00  0.00     0.173 A 
ATOM     67  C   UNL A   1      39.016  29.319  28.052  1.00  0.00     0.173 A 
ATOM     68  F   UNL A   1      40.121  28.175  31.323  1.00  0.00    -0.203 F 
ATOM     69  C   UNL A   1      38.001  28.893  30.598  1.00  0.00     0.198 A 
ATOM     70  C   UNL A   1      37.683  29.605  28.330  1.00  0.00     0.198 A 
ATOM     71  F   UNL A   1      39.469  29.524  26.805  1.00  0.00    -0.203 F 
ATOM     72  F   UNL A   1      37.503  28.641  31.817  1.00  0.00    -0.200 F 
ATOM     73  C   UNL A   1      37.173  29.379  29.599  1.00  0.00     0.200 A 
ATOM     74  F   UNL A   1      36.889  30.094  27.367  1.00  0.00    -0.200 F 
ATOM     75  F   UNL A   1      35.880  29.622  29.856  1.00  0.00    -0.200 F 
ENDBRANCH  51  65
BRANCH  52  76
ATOM     76  C   UNL A   1      49.243  26.686  26.297  1.00  0.00     0.064 A 
ATOM     77  C   UNL A   1      49.624  26.923  24.970  1.00  0.00     0.173 A 
ATOM     78  C   UNL A   1      50.211  26.163  27.169  1.00  0.00     0.173 A 
ATOM     79  F   UNL A   1      48.732  27.408  24.093  1.00  0.00    -0.203 F 
ATOM     80  C   UNL A   1      50.913  26.628  24.527  1.00  0.00     0.198 A 
ATOM     81  C   UNL A   1      51.508  25.904  26.736  1.00  0.00     0.198 A 
ATOM     82  F   UNL A   1      49.901  25.928  28.453  1.00  0.00    -0.203 F 
ATOM     83  F   UNL A   1      51.236  26.820  23.242  1.00  0.00    -0.200 F 
ATOM     84  C   UNL A   1      51.855  26.127  25.413  1.00  0.00     0.200 A 
ATOM     85  F   UNL A   1      52.422  25.445  27.601  1.00  0.00    -0.200 F 
ATOM     86  F   UNL A   1      53.098  25.857  24.989  1.00  0.00    -0.200 F 
ENDBRANCH  52  76
BRANCH  64  87
ATOM     87  C   UNL A   1      46.119  32.437  28.735  1.00  0.00     0.064 A 
ATOM     88  C   UNL A   1      46.659  32.776  29.984  1.00  0.00     0.173 A 
ATOM     89  C   UNL A   1      46.099  33.429  27.741  1.00  0.00     0.173 A 
ATOM     90  F   UNL A   1      46.691  31.870  30.974  1.00  0.00    -0.203 F 
ATOM     91  C   UNL A   1      47.130  34.062  30.238  1.00  0.00     0.198 A 
ATOM     92  C   UNL A   1      46.610  34.701  27.984  1.00  0.00     0.198 A 
ATOM     93  F   UNL A   1      45.603  33.159  26.525  1.00  0.00    -0.203 F 
ATOM     94  F   UNL A   1      47.587  34.378  31.457  1.00  0.00    -0.200 F 
ATOM     95  C   UNL A   1      47.114  35.019  29.235  1.00  0.00     0.200 A 
ATOM     96  F   UNL A   1      46.613  35.618  27.007  1.00  0.00    -0.200 F 
ATOM     97  F   UNL A   1      47.579  36.253  29.477  1.00  0.00    -0.200 F 
ENDBRANCH  64  87
ENDBRANCH  38  39
ENDBRANCH  30  33
ENDBRANCH  28  29
ENDBRANCH  27  28
ENDBRANCH  26  27
ENDBRANCH  25  26
ENDBRANCH   1  25
TORSDOF 18
ENDMDL
MODEL 2
REMARK VINA RESULT:     -11.3      5.583     10.812
REMARK SMILES COc1ccc(C(=O)NCCCCCCNC(=O)c2ccc(-c3c4nc(c(-c5c(F)c(F)c(F)c(F)c5F)c5ccc([nH]5)c(-c5c(F)c(F)c(F)c(F)c5F)c5nc(c(-c6c(F)c(F)c(F)c(F)c6F)c6ccc3[nH]6)C=C5)C=C4)cc2)cc1NCc1cc(C#N)cs1
REMARK SMILES IDX 11 1 10 2 9 3 7 4 8 5 6 7 3 8 4 9 83 10 5 11 82 12 2 13 1 14
REMARK SMILES IDX 84 15 85 17 86 18 87 19 92 20 88 21 91 22 89 23 90 24 12 25
REMARK SMILES IDX 13 26 14 27 15 28 16 29 17 30 18 32 19 33 20 34 81 35 21 36
REMARK SMILES IDX 80 37 22 38 23 39 24 40 74 41 25 42 79 43 73 44 75 45 26 46
REMARK SMILES IDX 78 47 72 48 71 49 27 51 59 52 39 53 58 54 40 55 43 56 57 57
REMARK SMILES IDX 76 58 41 59 42 60 56 62 77 63 44 64 28 65 29 66 37 67 30 68
REMARK SMILES IDX 31 69 35 70 38 71 32 72 33 73 36 74 34 75 60 76 61 77 69 78
REMARK SMILES IDX 62 79 63 80 67 81 70 82 64 83 65 84 68 85 66 86 45 87 46 88
REMARK SMILES IDX 54 89 47 90 48 91 52 92 55 93 49 94 50 95 53 96 51 97
REMARK H PARENT 9 6 84 16 16 31 75 50 43 61
REMARK Flexibility Score: inf
ROOT
ATOM      1  C   UNL A   1      33.391  29.097  26.877  1.00  0.00     0.021 C 
ENDROOT
BRANCH   1   2
ATOM      2  C   UNL A   1      33.517  28.029  25.787  1.00  0.00     0.116 C 
BRANCH   2   3
ATOM      3  N   UNL A   1      32.219  27.433  25.541  1.00  0.00    -0.352 N 
ATOM      4  C   UNL A   1      31.837  26.184  25.126  1.00  0.00     0.251 C 
ATOM      5  O   UNL A   1      30.633  25.982  24.968  1.00  0.00    -0.269 OA
ATOM      6  H   UNL A   1      31.465  28.045  25.704  1.00  0.00     0.163 HD
BRANCH   4   7
ATOM      7  C   UNL A   1      32.798  25.062  24.937  1.00  0.00     0.042 A 
ATOM      8  C   UNL A   1      34.601  22.974  24.394  1.00  0.00     0.142 A 
ATOM      9  C   UNL A   1      34.869  24.294  23.986  1.00  0.00     0.049 A 
ATOM     10  C   UNL A   1      33.405  22.671  25.079  1.00  0.00     0.078 A 
ATOM     11  C   UNL A   1      33.957  25.321  24.211  1.00  0.00     0.018 A 
ATOM     12  C   UNL A   1      32.610  23.772  25.442  1.00  0.00     0.043 A 
BRANCH   8  13
ATOM     13  O   UNL A   1      35.669  22.149  24.148  1.00  0.00    -0.495 OA
ATOM     14  C   UNL A   1      36.977  22.614  24.422  1.00  0.00     0.278 C 
ENDBRANCH   8  13
BRANCH  10  15
ATOM     15  N   UNL A   1      33.027  21.390  25.462  1.00  0.00    -0.377 N 
ATOM     16  H   UNL A   1      33.391  21.047  26.309  1.00  0.00     0.161 HD
BRANCH  15  17
ATOM     17  C   UNL A   1      32.135  20.508  24.714  1.00  0.00     0.160 C 
BRANCH  17  18
ATOM     18  C   UNL A   1      32.737  19.179  24.334  1.00  0.00     0.025 A 
ATOM     19  C   UNL A   1      33.592  18.386  25.078  1.00  0.00     0.036 A 
ATOM     20  S   UNL A   1      32.366  18.448  22.827  1.00  0.00    -0.146 S 
ATOM     21  C   UNL A   1      33.955  17.184  24.399  1.00  0.00     0.063 A 
ATOM     22  C   UNL A   1      33.355  17.090  23.164  1.00  0.00     0.084 A 
BRANCH  21  23
ATOM     23  C   UNL A   1      34.840  16.182  24.920  1.00  0.00     0.100 C 
ATOM     24  N   UNL A   1      35.561  15.374  25.331  1.00  0.00    -0.192 NA
ENDBRANCH  21  23
ENDBRANCH  17  18
ENDBRANCH  15  17
ENDBRANCH  10  15
ENDBRANCH   4   7
ENDBRANCH   2   3
ENDBRANCH   1   2
BRANCH   1  25
ATOM     25  C   UNL A   1      31.955  29.620  27.007  1.00  0.00     0.002 C 
BRANCH  25  26
ATOM     26  C   UNL A   1      31.643  30.812  26.094  1.00  0.00     0.002 C 
BRANCH  26  27
ATOM     27  C   UNL A   1      31.424  32.132  26.835  1.00  0.00     0.021 C 
BRANCH  27  28
ATOM     28  C   UNL A   1      32.722  32.822  27.232  1.00  0.00     0.116 C 
BRANCH  28  29
ATOM     29  N   UNL A   1      32.489  34.212  27.596  1.00  0.00    -0.352 N 
ATOM     30  C   UNL A   1      33.001  34.930  28.644  1.00  0.00     0.251 C 
ATOM     31  H   UNL A   1      31.875  34.706  27.005  1.00  0.00     0.163 HD
ATOM     32  O   UNL A   1      32.494  35.996  28.976  1.00  0.00    -0.269 OA
BRANCH  30  33
ATOM     33  C   UNL A   1      34.168  34.403  29.377  1.00  0.00     0.039 A 
ATOM     34  C   UNL A   1      33.963  33.722  30.577  1.00  0.00     0.014 A 
ATOM     35  C   UNL A   1      35.460  34.585  28.875  1.00  0.00     0.014 A 
ATOM     36  C   UNL A   1      35.057  33.175  31.249  1.00  0.00     0.010 A 
ATOM     37  C   UNL A   1      36.535  33.962  29.496  1.00  0.00     0.010 A 
ATOM     38  C   UNL A   1      36.346  33.259  30.695  1.00  0.00    -0.014 A 
BRANCH  38  39
ATOM     39  C   UNL A   1      37.505  32.615  31.358  1.00  0.00     0.031 A 
ATOM     40  C   UNL A   1      38.200  31.453  30.707  1.00  0.00     0.074 A 
ATOM     41  C   UNL A   1      37.892  33.040  32.576  1.00  0.00     0.049 A 
ATOM     42  N   UNL A   1      39.194  30.727  31.154  1.00  0.00    -0.248 NA
ATOM     43  C   UNL A   1      37.692  31.030  29.392  1.00  0.00     0.031 C 
ATOM     44  C   UNL A   1      37.263  34.126  33.329  1.00  0.00     0.029 A 
ATOM     45  N   UNL A   1      38.901  32.604  33.399  1.00  0.00    -0.354 N 
ATOM     46  C   UNL A   1      39.419  29.758  30.185  1.00  0.00     0.074 A 
ATOM     47  C   UNL A   1      38.421  29.949  29.157  1.00  0.00     0.031 C 
ATOM     48  C   UNL A   1      37.914  34.288  34.491  1.00  0.00     0.029 A 
ATOM     49  C   UNL A   1      38.970  33.285  34.589  1.00  0.00     0.049 A 
ATOM     50  H   UNL A   1      39.515  31.875  33.159  1.00  0.00     0.167 HD
ATOM     51  C   UNL A   1      40.384  28.808  30.150  1.00  0.00     0.037 A 
ATOM     52  C   UNL A   1      39.779  33.109  35.651  1.00  0.00     0.037 A 
ATOM     53  C   UNL A   1      41.379  28.634  31.176  1.00  0.00     0.049 A 
ATOM     54  C   UNL A   1      40.831  32.033  35.598  1.00  0.00     0.074 A 
ATOM     55  C   UNL A   1      42.441  27.748  31.203  1.00  0.00     0.029 A 
ATOM     56  N   UNL A   1      41.423  29.346  32.366  1.00  0.00    -0.354 N 
ATOM     57  N   UNL A   1      41.090  31.175  34.639  1.00  0.00    -0.248 NA
ATOM     58  C   UNL A   1      41.707  31.905  36.769  1.00  0.00     0.031 C 
ATOM     59  C   UNL A   1      43.075  27.865  32.444  1.00  0.00     0.029 A 
ATOM     60  C   UNL A   1      42.466  28.886  33.155  1.00  0.00     0.049 A 
ATOM     61  H   UNL A   1      40.803  30.071  32.614  1.00  0.00     0.167 HD
ATOM     62  C   UNL A   1      42.174  30.427  35.078  1.00  0.00     0.074 A 
ATOM     63  C   UNL A   1      42.533  30.944  36.383  1.00  0.00     0.031 C 
ATOM     64  C   UNL A   1      42.814  29.406  34.455  1.00  0.00     0.037 A 
BRANCH  51  65
ATOM     65  C   UNL A   1      40.394  27.868  28.976  1.00  0.00     0.064 A 
ATOM     66  C   UNL A   1      41.155  28.120  27.824  1.00  0.00     0.173 A 
ATOM     67  C   UNL A   1      39.645  26.681  29.016  1.00  0.00     0.173 A 
ATOM     68  F   UNL A   1      41.885  29.241  27.726  1.00  0.00    -0.203 F 
ATOM     69  C   UNL A   1      41.131  27.242  26.741  1.00  0.00     0.198 A 
ATOM     70  C   UNL A   1      39.657  25.786  27.950  1.00  0.00     0.198 A 
ATOM     71  F   UNL A   1      38.904  26.384  30.094  1.00  0.00    -0.203 F 
ATOM     72  F   UNL A   1      41.812  27.539  25.626  1.00  0.00    -0.200 F 
ATOM     73  C   UNL A   1      40.389  26.073  26.808  1.00  0.00     0.200 A 
ATOM     74  F   UNL A   1      38.953  24.648  28.025  1.00  0.00    -0.200 F 
ATOM     75  F   UNL A   1      40.370  25.228  25.769  1.00  0.00    -0.200 F 
ENDBRANCH  51  65
BRANCH  52  76
ATOM     76  C   UNL A   1      39.621  33.972  36.851  1.00  0.00     0.064 A 
ATOM     77  C   UNL A   1      38.842  33.564  37.943  1.00  0.00     0.173 A 
ATOM     78  C   UNL A   1      40.257  35.220  36.935  1.00  0.00     0.173 A 
ATOM     79  F   UNL A   1      38.201  32.387  37.906  1.00  0.00    -0.203 F 
ATOM     80  C   UNL A   1      38.687  34.382  39.062  1.00  0.00     0.198 A 
ATOM     81  C   UNL A   1      40.133  36.019  38.069  1.00  0.00     0.198 A 
ATOM     82  F   UNL A   1      41.024  35.652  35.923  1.00  0.00    -0.203 F 
ATOM     83  F   UNL A   1      37.898  33.988  40.070  1.00  0.00    -0.200 F 
ATOM     84  C   UNL A   1      39.339  35.604  39.127  1.00  0.00     0.200 A 
ATOM     85  F   UNL A   1      40.786  37.186  38.138  1.00  0.00    -0.200 F 
ATOM     86  F   UNL A   1      39.200  36.382  40.209  1.00  0.00    -0.200 F 
ENDBRANCH  52  76
BRANCH  64  87
ATOM     87  C   UNL A   1      43.997  28.799  35.157  1.00  0.00     0.064 A 
ATOM     88  C   UNL A   1      45.298  29.292  34.983  1.00  0.00     0.173 A 
ATOM     89  C   UNL A   1      43.816  27.732  36.053  1.00  0.00     0.173 A 
ATOM     90  F   UNL A   1      45.530  30.301  34.130  1.00  0.00    -0.203 F 
ATOM     91  C   UNL A   1      46.377  28.721  35.654  1.00  0.00     0.198 A 
ATOM     92  C   UNL A   1      44.890  27.192  36.753  1.00  0.00     0.198 A 
ATOM     93  F   UNL A   1      42.592  27.227  36.266  1.00  0.00    -0.203 F 
ATOM     94  F   UNL A   1      47.619  29.171  35.427  1.00  0.00    -0.200 F 
ATOM     95  C   UNL A   1      46.171  27.679  36.545  1.00  0.00     0.200 A 
ATOM     96  F   UNL A   1      44.685  26.200  37.630  1.00  0.00    -0.200 F 
ATOM     97  F   UNL A   1      47.209  27.139  37.199  1.00  0.00    -0.200 F 
ENDBRANCH  64  87
ENDBRANCH  38  39
ENDBRANCH  30  33
ENDBRANCH  28  29
ENDBRANCH  27  28
ENDBRANCH  26  27
ENDBRANCH  25  26
ENDBRANCH   1  25
TORSDOF 18
ENDMDL
MODEL 3
REMARK VINA RESULT:     -11.0      5.689     10.860
REMARK SMILES COc1ccc(C(=O)NCCCCCCNC(=O)c2ccc(-c3c4nc(c(-c5c(F)c(F)c(F)c(F)c5F)c5ccc([nH]5)c(-c5c(F)c(F)c(F)c(F)c5F)c5nc(c(-c6c(F)c(F)c(F)c(F)c6F)c6ccc3[nH]6)C=C5)C=C4)cc2)cc1NCc1cc(C#N)cs1
REMARK SMILES IDX 11 1 10 2 9 3 7 4 8 5 6 7 3 8 4 9 83 10 5 11 82 12 2 13 1 14
REMARK SMILES IDX 84 15 85 17 86 18 87 19 92 20 88 21 91 22 89 23 90 24 12 25
REMARK SMILES IDX 13 26 14 27 15 28 16 29 17 30 18 32 19 33 20 34 81 35 21 36
REMARK SMILES IDX 80 37 22 38 23 39 24 40 74 41 25 42 79 43 73 44 75 45 26 46
REMARK SMILES IDX 78 47 72 48 71 49 27 51 59 52 39 53 58 54 40 55 43 56 57 57
REMARK SMILES IDX 76 58 41 59 42 60 56 62 77 63 44 64 28 65 29 66 37 67 30 68
REMARK SMILES IDX 31 69 35 70 38 71 32 72 33 73 36 74 34 75 60 76 61 77 69 78
REMARK SMILES IDX 62 79 63 80 67 81 70 82 64 83 65 84 68 85 66 86 45 87 46 88
REMARK SMILES IDX 54 89 47 90 48 91 52 92 55 93 49 94 50 95 53 96 51 97
REMARK H PARENT 9 6 84 16 16 31 75 50 43 61
REMARK Flexibility Score: inf
ROOT
ATOM      1  C   UNL A   1      32.835  29.268  25.375  1.00  0.00     0.021 C 
ENDROOT
BRANCH   1   2
ATOM      2  C   UNL A   1      33.172  29.152  23.886  1.00  0.00     0.116 C 
BRANCH   2   3
ATOM      3  N   UNL A   1      31.955  29.240  23.105  1.00  0.00    -0.352 N 
ATOM      4  C   UNL A   1      31.044  28.298  22.701  1.00  0.00     0.251 C 
ATOM      5  O   UNL A   1      30.108  28.680  21.997  1.00  0.00    -0.269 OA
ATOM      6  H   UNL A   1      31.740  30.154  22.808  1.00  0.00     0.163 HD
BRANCH   4   7
ATOM      7  C   UNL A   1      31.100  26.875  23.135  1.00  0.00     0.042 A 
ATOM      8  C   UNL A   1      31.237  24.249  24.129  1.00  0.00     0.142 A 
ATOM      9  C   UNL A   1      30.276  25.161  24.606  1.00  0.00     0.049 A 
ATOM     10  C   UNL A   1      32.165  24.645  23.143  1.00  0.00     0.078 A 
ATOM     11  C   UNL A   1      30.236  26.475  24.150  1.00  0.00     0.018 A 
ATOM     12  C   UNL A   1      31.962  25.921  22.586  1.00  0.00     0.043 A 
BRANCH   8  13
ATOM     13  O   UNL A   1      31.036  22.995  24.648  1.00  0.00    -0.495 OA
ATOM     14  C   UNL A   1      30.708  22.860  26.018  1.00  0.00     0.278 C 
ENDBRANCH   8  13
BRANCH  10  15
ATOM     15  N   UNL A   1      33.187  23.836  22.662  1.00  0.00    -0.377 N 
ATOM     16  H   UNL A   1      33.586  24.081  21.796  1.00  0.00     0.161 HD
BRANCH  15  17
ATOM     17  C   UNL A   1      33.720  22.652  23.330  1.00  0.00     0.160 C 
BRANCH  17  18
ATOM     18  C   UNL A   1      34.907  22.915  24.223  1.00  0.00     0.025 A 
ATOM     19  C   UNL A   1      36.054  22.155  24.362  1.00  0.00     0.036 A 
ATOM     20  S   UNL A   1      34.966  24.315  25.212  1.00  0.00    -0.146 S 
ATOM     21  C   UNL A   1      36.974  22.717  25.298  1.00  0.00     0.063 A 
ATOM     22  C   UNL A   1      36.507  23.896  25.833  1.00  0.00     0.084 A 
BRANCH  21  23
ATOM     23  C   UNL A   1      38.237  22.138  25.657  1.00  0.00     0.100 C 
ATOM     24  N   UNL A   1      39.261  21.681  25.943  1.00  0.00    -0.192 NA
ENDBRANCH  21  23
ENDBRANCH  17  18
ENDBRANCH  15  17
ENDBRANCH  10  15
ENDBRANCH   4   7
ENDBRANCH   2   3
ENDBRANCH   1   2
BRANCH   1  25
ATOM     25  C   UNL A   1      31.408  29.780  25.603  1.00  0.00     0.002 C 
BRANCH  25  26
ATOM     26  C   UNL A   1      31.280  31.308  25.553  1.00  0.00     0.002 C 
BRANCH  26  27
ATOM     27  C   UNL A   1      31.311  31.987  26.924  1.00  0.00     0.021 C 
BRANCH  27  28
ATOM     28  C   UNL A   1      32.636  32.675  27.225  1.00  0.00     0.116 C 
BRANCH  28  29
ATOM     29  N   UNL A   1      32.439  34.081  27.545  1.00  0.00    -0.352 N 
ATOM     30  C   UNL A   1      32.980  34.822  28.562  1.00  0.00     0.251 C 
ATOM     31  H   UNL A   1      31.828  34.569  26.945  1.00  0.00     0.163 HD
ATOM     32  O   UNL A   1      32.501  35.908  28.865  1.00  0.00    -0.269 OA
BRANCH  30  33
ATOM     33  C   UNL A   1      34.145  34.293  29.298  1.00  0.00     0.039 A 
ATOM     34  C   UNL A   1      33.935  33.598  30.489  1.00  0.00     0.014 A 
ATOM     35  C   UNL A   1      35.440  34.487  28.807  1.00  0.00     0.014 A 
ATOM     36  C   UNL A   1      35.027  33.050  31.163  1.00  0.00     0.010 A 
ATOM     37  C   UNL A   1      36.513  33.863  29.429  1.00  0.00     0.010 A 
ATOM     38  C   UNL A   1      36.319  33.146  30.619  1.00  0.00    -0.014 A 
BRANCH  38  39
ATOM     39  C   UNL A   1      37.478  32.501  31.283  1.00  0.00     0.031 A 
ATOM     40  C   UNL A   1      38.164  31.330  30.640  1.00  0.00     0.074 A 
ATOM     41  C   UNL A   1      37.871  32.935  32.496  1.00  0.00     0.049 A 
ATOM     42  N   UNL A   1      39.155  30.603  31.090  1.00  0.00    -0.248 NA
ATOM     43  C   UNL A   1      37.649  30.899  29.331  1.00  0.00     0.031 C 
ATOM     44  C   UNL A   1      37.251  34.030  33.242  1.00  0.00     0.029 A 
ATOM     45  N   UNL A   1      38.880  32.500  33.319  1.00  0.00    -0.354 N 
ATOM     46  C   UNL A   1      39.371  29.624  30.128  1.00  0.00     0.074 A 
ATOM     47  C   UNL A   1      38.371  29.812  29.101  1.00  0.00     0.031 C 
ATOM     48  C   UNL A   1      37.907  34.198  34.401  1.00  0.00     0.029 A 
ATOM     49  C   UNL A   1      38.957  33.191  34.504  1.00  0.00     0.049 A 
ATOM     50  H   UNL A   1      39.490  31.765  33.083  1.00  0.00     0.167 HD
ATOM     51  C   UNL A   1      40.331  28.669  30.098  1.00  0.00     0.037 A 
ATOM     52  C   UNL A   1      39.770  33.019  35.564  1.00  0.00     0.037 A 
ATOM     53  C   UNL A   1      41.329  28.497  31.121  1.00  0.00     0.049 A 
ATOM     54  C   UNL A   1      40.815  31.937  35.516  1.00  0.00     0.074 A 
ATOM     55  C   UNL A   1      42.386  27.606  31.153  1.00  0.00     0.029 A 
ATOM     56  N   UNL A   1      41.380  29.219  32.306  1.00  0.00    -0.354 N 
ATOM     57  N   UNL A   1      41.066  31.070  34.564  1.00  0.00    -0.248 NA
ATOM     58  C   UNL A   1      41.695  31.813  36.685  1.00  0.00     0.031 C 
ATOM     59  C   UNL A   1      43.025  27.730  32.390  1.00  0.00     0.029 A 
ATOM     60  C   UNL A   1      42.424  28.760  33.095  1.00  0.00     0.049 A 
ATOM     61  H   UNL A   1      40.766  29.950  32.549  1.00  0.00     0.167 HD
ATOM     62  C   UNL A   1      42.147  30.319  35.005  1.00  0.00     0.074 A 
ATOM     63  C   UNL A   1      42.514  30.845  36.304  1.00  0.00     0.031 C 
ATOM     64  C   UNL A   1      42.779  29.289  34.389  1.00  0.00     0.037 A 
BRANCH  51  65
ATOM     65  C   UNL A   1      40.331  27.718  28.932  1.00  0.00     0.064 A 
ATOM     66  C   UNL A   1      39.592  26.525  28.941  1.00  0.00     0.173 A 
ATOM     67  C   UNL A   1      41.069  28.019  27.776  1.00  0.00     0.173 A 
ATOM     68  F   UNL A   1      38.875  26.181  30.021  1.00  0.00    -0.203 F 
ATOM     69  C   UNL A   1      39.626  25.651  27.856  1.00  0.00     0.198 A 
ATOM     70  C   UNL A   1      41.067  27.164  26.678  1.00  0.00     0.198 A 
ATOM     71  F   UNL A   1      41.790  29.149  27.707  1.00  0.00    -0.203 F 
ATOM     72  F   UNL A   1      38.967  24.485  27.916  1.00  0.00    -0.200 F 
ATOM     73  C   UNL A   1      40.357  25.974  26.723  1.00  0.00     0.200 A 
ATOM     74  F   UNL A   1      41.759  27.488  25.577  1.00  0.00    -0.200 F 
ATOM     75  F   UNL A   1      40.385  25.135  25.679  1.00  0.00    -0.200 F 
ENDBRANCH  51  65
BRANCH  52  76
ATOM     76  C   UNL A   1      39.620  33.893  36.757  1.00  0.00     0.064 A 
ATOM     77  C   UNL A   1      40.258  35.138  36.832  1.00  0.00     0.173 A 
ATOM     78  C   UNL A   1      38.823  33.503  37.846  1.00  0.00     0.173 A 
ATOM     79  F   UNL A   1      41.043  35.550  35.826  1.00  0.00    -0.203 F 
ATOM     80  C   UNL A   1      40.124  35.950  37.958  1.00  0.00     0.198 A 
ATOM     81  C   UNL A   1      38.659  34.331  38.953  1.00  0.00     0.198 A 
ATOM     82  F   UNL A   1      38.181  32.326  37.820  1.00  0.00    -0.203 F 
ATOM     83  F   UNL A   1      40.784  37.113  38.023  1.00  0.00    -0.200 F 
ATOM     84  C   UNL A   1      39.318  35.549  39.013  1.00  0.00     0.200 A 
ATOM     85  F   UNL A   1      37.859  33.951  39.957  1.00  0.00    -0.200 F 
ATOM     86  F   UNL A   1      39.179  36.336  40.089  1.00  0.00    -0.200 F 
ENDBRANCH  52  76
BRANCH  64  87
ATOM     87  C   UNL A   1      43.961  28.682  35.092  1.00  0.00     0.064 A 
ATOM     88  C   UNL A   1      45.270  29.138  34.878  1.00  0.00     0.173 A 
ATOM     89  C   UNL A   1      43.773  27.652  36.029  1.00  0.00     0.173 A 
ATOM     90  F   UNL A   1      45.508  30.111  33.984  1.00  0.00    -0.203 F 
ATOM     91  C   UNL A   1      46.348  28.568  35.550  1.00  0.00     0.198 A 
ATOM     92  C   UNL A   1      44.848  27.113  36.730  1.00  0.00     0.198 A 
ATOM     93  F   UNL A   1      42.543  27.182  36.282  1.00  0.00    -0.203 F 
ATOM     94  F   UNL A   1      47.595  28.981  35.285  1.00  0.00    -0.200 F 
ATOM     95  C   UNL A   1      46.136  27.564  36.482  1.00  0.00     0.200 A 
ATOM     96  F   UNL A   1      44.638  26.159  37.646  1.00  0.00    -0.200 F 
ATOM     97  F   UNL A   1      47.173  27.024  37.136  1.00  0.00    -0.200 F 
ENDBRANCH  64  87
ENDBRANCH  38  39
ENDBRANCH  30  33
ENDBRANCH  28  29
ENDBRANCH  27  28
ENDBRANCH  26  27
ENDBRANCH  25  26
ENDBRANCH   1  25
TORSDOF 18
ENDMDL
