MODEL 1
REMARK VINA RESULT:      -9.8      0.000      0.000
REMARK SMILES CC[C@@H](Oc1ccc(/C=C2\SC(=S)N(NC(=O)c3ccccc3O)C2=O)cc1)C(=O)NCCCCCCNC(=O)c1ccc(-c2c3nc(c(-c4c(F)c(F)c(F)c(F)c4F)c4ccc([nH]4)c(-c4c(F)c(F)c(F)c(F)c4F)c4nc(c(-c5c(F)c(F)c(F)c(F)c5F)c5ccc2[nH]5)C=C4)C=C3)cc1
REMARK SMILES IDX 32 1 31 2 29 3 30 4 3 6 2 7 1 8 4 9 5 10 6 11 28 12 7 13
REMARK SMILES IDX 27 14 8 15 9 16 10 17 11 18 25 19 12 20 14 21 26 22 13 23
REMARK SMILES IDX 15 24 16 25 17 27 18 28 19 29 23 30 20 31 22 32 21 33 24 34
REMARK SMILES IDX 33 36 34 37 35 38 36 39 37 40 38 41 39 42 40 44 41 45 42 46
REMARK SMILES IDX 103 47 43 48 102 49 44 50 45 51 46 52 96 53 47 54 101 55
REMARK SMILES IDX 95 56 97 57 48 58 100 59 94 60 93 61 49 63 81 64 61 65 80 66
REMARK SMILES IDX 62 67 65 68 79 69 98 70 63 71 64 72 78 74 99 75 66 76 50 77
REMARK SMILES IDX 51 78 59 79 52 80 53 81 57 82 60 83 54 84 55 85 58 86 56 87
REMARK SMILES IDX 82 88 83 89 91 90 84 91 85 92 89 93 92 94 86 95 87 96 90 97
REMARK SMILES IDX 88 98 67 99 68 100 76 101 69 102 70 103 74 104 77 105 71 106
REMARK SMILES IDX 72 107 75 108 73 109
REMARK H PARENT 31 5 15 26 24 35 38 43 97 62 65 73
REMARK Flexibility Score: inf
ROOT
ATOM      1  C   UNL A   1      43.765  22.944  28.759  1.00  0.00     0.116 C 
ENDROOT
BRANCH   1   2
ATOM      2  N   UNL A   1      43.927  22.706  27.331  1.00  0.00    -0.353 N 
ATOM      3  C   UNL A   1      43.086  23.003  26.284  1.00  0.00     0.261 C 
ATOM      4  O   UNL A   1      43.460  22.711  25.145  1.00  0.00    -0.271 OA
ATOM      5  H   UNL A   1      44.769  22.264  27.076  1.00  0.00     0.163 HD
BRANCH   3   6
ATOM      6  C   UNL A   1      41.700  23.641  26.531  1.00  0.00     0.261 C 
BRANCH   6   7
ATOM      7  C   UNL A   1      40.845  22.601  27.281  1.00  0.00     0.052 C 
ATOM      8  C   UNL A   1      39.703  21.977  26.501  1.00  0.00     0.008 C 
ENDBRANCH   6   7
BRANCH   6   9
ATOM      9  O   UNL A   1      42.045  24.822  27.249  1.00  0.00    -0.481 OA
BRANCH   9  10
ATOM     10  C   UNL A   1      41.149  25.692  27.770  1.00  0.00     0.120 A 
ATOM     11  C   UNL A   1      41.727  26.600  28.662  1.00  0.00     0.047 A 
ATOM     12  C   UNL A   1      39.778  25.721  27.565  1.00  0.00     0.047 A 
ATOM     13  C   UNL A   1      40.937  27.447  29.434  1.00  0.00     0.012 A 
ATOM     14  C   UNL A   1      38.972  26.540  28.367  1.00  0.00     0.012 A 
ATOM     15  C   UNL A   1      39.549  27.374  29.332  1.00  0.00    -0.024 A 
BRANCH  15  16
ATOM     16  C   UNL A   1      38.741  28.094  30.316  1.00  0.00     0.029 C 
ATOM     17  C   UNL A   1      37.713  28.888  29.982  1.00  0.00     0.082 C 
ATOM     18  S   UNL A   1      37.183  29.320  28.397  1.00  0.00    -0.052 SA
ATOM     19  C   UNL A   1      36.895  29.592  31.006  1.00  0.00     0.285 C 
ATOM     20  C   UNL A   1      36.161  30.616  28.998  1.00  0.00     0.168 C 
ATOM     21  N   UNL A   1      36.198  30.614  30.378  1.00  0.00    -0.198 N 
ATOM     22  O   UNL A   1      36.858  29.278  32.186  1.00  0.00    -0.266 OA
ATOM     23  S   UNL A   1      35.297  31.643  28.007  1.00  0.00    -0.050 S 
BRANCH  21  24
ATOM     24  N   UNL A   1      35.502  31.584  31.115  1.00  0.00    -0.254 N 
ATOM     25  C   UNL A   1      35.938  32.875  31.335  1.00  0.00     0.274 C 
ATOM     26  H   UNL A   1      34.637  31.323  31.505  1.00  0.00     0.192 HD
ATOM     27  O   UNL A   1      35.188  33.709  31.838  1.00  0.00    -0.267 OA
BRANCH  25  28
ATOM     28  C   UNL A   1      37.329  33.264  31.024  1.00  0.00     0.083 A 
ATOM     29  C   UNL A   1      38.321  32.761  31.876  1.00  0.00     0.018 A 
ATOM     30  C   UNL A   1      37.692  34.023  29.907  1.00  0.00     0.128 A 
ATOM     31  C   UNL A   1      39.668  32.963  31.576  1.00  0.00     0.001 A 
ATOM     32  C   UNL A   1      39.038  34.206  29.597  1.00  0.00     0.047 A 
ATOM     33  C   UNL A   1      40.025  33.673  30.430  1.00  0.00     0.004 A 
BRANCH  30  34
ATOM     34  O   UNL A   1      36.783  34.594  29.061  1.00  0.00    -0.507 OA
ATOM     35  H   UNL A   1      37.077  35.116  28.341  1.00  0.00     0.293 HD
ENDBRANCH  30  34
ENDBRANCH  25  28
ENDBRANCH  21  24
ENDBRANCH  15  16
ENDBRANCH   9  10
ENDBRANCH   6   9
ENDBRANCH   3   6
ENDBRANCH   1   2
BRANCH   1  36
ATOM     36  C   UNL A   1      44.805  23.928  29.300  1.00  0.00     0.021 C 
BRANCH  36  37
ATOM     37  C   UNL A   1      45.397  24.869  28.249  1.00  0.00     0.002 C 
BRANCH  37  38
ATOM     38  C   UNL A   1      46.928  24.902  28.184  1.00  0.00     0.002 C 
BRANCH  38  39
ATOM     39  C   UNL A   1      47.553  24.454  26.858  1.00  0.00     0.021 C 
BRANCH  39  40
ATOM     40  C   UNL A   1      46.616  24.463  25.650  1.00  0.00     0.116 C 
BRANCH  40  41
ATOM     41  N   UNL A   1      47.037  25.405  24.628  1.00  0.00    -0.352 N 
ATOM     42  C   UNL A   1      46.860  26.762  24.540  1.00  0.00     0.251 C 
ATOM     43  H   UNL A   1      47.530  25.005  23.876  1.00  0.00     0.163 HD
ATOM     44  O   UNL A   1      47.158  27.344  23.500  1.00  0.00    -0.269 OA
BRANCH  42  45
ATOM     45  C   UNL A   1      46.297  27.539  25.669  1.00  0.00     0.039 A 
ATOM     46  C   UNL A   1      47.186  28.121  26.579  1.00  0.00     0.014 A 
ATOM     47  C   UNL A   1      44.920  27.650  25.878  1.00  0.00     0.014 A 
ATOM     48  C   UNL A   1      46.698  28.855  27.664  1.00  0.00     0.010 A 
ATOM     49  C   UNL A   1      44.432  28.428  26.931  1.00  0.00     0.010 A 
ATOM     50  C   UNL A   1      45.316  29.037  27.835  1.00  0.00    -0.014 A 
BRANCH  50  51
ATOM     51  C   UNL A   1      44.799  29.875  28.948  1.00  0.00     0.031 A 
ATOM     52  C   UNL A   1      44.432  29.257  30.269  1.00  0.00     0.074 A 
ATOM     53  C   UNL A   1      44.636  31.198  28.757  1.00  0.00     0.049 A 
ATOM     54  N   UNL A   1      43.963  29.833  31.348  1.00  0.00    -0.248 NA
ATOM     55  C   UNL A   1      44.594  27.801  30.388  1.00  0.00     0.031 C 
ATOM     56  C   UNL A   1      44.905  31.909  27.506  1.00  0.00     0.029 A 
ATOM     57  N   UNL A   1      44.200  32.180  29.611  1.00  0.00    -0.354 N 
ATOM     58  C   UNL A   1      43.776  28.813  32.271  1.00  0.00     0.074 A 
ATOM     59  C   UNL A   1      44.133  27.576  31.610  1.00  0.00     0.031 C 
ATOM     60  C   UNL A   1      44.645  33.215  27.679  1.00  0.00     0.029 A 
ATOM     61  C   UNL A   1      44.171  33.430  29.043  1.00  0.00     0.049 A 
ATOM     62  H   UNL A   1      43.933  32.005  30.542  1.00  0.00     0.167 HD
ATOM     63  C   UNL A   1      43.366  28.903  33.560  1.00  0.00     0.037 A 
ATOM     64  C   UNL A   1      43.806  34.617  29.564  1.00  0.00     0.037 A 
ATOM     65  C   UNL A   1      43.024  30.133  34.224  1.00  0.00     0.049 A 
ATOM     66  C   UNL A   1      43.376  34.690  31.003  1.00  0.00     0.074 A 
ATOM     67  C   UNL A   1      42.627  30.327  35.537  1.00  0.00     0.029 A 
ATOM     68  N   UNL A   1      43.039  31.384  33.625  1.00  0.00    -0.354 N 
ATOM     69  N   UNL A   1      43.259  33.724  31.881  1.00  0.00    -0.248 NA
ATOM     70  C   UNL A   1      43.042  36.022  31.527  1.00  0.00     0.031 C 
ATOM     71  C   UNL A   1      42.376  31.691  35.724  1.00  0.00     0.029 A 
ATOM     72  C   UNL A   1      42.651  32.352  34.539  1.00  0.00     0.049 A 
ATOM     73  H   UNL A   1      43.287  31.559  32.689  1.00  0.00     0.167 HD
ATOM     74  C   UNL A   1      42.855  34.331  33.062  1.00  0.00     0.074 A 
ATOM     75  C   UNL A   1      42.772  35.752  32.796  1.00  0.00     0.031 C 
ATOM     76  C   UNL A   1      42.573  33.761  34.259  1.00  0.00     0.037 A 
BRANCH  63  77
ATOM     77  C   UNL A   1      43.283  27.630  34.350  1.00  0.00     0.064 A 
ATOM     78  C   UNL A   1      44.413  27.089  34.981  1.00  0.00     0.173 A 
ATOM     79  C   UNL A   1      42.055  26.973  34.524  1.00  0.00     0.173 A 
ATOM     80  F   UNL A   1      45.612  27.674  34.836  1.00  0.00    -0.203 F 
ATOM     81  C   UNL A   1      44.322  25.926  35.740  1.00  0.00     0.198 A 
ATOM     82  C   UNL A   1      41.964  25.824  35.305  1.00  0.00     0.198 A 
ATOM     83  F   UNL A   1      40.943  27.452  33.947  1.00  0.00    -0.203 F 
ATOM     84  F   UNL A   1      45.422  25.407  36.304  1.00  0.00    -0.200 F 
ATOM     85  C   UNL A   1      43.097  25.299  35.908  1.00  0.00     0.200 A 
ATOM     86  F   UNL A   1      40.777  25.224  35.476  1.00  0.00    -0.200 F 
ATOM     87  F   UNL A   1      43.009  24.185  36.648  1.00  0.00    -0.200 F 
ENDBRANCH  63  77
BRANCH  64  88
ATOM     88  C   UNL A   1      43.857  35.841  28.723  1.00  0.00     0.064 A 
ATOM     89  C   UNL A   1      42.726  36.280  28.021  1.00  0.00     0.173 A 
ATOM     90  C   UNL A   1      45.036  36.587  28.600  1.00  0.00     0.173 A 
ATOM     91  F   UNL A   1      41.581  35.586  28.094  1.00  0.00    -0.203 F 
ATOM     92  C   UNL A   1      42.781  37.409  27.206  1.00  0.00     0.198 A 
ATOM     93  C   UNL A   1      45.083  37.730  27.805  1.00  0.00     0.198 A 
ATOM     94  F   UNL A   1      46.142  36.210  29.256  1.00  0.00    -0.203 F 
ATOM     95  F   UNL A   1      41.700  37.781  26.507  1.00  0.00    -0.200 F 
ATOM     96  C   UNL A   1      43.958  38.136  27.102  1.00  0.00     0.200 A 
ATOM     97  F   UNL A   1      46.217  38.437  27.717  1.00  0.00    -0.200 F 
ATOM     98  F   UNL A   1      44.010  39.221  26.318  1.00  0.00    -0.200 F 
ENDBRANCH  64  88
BRANCH  76  99
ATOM     99  C   UNL A   1      42.163  34.680  35.371  1.00  0.00     0.064 A 
ATOM    100  C   UNL A   1      43.114  35.305  36.192  1.00  0.00     0.173 A 
ATOM    101  C   UNL A   1      40.808  34.951  35.608  1.00  0.00     0.173 A 
ATOM    102  F   UNL A   1      44.422  35.065  36.014  1.00  0.00    -0.203 F 
ATOM    103  C   UNL A   1      42.720  36.146  37.229  1.00  0.00     0.198 A 
ATOM    104  C   UNL A   1      40.419  35.813  36.630  1.00  0.00     0.198 A 
ATOM    105  F   UNL A   1      39.861  34.382  34.847  1.00  0.00    -0.203 F 
ATOM    106  F   UNL A   1      43.643  36.694  38.032  1.00  0.00    -0.200 F 
ATOM    107  C   UNL A   1      41.374  36.403  37.444  1.00  0.00     0.200 A 
ATOM    108  F   UNL A   1      39.118  36.067  36.831  1.00  0.00    -0.200 F 
ATOM    109  F   UNL A   1      40.996  37.211  38.444  1.00  0.00    -0.200 F 
ENDBRANCH  76  99
ENDBRANCH  50  51
ENDBRANCH  42  45
ENDBRANCH  40  41
ENDBRANCH  39  40
ENDBRANCH  38  39
ENDBRANCH  37  38
ENDBRANCH  36  37
ENDBRANCH   1  36
TORSDOF 20
ENDMDL
MODEL 2
REMARK VINA RESULT:      -9.6      4.997     11.412
REMARK SMILES CC[C@@H](Oc1ccc(/C=C2\SC(=S)N(NC(=O)c3ccccc3O)C2=O)cc1)C(=O)NCCCCCCNC(=O)c1ccc(-c2c3nc(c(-c4c(F)c(F)c(F)c(F)c4F)c4ccc([nH]4)c(-c4c(F)c(F)c(F)c(F)c4F)c4nc(c(-c5c(F)c(F)c(F)c(F)c5F)c5ccc2[nH]5)C=C4)C=C3)cc1
REMARK SMILES IDX 32 1 31 2 29 3 30 4 3 6 2 7 1 8 4 9 5 10 6 11 28 12 7 13
REMARK SMILES IDX 27 14 8 15 9 16 10 17 11 18 25 19 12 20 14 21 26 22 13 23
REMARK SMILES IDX 15 24 16 25 17 27 18 28 19 29 23 30 20 31 22 32 21 33 24 34
REMARK SMILES IDX 33 36 34 37 35 38 36 39 37 40 38 41 39 42 40 44 41 45 42 46
REMARK SMILES IDX 103 47 43 48 102 49 44 50 45 51 46 52 96 53 47 54 101 55
REMARK SMILES IDX 95 56 97 57 48 58 100 59 94 60 93 61 49 63 81 64 61 65 80 66
REMARK SMILES IDX 62 67 65 68 79 69 98 70 63 71 64 72 78 74 99 75 66 76 50 77
REMARK SMILES IDX 51 78 59 79 52 80 53 81 57 82 60 83 54 84 55 85 58 86 56 87
REMARK SMILES IDX 82 88 83 89 91 90 84 91 85 92 89 93 92 94 86 95 87 96 90 97
REMARK SMILES IDX 88 98 67 99 68 100 76 101 69 102 70 103 74 104 77 105 71 106
REMARK SMILES IDX 72 107 75 108 73 109
REMARK H PARENT 31 5 15 26 24 35 38 43 97 62 65 73
REMARK Flexibility Score: inf
ROOT
ATOM      1  C   UNL A   1      37.744  33.219  28.884  1.00  0.00     0.116 C 
ENDROOT
BRANCH   1   2
ATOM      2  N   UNL A   1      36.522  33.829  28.377  1.00  0.00    -0.353 N 
ATOM      3  C   UNL A   1      35.328  33.249  28.019  1.00  0.00     0.261 C 
ATOM      4  O   UNL A   1      34.423  33.991  27.627  1.00  0.00    -0.271 OA
ATOM      5  H   UNL A   1      36.557  34.808  28.275  1.00  0.00     0.163 HD
BRANCH   3   6
ATOM      6  C   UNL A   1      35.141  31.715  28.065  1.00  0.00     0.261 C 
BRANCH   6   7
ATOM      7  C   UNL A   1      35.563  31.245  29.470  1.00  0.00     0.052 C 
ATOM      8  C   UNL A   1      36.278  29.909  29.548  1.00  0.00     0.008 C 
ENDBRANCH   6   7
BRANCH   6   9
ATOM      9  O   UNL A   1      33.762  31.578  27.733  1.00  0.00    -0.481 OA
BRANCH   9  10
ATOM     10  C   UNL A   1      33.235  30.526  27.066  1.00  0.00     0.120 A 
ATOM     11  C   UNL A   1      34.198  29.593  26.670  1.00  0.00     0.047 A 
ATOM     12  C   UNL A   1      31.911  30.332  26.701  1.00  0.00     0.047 A 
ATOM     13  C   UNL A   1      33.869  28.543  25.817  1.00  0.00     0.012 A 
ATOM     14  C   UNL A   1      31.580  29.304  25.809  1.00  0.00     0.012 A 
ATOM     15  C   UNL A   1      32.567  28.433  25.334  1.00  0.00    -0.024 A 
BRANCH  15  16
ATOM     16  C   UNL A   1      32.304  27.475  24.259  1.00  0.00     0.029 C 
ATOM     17  C   UNL A   1      31.729  26.281  24.465  1.00  0.00     0.082 C 
ATOM     18  S   UNL A   1      31.281  25.570  25.974  1.00  0.00    -0.052 SA
ATOM     19  C   UNL A   1      31.454  25.335  23.350  1.00  0.00     0.285 C 
ATOM     20  C   UNL A   1      31.052  23.984  25.256  1.00  0.00     0.168 C 
ATOM     21  N   UNL A   1      31.242  24.075  23.892  1.00  0.00    -0.198 N 
ATOM     22  O   UNL A   1      31.412  25.659  22.174  1.00  0.00    -0.266 OA
ATOM     23  S   UNL A   1      30.653  22.623  26.136  1.00  0.00    -0.050 S 
BRANCH  21  24
ATOM     24  N   UNL A   1      31.165  22.935  23.079  1.00  0.00    -0.254 N 
ATOM     25  C   UNL A   1      32.152  21.976  22.962  1.00  0.00     0.274 C 
ATOM     26  H   UNL A   1      30.344  22.808  22.551  1.00  0.00     0.192 HD
ATOM     27  O   UNL A   1      31.931  20.924  22.368  1.00  0.00    -0.267 OA
BRANCH  25  28
ATOM     28  C   UNL A   1      33.507  22.222  23.497  1.00  0.00     0.083 A 
ATOM     29  C   UNL A   1      33.928  21.382  24.536  1.00  0.00     0.018 A 
ATOM     30  C   UNL A   1      34.387  23.175  22.975  1.00  0.00     0.128 A 
ATOM     31  C   UNL A   1      35.239  21.453  25.004  1.00  0.00     0.001 A 
ATOM     32  C   UNL A   1      35.703  23.231  23.429  1.00  0.00     0.047 A 
ATOM     33  C   UNL A   1      36.129  22.367  24.441  1.00  0.00     0.004 A 
BRANCH  30  34
ATOM     34  O   UNL A   1      34.034  24.068  22.002  1.00  0.00    -0.507 OA
ATOM     35  H   UNL A   1      33.375  24.711  22.172  1.00  0.00     0.293 HD
ENDBRANCH  30  34
ENDBRANCH  25  28
ENDBRANCH  21  24
ENDBRANCH  15  16
ENDBRANCH   9  10
ENDBRANCH   6   9
ENDBRANCH   3   6
ENDBRANCH   1   2
BRANCH   1  36
ATOM     36  C   UNL A   1      38.321  33.989  30.075  1.00  0.00     0.021 C 
BRANCH  36  37
ATOM     37  C   UNL A   1      38.242  33.247  31.410  1.00  0.00     0.002 C 
BRANCH  37  38
ATOM     38  C   UNL A   1      36.908  33.373  32.154  1.00  0.00     0.002 C 
BRANCH  38  39
ATOM     39  C   UNL A   1      36.409  32.104  32.856  1.00  0.00     0.021 C 
BRANCH  39  40
ATOM     40  C   UNL A   1      37.404  31.441  33.808  1.00  0.00     0.116 C 
BRANCH  40  41
ATOM     41  N   UNL A   1      37.473  30.002  33.625  1.00  0.00    -0.352 N 
ATOM     42  C   UNL A   1      38.308  29.243  32.845  1.00  0.00     0.251 C 
ATOM     43  H   UNL A   1      36.815  29.488  34.145  1.00  0.00     0.163 HD
ATOM     44  O   UNL A   1      38.085  28.042  32.714  1.00  0.00    -0.269 OA
BRANCH  42  45
ATOM     45  C   UNL A   1      39.464  29.847  32.142  1.00  0.00     0.039 A 
ATOM     46  C   UNL A   1      40.491  30.402  32.914  1.00  0.00     0.014 A 
ATOM     47  C   UNL A   1      39.522  29.929  30.749  1.00  0.00     0.014 A 
ATOM     48  C   UNL A   1      41.595  30.989  32.291  1.00  0.00     0.010 A 
ATOM     49  C   UNL A   1      40.651  30.467  30.126  1.00  0.00     0.010 A 
ATOM     50  C   UNL A   1      41.698  31.003  30.891  1.00  0.00    -0.014 A 
BRANCH  50  51
ATOM     51  C   UNL A   1      42.904  31.565  30.230  1.00  0.00     0.031 A 
ATOM     52  C   UNL A   1      42.944  33.004  29.797  1.00  0.00     0.074 A 
ATOM     53  C   UNL A   1      43.962  30.764  29.997  1.00  0.00     0.049 A 
ATOM     54  N   UNL A   1      43.909  33.663  29.204  1.00  0.00    -0.248 NA
ATOM     55  C   UNL A   1      41.736  33.805  30.045  1.00  0.00     0.031 C 
ATOM     56  C   UNL A   1      44.028  29.339  30.320  1.00  0.00     0.029 A 
ATOM     57  N   UNL A   1      45.182  31.033  29.428  1.00  0.00    -0.354 N 
ATOM     58  C   UNL A   1      43.427  34.950  29.010  1.00  0.00     0.074 A 
ATOM     59  C   UNL A   1      42.066  34.968  29.500  1.00  0.00     0.031 C 
ATOM     60  C   UNL A   1      45.231  28.863  29.961  1.00  0.00     0.029 A 
ATOM     61  C   UNL A   1      46.012  29.941  29.364  1.00  0.00     0.049 A 
ATOM     62  H   UNL A   1      45.438  31.925  29.098  1.00  0.00     0.167 HD
ATOM     63  C   UNL A   1      44.069  36.025  28.490  1.00  0.00     0.037 A 
ATOM     64  C   UNL A   1      47.263  29.823  28.880  1.00  0.00     0.037 A 
ATOM     65  C   UNL A   1      45.428  36.013  28.014  1.00  0.00     0.049 A 
ATOM     66  C   UNL A   1      47.959  31.037  28.329  1.00  0.00     0.074 A 
ATOM     67  C   UNL A   1      46.173  37.060  27.499  1.00  0.00     0.029 A 
ATOM     68  N   UNL A   1      46.247  34.894  27.996  1.00  0.00    -0.354 N 
ATOM     69  N   UNL A   1      47.509  32.262  28.204  1.00  0.00    -0.248 NA
ATOM     70  C   UNL A   1      49.342  30.854  27.866  1.00  0.00     0.031 C 
ATOM     71  C   UNL A   1      47.435  36.570  27.144  1.00  0.00     0.029 A 
ATOM     72  C   UNL A   1      47.488  35.225  27.472  1.00  0.00     0.049 A 
ATOM     73  H   UNL A   1      45.987  33.998  28.309  1.00  0.00     0.167 HD
ATOM     74  C   UNL A   1      48.556  32.997  27.666  1.00  0.00     0.074 A 
ATOM     75  C   UNL A   1      49.671  32.088  27.511  1.00  0.00     0.031 C 
ATOM     76  C   UNL A   1      48.588  34.309  27.325  1.00  0.00     0.037 A 
BRANCH  63  77
ATOM     77  C   UNL A   1      43.312  37.319  28.426  1.00  0.00     0.064 A 
ATOM     78  C   UNL A   1      43.403  38.267  29.457  1.00  0.00     0.173 A 
ATOM     79  C   UNL A   1      42.532  37.639  27.305  1.00  0.00     0.173 A 
ATOM     80  F   UNL A   1      44.127  38.003  30.555  1.00  0.00    -0.203 F 
ATOM     81  C   UNL A   1      42.725  39.480  29.376  1.00  0.00     0.198 A 
ATOM     82  C   UNL A   1      41.876  38.864  27.216  1.00  0.00     0.198 A 
ATOM     83  F   UNL A   1      42.418  36.770  26.290  1.00  0.00    -0.203 F 
ATOM     84  F   UNL A   1      42.796  40.355  30.388  1.00  0.00    -0.200 F 
ATOM     85  C   UNL A   1      41.968  39.781  28.253  1.00  0.00     0.200 A 
ATOM     86  F   UNL A   1      41.154  39.158  26.126  1.00  0.00    -0.200 F 
ATOM     87  F   UNL A   1      41.324  40.953  28.172  1.00  0.00    -0.200 F 
ENDBRANCH  63  77
BRANCH  64  88
ATOM     88  C   UNL A   1      47.950  28.507  28.919  1.00  0.00     0.064 A 
ATOM     89  C   UNL A   1      48.676  28.106  30.049  1.00  0.00     0.173 A 
ATOM     90  C   UNL A   1      47.903  27.631  27.826  1.00  0.00     0.173 A 
ATOM     91  F   UNL A   1      48.765  28.919  31.111  1.00  0.00    -0.203 F 
ATOM     92  C   UNL A   1      49.349  26.886  30.074  1.00  0.00     0.198 A 
ATOM     93  C   UNL A   1      48.555  26.401  27.862  1.00  0.00     0.198 A 
ATOM     94  F   UNL A   1      47.217  27.968  26.724  1.00  0.00    -0.203 F 
ATOM     95  F   UNL A   1      50.075  26.547  31.148  1.00  0.00    -0.200 F 
ATOM     96  C   UNL A   1      49.284  26.033  28.983  1.00  0.00     0.200 A 
ATOM     97  F   UNL A   1      48.480  25.574  26.811  1.00  0.00    -0.200 F 
ATOM     98  F   UNL A   1      49.932  24.861  29.008  1.00  0.00    -0.200 F 
ENDBRANCH  64  88
BRANCH  76  99
ATOM     99  C   UNL A   1      49.875  34.836  26.765  1.00  0.00     0.064 A 
ATOM    100  C   UNL A   1      51.000  35.034  27.580  1.00  0.00     0.173 A 
ATOM    101  C   UNL A   1      49.991  35.130  25.399  1.00  0.00     0.173 A 
ATOM    102  F   UNL A   1      50.934  34.782  28.896  1.00  0.00    -0.203 F 
ATOM    103  C   UNL A   1      52.186  35.536  27.050  1.00  0.00     0.198 A 
ATOM    104  C   UNL A   1      51.187  35.608  24.869  1.00  0.00     0.198 A 
ATOM    105  F   UNL A   1      48.945  34.953  24.578  1.00  0.00    -0.203 F 
ATOM    106  F   UNL A   1      53.233  35.765  27.856  1.00  0.00    -0.200 F 
ATOM    107  C   UNL A   1      52.279  35.817  25.695  1.00  0.00     0.200 A 
ATOM    108  F   UNL A   1      51.278  35.871  23.557  1.00  0.00    -0.200 F 
ATOM    109  F   UNL A   1      53.421  36.303  25.188  1.00  0.00    -0.200 F 
ENDBRANCH  76  99
ENDBRANCH  50  51
ENDBRANCH  42  45
ENDBRANCH  40  41
ENDBRANCH  39  40
ENDBRANCH  38  39
ENDBRANCH  37  38
ENDBRANCH  36  37
ENDBRANCH   1  36
TORSDOF 20
ENDMDL
MODEL 3
REMARK VINA RESULT:      -9.6      1.502      2.468
REMARK SMILES CC[C@@H](Oc1ccc(/C=C2\SC(=S)N(NC(=O)c3ccccc3O)C2=O)cc1)C(=O)NCCCCCCNC(=O)c1ccc(-c2c3nc(c(-c4c(F)c(F)c(F)c(F)c4F)c4ccc([nH]4)c(-c4c(F)c(F)c(F)c(F)c4F)c4nc(c(-c5c(F)c(F)c(F)c(F)c5F)c5ccc2[nH]5)C=C4)C=C3)cc1
REMARK SMILES IDX 32 1 31 2 29 3 30 4 3 6 2 7 1 8 4 9 5 10 6 11 28 12 7 13
REMARK SMILES IDX 27 14 8 15 9 16 10 17 11 18 25 19 12 20 14 21 26 22 13 23
REMARK SMILES IDX 15 24 16 25 17 27 18 28 19 29 23 30 20 31 22 32 21 33 24 34
REMARK SMILES IDX 33 36 34 37 35 38 36 39 37 40 38 41 39 42 40 44 41 45 42 46
REMARK SMILES IDX 103 47 43 48 102 49 44 50 45 51 46 52 96 53 47 54 101 55
REMARK SMILES IDX 95 56 97 57 48 58 100 59 94 60 93 61 49 63 81 64 61 65 80 66
REMARK SMILES IDX 62 67 65 68 79 69 98 70 63 71 64 72 78 74 99 75 66 76 50 77
REMARK SMILES IDX 51 78 59 79 52 80 53 81 57 82 60 83 54 84 55 85 58 86 56 87
REMARK SMILES IDX 82 88 83 89 91 90 84 91 85 92 89 93 92 94 86 95 87 96 90 97
REMARK SMILES IDX 88 98 67 99 68 100 76 101 69 102 70 103 74 104 77 105 71 106
REMARK SMILES IDX 72 107 75 108 73 109
REMARK H PARENT 31 5 15 26 24 35 38 43 97 62 65 73
REMARK Flexibility Score: inf
ROOT
ATOM      1  C   UNL A   1      43.362  22.970  29.400  1.00  0.00     0.116 C 
ENDROOT
BRANCH   1   2
ATOM      2  N   UNL A   1      42.754  22.204  28.320  1.00  0.00    -0.353 N 
ATOM      3  C   UNL A   1      42.438  22.584  27.036  1.00  0.00     0.261 C 
ATOM      4  O   UNL A   1      41.938  21.736  26.292  1.00  0.00    -0.271 OA
ATOM      5  H   UNL A   1      42.538  21.270  28.543  1.00  0.00     0.163 HD
BRANCH   3   6
ATOM      6  C   UNL A   1      42.660  24.036  26.557  1.00  0.00     0.261 C 
BRANCH   6   7
ATOM      7  C   UNL A   1      43.088  23.968  25.077  1.00  0.00     0.052 C 
ATOM      8  C   UNL A   1      44.577  24.065  24.800  1.00  0.00     0.008 C 
ENDBRANCH   6   7
BRANCH   6   9
ATOM      9  O   UNL A   1      41.396  24.632  26.829  1.00  0.00    -0.481 OA
BRANCH   9  10
ATOM     10  C   UNL A   1      41.220  25.764  27.549  1.00  0.00     0.120 A 
ATOM     11  C   UNL A   1      40.314  26.651  26.959  1.00  0.00     0.047 A 
ATOM     12  C   UNL A   1      41.870  26.134  28.717  1.00  0.00     0.047 A 
ATOM     13  C   UNL A   1      40.148  27.940  27.456  1.00  0.00     0.012 A 
ATOM     14  C   UNL A   1      41.739  27.443  29.200  1.00  0.00     0.012 A 
ATOM     15  C   UNL A   1      40.909  28.360  28.545  1.00  0.00    -0.024 A 
BRANCH  15  16
ATOM     16  C   UNL A   1      40.894  29.781  28.897  1.00  0.00     0.029 C 
ATOM     17  C   UNL A   1      40.646  30.226  30.136  1.00  0.00     0.082 C 
ATOM     18  S   UNL A   1      40.202  29.300  31.524  1.00  0.00    -0.052 SA
ATOM     19  C   UNL A   1      40.657  31.676  30.471  1.00  0.00     0.285 C 
ATOM     20  C   UNL A   1      39.720  30.725  32.430  1.00  0.00     0.168 C 
ATOM     21  N   UNL A   1      39.994  31.850  31.677  1.00  0.00    -0.198 N 
ATOM     22  O   UNL A   1      41.190  32.532  29.781  1.00  0.00    -0.266 OA
ATOM     23  S   UNL A   1      39.057  30.666  33.959  1.00  0.00    -0.050 S 
BRANCH  21  24
ATOM     24  N   UNL A   1      39.660  33.128  32.149  1.00  0.00    -0.254 N 
ATOM     25  C   UNL A   1      38.469  33.779  31.900  1.00  0.00     0.274 C 
ATOM     26  H   UNL A   1      40.327  33.596  32.700  1.00  0.00     0.192 HD
ATOM     27  O   UNL A   1      38.188  34.816  32.496  1.00  0.00    -0.267 OA
BRANCH  25  28
ATOM     28  C   UNL A   1      37.535  33.274  30.871  1.00  0.00     0.083 A 
ATOM     29  C   UNL A   1      36.440  32.533  31.335  1.00  0.00     0.018 A 
ATOM     30  C   UNL A   1      37.654  33.560  29.508  1.00  0.00     0.128 A 
ATOM     31  C   UNL A   1      35.439  32.138  30.448  1.00  0.00     0.001 A 
ATOM     32  C   UNL A   1      36.643  33.183  28.627  1.00  0.00     0.047 A 
ATOM     33  C   UNL A   1      35.534  32.476  29.098  1.00  0.00     0.004 A 
BRANCH  30  34
ATOM     34  O   UNL A   1      38.719  34.227  28.972  1.00  0.00    -0.507 OA
ATOM     35  H   UNL A   1      39.542  34.233  29.419  1.00  0.00     0.293 HD
ENDBRANCH  30  34
ENDBRANCH  25  28
ENDBRANCH  21  24
ENDBRANCH  15  16
ENDBRANCH   9  10
ENDBRANCH   6   9
ENDBRANCH   3   6
ENDBRANCH   1   2
BRANCH   1  36
ATOM     36  C   UNL A   1      44.847  23.240  29.151  1.00  0.00     0.021 C 
BRANCH  36  37
ATOM     37  C   UNL A   1      45.194  24.709  28.906  1.00  0.00     0.002 C 
BRANCH  37  38
ATOM     38  C   UNL A   1      46.658  24.988  28.546  1.00  0.00     0.002 C 
BRANCH  38  39
ATOM     39  C   UNL A   1      47.158  24.362  27.239  1.00  0.00     0.021 C 
BRANCH  39  40
ATOM     40  C   UNL A   1      48.318  25.088  26.560  1.00  0.00     0.116 C 
BRANCH  40  41
ATOM     41  N   UNL A   1      47.938  25.671  25.285  1.00  0.00    -0.352 N 
ATOM     42  C   UNL A   1      47.125  26.737  25.000  1.00  0.00     0.251 C 
ATOM     43  H   UNL A   1      48.328  25.228  24.497  1.00  0.00     0.163 HD
ATOM     44  O   UNL A   1      46.808  26.960  23.833  1.00  0.00    -0.269 OA
BRANCH  42  45
ATOM     45  C   UNL A   1      46.605  27.616  26.072  1.00  0.00     0.039 A 
ATOM     46  C   UNL A   1      45.222  27.658  26.281  1.00  0.00     0.014 A 
ATOM     47  C   UNL A   1      47.444  28.438  26.829  1.00  0.00     0.014 A 
ATOM     48  C   UNL A   1      44.688  28.480  27.276  1.00  0.00     0.010 A 
ATOM     49  C   UNL A   1      46.917  29.219  27.860  1.00  0.00     0.010 A 
ATOM     50  C   UNL A   1      45.533  29.249  28.093  1.00  0.00    -0.014 A 
BRANCH  50  51
ATOM     51  C   UNL A   1      44.971  30.070  29.197  1.00  0.00     0.031 A 
ATOM     52  C   UNL A   1      44.586  29.438  30.506  1.00  0.00     0.074 A 
ATOM     53  C   UNL A   1      44.782  31.390  29.007  1.00  0.00     0.049 A 
ATOM     54  N   UNL A   1      44.078  29.998  31.576  1.00  0.00    -0.248 NA
ATOM     55  C   UNL A   1      44.778  27.985  30.623  1.00  0.00     0.031 C 
ATOM     56  C   UNL A   1      45.066  32.112  27.766  1.00  0.00     0.029 A 
ATOM     57  N   UNL A   1      44.303  32.358  29.854  1.00  0.00    -0.354 N 
ATOM     58  C   UNL A   1      43.891  28.971  32.490  1.00  0.00     0.074 A 
ATOM     59  C   UNL A   1      44.292  27.745  31.833  1.00  0.00     0.031 C 
ATOM     60  C   UNL A   1      44.772  33.411  27.938  1.00  0.00     0.029 A 
ATOM     61  C   UNL A   1      44.260  33.610  29.290  1.00  0.00     0.049 A 
ATOM     62  H   UNL A   1      44.018  32.173  30.778  1.00  0.00     0.167 HD
ATOM     63  C   UNL A   1      43.448  29.045  33.769  1.00  0.00     0.037 A 
ATOM     64  C   UNL A   1      43.856  34.785  29.807  1.00  0.00     0.037 A 
ATOM     65  C   UNL A   1      43.062  30.264  34.429  1.00  0.00     0.049 A 
ATOM     66  C   UNL A   1      43.389  34.843  31.235  1.00  0.00     0.074 A 
ATOM     67  C   UNL A   1      42.629  30.443  35.732  1.00  0.00     0.029 A 
ATOM     68  N   UNL A   1      43.063  31.518  33.835  1.00  0.00    -0.354 N 
ATOM     69  N   UNL A   1      43.273  33.870  32.106  1.00  0.00    -0.248 NA
ATOM     70  C   UNL A   1      43.012  36.164  31.756  1.00  0.00     0.031 C 
ATOM     71  C   UNL A   1      42.343  31.800  35.919  1.00  0.00     0.029 A 
ATOM     72  C   UNL A   1      42.632  32.473  34.744  1.00  0.00     0.049 A 
ATOM     73  H   UNL A   1      43.331  31.702  32.906  1.00  0.00     0.167 HD
ATOM     74  C   UNL A   1      42.827  34.463  33.280  1.00  0.00     0.074 A 
ATOM     75  C   UNL A   1      42.718  35.882  33.017  1.00  0.00     0.031 C 
ATOM     76  C   UNL A   1      42.529  33.881  34.467  1.00  0.00     0.037 A 
BRANCH  63  77
ATOM     77  C   UNL A   1      43.375  27.767  34.551  1.00  0.00     0.064 A 
ATOM     78  C   UNL A   1      44.493  27.267  35.235  1.00  0.00     0.173 A 
ATOM     79  C   UNL A   1      42.166  27.063  34.664  1.00  0.00     0.173 A 
ATOM     80  F   UNL A   1      45.674  27.897  35.151  1.00  0.00    -0.203 F 
ATOM     81  C   UNL A   1      44.409  26.099  35.988  1.00  0.00     0.198 A 
ATOM     82  C   UNL A   1      42.080  25.909  35.437  1.00  0.00     0.198 A 
ATOM     83  F   UNL A   1      41.066  27.502  34.034  1.00  0.00    -0.203 F 
ATOM     84  F   UNL A   1      45.499  25.619  36.604  1.00  0.00    -0.200 F 
ATOM     85  C   UNL A   1      43.201  25.425  36.094  1.00  0.00     0.200 A 
ATOM     86  F   UNL A   1      40.910  25.264  35.549  1.00  0.00    -0.200 F 
ATOM     87  F   UNL A   1      43.120  24.306  36.827  1.00  0.00    -0.200 F 
ENDBRANCH  63  77
BRANCH  64  88
ATOM     88  C   UNL A   1      43.899  36.014  28.973  1.00  0.00     0.064 A 
ATOM     89  C   UNL A   1      45.028  36.844  28.972  1.00  0.00     0.173 A 
ATOM     90  C   UNL A   1      42.812  36.385  28.171  1.00  0.00     0.173 A 
ATOM     91  F   UNL A   1      46.085  36.540  29.739  1.00  0.00    -0.203 F 
ATOM     92  C   UNL A   1      45.057  38.015  28.216  1.00  0.00     0.198 A 
ATOM     93  C   UNL A   1      42.852  37.542  27.396  1.00  0.00     0.198 A 
ATOM     94  F   UNL A   1      41.711  35.620  28.135  1.00  0.00    -0.203 F 
ATOM     95  F   UNL A   1      46.130  38.816  28.269  1.00  0.00    -0.200 F 
ATOM     96  C   UNL A   1      43.972  38.360  27.426  1.00  0.00     0.200 A 
ATOM     97  F   UNL A   1      41.806  37.866  26.624  1.00  0.00    -0.200 F 
ATOM     98  F   UNL A   1      44.001  39.486  26.700  1.00  0.00    -0.200 F 
ENDBRANCH  64  88
BRANCH  76  99
ATOM     99  C   UNL A   1      42.071  34.786  35.572  1.00  0.00     0.064 A 
ATOM    100  C   UNL A   1      40.711  34.933  35.881  1.00  0.00     0.173 A 
ATOM    101  C   UNL A   1      43.003  35.499  36.341  1.00  0.00     0.173 A 
ATOM    102  F   UNL A   1      39.781  34.284  35.165  1.00  0.00    -0.203 F 
ATOM    103  C   UNL A   1      40.299  35.786  36.902  1.00  0.00     0.198 A 
ATOM    104  C   UNL A   1      42.588  36.331  37.377  1.00  0.00     0.198 A 
ATOM    105  F   UNL A   1      44.315  35.388  36.087  1.00  0.00    -0.203 F 
ATOM    106  F   UNL A   1      38.991  35.950  37.147  1.00  0.00    -0.200 F 
ATOM    107  C   UNL A   1      41.237  36.480  37.651  1.00  0.00     0.200 A 
ATOM    108  F   UNL A   1      43.496  36.995  38.106  1.00  0.00    -0.200 F 
ATOM    109  F   UNL A   1      40.838  37.302  38.632  1.00  0.00    -0.200 F 
ENDBRANCH  76  99
ENDBRANCH  50  51
ENDBRANCH  42  45
ENDBRANCH  40  41
ENDBRANCH  39  40
ENDBRANCH  38  39
ENDBRANCH  37  38
ENDBRANCH  36  37
ENDBRANCH   1  36
TORSDOF 20
ENDMDL
