MODEL 1
REMARK VINA RESULT:      -8.3      0.000      0.000
REMARK SMILES Cc1c(CC(=O)N[C@H](CO)C(=O)NCCCCCCNC(=O)c2ccc(-c3c4nc(c(-c5c(F)c(F)c(F)c(F)c5F)c5ccc([nH]5)c(-c5c(F)c(F)c(F)c(F)c5F)c5nc(c(-c6c(F)c(F)c(F)c(F)c6F)c6ccc3[nH]6)C=C5)C=C4)cc2)cc(-c2ccc(S(C)(=O)=O)cc2)n1-c1ccc(F)cc1
REMARK SMILES IDX 15 1 14 2 13 3 11 4 12 5 8 7 7 8 5 9 6 10 4 12 3 13 1 14
REMARK SMILES IDX 2 15 98 16 86 17 87 18 99 19 100 20 105 21 101 22 104 23
REMARK SMILES IDX 102 24 103 25 88 26 89 27 97 28 90 29 96 30 91 31 92 32
REMARK SMILES IDX 93 33 94 34 95 35 9 36 10 37 16 39 17 40 18 41 19 42 20 43
REMARK SMILES IDX 21 44 22 46 23 47 24 48 85 49 25 50 84 51 26 52 27 53 28 54
REMARK SMILES IDX 78 55 29 56 83 57 77 58 79 59 30 60 82 61 76 62 75 63 31 65
REMARK SMILES IDX 63 66 43 67 62 68 44 69 47 70 61 71 80 72 45 73 46 74 60 76
REMARK SMILES IDX 81 77 48 78 32 79 33 80 41 81 34 82 35 83 39 84 42 85 36 86
REMARK SMILES IDX 37 87 40 88 38 89 64 90 65 91 73 92 66 93 67 94 71 95 74 96
REMARK SMILES IDX 68 97 69 98 72 99 70 100 49 101 50 102 58 103 51 104 52 105
REMARK SMILES IDX 56 106 59 107 53 108 54 109 57 110 55 111
REMARK H PARENT 13 6 7 11 10 38 20 45 79 64 47 75
REMARK Flexibility Score: inf
ROOT
ATOM      1  C   UNL A   1      39.897  35.351  34.730  1.00  0.00     0.021 C 
ENDROOT
BRANCH   1   2
ATOM      2  C   UNL A   1      38.548  34.703  34.296  1.00  0.00     0.116 C 
BRANCH   2   3
ATOM      3  N   UNL A   1      38.343  34.561  32.797  1.00  0.00    -0.354 N 
ATOM      4  C   UNL A   1      37.518  34.411  31.722  1.00  0.00     0.244 C 
ATOM      5  O   UNL A   1      38.199  34.493  30.676  1.00  0.00    -0.273 OA
ATOM      6  H   UNL A   1      39.250  34.591  32.415  1.00  0.00     0.163 HD
BRANCH   4   7
ATOM      7  C   UNL A   1      35.964  34.042  31.486  1.00  0.00     0.197 C 
BRANCH   7   8
ATOM      8  N   UNL A   1      35.348  33.660  30.215  1.00  0.00    -0.342 N 
ATOM      9  C   UNL A   1      35.750  32.603  29.437  1.00  0.00     0.225 C 
ATOM     10  O   UNL A   1      35.670  32.656  28.227  1.00  0.00    -0.275 OA
ATOM     11  H   UNL A   1      34.589  34.200  29.894  1.00  0.00     0.164 HD
BRANCH   9  12
ATOM     12  C   UNL A   1      36.121  31.362  30.188  1.00  0.00     0.137 C 
BRANCH  12  13
ATOM     13  C   UNL A   1      37.459  30.730  29.934  1.00  0.00    -0.017 A 
ATOM     14  C   UNL A   1      36.685  29.216  28.016  1.00  0.00     0.065 C 
ATOM     15  C   UNL A   1      37.700  29.795  28.947  1.00  0.00     0.024 A 
ATOM     16  N   UNL A   1      39.027  29.388  29.025  1.00  0.00    -0.314 N 
ATOM     17  C   UNL A   1      38.658  30.751  30.717  1.00  0.00     0.033 A 
ATOM     18  C   UNL A   1      39.648  30.031  30.090  1.00  0.00     0.053 A 
BRANCH  16  19
ATOM     19  C   UNL A   1      39.657  28.482  28.151  1.00  0.00     0.046 A 
ATOM     20  C   UNL A   1      40.303  28.955  27.003  1.00  0.00     0.029 A 
ATOM     21  C   UNL A   1      39.569  27.115  28.430  1.00  0.00     0.029 A 
ATOM     22  C   UNL A   1      40.869  28.039  26.125  1.00  0.00     0.041 A 
ATOM     23  C   UNL A   1      40.134  26.210  27.545  1.00  0.00     0.041 A 
ATOM     24  C   UNL A   1      40.776  26.678  26.404  1.00  0.00     0.123 A 
ATOM     25  F   UNL A   1      41.309  25.797  25.549  1.00  0.00    -0.207 F 
ENDBRANCH  16  19
BRANCH  18  26
ATOM     26  C   UNL A   1      41.100  30.092  30.343  1.00  0.00    -0.001 A 
ATOM     27  C   UNL A   1      41.659  29.197  31.270  1.00  0.00     0.011 A 
ATOM     28  C   UNL A   1      41.957  30.968  29.657  1.00  0.00     0.011 A 
ATOM     29  C   UNL A   1      43.023  29.217  31.565  1.00  0.00     0.021 A 
ATOM     30  C   UNL A   1      43.331  30.999  29.954  1.00  0.00     0.021 A 
ATOM     31  C   UNL A   1      43.850  30.138  30.925  1.00  0.00     0.067 A 
BRANCH  31  32
ATOM     32  S   UNL A   1      45.578  30.159  31.352  1.00  0.00     0.175 S 
ATOM     33  C   UNL A   1      45.624  29.544  33.018  1.00  0.00     0.163 C 
ATOM     34  O   UNL A   1      46.235  29.199  30.496  1.00  0.00    -0.224 OA
ATOM     35  O   UNL A   1      46.007  31.550  31.392  1.00  0.00    -0.224 OA
ENDBRANCH  31  32
ENDBRANCH  18  26
ENDBRANCH  12  13
ENDBRANCH   9  12
ENDBRANCH   7   8
BRANCH   7  36
ATOM     36  C   UNL A   1      34.879  34.854  32.293  1.00  0.00     0.191 C 
BRANCH  36  37
ATOM     37  O   UNL A   1      35.329  36.051  32.898  1.00  0.00    -0.394 OA
ATOM     38  H   UNL A   1      35.614  35.866  33.806  1.00  0.00     0.210 HD
ENDBRANCH  36  37
ENDBRANCH   7  36
ENDBRANCH   4   7
ENDBRANCH   2   3
ENDBRANCH   1   2
BRANCH   1  39
ATOM     39  C   UNL A   1      40.062  35.905  36.161  1.00  0.00     0.002 C 
BRANCH  39  40
ATOM     40  C   UNL A   1      40.089  34.930  37.349  1.00  0.00     0.002 C 
BRANCH  40  41
ATOM     41  C   UNL A   1      40.791  33.554  37.227  1.00  0.00     0.021 C 
BRANCH  41  42
ATOM     42  C   UNL A   1      40.040  32.302  36.703  1.00  0.00     0.116 C 
BRANCH  42  43
ATOM     43  N   UNL A   1      40.821  31.079  36.605  1.00  0.00    -0.352 N 
ATOM     44  C   UNL A   1      41.803  30.710  35.692  1.00  0.00     0.251 C 
ATOM     45  H   UNL A   1      40.624  30.404  37.294  1.00  0.00     0.163 HD
ATOM     46  O   UNL A   1      42.385  29.640  35.876  1.00  0.00    -0.269 OA
BRANCH  44  47
ATOM     47  C   UNL A   1      42.161  31.499  34.451  1.00  0.00     0.039 A 
ATOM     48  C   UNL A   1      43.405  32.125  34.395  1.00  0.00     0.014 A 
ATOM     49  C   UNL A   1      41.201  31.951  33.528  1.00  0.00     0.014 A 
ATOM     50  C   UNL A   1      43.688  33.131  33.419  1.00  0.00     0.010 A 
ATOM     51  C   UNL A   1      41.473  33.013  32.573  1.00  0.00     0.010 A 
ATOM     52  C   UNL A   1      42.726  33.657  32.495  1.00  0.00    -0.014 A 
BRANCH  52  53
ATOM     53  C   UNL A   1      42.938  35.159  32.048  1.00  0.00     0.031 A 
ATOM     54  C   UNL A   1      42.668  35.122  30.579  1.00  0.00     0.074 A 
ATOM     55  C   UNL A   1      43.312  36.401  32.548  1.00  0.00     0.049 A 
ATOM     56  N   UNL A   1      43.335  34.337  29.777  1.00  0.00    -0.248 NA
ATOM     57  C   UNL A   1      41.425  35.663  30.028  1.00  0.00     0.031 C 
ATOM     58  C   UNL A   1      43.726  36.735  33.918  1.00  0.00     0.029 A 
ATOM     59  N   UNL A   1      43.395  37.689  31.939  1.00  0.00    -0.354 N 
ATOM     60  C   UNL A   1      42.759  34.502  28.539  1.00  0.00     0.074 A 
ATOM     61  C   UNL A   1      41.472  35.124  28.806  1.00  0.00     0.031 C 
ATOM     62  C   UNL A   1      43.896  38.080  34.075  1.00  0.00     0.029 A 
ATOM     63  C   UNL A   1      43.676  38.790  32.816  1.00  0.00     0.049 A 
ATOM     64  H   UNL A   1      43.267  37.816  30.971  1.00  0.00     0.167 HD
ATOM     65  C   UNL A   1      43.608  34.777  27.508  1.00  0.00     0.037 A 
ATOM     66  C   UNL A   1      43.789  40.150  32.568  1.00  0.00     0.037 A 
ATOM     67  C   UNL A   1      43.603  36.169  27.155  1.00  0.00     0.049 A 
ATOM     68  C   UNL A   1      44.000  40.344  31.128  1.00  0.00     0.074 A 
ATOM     69  C   UNL A   1      42.594  37.083  26.933  1.00  0.00     0.029 A 
ATOM     70  N   UNL A   1      44.737  36.896  27.449  1.00  0.00    -0.354 N 
ATOM     71  N   UNL A   1      45.165  40.188  30.580  1.00  0.00    -0.248 NA
ATOM     72  C   UNL A   1      42.952  40.839  30.240  1.00  0.00     0.031 C 
ATOM     73  C   UNL A   1      43.017  38.252  27.605  1.00  0.00     0.029 A 
ATOM     74  C   UNL A   1      44.369  38.141  27.907  1.00  0.00     0.049 A 
ATOM     75  H   UNL A   1      45.662  36.575  27.350  1.00  0.00     0.167 HD
ATOM     76  C   UNL A   1      44.863  40.037  29.266  1.00  0.00     0.074 A 
ATOM     77  C   UNL A   1      43.605  40.733  29.079  1.00  0.00     0.031 C 
ATOM     78  C   UNL A   1      45.313  38.897  28.691  1.00  0.00     0.037 A 
BRANCH  65  79
ATOM     79  C   UNL A   1      44.823  33.906  27.453  1.00  0.00     0.064 A 
ATOM     80  C   UNL A   1      44.825  32.808  26.588  1.00  0.00     0.173 A 
ATOM     81  C   UNL A   1      45.934  34.073  28.300  1.00  0.00     0.173 A 
ATOM     82  F   UNL A   1      43.823  32.640  25.711  1.00  0.00    -0.203 F 
ATOM     83  C   UNL A   1      45.865  31.881  26.614  1.00  0.00     0.198 A 
ATOM     84  C   UNL A   1      46.940  33.118  28.365  1.00  0.00     0.198 A 
ATOM     85  F   UNL A   1      46.068  35.183  29.046  1.00  0.00    -0.203 F 
ATOM     86  F   UNL A   1      45.864  30.852  25.755  1.00  0.00    -0.200 F 
ATOM     87  C   UNL A   1      46.903  32.017  27.525  1.00  0.00     0.200 A 
ATOM     88  F   UNL A   1      47.952  33.271  29.232  1.00  0.00    -0.200 F 
ATOM     89  F   UNL A   1      47.883  31.105  27.573  1.00  0.00    -0.200 F 
ENDBRANCH  65  79
BRANCH  66  90
ATOM     90  C   UNL A   1      43.899  41.513  33.274  1.00  0.00     0.064 A 
ATOM     91  C   UNL A   1      45.139  42.238  33.282  1.00  0.00     0.173 A 
ATOM     92  C   UNL A   1      42.776  42.304  33.540  1.00  0.00     0.173 A 
ATOM     93  F   UNL A   1      46.310  41.615  33.090  1.00  0.00    -0.203 F 
ATOM     94  C   UNL A   1      45.224  43.631  33.406  1.00  0.00     0.198 A 
ATOM     95  C   UNL A   1      42.870  43.706  33.712  1.00  0.00     0.198 A 
ATOM     96  F   UNL A   1      41.556  41.751  33.539  1.00  0.00    -0.203 F 
ATOM     97  F   UNL A   1      46.407  44.251  33.258  1.00  0.00    -0.200 F 
ATOM     98  C   UNL A   1      44.083  44.371  33.606  1.00  0.00     0.200 A 
ATOM     99  F   UNL A   1      41.758  44.429  33.909  1.00  0.00    -0.200 F 
ATOM    100  F   UNL A   1      44.147  45.709  33.662  1.00  0.00    -0.200 F 
ENDBRANCH  66  90
BRANCH  78 101
ATOM    101  C   UNL A   1      46.710  38.444  29.093  1.00  0.00     0.064 A 
ATOM    102  C   UNL A   1      47.074  37.758  30.281  1.00  0.00     0.173 A 
ATOM    103  C   UNL A   1      47.771  38.822  28.261  1.00  0.00     0.173 A 
ATOM    104  F   UNL A   1      46.160  37.217  31.099  1.00  0.00    -0.203 F 
ATOM    105  C   UNL A   1      48.409  37.581  30.653  1.00  0.00     0.198 A 
ATOM    106  C   UNL A   1      49.103  38.586  28.605  1.00  0.00     0.198 A 
ATOM    107  F   UNL A   1      47.517  39.419  27.086  1.00  0.00    -0.203 F 
ATOM    108  F   UNL A   1      48.709  37.006  31.828  1.00  0.00    -0.200 F 
ATOM    109  C   UNL A   1      49.424  37.996  29.814  1.00  0.00     0.200 A 
ATOM    110  F   UNL A   1      50.078  38.939  27.755  1.00  0.00    -0.200 F 
ATOM    111  F   UNL A   1      50.706  37.810  30.158  1.00  0.00    -0.200 F 
ENDBRANCH  78 101
ENDBRANCH  52  53
ENDBRANCH  44  47
ENDBRANCH  42  43
ENDBRANCH  41  42
ENDBRANCH  40  41
ENDBRANCH  39  40
ENDBRANCH   1  39
TORSDOF 21
ENDMDL
MODEL 2
REMARK VINA RESULT:      -7.9      4.239     10.665
REMARK SMILES Cc1c(CC(=O)N[C@H](CO)C(=O)NCCCCCCNC(=O)c2ccc(-c3c4nc(c(-c5c(F)c(F)c(F)c(F)c5F)c5ccc([nH]5)c(-c5c(F)c(F)c(F)c(F)c5F)c5nc(c(-c6c(F)c(F)c(F)c(F)c6F)c6ccc3[nH]6)C=C5)C=C4)cc2)cc(-c2ccc(S(C)(=O)=O)cc2)n1-c1ccc(F)cc1
REMARK SMILES IDX 15 1 14 2 13 3 11 4 12 5 8 7 7 8 5 9 6 10 4 12 3 13 1 14
REMARK SMILES IDX 2 15 98 16 86 17 87 18 99 19 100 20 105 21 101 22 104 23
REMARK SMILES IDX 102 24 103 25 88 26 89 27 97 28 90 29 96 30 91 31 92 32
REMARK SMILES IDX 93 33 94 34 95 35 9 36 10 37 16 39 17 40 18 41 19 42 20 43
REMARK SMILES IDX 21 44 22 46 23 47 24 48 85 49 25 50 84 51 26 52 27 53 28 54
REMARK SMILES IDX 78 55 29 56 83 57 77 58 79 59 30 60 82 61 76 62 75 63 31 65
REMARK SMILES IDX 63 66 43 67 62 68 44 69 47 70 61 71 80 72 45 73 46 74 60 76
REMARK SMILES IDX 81 77 48 78 32 79 33 80 41 81 34 82 35 83 39 84 42 85 36 86
REMARK SMILES IDX 37 87 40 88 38 89 64 90 65 91 73 92 66 93 67 94 71 95 74 96
REMARK SMILES IDX 68 97 69 98 72 99 70 100 49 101 50 102 58 103 51 104 52 105
REMARK SMILES IDX 56 106 59 107 53 108 54 109 57 110 55 111
REMARK H PARENT 13 6 7 11 10 38 20 45 79 64 47 75
REMARK Flexibility Score: inf
ROOT
ATOM      1  C   UNL A   1      49.866  38.886  33.334  1.00  0.00     0.021 C 
ENDROOT
BRANCH   1   2
ATOM      2  C   UNL A   1      49.263  39.168  34.742  1.00  0.00     0.116 C 
BRANCH   2   3
ATOM      3  N   UNL A   1      47.949  38.467  35.045  1.00  0.00    -0.354 N 
ATOM      4  C   UNL A   1      46.591  38.491  35.159  1.00  0.00     0.244 C 
ATOM      5  O   UNL A   1      46.183  37.328  35.377  1.00  0.00    -0.273 OA
ATOM      6  H   UNL A   1      48.204  37.543  35.269  1.00  0.00     0.163 HD
BRANCH   4   7
ATOM      7  C   UNL A   1      45.444  39.626  35.207  1.00  0.00     0.197 C 
BRANCH   7   8
ATOM      8  N   UNL A   1      45.513  40.954  34.597  1.00  0.00    -0.342 N 
ATOM      9  C   UNL A   1      45.086  41.256  33.329  1.00  0.00     0.225 C 
ATOM     10  O   UNL A   1      45.652  42.102  32.667  1.00  0.00    -0.275 OA
ATOM     11  H   UNL A   1      45.894  41.685  35.136  1.00  0.00     0.164 HD
BRANCH   9  12
ATOM     12  C   UNL A   1      43.807  40.599  32.912  1.00  0.00     0.137 C 
BRANCH  12  13
ATOM     13  C   UNL A   1      43.680  40.077  31.510  1.00  0.00    -0.017 A 
ATOM     14  C   UNL A   1      42.682  42.217  30.512  1.00  0.00     0.065 C 
ATOM     15  C   UNL A   1      43.201  40.818  30.447  1.00  0.00     0.024 A 
ATOM     16  N   UNL A   1      43.173  40.014  29.313  1.00  0.00    -0.314 N 
ATOM     17  C   UNL A   1      43.789  38.742  31.004  1.00  0.00     0.033 A 
ATOM     18  C   UNL A   1      43.600  38.732  29.641  1.00  0.00     0.053 A 
BRANCH  16  19
ATOM     19  C   UNL A   1      42.792  40.432  28.024  1.00  0.00     0.046 A 
ATOM     20  C   UNL A   1      41.490  40.194  27.570  1.00  0.00     0.029 A 
ATOM     21  C   UNL A   1      43.755  41.029  27.204  1.00  0.00     0.029 A 
ATOM     22  C   UNL A   1      41.153  40.564  26.273  1.00  0.00     0.041 A 
ATOM     23  C   UNL A   1      43.409  41.390  25.912  1.00  0.00     0.041 A 
ATOM     24  C   UNL A   1      42.115  41.154  25.459  1.00  0.00     0.123 A 
ATOM     25  F   UNL A   1      41.792  41.496  24.206  1.00  0.00    -0.207 F 
ENDBRANCH  16  19
BRANCH  18  26
ATOM     26  C   UNL A   1      43.979  37.671  28.689  1.00  0.00    -0.001 A 
ATOM     27  C   UNL A   1      42.964  36.874  28.133  1.00  0.00     0.011 A 
ATOM     28  C   UNL A   1      45.302  37.457  28.272  1.00  0.00     0.011 A 
ATOM     29  C   UNL A   1      43.260  35.843  27.241  1.00  0.00     0.021 A 
ATOM     30  C   UNL A   1      45.609  36.416  27.379  1.00  0.00     0.021 A 
ATOM     31  C   UNL A   1      44.585  35.600  26.888  1.00  0.00     0.067 A 
BRANCH  31  32
ATOM     32  S   UNL A   1      44.929  34.254  25.774  1.00  0.00     0.175 S 
ATOM     33  C   UNL A   1      43.492  34.170  24.734  1.00  0.00     0.163 C 
ATOM     34  O   UNL A   1      46.054  34.656  24.963  1.00  0.00    -0.224 OA
ATOM     35  O   UNL A   1      44.967  33.028  26.560  1.00  0.00    -0.224 OA
ENDBRANCH  31  32
ENDBRANCH  18  26
ENDBRANCH  12  13
ENDBRANCH   9  12
ENDBRANCH   7   8
BRANCH   7  36
ATOM     36  C   UNL A   1      44.605  39.777  36.534  1.00  0.00     0.191 C 
BRANCH  36  37
ATOM     37  O   UNL A   1      44.682  38.692  37.439  1.00  0.00    -0.394 OA
ATOM     38  H   UNL A   1      44.028  38.813  38.145  1.00  0.00     0.210 HD
ENDBRANCH  36  37
ENDBRANCH   7  36
ENDBRANCH   4   7
ENDBRANCH   2   3
ENDBRANCH   1   2
BRANCH   1  39
ATOM     39  C   UNL A   1      49.038  38.122  32.279  1.00  0.00     0.002 C 
BRANCH  39  40
ATOM     40  C   UNL A   1      49.326  38.348  30.786  1.00  0.00     0.002 C 
BRANCH  40  41
ATOM     41  C   UNL A   1      48.687  37.433  29.711  1.00  0.00     0.021 C 
BRANCH  41  42
ATOM     42  C   UNL A   1      48.996  35.915  29.646  1.00  0.00     0.116 C 
BRANCH  42  43
ATOM     43  N   UNL A   1      48.934  35.192  30.908  1.00  0.00    -0.352 N 
ATOM     44  C   UNL A   1      47.848  34.629  31.569  1.00  0.00     0.251 C 
ATOM     45  H   UNL A   1      49.798  35.085  31.367  1.00  0.00     0.163 HD
ATOM     46  O   UNL A   1      48.072  33.986  32.596  1.00  0.00    -0.269 OA
BRANCH  44  47
ATOM     47  C   UNL A   1      46.404  34.805  31.152  1.00  0.00     0.039 A 
ATOM     48  C   UNL A   1      45.531  35.446  32.028  1.00  0.00     0.014 A 
ATOM     49  C   UNL A   1      45.806  34.050  30.127  1.00  0.00     0.014 A 
ATOM     50  C   UNL A   1      44.114  35.371  31.853  1.00  0.00     0.010 A 
ATOM     51  C   UNL A   1      44.365  33.929  29.984  1.00  0.00     0.010 A 
ATOM     52  C   UNL A   1      43.461  34.574  30.857  1.00  0.00    -0.014 A 
BRANCH  52  53
ATOM     53  C   UNL A   1      42.028  34.022  31.233  1.00  0.00     0.031 A 
ATOM     54  C   UNL A   1      42.287  33.191  32.448  1.00  0.00     0.074 A 
ATOM     55  C   UNL A   1      40.709  34.032  30.796  1.00  0.00     0.049 A 
ATOM     56  N   UNL A   1      43.139  32.201  32.435  1.00  0.00    -0.248 NA
ATOM     57  C   UNL A   1      41.902  33.662  33.779  1.00  0.00     0.031 C 
ATOM     58  C   UNL A   1      40.162  34.673  29.592  1.00  0.00     0.029 A 
ATOM     59  N   UNL A   1      39.517  33.472  31.346  1.00  0.00    -0.354 N 
ATOM     60  C   UNL A   1      43.183  31.739  33.730  1.00  0.00     0.074 A 
ATOM     61  C   UNL A   1      42.603  32.808  34.528  1.00  0.00     0.031 C 
ATOM     62  C   UNL A   1      38.801  34.583  29.552  1.00  0.00     0.029 A 
ATOM     63  C   UNL A   1      38.290  33.819  30.689  1.00  0.00     0.049 A 
ATOM     64  H   UNL A   1      39.535  32.880  32.133  1.00  0.00     0.167 HD
ATOM     65  C   UNL A   1      43.008  30.397  33.898  1.00  0.00     0.037 A 
ATOM     66  C   UNL A   1      36.973  33.486  30.976  1.00  0.00     0.037 A 
ATOM     67  C   UNL A   1      41.683  30.073  34.346  1.00  0.00     0.049 A 
ATOM     68  C   UNL A   1      36.973  32.319  31.867  1.00  0.00     0.074 A 
ATOM     69  C   UNL A   1      40.868  30.584  35.334  1.00  0.00     0.029 A 
ATOM     70  N   UNL A   1      40.858  29.427  33.450  1.00  0.00    -0.354 N 
ATOM     71  N   UNL A   1      37.138  31.114  31.416  1.00  0.00    -0.248 NA
ATOM     72  C   UNL A   1      36.669  32.418  33.292  1.00  0.00     0.031 C 
ATOM     73  C   UNL A   1      39.594  30.684  34.732  1.00  0.00     0.029 A 
ATOM     74  C   UNL A   1      39.584  29.936  33.561  1.00  0.00     0.049 A 
ATOM     75  H   UNL A   1      41.136  28.715  32.829  1.00  0.00     0.167 HD
ATOM     76  C   UNL A   1      37.490  30.421  32.528  1.00  0.00     0.074 A 
ATOM     77  C   UNL A   1      36.900  31.147  33.635  1.00  0.00     0.031 C 
ATOM     78  C   UNL A   1      38.672  29.765  32.457  1.00  0.00     0.037 A 
BRANCH  65  79
ATOM     79  C   UNL A   1      43.807  29.542  32.967  1.00  0.00     0.064 A 
ATOM     80  C   UNL A   1      44.975  28.939  33.442  1.00  0.00     0.173 A 
ATOM     81  C   UNL A   1      43.502  29.390  31.602  1.00  0.00     0.173 A 
ATOM     82  F   UNL A   1      45.278  28.995  34.749  1.00  0.00    -0.203 F 
ATOM     83  C   UNL A   1      45.833  28.265  32.576  1.00  0.00     0.198 A 
ATOM     84  C   UNL A   1      44.387  28.769  30.730  1.00  0.00     0.198 A 
ATOM     85  F   UNL A   1      42.324  29.814  31.111  1.00  0.00    -0.203 F 
ATOM     86  F   UNL A   1      46.932  27.666  33.056  1.00  0.00    -0.200 F 
ATOM     87  C   UNL A   1      45.557  28.210  31.217  1.00  0.00     0.200 A 
ATOM     88  F   UNL A   1      44.098  28.700  29.423  1.00  0.00    -0.200 F 
ATOM     89  F   UNL A   1      46.402  27.592  30.381  1.00  0.00    -0.200 F 
ENDBRANCH  65  79
BRANCH  66  90
ATOM     90  C   UNL A   1      35.521  33.821  30.595  1.00  0.00     0.064 A 
ATOM     91  C   UNL A   1      34.791  34.836  31.303  1.00  0.00     0.173 A 
ATOM     92  C   UNL A   1      34.994  33.516  29.335  1.00  0.00     0.173 A 
ATOM     93  F   UNL A   1      35.140  35.208  32.542  1.00  0.00    -0.203 F 
ATOM     94  C   UNL A   1      33.731  35.563  30.745  1.00  0.00     0.198 A 
ATOM     95  C   UNL A   1      33.893  34.221  28.792  1.00  0.00     0.198 A 
ATOM     96  F   UNL A   1      35.597  32.602  28.564  1.00  0.00    -0.203 F 
ATOM     97  F   UNL A   1      33.194  36.596  31.415  1.00  0.00    -0.200 F 
ATOM     98  C   UNL A   1      33.289  35.266  29.478  1.00  0.00     0.200 A 
ATOM     99  F   UNL A   1      33.460  33.931  27.556  1.00  0.00    -0.200 F 
ATOM    100  F   UNL A   1      32.319  35.997  28.911  1.00  0.00    -0.200 F 
ENDBRANCH  66  90
BRANCH  78 101
ATOM    101  C   UNL A   1      38.983  29.075  31.135  1.00  0.00     0.064 A 
ATOM    102  C   UNL A   1      39.400  29.695  29.929  1.00  0.00     0.173 A 
ATOM    103  C   UNL A   1      38.744  27.698  31.060  1.00  0.00     0.173 A 
ATOM    104  F   UNL A   1      39.796  30.975  29.886  1.00  0.00    -0.203 F 
ATOM    105  C   UNL A   1      39.450  28.999  28.719  1.00  0.00     0.198 A 
ATOM    106  C   UNL A   1      38.858  26.991  29.861  1.00  0.00     0.198 A 
ATOM    107  F   UNL A   1      38.407  27.017  32.166  1.00  0.00    -0.203 F 
ATOM    108  F   UNL A   1      39.764  29.643  27.584  1.00  0.00    -0.200 F 
ATOM    109  C   UNL A   1      39.178  27.645  28.686  1.00  0.00     0.200 A 
ATOM    110  F   UNL A   1      38.649  25.667  29.853  1.00  0.00    -0.200 F 
ATOM    111  F   UNL A   1      39.244  26.969  27.531  1.00  0.00    -0.200 F 
ENDBRANCH  78 101
ENDBRANCH  52  53
ENDBRANCH  44  47
ENDBRANCH  42  43
ENDBRANCH  41  42
ENDBRANCH  40  41
ENDBRANCH  39  40
ENDBRANCH   1  39
TORSDOF 21
ENDMDL
MODEL 3
REMARK VINA RESULT:      -7.7      1.749      2.817
REMARK SMILES Cc1c(CC(=O)N[C@H](CO)C(=O)NCCCCCCNC(=O)c2ccc(-c3c4nc(c(-c5c(F)c(F)c(F)c(F)c5F)c5ccc([nH]5)c(-c5c(F)c(F)c(F)c(F)c5F)c5nc(c(-c6c(F)c(F)c(F)c(F)c6F)c6ccc3[nH]6)C=C5)C=C4)cc2)cc(-c2ccc(S(C)(=O)=O)cc2)n1-c1ccc(F)cc1
REMARK SMILES IDX 15 1 14 2 13 3 11 4 12 5 8 7 7 8 5 9 6 10 4 12 3 13 1 14
REMARK SMILES IDX 2 15 98 16 86 17 87 18 99 19 100 20 105 21 101 22 104 23
REMARK SMILES IDX 102 24 103 25 88 26 89 27 97 28 90 29 96 30 91 31 92 32
REMARK SMILES IDX 93 33 94 34 95 35 9 36 10 37 16 39 17 40 18 41 19 42 20 43
REMARK SMILES IDX 21 44 22 46 23 47 24 48 85 49 25 50 84 51 26 52 27 53 28 54
REMARK SMILES IDX 78 55 29 56 83 57 77 58 79 59 30 60 82 61 76 62 75 63 31 65
REMARK SMILES IDX 63 66 43 67 62 68 44 69 47 70 61 71 80 72 45 73 46 74 60 76
REMARK SMILES IDX 81 77 48 78 32 79 33 80 41 81 34 82 35 83 39 84 42 85 36 86
REMARK SMILES IDX 37 87 40 88 38 89 64 90 65 91 73 92 66 93 67 94 71 95 74 96
REMARK SMILES IDX 68 97 69 98 72 99 70 100 49 101 50 102 58 103 51 104 52 105
REMARK SMILES IDX 56 106 59 107 53 108 54 109 57 110 55 111
REMARK H PARENT 13 6 7 11 10 38 20 45 79 64 47 75
REMARK Flexibility Score: inf
ROOT
ATOM      1  C   UNL A   1      39.433  34.603  33.331  1.00  0.00     0.021 C 
ENDROOT
BRANCH   1   2
ATOM      2  C   UNL A   1      37.973  34.272  32.900  1.00  0.00     0.116 C 
BRANCH   2   3
ATOM      3  N   UNL A   1      37.758  34.077  31.409  1.00  0.00    -0.354 N 
ATOM      4  C   UNL A   1      36.985  33.660  30.366  1.00  0.00     0.244 C 
ATOM      5  O   UNL A   1      37.547  33.977  29.294  1.00  0.00    -0.273 OA
ATOM      6  H   UNL A   1      38.581  34.418  30.990  1.00  0.00     0.163 HD
BRANCH   4   7
ATOM      7  C   UNL A   1      35.642  32.783  30.187  1.00  0.00     0.197 C 
BRANCH   7   8
ATOM      8  N   UNL A   1      35.229  32.067  28.980  1.00  0.00    -0.342 N 
ATOM      9  C   UNL A   1      35.850  30.950  28.481  1.00  0.00     0.225 C 
ATOM     10  O   UNL A   1      35.902  30.750  27.285  1.00  0.00    -0.275 OA
ATOM     11  H   UNL A   1      34.447  32.412  28.489  1.00  0.00     0.164 HD
BRANCH   9  12
ATOM     12  C   UNL A   1      36.293  29.953  29.507  1.00  0.00     0.137 C 
BRANCH  12  13
ATOM     13  C   UNL A   1      37.664  29.354  29.395  1.00  0.00    -0.017 A 
ATOM     14  C   UNL A   1      38.698  30.674  31.334  1.00  0.00     0.065 C 
ATOM     15  C   UNL A   1      38.718  29.666  30.232  1.00  0.00     0.024 A 
ATOM     16  N   UNL A   1      39.847  28.970  29.815  1.00  0.00    -0.314 N 
ATOM     17  C   UNL A   1      38.248  28.561  28.355  1.00  0.00     0.033 A 
ATOM     18  C   UNL A   1      39.542  28.227  28.680  1.00  0.00     0.053 A 
BRANCH  16  19
ATOM     19  C   UNL A   1      41.102  28.992  30.451  1.00  0.00     0.046 A 
ATOM     20  C   UNL A   1      42.149  29.742  29.903  1.00  0.00     0.029 A 
ATOM     21  C   UNL A   1      41.285  28.208  31.594  1.00  0.00     0.029 A 
ATOM     22  C   UNL A   1      43.395  29.704  30.516  1.00  0.00     0.041 A 
ATOM     23  C   UNL A   1      42.534  28.174  32.195  1.00  0.00     0.041 A 
ATOM     24  C   UNL A   1      43.575  28.919  31.652  1.00  0.00     0.123 A 
ATOM     25  F   UNL A   1      44.780  28.872  32.232  1.00  0.00    -0.207 F 
ENDBRANCH  16  19
BRANCH  18  26
ATOM     26  C   UNL A   1      40.366  27.151  28.096  1.00  0.00    -0.001 A 
ATOM     27  C   UNL A   1      41.094  27.422  26.926  1.00  0.00     0.011 A 
ATOM     28  C   UNL A   1      40.497  25.885  28.689  1.00  0.00     0.011 A 
ATOM     29  C   UNL A   1      41.877  26.441  26.317  1.00  0.00     0.021 A 
ATOM     30  C   UNL A   1      41.279  24.889  28.078  1.00  0.00     0.021 A 
ATOM     31  C   UNL A   1      41.945  25.168  26.881  1.00  0.00     0.067 A 
BRANCH  31  32
ATOM     32  S   UNL A   1      42.926  23.931  26.058  1.00  0.00     0.175 S 
ATOM     33  C   UNL A   1      41.912  22.473  26.098  1.00  0.00     0.163 C 
ATOM     34  O   UNL A   1      43.064  24.350  24.683  1.00  0.00    -0.224 OA
ATOM     35  O   UNL A   1      44.094  23.669  26.886  1.00  0.00    -0.224 OA
ENDBRANCH  31  32
ENDBRANCH  18  26
ENDBRANCH  12  13
ENDBRANCH   9  12
ENDBRANCH   7   8
BRANCH   7  36
ATOM     36  C   UNL A   1      34.324  33.294  30.888  1.00  0.00     0.191 C 
BRANCH  36  37
ATOM     37  O   UNL A   1      34.028  32.713  32.143  1.00  0.00    -0.394 OA
ATOM     38  H   UNL A   1      33.933  31.753  32.040  1.00  0.00     0.210 HD
ENDBRANCH  36  37
ENDBRANCH   7  36
ENDBRANCH   4   7
ENDBRANCH   2   3
ENDBRANCH   1   2
BRANCH   1  39
ATOM     39  C   UNL A   1      39.699  35.321  34.670  1.00  0.00     0.002 C 
BRANCH  39  40
ATOM     40  C   UNL A   1      39.438  34.577  35.991  1.00  0.00     0.002 C 
BRANCH  40  41
ATOM     41  C   UNL A   1      40.218  33.284  36.337  1.00  0.00     0.021 C 
BRANCH  41  42
ATOM     42  C   UNL A   1      39.617  31.878  36.078  1.00  0.00     0.116 C 
BRANCH  42  43
ATOM     43  N   UNL A   1      40.523  30.751  36.247  1.00  0.00    -0.352 N 
ATOM     44  C   UNL A   1      41.755  30.492  35.658  1.00  0.00     0.251 C 
ATOM     45  H   UNL A   1      40.214  30.063  36.880  1.00  0.00     0.163 HD
ATOM     46  O   UNL A   1      42.375  29.497  36.038  1.00  0.00    -0.269 OA
BRANCH  44  47
ATOM     47  C   UNL A   1      42.360  31.310  34.538  1.00  0.00     0.039 A 
ATOM     48  C   UNL A   1      43.423  32.162  34.833  1.00  0.00     0.014 A 
ATOM     49  C   UNL A   1      41.695  31.552  33.322  1.00  0.00     0.014 A 
ATOM     50  C   UNL A   1      43.833  33.183  33.920  1.00  0.00     0.010 A 
ATOM     51  C   UNL A   1      42.079  32.627  32.422  1.00  0.00     0.010 A 
ATOM     52  C   UNL A   1      43.154  33.497  32.697  1.00  0.00    -0.014 A 
BRANCH  52  53
ATOM     53  C   UNL A   1      43.237  35.003  32.221  1.00  0.00     0.031 A 
ATOM     54  C   UNL A   1      42.859  34.928  30.777  1.00  0.00     0.074 A 
ATOM     55  C   UNL A   1      43.570  36.272  32.678  1.00  0.00     0.049 A 
ATOM     56  N   UNL A   1      43.510  34.173  29.933  1.00  0.00    -0.248 NA
ATOM     57  C   UNL A   1      41.546  35.383  30.318  1.00  0.00     0.031 C 
ATOM     58  C   UNL A   1      44.066  36.651  34.008  1.00  0.00     0.029 A 
ATOM     59  N   UNL A   1      43.525  37.554  32.052  1.00  0.00    -0.354 N 
ATOM     60  C   UNL A   1      42.831  34.285  28.742  1.00  0.00     0.074 A 
ATOM     61  C   UNL A   1      41.532  34.831  29.102  1.00  0.00     0.031 C 
ATOM     62  C   UNL A   1      44.163  38.006  34.139  1.00  0.00     0.029 A 
ATOM     63  C   UNL A   1      43.803  38.682  32.894  1.00  0.00     0.049 A 
ATOM     64  H   UNL A   1      43.316  37.659  31.096  1.00  0.00     0.167 HD
ATOM     65  C   UNL A   1      43.581  34.596  27.646  1.00  0.00     0.037 A 
ATOM     66  C   UNL A   1      43.811  40.044  32.625  1.00  0.00     0.037 A 
ATOM     67  C   UNL A   1      43.462  35.981  27.281  1.00  0.00     0.049 A 
ATOM     68  C   UNL A   1      43.899  40.229  31.170  1.00  0.00     0.074 A 
ATOM     69  C   UNL A   1      42.384  36.827  27.129  1.00  0.00     0.029 A 
ATOM     70  N   UNL A   1      44.567  36.780  27.480  1.00  0.00    -0.354 N 
ATOM     71  N   UNL A   1      45.026  40.137  30.536  1.00  0.00    -0.248 NA
ATOM     72  C   UNL A   1      42.757  40.646  30.361  1.00  0.00     0.031 C 
ATOM     73  C   UNL A   1      42.782  38.029  27.755  1.00  0.00     0.029 A 
ATOM     74  C   UNL A   1      44.158  38.007  27.952  1.00  0.00     0.049 A 
ATOM     75  H   UNL A   1      45.500  36.516  27.312  1.00  0.00     0.167 HD
ATOM     76  C   UNL A   1      44.634  39.949  29.251  1.00  0.00     0.074 A 
ATOM     77  C   UNL A   1      43.326  40.563  29.155  1.00  0.00     0.031 C 
ATOM     78  C   UNL A   1      45.110  38.831  28.654  1.00  0.00     0.037 A 
BRANCH  65  79
ATOM     79  C   UNL A   1      44.840  33.802  27.506  1.00  0.00     0.064 A 
ATOM     80  C   UNL A   1      44.851  32.708  26.636  1.00  0.00     0.173 A 
ATOM     81  C   UNL A   1      45.992  34.034  28.279  1.00  0.00     0.173 A 
ATOM     82  F   UNL A   1      43.806  32.481  25.825  1.00  0.00    -0.203 F 
ATOM     83  C   UNL A   1      45.945  31.846  26.587  1.00  0.00     0.198 A 
ATOM     84  C   UNL A   1      47.057  33.142  28.272  1.00  0.00     0.198 A 
ATOM     85  F   UNL A   1      46.107  35.149  29.022  1.00  0.00    -0.203 F 
ATOM     86  F   UNL A   1      45.950  30.821  25.724  1.00  0.00    -0.200 F 
ATOM     87  C   UNL A   1      47.031  32.043  27.429  1.00  0.00     0.200 A 
ATOM     88  F   UNL A   1      48.112  33.355  29.072  1.00  0.00    -0.200 F 
ATOM     89  F   UNL A   1      48.066  31.193  27.407  1.00  0.00    -0.200 F 
ENDBRANCH  65  79
BRANCH  66  90
ATOM     90  C   UNL A   1      43.889  41.420  33.307  1.00  0.00     0.064 A 
ATOM     91  C   UNL A   1      45.126  42.150  33.349  1.00  0.00     0.173 A 
ATOM     92  C   UNL A   1      42.754  42.213  33.512  1.00  0.00     0.173 A 
ATOM     93  F   UNL A   1      46.306  41.528  33.218  1.00  0.00    -0.203 F 
ATOM     94  C   UNL A   1      45.203  43.546  33.449  1.00  0.00     0.198 A 
ATOM     95  C   UNL A   1      42.838  43.619  33.659  1.00  0.00     0.198 A 
ATOM     96  F   UNL A   1      41.537  41.656  33.473  1.00  0.00    -0.203 F 
ATOM     97  F   UNL A   1      46.389  44.167  33.335  1.00  0.00    -0.200 F 
ATOM     98  C   UNL A   1      44.053  44.286  33.588  1.00  0.00     0.200 A 
ATOM     99  F   UNL A   1      41.717  44.342  33.796  1.00  0.00    -0.200 F 
ATOM    100  F   UNL A   1      44.110  45.625  33.620  1.00  0.00    -0.200 F 
ENDBRANCH  66  90
BRANCH  78 101
ATOM    101  C   UNL A   1      46.560  38.470  28.952  1.00  0.00     0.064 A 
ATOM    102  C   UNL A   1      47.051  37.801  30.101  1.00  0.00     0.173 A 
ATOM    103  C   UNL A   1      47.531  38.927  28.052  1.00  0.00     0.173 A 
ATOM    104  F   UNL A   1      46.236  37.192  30.974  1.00  0.00    -0.203 F 
ATOM    105  C   UNL A   1      48.418  37.712  30.377  1.00  0.00     0.198 A 
ATOM    106  C   UNL A   1      48.897  38.780  28.299  1.00  0.00     0.198 A 
ATOM    107  F   UNL A   1      47.155  39.516  26.906  1.00  0.00    -0.203 F 
ATOM    108  F   UNL A   1      48.839  37.148  31.520  1.00  0.00    -0.200 F 
ATOM    109  C   UNL A   1      49.341  38.203  29.475  1.00  0.00     0.200 A 
ATOM    110  F   UNL A   1      49.783  39.206  27.388  1.00  0.00    -0.200 F 
ATOM    111  F   UNL A   1      50.654  38.101  29.726  1.00  0.00    -0.200 F 
ENDBRANCH  78 101
ENDBRANCH  52  53
ENDBRANCH  44  47
ENDBRANCH  42  43
ENDBRANCH  41  42
ENDBRANCH  40  41
ENDBRANCH  39  40
ENDBRANCH   1  39
TORSDOF 21
ENDMDL
