MODEL 1
REMARK VINA RESULT:     -12.1      0.000      0.000
REMARK SMILES CO[C@@H]1C[C@@H](C(=O)NCCCCCCNC(=O)c2ccc(-c3c4nc(c(-c5c(F)c(F)c(F)c(F)c5F)c5ccc([nH]5)c(-c5c(F)c(F)c(F)c(F)c5F)c5nc(c(-c6c(F)c(F)c(F)c(F)c6F)c6ccc3[nH]6)C=C5)C=C4)cc2)N(S(=O)(=O)/C=C/c2ccccc2)C1
REMARK SMILES IDX 11 1 10 2 9 3 8 4 6 5 7 6 5 8 3 9 4 10 93 11 81 12 2 13 1 14
REMARK SMILES IDX 82 15 83 16 84 17 85 18 86 19 87 20 88 21 92 22 89 23 91 24
REMARK SMILES IDX 90 25 12 26 13 27 14 28 15 29 16 30 17 32 18 33 19 34 80 35
REMARK SMILES IDX 20 36 79 37 21 38 22 39 23 40 73 41 24 42 78 43 72 44 74 45
REMARK SMILES IDX 25 46 77 47 71 48 70 49 26 51 58 52 38 53 57 54 39 55 42 56
REMARK SMILES IDX 56 57 75 58 40 59 41 60 55 62 76 63 43 64 27 65 28 66 36 67
REMARK SMILES IDX 29 68 30 69 34 70 37 71 31 72 32 73 35 74 33 75 59 76 60 77
REMARK SMILES IDX 68 78 61 79 62 80 66 81 69 82 63 83 64 84 67 85 65 86 44 87
REMARK SMILES IDX 45 88 53 89 46 90 47 91 51 92 54 93 48 94 49 95 52 96 50 97
REMARK H PARENT 8 7 15 31 74 50 42 61
REMARK Flexibility Score: inf
ROOT
ATOM      1  C   UNL A   1      32.568  29.982  26.211  1.00  0.00     0.002 C 
ENDROOT
BRANCH   1   2
ATOM      2  C   UNL A   1      32.300  28.888  27.254  1.00  0.00     0.021 C 
BRANCH   2   3
ATOM      3  C   UNL A   1      32.747  27.502  26.815  1.00  0.00     0.116 C 
BRANCH   3   4
ATOM      4  N   UNL A   1      31.638  26.743  26.302  1.00  0.00    -0.355 N 
ATOM      5  C   UNL A   1      31.528  25.586  25.629  1.00  0.00     0.238 C 
ATOM      6  O   UNL A   1      30.362  25.195  25.525  1.00  0.00    -0.273 OA
ATOM      7  H   UNL A   1      30.767  27.166  26.486  1.00  0.00     0.163 HD
BRANCH   5   8
ATOM      8  C   UNL A   1      32.668  24.691  25.183  1.00  0.00     0.165 C 
ATOM      9  C   UNL A   1      34.854  23.742  25.059  1.00  0.00     0.135 C 
ATOM     10  C   UNL A   1      34.016  24.701  25.891  1.00  0.00     0.064 C 
ATOM     11  C   UNL A   1      34.292  23.842  23.635  1.00  0.00     0.135 C 
ATOM     12  N   UNL A   1      33.027  24.673  23.717  1.00  0.00    -0.183 NA
BRANCH   9  13
ATOM     13  O   UNL A   1      34.912  22.411  25.592  1.00  0.00    -0.380 OA
ATOM     14  C   UNL A   1      34.892  21.318  24.687  1.00  0.00     0.195 C 
ENDBRANCH   9  13
BRANCH  12  15
ATOM     15  S   UNL A   1      33.191  26.181  22.897  1.00  0.00     0.237 S 
ATOM     16  O   UNL A   1      33.930  27.034  23.807  1.00  0.00    -0.207 OA
ATOM     17  O   UNL A   1      33.771  25.864  21.604  1.00  0.00    -0.207 OA
BRANCH  15  18
ATOM     18  C   UNL A   1      31.662  26.918  22.593  1.00  0.00     0.123 C 
ATOM     19  C   UNL A   1      31.353  28.129  23.081  1.00  0.00     0.021 C 
BRANCH  19  20
ATOM     20  C   UNL A   1      30.079  28.760  22.717  1.00  0.00    -0.025 A 
ATOM     21  C   UNL A   1      28.878  28.252  23.229  1.00  0.00     0.008 A 
ATOM     22  C   UNL A   1      30.042  29.898  21.909  1.00  0.00     0.008 A 
ATOM     23  C   UNL A   1      27.662  28.885  22.964  1.00  0.00     0.001 A 
ATOM     24  C   UNL A   1      28.823  30.523  21.628  1.00  0.00     0.001 A 
ATOM     25  C   UNL A   1      27.636  30.021  22.162  1.00  0.00     0.000 A 
ENDBRANCH  19  20
ENDBRANCH  15  18
ENDBRANCH  12  15
ENDBRANCH   5   8
ENDBRANCH   3   4
ENDBRANCH   2   3
ENDBRANCH   1   2
BRANCH   1  26
ATOM     26  C   UNL A   1      31.345  30.810  25.794  1.00  0.00     0.002 C 
BRANCH  26  27
ATOM     27  C   UNL A   1      31.215  32.172  26.477  1.00  0.00     0.021 C 
BRANCH  27  28
ATOM     28  C   UNL A   1      32.495  32.671  27.125  1.00  0.00     0.116 C 
BRANCH  28  29
ATOM     29  N   UNL A   1      32.381  34.053  27.548  1.00  0.00    -0.352 N 
ATOM     30  C   UNL A   1      33.069  34.695  28.544  1.00  0.00     0.251 C 
ATOM     31  H   UNL A   1      31.725  34.599  27.058  1.00  0.00     0.163 HD
ATOM     32  O   UNL A   1      32.719  35.807  28.926  1.00  0.00    -0.269 OA
BRANCH  30  33
ATOM     33  C   UNL A   1      34.230  34.028  29.168  1.00  0.00     0.039 A 
ATOM     34  C   UNL A   1      35.513  34.377  28.745  1.00  0.00     0.014 A 
ATOM     35  C   UNL A   1      34.051  33.055  30.157  1.00  0.00     0.014 A 
ATOM     36  C   UNL A   1      36.621  33.764  29.329  1.00  0.00     0.010 A 
ATOM     37  C   UNL A   1      35.157  32.505  30.795  1.00  0.00     0.010 A 
ATOM     38  C   UNL A   1      36.451  32.832  30.366  1.00  0.00    -0.014 A 
BRANCH  38  39
ATOM     39  C   UNL A   1      37.619  32.151  30.973  1.00  0.00     0.031 A 
ATOM     40  C   UNL A   1      38.086  32.544  32.346  1.00  0.00     0.074 A 
ATOM     41  C   UNL A   1      38.282  31.212  30.273  1.00  0.00     0.049 A 
ATOM     42  N   UNL A   1      39.096  32.085  33.042  1.00  0.00    -0.248 NA
ATOM     43  C   UNL A   1      37.338  33.621  33.015  1.00  0.00     0.031 C 
ATOM     44  C   UNL A   1      37.962  30.794  28.908  1.00  0.00     0.029 A 
ATOM     45  N   UNL A   1      39.368  30.446  30.612  1.00  0.00    -0.354 N 
ATOM     46  C   UNL A   1      39.107  32.823  34.219  1.00  0.00     0.074 A 
ATOM     47  C   UNL A   1      38.052  33.806  34.113  1.00  0.00     0.031 C 
ATOM     48  C   UNL A   1      38.821  29.833  28.532  1.00  0.00     0.029 A 
ATOM     49  C   UNL A   1      39.765  29.587  29.618  1.00  0.00     0.049 A 
ATOM     50  H   UNL A   1      39.819  30.506  31.486  1.00  0.00     0.167 HD
ATOM     51  C   UNL A   1      39.906  32.675  35.303  1.00  0.00     0.037 A 
ATOM     52  C   UNL A   1      40.779  28.702  29.589  1.00  0.00     0.037 A 
ATOM     53  C   UNL A   1      40.941  31.681  35.408  1.00  0.00     0.049 A 
ATOM     54  C   UNL A   1      41.637  28.533  30.813  1.00  0.00     0.074 A 
ATOM     55  C   UNL A   1      41.769  31.405  36.480  1.00  0.00     0.029 A 
ATOM     56  N   UNL A   1      41.291  30.800  34.395  1.00  0.00    -0.354 N 
ATOM     57  N   UNL A   1      41.590  29.181  31.951  1.00  0.00    -0.248 NA
ATOM     58  C   UNL A   1      42.678  27.499  30.753  1.00  0.00     0.031 C 
ATOM     59  C   UNL A   1      42.651  30.386  36.100  1.00  0.00     0.029 A 
ATOM     60  C   UNL A   1      42.337  29.991  34.809  1.00  0.00     0.049 A 
ATOM     61  H   UNL A   1      40.859  30.756  33.511  1.00  0.00     0.167 HD
ATOM     62  C   UNL A   1      42.577  28.621  32.751  1.00  0.00     0.074 A 
ATOM     63  C   UNL A   1      43.194  27.567  31.972  1.00  0.00     0.031 C 
ATOM     64  C   UNL A   1      42.940  28.950  34.017  1.00  0.00     0.037 A 
BRANCH  51  65
ATOM     65  C   UNL A   1      39.682  33.612  36.455  1.00  0.00     0.064 A 
ATOM     66  C   UNL A   1      40.314  34.866  36.520  1.00  0.00     0.173 A 
ATOM     67  C   UNL A   1      38.829  33.258  37.511  1.00  0.00     0.173 A 
ATOM     68  F   UNL A   1      41.151  35.251  35.544  1.00  0.00    -0.203 F 
ATOM     69  C   UNL A   1      40.137  35.704  37.617  1.00  0.00     0.198 A 
ATOM     70  C   UNL A   1      38.626  34.114  38.590  1.00  0.00     0.198 A 
ATOM     71  F   UNL A   1      38.194  32.075  37.499  1.00  0.00    -0.203 F 
ATOM     72  F   UNL A   1      40.807  36.863  37.687  1.00  0.00    -0.200 F 
ATOM     73  C   UNL A   1      39.290  35.330  38.648  1.00  0.00     0.200 A 
ATOM     74  F   UNL A   1      37.797  33.756  39.581  1.00  0.00    -0.200 F 
ATOM     75  F   UNL A   1      39.122  36.137  39.706  1.00  0.00    -0.200 F 
ENDBRANCH  51  65
BRANCH  52  76
ATOM     76  C   UNL A   1      41.003  27.888  28.368  1.00  0.00     0.064 A 
ATOM     77  C   UNL A   1      41.864  28.326  27.353  1.00  0.00     0.173 A 
ATOM     78  C   UNL A   1      40.384  26.640  28.204  1.00  0.00     0.173 A 
ATOM     79  F   UNL A   1      42.467  29.521  27.457  1.00  0.00    -0.203 F 
ATOM     80  C   UNL A   1      42.088  27.555  26.215  1.00  0.00     0.198 A 
ATOM     81  C   UNL A   1      40.629  25.856  27.079  1.00  0.00     0.198 A 
ATOM     82  F   UNL A   1      39.559  26.171  29.151  1.00  0.00    -0.203 F 
ATOM     83  F   UNL A   1      42.890  28.014  25.244  1.00  0.00    -0.200 F 
ATOM     84  C   UNL A   1      41.477  26.317  26.082  1.00  0.00     0.200 A 
ATOM     85  F   UNL A   1      40.050  24.654  26.963  1.00  0.00    -0.200 F 
ATOM     86  F   UNL A   1      41.701  25.570  24.993  1.00  0.00    -0.200 F 
ENDBRANCH  52  76
BRANCH  64  87
ATOM     87  C   UNL A   1      44.040  28.143  34.644  1.00  0.00     0.064 A 
ATOM     88  C   UNL A   1      45.369  28.590  34.652  1.00  0.00     0.173 A 
ATOM     89  C   UNL A   1      43.753  26.923  35.275  1.00  0.00     0.173 A 
ATOM     90  F   UNL A   1      45.697  29.744  34.051  1.00  0.00    -0.203 F 
ATOM     91  C   UNL A   1      46.375  27.831  35.244  1.00  0.00     0.198 A 
ATOM     92  C   UNL A   1      44.757  26.181  35.892  1.00  0.00     0.198 A 
ATOM     93  F   UNL A   1      42.497  26.453  35.301  1.00  0.00    -0.203 F 
ATOM     94  F   UNL A   1      47.646  28.254  35.194  1.00  0.00    -0.200 F 
ATOM     95  C   UNL A   1      46.068  26.632  35.868  1.00  0.00     0.200 A 
ATOM     96  F   UNL A   1      44.456  25.029  36.507  1.00  0.00    -0.200 F 
ATOM     97  F   UNL A   1      47.038  25.905  36.441  1.00  0.00    -0.200 F 
ENDBRANCH  64  87
ENDBRANCH  38  39
ENDBRANCH  30  33
ENDBRANCH  28  29
ENDBRANCH  27  28
ENDBRANCH  26  27
ENDBRANCH   1  26
TORSDOF 17
ENDMDL
MODEL 2
REMARK VINA RESULT:     -12.1      1.206      7.940
REMARK SMILES CO[C@@H]1C[C@@H](C(=O)NCCCCCCNC(=O)c2ccc(-c3c4nc(c(-c5c(F)c(F)c(F)c(F)c5F)c5ccc([nH]5)c(-c5c(F)c(F)c(F)c(F)c5F)c5nc(c(-c6c(F)c(F)c(F)c(F)c6F)c6ccc3[nH]6)C=C5)C=C4)cc2)N(S(=O)(=O)/C=C/c2ccccc2)C1
REMARK SMILES IDX 11 1 10 2 9 3 8 4 6 5 7 6 5 8 3 9 4 10 93 11 81 12 2 13 1 14
REMARK SMILES IDX 82 15 83 16 84 17 85 18 86 19 87 20 88 21 92 22 89 23 91 24
REMARK SMILES IDX 90 25 12 26 13 27 14 28 15 29 16 30 17 32 18 33 19 34 80 35
REMARK SMILES IDX 20 36 79 37 21 38 22 39 23 40 73 41 24 42 78 43 72 44 74 45
REMARK SMILES IDX 25 46 77 47 71 48 70 49 26 51 58 52 38 53 57 54 39 55 42 56
REMARK SMILES IDX 56 57 75 58 40 59 41 60 55 62 76 63 43 64 27 65 28 66 36 67
REMARK SMILES IDX 29 68 30 69 34 70 37 71 31 72 32 73 35 74 33 75 59 76 60 77
REMARK SMILES IDX 68 78 61 79 62 80 66 81 69 82 63 83 64 84 67 85 65 86 44 87
REMARK SMILES IDX 45 88 53 89 46 90 47 91 51 92 54 93 48 94 49 95 52 96 50 97
REMARK H PARENT 8 7 15 31 74 50 42 61
REMARK Flexibility Score: inf
ROOT
ATOM      1  C   UNL A   1      32.406  29.987  26.912  1.00  0.00     0.002 C 
ENDROOT
BRANCH   1   2
ATOM      2  C   UNL A   1      31.872  28.653  27.452  1.00  0.00     0.021 C 
BRANCH   2   3
ATOM      3  C   UNL A   1      32.576  27.434  26.876  1.00  0.00     0.116 C 
BRANCH   3   4
ATOM      4  N   UNL A   1      31.625  26.496  26.343  1.00  0.00    -0.355 N 
ATOM      5  C   UNL A   1      30.798  26.501  25.285  1.00  0.00     0.238 C 
ATOM      6  O   UNL A   1      30.262  25.408  25.083  1.00  0.00    -0.273 OA
ATOM      7  H   UNL A   1      31.568  25.666  26.871  1.00  0.00     0.163 HD
BRANCH   5   8
ATOM      8  C   UNL A   1      30.633  27.621  24.277  1.00  0.00     0.165 C 
ATOM      9  C   UNL A   1      29.705  28.922  22.503  1.00  0.00     0.135 C 
ATOM     10  C   UNL A   1      29.392  27.735  23.402  1.00  0.00     0.064 C 
ATOM     11  C   UNL A   1      31.233  28.926  22.354  1.00  0.00     0.135 C 
ATOM     12  N   UNL A   1      31.774  27.897  23.327  1.00  0.00    -0.183 NA
BRANCH   9  13
ATOM     13  O   UNL A   1      29.141  30.159  22.960  1.00  0.00    -0.380 OA
ATOM     14  C   UNL A   1      28.042  30.707  22.246  1.00  0.00     0.195 C 
ENDBRANCH   9  13
BRANCH  12  15
ATOM     15  S   UNL A   1      32.501  26.562  22.514  1.00  0.00     0.237 S 
ATOM     16  O   UNL A   1      31.407  25.671  22.182  1.00  0.00    -0.207 OA
ATOM     17  O   UNL A   1      33.288  27.138  21.439  1.00  0.00    -0.207 OA
BRANCH  15  18
ATOM     18  C   UNL A   1      33.597  25.707  23.535  1.00  0.00     0.123 C 
ATOM     19  C   UNL A   1      34.158  24.549  23.155  1.00  0.00     0.021 C 
BRANCH  19  20
ATOM     20  C   UNL A   1      35.159  23.905  24.013  1.00  0.00    -0.025 A 
ATOM     21  C   UNL A   1      36.014  22.932  23.479  1.00  0.00     0.008 A 
ATOM     22  C   UNL A   1      35.317  24.285  25.348  1.00  0.00     0.008 A 
ATOM     23  C   UNL A   1      37.028  22.367  24.254  1.00  0.00     0.001 A 
ATOM     24  C   UNL A   1      36.321  23.706  26.130  1.00  0.00     0.001 A 
ATOM     25  C   UNL A   1      37.180  22.754  25.581  1.00  0.00     0.000 A 
ENDBRANCH  19  20
ENDBRANCH  15  18
ENDBRANCH  12  15
ENDBRANCH   5   8
ENDBRANCH   3   4
ENDBRANCH   2   3
ENDBRANCH   1   2
BRANCH   1  26
ATOM     26  C   UNL A   1      31.403  30.820  26.102  1.00  0.00     0.002 C 
BRANCH  26  27
ATOM     27  C   UNL A   1      31.306  32.293  26.500  1.00  0.00     0.021 C 
BRANCH  27  28
ATOM     28  C   UNL A   1      32.516  32.818  27.252  1.00  0.00     0.116 C 
BRANCH  28  29
ATOM     29  N   UNL A   1      32.357  34.211  27.624  1.00  0.00    -0.352 N 
ATOM     30  C   UNL A   1      32.967  34.893  28.644  1.00  0.00     0.251 C 
ATOM     31  H   UNL A   1      31.729  34.733  27.074  1.00  0.00     0.163 HD
ATOM     32  O   UNL A   1      32.579  36.010  28.966  1.00  0.00    -0.269 OA
BRANCH  30  33
ATOM     33  C   UNL A   1      34.091  34.261  29.366  1.00  0.00     0.039 A 
ATOM     34  C   UNL A   1      35.392  34.492  28.918  1.00  0.00     0.014 A 
ATOM     35  C   UNL A   1      33.859  33.436  30.471  1.00  0.00     0.014 A 
ATOM     36  C   UNL A   1      36.465  33.911  29.592  1.00  0.00     0.010 A 
ATOM     37  C   UNL A   1      34.933  32.924  31.190  1.00  0.00     0.010 A 
ATOM     38  C   UNL A   1      36.244  33.133  30.740  1.00  0.00    -0.014 A 
BRANCH  38  39
ATOM     39  C   UNL A   1      37.374  32.485  31.447  1.00  0.00     0.031 A 
ATOM     40  C   UNL A   1      38.097  31.333  30.808  1.00  0.00     0.074 A 
ATOM     41  C   UNL A   1      37.721  32.906  32.678  1.00  0.00     0.049 A 
ATOM     42  N   UNL A   1      39.094  30.621  31.268  1.00  0.00    -0.248 NA
ATOM     43  C   UNL A   1      37.613  30.902  29.486  1.00  0.00     0.031 C 
ATOM     44  C   UNL A   1      37.052  33.970  33.426  1.00  0.00     0.029 A 
ATOM     45  N   UNL A   1      38.718  32.482  33.518  1.00  0.00    -0.354 N 
ATOM     46  C   UNL A   1      39.346  29.656  30.301  1.00  0.00     0.074 A 
ATOM     47  C   UNL A   1      38.354  29.829  29.263  1.00  0.00     0.031 C 
ATOM     48  C   UNL A   1      37.669  34.129  34.608  1.00  0.00     0.029 A 
ATOM     49  C   UNL A   1      38.757  33.162  34.710  1.00  0.00     0.049 A 
ATOM     50  H   UNL A   1      39.346  31.758  33.289  1.00  0.00     0.167 HD
ATOM     51  C   UNL A   1      40.334  28.731  30.265  1.00  0.00     0.037 A 
ATOM     52  C   UNL A   1      39.581  33.019  35.764  1.00  0.00     0.037 A 
ATOM     53  C   UNL A   1      41.330  28.579  31.293  1.00  0.00     0.049 A 
ATOM     54  C   UNL A   1      40.689  32.003  35.695  1.00  0.00     0.074 A 
ATOM     55  C   UNL A   1      42.408  27.715  31.332  1.00  0.00     0.029 A 
ATOM     56  N   UNL A   1      41.363  29.313  32.471  1.00  0.00    -0.354 N 
ATOM     57  N   UNL A   1      40.968  31.149  34.741  1.00  0.00    -0.248 NA
ATOM     58  C   UNL A   1      41.605  31.944  36.841  1.00  0.00     0.031 C 
ATOM     59  C   UNL A   1      43.068  27.894  32.553  1.00  0.00     0.029 A 
ATOM     60  C   UNL A   1      42.433  28.908  33.252  1.00  0.00     0.049 A 
ATOM     61  H   UNL A   1      40.721  30.018  32.714  1.00  0.00     0.167 HD
ATOM     62  C   UNL A   1      42.103  30.467  35.158  1.00  0.00     0.074 A 
ATOM     63  C   UNL A   1      42.470  31.020  36.446  1.00  0.00     0.031 C 
ATOM     64  C   UNL A   1      42.779  29.470  34.533  1.00  0.00     0.037 A 
BRANCH  51  65
ATOM     65  C   UNL A   1      40.377  27.817  29.074  1.00  0.00     0.064 A 
ATOM     66  C   UNL A   1      41.141  28.126  27.935  1.00  0.00     0.173 A 
ATOM     67  C   UNL A   1      39.646  26.620  29.063  1.00  0.00     0.173 A 
ATOM     68  F   UNL A   1      41.849  29.264  27.885  1.00  0.00    -0.203 F 
ATOM     69  C   UNL A   1      41.133  27.295  26.818  1.00  0.00     0.198 A 
ATOM     70  C   UNL A   1      39.669  25.774  27.957  1.00  0.00     0.198 A 
ATOM     71  F   UNL A   1      38.903  26.272  30.125  1.00  0.00    -0.203 F 
ATOM     72  F   UNL A   1      41.814  27.647  25.719  1.00  0.00    -0.200 F 
ATOM     73  C   UNL A   1      40.401  26.118  26.832  1.00  0.00     0.200 A 
ATOM     74  F   UNL A   1      38.970  24.630  27.977  1.00  0.00    -0.200 F 
ATOM     75  F   UNL A   1      40.392  25.320  25.755  1.00  0.00    -0.200 F 
ENDBRANCH  51  65
BRANCH  52  76
ATOM     76  C   UNL A   1      39.403  33.889  36.955  1.00  0.00     0.064 A 
ATOM     77  C   UNL A   1      38.685  33.448  38.073  1.00  0.00     0.173 A 
ATOM     78  C   UNL A   1      39.973  35.169  37.009  1.00  0.00     0.173 A 
ATOM     79  F   UNL A   1      38.107  32.236  38.063  1.00  0.00    -0.203 F 
ATOM     80  C   UNL A   1      38.531  34.257  39.196  1.00  0.00     0.198 A 
ATOM     81  C   UNL A   1      39.843  35.969  38.142  1.00  0.00     0.198 A 
ATOM     82  F   UNL A   1      40.678  35.634  35.967  1.00  0.00    -0.203 F 
ATOM     83  F   UNL A   1      37.811  33.823  40.240  1.00  0.00    -0.200 F 
ATOM     84  C   UNL A   1      39.117  35.514  39.234  1.00  0.00     0.200 A 
ATOM     85  F   UNL A   1      40.425  37.175  38.180  1.00  0.00    -0.200 F 
ATOM     86  F   UNL A   1      38.980  36.288  40.318  1.00  0.00    -0.200 F 
ENDBRANCH  52  76
BRANCH  64  87
ATOM     87  C   UNL A   1      43.999  28.934  35.224  1.00  0.00     0.064 A 
ATOM     88  C   UNL A   1      45.274  29.469  34.988  1.00  0.00     0.173 A 
ATOM     89  C   UNL A   1      43.885  27.896  36.161  1.00  0.00     0.173 A 
ATOM     90  F   UNL A   1      45.438  30.454  34.092  1.00  0.00    -0.203 F 
ATOM     91  C   UNL A   1      46.394  28.963  35.643  1.00  0.00     0.198 A 
ATOM     92  C   UNL A   1      45.003  27.413  36.836  1.00  0.00     0.198 A 
ATOM     93  F   UNL A   1      42.688  27.354  36.428  1.00  0.00    -0.203 F 
ATOM     94  F   UNL A   1      47.609  29.454  35.363  1.00  0.00    -0.200 F 
ATOM     95  C   UNL A   1      46.257  27.941  36.570  1.00  0.00     0.200 A 
ATOM     96  F   UNL A   1      44.867  26.435  37.743  1.00  0.00    -0.200 F 
ATOM     97  F   UNL A   1      47.336  27.459  37.202  1.00  0.00    -0.200 F 
ENDBRANCH  64  87
ENDBRANCH  38  39
ENDBRANCH  30  33
ENDBRANCH  28  29
ENDBRANCH  27  28
ENDBRANCH  26  27
ENDBRANCH   1  26
TORSDOF 17
ENDMDL
MODEL 3
REMARK VINA RESULT:     -12.1      0.759      2.157
REMARK SMILES CO[C@@H]1C[C@@H](C(=O)NCCCCCCNC(=O)c2ccc(-c3c4nc(c(-c5c(F)c(F)c(F)c(F)c5F)c5ccc([nH]5)c(-c5c(F)c(F)c(F)c(F)c5F)c5nc(c(-c6c(F)c(F)c(F)c(F)c6F)c6ccc3[nH]6)C=C5)C=C4)cc2)N(S(=O)(=O)/C=C/c2ccccc2)C1
REMARK SMILES IDX 11 1 10 2 9 3 8 4 6 5 7 6 5 8 3 9 4 10 93 11 81 12 2 13 1 14
REMARK SMILES IDX 82 15 83 16 84 17 85 18 86 19 87 20 88 21 92 22 89 23 91 24
REMARK SMILES IDX 90 25 12 26 13 27 14 28 15 29 16 30 17 32 18 33 19 34 80 35
REMARK SMILES IDX 20 36 79 37 21 38 22 39 23 40 73 41 24 42 78 43 72 44 74 45
REMARK SMILES IDX 25 46 77 47 71 48 70 49 26 51 58 52 38 53 57 54 39 55 42 56
REMARK SMILES IDX 56 57 75 58 40 59 41 60 55 62 76 63 43 64 27 65 28 66 36 67
REMARK SMILES IDX 29 68 30 69 34 70 37 71 31 72 32 73 35 74 33 75 59 76 60 77
REMARK SMILES IDX 68 78 61 79 62 80 66 81 69 82 63 83 64 84 67 85 65 86 44 87
REMARK SMILES IDX 45 88 53 89 46 90 47 91 51 92 54 93 48 94 49 95 52 96 50 97
REMARK H PARENT 8 7 15 31 74 50 42 61
REMARK Flexibility Score: inf
ROOT
ATOM      1  C   UNL A   1      32.328  29.932  26.890  1.00  0.00     0.002 C 
ENDROOT
BRANCH   1   2
ATOM      2  C   UNL A   1      31.637  28.750  27.583  1.00  0.00     0.021 C 
BRANCH   2   3
ATOM      3  C   UNL A   1      31.820  27.424  26.860  1.00  0.00     0.116 C 
BRANCH   3   4
ATOM      4  N   UNL A   1      32.743  27.560  25.765  1.00  0.00    -0.355 N 
ATOM      5  C   UNL A   1      33.467  26.693  25.038  1.00  0.00     0.238 C 
ATOM      6  O   UNL A   1      34.013  27.216  24.063  1.00  0.00    -0.273 OA
ATOM      7  H   UNL A   1      32.873  28.497  25.488  1.00  0.00     0.163 HD
BRANCH   5   8
ATOM      8  C   UNL A   1      33.505  25.187  25.209  1.00  0.00     0.165 C 
ATOM      9  C   UNL A   1      34.186  22.916  24.930  1.00  0.00     0.135 C 
ATOM     10  C   UNL A   1      34.602  24.338  24.582  1.00  0.00     0.064 C 
ATOM     11  C   UNL A   1      32.654  22.952  25.017  1.00  0.00     0.135 C 
ATOM     12  N   UNL A   1      32.241  24.408  24.936  1.00  0.00    -0.183 NA
BRANCH   9  13
ATOM     13  O   UNL A   1      34.844  22.388  26.090  1.00  0.00    -0.380 OA
ATOM     14  C   UNL A   1      34.045  21.903  27.159  1.00  0.00     0.195 C 
ENDBRANCH   9  13
BRANCH  12  15
ATOM     15  S   UNL A   1      31.366  24.751  23.491  1.00  0.00     0.237 S 
ATOM     16  O   UNL A   1      32.374  25.045  22.492  1.00  0.00    -0.207 OA
ATOM     17  O   UNL A   1      30.485  23.615  23.287  1.00  0.00    -0.207 OA
BRANCH  15  18
ATOM     18  C   UNL A   1      30.360  26.141  23.663  1.00  0.00     0.123 C 
ATOM     19  C   UNL A   1      30.451  27.186  22.826  1.00  0.00     0.021 C 
BRANCH  19  20
ATOM     20  C   UNL A   1      29.510  28.305  22.949  1.00  0.00    -0.025 A 
ATOM     21  C   UNL A   1      28.135  28.052  23.043  1.00  0.00     0.008 A 
ATOM     22  C   UNL A   1      29.963  29.624  23.029  1.00  0.00     0.008 A 
ATOM     23  C   UNL A   1      27.228  29.094  23.244  1.00  0.00     0.001 A 
ATOM     24  C   UNL A   1      29.053  30.670  23.212  1.00  0.00     0.001 A 
ATOM     25  C   UNL A   1      27.688  30.404  23.327  1.00  0.00     0.000 A 
ENDBRANCH  19  20
ENDBRANCH  15  18
ENDBRANCH  12  15
ENDBRANCH   5   8
ENDBRANCH   3   4
ENDBRANCH   2   3
ENDBRANCH   1   2
BRANCH   1  26
ATOM     26  C   UNL A   1      31.409  30.841  26.064  1.00  0.00     0.002 C 
BRANCH  26  27
ATOM     27  C   UNL A   1      31.340  32.296  26.529  1.00  0.00     0.021 C 
BRANCH  27  28
ATOM     28  C   UNL A   1      32.619  32.810  27.167  1.00  0.00     0.116 C 
BRANCH  28  29
ATOM     29  N   UNL A   1      32.467  34.164  27.664  1.00  0.00    -0.352 N 
ATOM     30  C   UNL A   1      33.119  34.763  28.710  1.00  0.00     0.251 C 
ATOM     31  H   UNL A   1      31.811  34.724  27.189  1.00  0.00     0.163 HD
ATOM     32  O   UNL A   1      32.737  35.844  29.145  1.00  0.00    -0.269 OA
BRANCH  30  33
ATOM     33  C   UNL A   1      34.278  34.084  29.324  1.00  0.00     0.039 A 
ATOM     34  C   UNL A   1      35.564  34.471  28.942  1.00  0.00     0.014 A 
ATOM     35  C   UNL A   1      34.097  33.063  30.263  1.00  0.00     0.014 A 
ATOM     36  C   UNL A   1      36.670  33.847  29.517  1.00  0.00     0.010 A 
ATOM     37  C   UNL A   1      35.199  32.499  30.894  1.00  0.00     0.010 A 
ATOM     38  C   UNL A   1      36.496  32.866  30.506  1.00  0.00    -0.014 A 
BRANCH  38  39
ATOM     39  C   UNL A   1      37.663  32.174  31.102  1.00  0.00     0.031 A 
ATOM     40  C   UNL A   1      38.142  32.558  32.474  1.00  0.00     0.074 A 
ATOM     41  C   UNL A   1      38.314  31.233  30.394  1.00  0.00     0.049 A 
ATOM     42  N   UNL A   1      39.153  32.089  33.161  1.00  0.00    -0.248 NA
ATOM     43  C   UNL A   1      37.406  33.637  33.152  1.00  0.00     0.031 C 
ATOM     44  C   UNL A   1      37.983  30.823  29.030  1.00  0.00     0.029 A 
ATOM     45  N   UNL A   1      39.397  30.458  30.723  1.00  0.00    -0.354 N 
ATOM     46  C   UNL A   1      39.178  32.822  34.341  1.00  0.00     0.074 A 
ATOM     47  C   UNL A   1      38.128  33.812  34.246  1.00  0.00     0.031 C 
ATOM     48  C   UNL A   1      38.833  29.858  28.644  1.00  0.00     0.029 A 
ATOM     49  C   UNL A   1      39.783  29.601  29.722  1.00  0.00     0.049 A 
ATOM     50  H   UNL A   1      39.855  30.511  31.593  1.00  0.00     0.167 HD
ATOM     51  C   UNL A   1      39.982  32.663  35.419  1.00  0.00     0.037 A 
ATOM     52  C   UNL A   1      40.789  28.709  29.683  1.00  0.00     0.037 A 
ATOM     53  C   UNL A   1      41.011  31.662  35.513  1.00  0.00     0.049 A 
ATOM     54  C   UNL A   1      41.655  28.529  30.899  1.00  0.00     0.074 A 
ATOM     55  C   UNL A   1      41.845  31.375  36.578  1.00  0.00     0.029 A 
ATOM     56  N   UNL A   1      41.349  30.782  34.493  1.00  0.00    -0.354 N 
ATOM     57  N   UNL A   1      41.620  29.172  32.041  1.00  0.00    -0.248 NA
ATOM     58  C   UNL A   1      42.688  27.488  30.828  1.00  0.00     0.031 C 
ATOM     59  C   UNL A   1      42.717  30.352  36.188  1.00  0.00     0.029 A 
ATOM     60  C   UNL A   1      42.391  29.964  34.898  1.00  0.00     0.049 A 
ATOM     61  H   UNL A   1      40.911  30.745  33.612  1.00  0.00     0.167 HD
ATOM     62  C   UNL A   1      42.608  28.602  32.832  1.00  0.00     0.074 A 
ATOM     63  C   UNL A   1      43.213  27.547  32.045  1.00  0.00     0.031 C 
ATOM     64  C   UNL A   1      42.982  28.923  34.097  1.00  0.00     0.037 A 
BRANCH  51  65
ATOM     65  C   UNL A   1      39.772  33.597  36.576  1.00  0.00     0.064 A 
ATOM     66  C   UNL A   1      38.936  33.261  37.654  1.00  0.00     0.173 A 
ATOM     67  C   UNL A   1      40.410  34.847  36.612  1.00  0.00     0.173 A 
ATOM     68  F   UNL A   1      38.291  32.084  37.666  1.00  0.00    -0.203 F 
ATOM     69  C   UNL A   1      38.711  34.156  38.696  1.00  0.00     0.198 A 
ATOM     70  C   UNL A   1      40.210  35.726  37.673  1.00  0.00     0.198 A 
ATOM     71  F   UNL A   1      41.224  35.219  35.612  1.00  0.00    -0.203 F 
ATOM     72  F   UNL A   1      37.854  33.839  39.677  1.00  0.00    -0.200 F 
ATOM     73  C   UNL A   1      39.352  35.385  38.707  1.00  0.00     0.200 A 
ATOM     74  F   UNL A   1      40.840  36.909  37.689  1.00  0.00    -0.200 F 
ATOM     75  F   UNL A   1      39.133  36.248  39.710  1.00  0.00    -0.200 F 
ENDBRANCH  51  65
BRANCH  52  76
ATOM     76  C   UNL A   1      41.000  27.898  28.456  1.00  0.00     0.064 A 
ATOM     77  C   UNL A   1      40.327  26.685  28.265  1.00  0.00     0.173 A 
ATOM     78  C   UNL A   1      41.858  28.336  27.437  1.00  0.00     0.173 A 
ATOM     79  F   UNL A   1      39.507  26.217  29.219  1.00  0.00    -0.203 F 
ATOM     80  C   UNL A   1      40.512  25.933  27.108  1.00  0.00     0.198 A 
ATOM     81  C   UNL A   1      42.023  27.597  26.267  1.00  0.00     0.198 A 
ATOM     82  F   UNL A   1      42.519  29.496  27.567  1.00  0.00    -0.203 F 
ATOM     83  F   UNL A   1      39.881  24.759  26.965  1.00  0.00    -0.200 F 
ATOM     84  C   UNL A   1      41.354  26.393  26.106  1.00  0.00     0.200 A 
ATOM     85  F   UNL A   1      42.823  28.055  25.295  1.00  0.00    -0.200 F 
ATOM     86  F   UNL A   1      41.523  25.676  24.987  1.00  0.00    -0.200 F 
ENDBRANCH  52  76
BRANCH  64  87
ATOM     87  C   UNL A   1      44.081  28.105  34.713  1.00  0.00     0.064 A 
ATOM     88  C   UNL A   1      43.813  26.919  35.411  1.00  0.00     0.173 A 
ATOM     89  C   UNL A   1      45.420  28.497  34.571  1.00  0.00     0.173 A 
ATOM     90  F   UNL A   1      42.548  26.509  35.585  1.00  0.00    -0.203 F 
ATOM     91  C   UNL A   1      44.845  26.171  35.971  1.00  0.00     0.198 A 
ATOM     92  C   UNL A   1      46.452  27.730  35.106  1.00  0.00     0.198 A 
ATOM     93  F   UNL A   1      45.731  29.620  33.906  1.00  0.00    -0.203 F 
ATOM     94  F   UNL A   1      44.562  25.068  36.678  1.00  0.00    -0.200 F 
ATOM     95  C   UNL A   1      46.163  26.573  35.813  1.00  0.00     0.200 A 
ATOM     96  F   UNL A   1      47.726  28.113  34.940  1.00  0.00    -0.200 F 
ATOM     97  F   UNL A   1      47.155  25.848  36.349  1.00  0.00    -0.200 F 
ENDBRANCH  64  87
ENDBRANCH  38  39
ENDBRANCH  30  33
ENDBRANCH  28  29
ENDBRANCH  27  28
ENDBRANCH  26  27
ENDBRANCH   1  26
TORSDOF 17
ENDMDL
