MODEL 1
REMARK VINA RESULT:     -13.7      0.000      0.000
REMARK SMILES Cc1ccc(-c2ncc(C(=O)NCCCCCCNC(=O)c3ccc(-c4c5nc(c(-c6c(F)c(F)c(F)c(F)c6F)c6ccc([nH]6)c(-c6c(F)c(F)c(F)c(F)c6F)c6nc(c(-c7c(F)c(F)c(F)c(F)c7F)c7ccc4[nH]7)C=C6)C=C5)cc3)c(Nc3ccccc3)n2)cc1
REMARK SMILES IDX 15 1 14 2 13 3 12 4 10 5 11 6 9 8 6 9 7 10 93 11 8 12 85 13
REMARK SMILES IDX 5 14 1 15 2 16 3 17 95 18 4 19 94 20 86 21 87 23 88 24 92 25
REMARK SMILES IDX 89 26 91 27 90 28 16 29 17 30 18 31 19 32 20 33 21 35 22 36
REMARK SMILES IDX 23 37 84 38 24 39 83 40 25 41 26 42 27 43 77 44 28 45 82 46
REMARK SMILES IDX 76 47 78 48 29 49 81 50 75 51 74 52 30 54 62 55 42 56 61 57
REMARK SMILES IDX 43 58 46 59 60 60 79 61 44 62 45 63 59 65 80 66 47 67 31 68
REMARK SMILES IDX 32 69 40 70 33 71 34 72 38 73 41 74 35 75 36 76 39 77 37 78
REMARK SMILES IDX 63 79 64 80 72 81 65 82 66 83 70 84 73 85 67 86 68 87 71 88
REMARK SMILES IDX 69 89 48 90 49 91 57 92 50 93 51 94 55 95 58 96 52 97 53 98
REMARK SMILES IDX 56 99 54 100
REMARK H PARENT 12 7 86 22 19 34 78 53 46 64
REMARK Flexibility Score: inf
ROOT
ATOM      1  C   UNL A   1      33.505  27.856  25.160  1.00  0.00     0.002 C 
ENDROOT
BRANCH   1   2
ATOM      2  C   UNL A   1      33.551  26.772  26.249  1.00  0.00     0.021 C 
BRANCH   2   3
ATOM      3  C   UNL A   1      34.084  25.421  25.761  1.00  0.00     0.116 C 
BRANCH   3   4
ATOM      4  N   UNL A   1      34.104  25.390  24.312  1.00  0.00    -0.352 N 
ATOM      5  C   UNL A   1      34.091  24.378  23.388  1.00  0.00     0.256 C 
ATOM      6  O   UNL A   1      34.193  24.708  22.203  1.00  0.00    -0.269 OA
ATOM      7  H   UNL A   1      34.135  26.286  23.905  1.00  0.00     0.163 HD
BRANCH   5   8
ATOM      8  C   UNL A   1      33.927  22.942  23.718  1.00  0.00     0.100 A 
ATOM      9  C   UNL A   1      33.588  20.309  24.306  1.00  0.00     0.161 A 
ATOM     10  N   UNL A   1      34.832  20.803  24.388  1.00  0.00    -0.236 NA
ATOM     11  N   UNL A   1      32.518  21.009  23.908  1.00  0.00    -0.210 NA
ATOM     12  C   UNL A   1      34.969  22.104  24.054  1.00  0.00     0.131 A 
ATOM     13  C   UNL A   1      32.683  22.316  23.601  1.00  0.00     0.147 A 
BRANCH   9  14
ATOM     14  C   UNL A   1      33.397  18.891  24.599  1.00  0.00     0.019 A 
ATOM     15  C   UNL A   1      32.728  14.698  25.437  1.00  0.00     0.044 C 
ATOM     16  C   UNL A   1      32.964  16.152  25.156  1.00  0.00    -0.051 A 
ATOM     17  C   UNL A   1      33.628  16.543  23.987  1.00  0.00     0.004 A 
ATOM     18  C   UNL A   1      32.539  17.134  26.057  1.00  0.00     0.004 A 
ATOM     19  C   UNL A   1      33.833  17.898  23.709  1.00  0.00     0.012 A 
ATOM     20  C   UNL A   1      32.761  18.486  25.784  1.00  0.00     0.012 A 
ENDBRANCH   9  14
BRANCH  13  21
ATOM     21  N   UNL A   1      31.559  23.032  23.131  1.00  0.00    -0.339 N 
ATOM     22  H   UNL A   1      31.179  22.724  22.276  1.00  0.00     0.168 HD
BRANCH  21  23
ATOM     23  C   UNL A   1      30.918  24.127  23.730  1.00  0.00     0.040 A 
ATOM     24  C   UNL A   1      30.699  24.118  25.115  1.00  0.00     0.026 A 
ATOM     25  C   UNL A   1      30.587  25.277  23.008  1.00  0.00     0.026 A 
ATOM     26  C   UNL A   1      30.157  25.232  25.759  1.00  0.00     0.002 A 
ATOM     27  C   UNL A   1      30.021  26.384  23.646  1.00  0.00     0.002 A 
ATOM     28  C   UNL A   1      29.813  26.363  25.024  1.00  0.00     0.000 A 
ENDBRANCH  21  23
ENDBRANCH  13  21
ENDBRANCH   5   8
ENDBRANCH   3   4
ENDBRANCH   2   3
ENDBRANCH   1   2
BRANCH   1  29
ATOM     29  C   UNL A   1      32.467  28.975  25.360  1.00  0.00     0.002 C 
BRANCH  29  30
ATOM     30  C   UNL A   1      32.985  30.252  26.026  1.00  0.00     0.021 C 
BRANCH  30  31
ATOM     31  C   UNL A   1      33.180  30.119  27.531  1.00  0.00     0.116 C 
BRANCH  31  32
ATOM     32  N   UNL A   1      33.818  31.274  28.140  1.00  0.00    -0.352 N 
ATOM     33  C   UNL A   1      35.039  31.393  28.782  1.00  0.00     0.251 C 
ATOM     34  H   UNL A   1      33.297  32.108  28.088  1.00  0.00     0.163 HD
ATOM     35  O   UNL A   1      35.333  32.437  29.328  1.00  0.00    -0.269 OA
BRANCH  33  36
ATOM     36  C   UNL A   1      36.043  30.301  28.675  1.00  0.00     0.039 A 
ATOM     37  C   UNL A   1      36.387  29.624  29.854  1.00  0.00     0.014 A 
ATOM     38  C   UNL A   1      36.759  30.064  27.507  1.00  0.00     0.014 A 
ATOM     39  C   UNL A   1      37.582  28.910  29.917  1.00  0.00     0.010 A 
ATOM     40  C   UNL A   1      37.988  29.446  27.589  1.00  0.00     0.010 A 
ATOM     41  C   UNL A   1      38.426  28.925  28.810  1.00  0.00    -0.014 A 
BRANCH  41  42
ATOM     42  C   UNL A   1      39.822  28.518  28.853  1.00  0.00     0.031 A 
ATOM     43  C   UNL A   1      40.216  27.151  28.462  1.00  0.00     0.074 A 
ATOM     44  C   UNL A   1      40.762  29.451  29.122  1.00  0.00     0.049 A 
ATOM     45  N   UNL A   1      41.323  26.592  28.816  1.00  0.00    -0.248 NA
ATOM     46  C   UNL A   1      39.369  26.285  27.651  1.00  0.00     0.031 C 
ATOM     47  C   UNL A   1      42.202  29.345  28.904  1.00  0.00     0.029 A 
ATOM     48  N   UNL A   1      40.605  30.652  29.835  1.00  0.00    -0.354 N 
ATOM     49  C   UNL A   1      41.462  25.435  28.085  1.00  0.00     0.074 A 
ATOM     50  C   UNL A   1      40.193  25.260  27.415  1.00  0.00     0.031 C 
ATOM     51  C   UNL A   1      42.826  30.234  29.691  1.00  0.00     0.029 A 
ATOM     52  C   UNL A   1      41.814  30.829  30.546  1.00  0.00     0.049 A 
ATOM     53  H   UNL A   1      39.819  31.245  29.838  1.00  0.00     0.167 HD
ATOM     54  C   UNL A   1      42.681  24.827  28.027  1.00  0.00     0.037 A 
ATOM     55  C   UNL A   1      41.847  30.818  31.910  1.00  0.00     0.037 A 
ATOM     56  C   UNL A   1      43.661  25.530  28.849  1.00  0.00     0.049 A 
ATOM     57  C   UNL A   1      42.738  29.749  32.494  1.00  0.00     0.074 A 
ATOM     58  C   UNL A   1      44.623  26.481  28.548  1.00  0.00     0.029 A 
ATOM     59  N   UNL A   1      43.516  25.539  30.231  1.00  0.00    -0.354 N 
ATOM     60  N   UNL A   1      43.103  28.677  31.846  1.00  0.00    -0.248 NA
ATOM     61  C   UNL A   1      43.269  29.790  33.852  1.00  0.00     0.031 C 
ATOM     62  C   UNL A   1      45.033  27.091  29.756  1.00  0.00     0.029 A 
ATOM     63  C   UNL A   1      44.335  26.500  30.794  1.00  0.00     0.049 A 
ATOM     64  H   UNL A   1      42.916  24.947  30.738  1.00  0.00     0.167 HD
ATOM     65  C   UNL A   1      43.884  27.895  32.660  1.00  0.00     0.074 A 
ATOM     66  C   UNL A   1      43.971  28.643  33.898  1.00  0.00     0.031 C 
ATOM     67  C   UNL A   1      44.382  26.695  32.234  1.00  0.00     0.037 A 
BRANCH  54  68
ATOM     68  C   UNL A   1      43.047  23.779  27.002  1.00  0.00     0.064 A 
ATOM     69  C   UNL A   1      42.695  22.424  27.187  1.00  0.00     0.173 A 
ATOM     70  C   UNL A   1      43.789  24.042  25.837  1.00  0.00     0.173 A 
ATOM     71  F   UNL A   1      41.903  22.035  28.195  1.00  0.00    -0.203 F 
ATOM     72  C   UNL A   1      43.150  21.407  26.345  1.00  0.00     0.198 A 
ATOM     73  C   UNL A   1      44.292  23.019  25.024  1.00  0.00     0.198 A 
ATOM     74  F   UNL A   1      44.009  25.298  25.425  1.00  0.00    -0.203 F 
ATOM     75  F   UNL A   1      42.791  20.137  26.580  1.00  0.00    -0.200 F 
ATOM     76  C   UNL A   1      43.983  21.700  25.286  1.00  0.00     0.200 A 
ATOM     77  F   UNL A   1      45.083  23.325  23.985  1.00  0.00    -0.200 F 
ATOM     78  F   UNL A   1      44.464  20.721  24.509  1.00  0.00    -0.200 F 
ENDBRANCH  54  68
BRANCH  55  79
ATOM     79  C   UNL A   1      40.591  31.319  32.526  1.00  0.00     0.064 A 
ATOM     80  C   UNL A   1      40.328  32.702  32.458  1.00  0.00     0.173 A 
ATOM     81  C   UNL A   1      39.512  30.466  32.785  1.00  0.00     0.173 A 
ATOM     82  F   UNL A   1      41.329  33.561  32.209  1.00  0.00    -0.203 F 
ATOM     83  C   UNL A   1      39.027  33.195  32.521  1.00  0.00     0.198 A 
ATOM     84  C   UNL A   1      38.211  30.967  32.860  1.00  0.00     0.198 A 
ATOM     85  F   UNL A   1      39.696  29.140  32.843  1.00  0.00    -0.203 F 
ATOM     86  F   UNL A   1      38.799  34.502  32.335  1.00  0.00    -0.200 F 
ATOM     87  C   UNL A   1      37.966  32.323  32.692  1.00  0.00     0.200 A 
ATOM     88  F   UNL A   1      37.179  30.121  33.002  1.00  0.00    -0.200 F 
ATOM     89  F   UNL A   1      36.707  32.782  32.653  1.00  0.00    -0.200 F 
ENDBRANCH  55  79
BRANCH  67  90
ATOM     90  C   UNL A   1      45.046  25.633  33.083  1.00  0.00     0.064 A 
ATOM     91  C   UNL A   1      46.421  25.350  33.058  1.00  0.00     0.173 A 
ATOM     92  C   UNL A   1      44.307  24.956  34.087  1.00  0.00     0.173 A 
ATOM     93  F   UNL A   1      47.256  26.005  32.242  1.00  0.00    -0.203 F 
ATOM     94  C   UNL A   1      47.002  24.419  33.927  1.00  0.00     0.198 A 
ATOM     95  C   UNL A   1      44.901  24.076  34.992  1.00  0.00     0.198 A 
ATOM     96  F   UNL A   1      42.990  25.149  34.244  1.00  0.00    -0.203 F 
ATOM     97  F   UNL A   1      48.312  24.155  33.833  1.00  0.00    -0.200 F 
ATOM     98  C   UNL A   1      46.246  23.794  34.900  1.00  0.00     0.200 A 
ATOM     99  F   UNL A   1      44.162  23.523  35.964  1.00  0.00    -0.200 F 
ATOM    100  F   UNL A   1      46.818  22.943  35.763  1.00  0.00    -0.200 F 
ENDBRANCH  67  90
ENDBRANCH  41  42
ENDBRANCH  33  36
ENDBRANCH  31  32
ENDBRANCH  30  31
ENDBRANCH  29  30
ENDBRANCH   1  29
TORSDOF 16
ENDMDL
MODEL 2
REMARK VINA RESULT:     -13.3      1.490      2.753
REMARK SMILES Cc1ccc(-c2ncc(C(=O)NCCCCCCNC(=O)c3ccc(-c4c5nc(c(-c6c(F)c(F)c(F)c(F)c6F)c6ccc([nH]6)c(-c6c(F)c(F)c(F)c(F)c6F)c6nc(c(-c7c(F)c(F)c(F)c(F)c7F)c7ccc4[nH]7)C=C6)C=C5)cc3)c(Nc3ccccc3)n2)cc1
REMARK SMILES IDX 15 1 14 2 13 3 12 4 10 5 11 6 9 8 6 9 7 10 93 11 8 12 85 13
REMARK SMILES IDX 5 14 1 15 2 16 3 17 95 18 4 19 94 20 86 21 87 23 88 24 92 25
REMARK SMILES IDX 89 26 91 27 90 28 16 29 17 30 18 31 19 32 20 33 21 35 22 36
REMARK SMILES IDX 23 37 84 38 24 39 83 40 25 41 26 42 27 43 77 44 28 45 82 46
REMARK SMILES IDX 76 47 78 48 29 49 81 50 75 51 74 52 30 54 62 55 42 56 61 57
REMARK SMILES IDX 43 58 46 59 60 60 79 61 44 62 45 63 59 65 80 66 47 67 31 68
REMARK SMILES IDX 32 69 40 70 33 71 34 72 38 73 41 74 35 75 36 76 39 77 37 78
REMARK SMILES IDX 63 79 64 80 72 81 65 82 66 83 70 84 73 85 67 86 68 87 71 88
REMARK SMILES IDX 69 89 48 90 49 91 57 92 50 93 51 94 55 95 58 96 52 97 53 98
REMARK SMILES IDX 56 99 54 100
REMARK H PARENT 12 7 86 22 19 34 78 53 46 64
REMARK Flexibility Score: inf
ROOT
ATOM      1  C   UNL A   1      32.765  27.267  26.007  1.00  0.00     0.002 C 
ENDROOT
BRANCH   1   2
ATOM      2  C   UNL A   1      31.436  26.559  25.700  1.00  0.00     0.021 C 
BRANCH   2   3
ATOM      3  C   UNL A   1      31.600  25.159  25.100  1.00  0.00     0.116 C 
BRANCH   3   4
ATOM      4  N   UNL A   1      32.468  25.215  23.940  1.00  0.00    -0.352 N 
ATOM      5  C   UNL A   1      33.203  24.278  23.263  1.00  0.00     0.256 C 
ATOM      6  O   UNL A   1      33.907  24.689  22.336  1.00  0.00    -0.269 OA
ATOM      7  H   UNL A   1      32.546  26.119  23.557  1.00  0.00     0.163 HD
BRANCH   5   8
ATOM      8  C   UNL A   1      33.175  22.823  23.548  1.00  0.00     0.100 A 
ATOM      9  C   UNL A   1      33.150  20.162  24.105  1.00  0.00     0.161 A 
ATOM     10  N   UNL A   1      32.233  20.618  23.240  1.00  0.00    -0.236 NA
ATOM     11  N   UNL A   1      34.038  20.932  24.747  1.00  0.00    -0.210 NA
ATOM     12  C   UNL A   1      32.252  21.949  23.015  1.00  0.00     0.131 A 
ATOM     13  C   UNL A   1      34.046  22.259  24.484  1.00  0.00     0.147 A 
BRANCH   9  14
ATOM     14  C   UNL A   1      33.132  18.738  24.429  1.00  0.00     0.019 A 
ATOM     15  C   UNL A   1      32.970  14.517  25.371  1.00  0.00     0.044 C 
ATOM     16  C   UNL A   1      33.031  15.981  25.053  1.00  0.00    -0.051 A 
ATOM     17  C   UNL A   1      33.482  16.410  23.799  1.00  0.00     0.004 A 
ATOM     18  C   UNL A   1      32.654  16.937  26.003  1.00  0.00     0.004 A 
ATOM     19  C   UNL A   1      33.523  17.773  23.488  1.00  0.00     0.012 A 
ATOM     20  C   UNL A   1      32.712  18.299  25.694  1.00  0.00     0.012 A 
ENDBRANCH   9  14
BRANCH  13  21
ATOM     21  N   UNL A   1      34.951  23.070  25.206  1.00  0.00    -0.339 N 
ATOM     22  H   UNL A   1      34.574  23.890  25.600  1.00  0.00     0.168 HD
BRANCH  21  23
ATOM     23  C   UNL A   1      36.319  22.853  25.429  1.00  0.00     0.040 A 
ATOM     24  C   UNL A   1      37.067  23.830  26.099  1.00  0.00     0.026 A 
ATOM     25  C   UNL A   1      36.940  21.644  25.101  1.00  0.00     0.026 A 
ATOM     26  C   UNL A   1      38.405  23.605  26.428  1.00  0.00     0.002 A 
ATOM     27  C   UNL A   1      38.285  21.425  25.406  1.00  0.00     0.002 A 
ATOM     28  C   UNL A   1      39.016  22.403  26.077  1.00  0.00     0.000 A 
ENDBRANCH  21  23
ENDBRANCH  13  21
ENDBRANCH   5   8
ENDBRANCH   3   4
ENDBRANCH   2   3
ENDBRANCH   1   2
BRANCH   1  29
ATOM     29  C   UNL A   1      32.658  28.650  26.676  1.00  0.00     0.002 C 
BRANCH  29  30
ATOM     30  C   UNL A   1      33.820  29.036  27.596  1.00  0.00     0.021 C 
BRANCH  30  31
ATOM     31  C   UNL A   1      34.470  30.364  27.231  1.00  0.00     0.116 C 
BRANCH  31  32
ATOM     32  N   UNL A   1      34.841  31.167  28.385  1.00  0.00    -0.352 N 
ATOM     33  C   UNL A   1      35.850  30.991  29.317  1.00  0.00     0.251 C 
ATOM     34  H   UNL A   1      34.282  31.965  28.528  1.00  0.00     0.163 HD
ATOM     35  O   UNL A   1      35.913  31.725  30.282  1.00  0.00    -0.269 OA
BRANCH  33  36
ATOM     36  C   UNL A   1      36.934  30.006  29.059  1.00  0.00     0.039 A 
ATOM     37  C   UNL A   1      37.098  28.970  29.990  1.00  0.00     0.014 A 
ATOM     38  C   UNL A   1      37.872  30.185  28.049  1.00  0.00     0.014 A 
ATOM     39  C   UNL A   1      38.310  28.285  30.052  1.00  0.00     0.010 A 
ATOM     40  C   UNL A   1      39.107  29.583  28.168  1.00  0.00     0.010 A 
ATOM     41  C   UNL A   1      39.344  28.680  29.209  1.00  0.00    -0.014 A 
BRANCH  41  42
ATOM     42  C   UNL A   1      40.733  28.291  29.395  1.00  0.00     0.031 A 
ATOM     43  C   UNL A   1      41.258  27.061  28.770  1.00  0.00     0.074 A 
ATOM     44  C   UNL A   1      41.566  29.143  30.033  1.00  0.00     0.049 A 
ATOM     45  N   UNL A   1      42.319  26.447  29.169  1.00  0.00    -0.248 NA
ATOM     46  C   UNL A   1      40.602  26.405  27.646  1.00  0.00     0.031 C 
ATOM     47  C   UNL A   1      43.026  29.109  30.048  1.00  0.00     0.029 A 
ATOM     48  N   UNL A   1      41.231  30.137  30.969  1.00  0.00    -0.354 N 
ATOM     49  C   UNL A   1      42.637  25.500  28.223  1.00  0.00     0.074 A 
ATOM     50  C   UNL A   1      41.506  25.475  27.322  1.00  0.00     0.031 C 
ATOM     51  C   UNL A   1      43.464  29.792  31.116  1.00  0.00     0.029 A 
ATOM     52  C   UNL A   1      42.296  30.153  31.899  1.00  0.00     0.049 A 
ATOM     53  H   UNL A   1      40.425  30.703  30.974  1.00  0.00     0.167 HD
ATOM     54  C   UNL A   1      43.879  24.937  28.236  1.00  0.00     0.037 A 
ATOM     55  C   UNL A   1      42.104  29.816  33.207  1.00  0.00     0.037 A 
ATOM     56  C   UNL A   1      44.672  25.435  29.356  1.00  0.00     0.049 A 
ATOM     57  C   UNL A   1      42.941  28.649  33.670  1.00  0.00     0.074 A 
ATOM     58  C   UNL A   1      45.619  26.441  29.456  1.00  0.00     0.029 A 
ATOM     59  N   UNL A   1      44.301  25.112  30.656  1.00  0.00    -0.354 N 
ATOM     60  N   UNL A   1      43.464  27.768  32.863  1.00  0.00    -0.248 NA
ATOM     61  C   UNL A   1      43.238  28.370  35.071  1.00  0.00     0.031 C 
ATOM     62  C   UNL A   1      45.792  26.750  30.825  1.00  0.00     0.029 A 
ATOM     63  C   UNL A   1      44.964  25.919  31.560  1.00  0.00     0.049 A 
ATOM     64  H   UNL A   1      43.657  24.409  30.899  1.00  0.00     0.167 HD
ATOM     65  C   UNL A   1      44.140  26.823  33.593  1.00  0.00     0.074 A 
ATOM     66  C   UNL A   1      43.982  27.254  34.968  1.00  0.00     0.031 C 
ATOM     67  C   UNL A   1      44.763  25.766  32.992  1.00  0.00     0.037 A 
BRANCH  54  68
ATOM     68  C   UNL A   1      44.463  24.169  27.074  1.00  0.00     0.064 A 
ATOM     69  C   UNL A   1      44.073  22.837  26.810  1.00  0.00     0.173 A 
ATOM     70  C   UNL A   1      45.449  24.677  26.210  1.00  0.00     0.173 A 
ATOM     71  F   UNL A   1      43.072  22.252  27.482  1.00  0.00    -0.203 F 
ATOM     72  C   UNL A   1      44.703  22.046  25.847  1.00  0.00     0.198 A 
ATOM     73  C   UNL A   1      46.120  23.869  25.283  1.00  0.00     0.198 A 
ATOM     74  F   UNL A   1      45.761  25.980  26.206  1.00  0.00    -0.203 F 
ATOM     75  F   UNL A   1      44.295  20.784  25.652  1.00  0.00    -0.200 F 
ATOM     76  C   UNL A   1      45.755  22.550  25.111  1.00  0.00     0.200 A 
ATOM     77  F   UNL A   1      47.125  24.382  24.560  1.00  0.00    -0.200 F 
ATOM     78  F   UNL A   1      46.395  21.776  24.225  1.00  0.00    -0.200 F 
ENDBRANCH  54  68
BRANCH  55  79
ATOM     79  C   UNL A   1      40.739  30.142  33.697  1.00  0.00     0.064 A 
ATOM     80  C   UNL A   1      40.448  31.487  33.995  1.00  0.00     0.173 A 
ATOM     81  C   UNL A   1      39.660  29.276  33.484  1.00  0.00     0.173 A 
ATOM     82  F   UNL A   1      41.448  32.357  34.205  1.00  0.00    -0.203 F 
ATOM     83  C   UNL A   1      39.142  31.970  33.956  1.00  0.00     0.198 A 
ATOM     84  C   UNL A   1      38.351  29.763  33.458  1.00  0.00     0.198 A 
ATOM     85  F   UNL A   1      39.874  27.989  33.178  1.00  0.00    -0.203 F 
ATOM     86  F   UNL A   1      38.909  33.279  34.128  1.00  0.00    -0.200 F 
ATOM     87  C   UNL A   1      38.098  31.113  33.658  1.00  0.00     0.200 A 
ATOM     88  F   UNL A   1      37.340  28.939  33.145  1.00  0.00    -0.200 F 
ATOM     89  F   UNL A   1      36.853  31.593  33.521  1.00  0.00    -0.200 F 
ENDBRANCH  55  79
BRANCH  67  90
ATOM     90  C   UNL A   1      45.333  24.539  33.671  1.00  0.00     0.064 A 
ATOM     91  C   UNL A   1      44.646  23.323  33.805  1.00  0.00     0.173 A 
ATOM     92  C   UNL A   1      46.690  24.516  34.082  1.00  0.00     0.173 A 
ATOM     93  F   UNL A   1      43.397  23.169  33.348  1.00  0.00    -0.203 F 
ATOM     94  C   UNL A   1      45.249  22.189  34.362  1.00  0.00     0.198 A 
ATOM     95  C   UNL A   1      47.306  23.367  34.578  1.00  0.00     0.198 A 
ATOM     96  F   UNL A   1      47.475  25.600  33.986  1.00  0.00    -0.203 F 
ATOM     97  F   UNL A   1      44.536  21.063  34.506  1.00  0.00    -0.200 F 
ATOM     98  C   UNL A   1      46.580  22.207  34.735  1.00  0.00     0.200 A 
ATOM     99  F   UNL A   1      48.612  23.390  34.881  1.00  0.00    -0.200 F 
ATOM    100  F   UNL A   1      47.166  21.104  35.219  1.00  0.00    -0.200 F 
ENDBRANCH  67  90
ENDBRANCH  41  42
ENDBRANCH  33  36
ENDBRANCH  31  32
ENDBRANCH  30  31
ENDBRANCH  29  30
ENDBRANCH   1  29
TORSDOF 16
ENDMDL
MODEL 3
REMARK VINA RESULT:     -13.2      2.190      3.361
REMARK SMILES Cc1ccc(-c2ncc(C(=O)NCCCCCCNC(=O)c3ccc(-c4c5nc(c(-c6c(F)c(F)c(F)c(F)c6F)c6ccc([nH]6)c(-c6c(F)c(F)c(F)c(F)c6F)c6nc(c(-c7c(F)c(F)c(F)c(F)c7F)c7ccc4[nH]7)C=C6)C=C5)cc3)c(Nc3ccccc3)n2)cc1
REMARK SMILES IDX 15 1 14 2 13 3 12 4 10 5 11 6 9 8 6 9 7 10 93 11 8 12 85 13
REMARK SMILES IDX 5 14 1 15 2 16 3 17 95 18 4 19 94 20 86 21 87 23 88 24 92 25
REMARK SMILES IDX 89 26 91 27 90 28 16 29 17 30 18 31 19 32 20 33 21 35 22 36
REMARK SMILES IDX 23 37 84 38 24 39 83 40 25 41 26 42 27 43 77 44 28 45 82 46
REMARK SMILES IDX 76 47 78 48 29 49 81 50 75 51 74 52 30 54 62 55 42 56 61 57
REMARK SMILES IDX 43 58 46 59 60 60 79 61 44 62 45 63 59 65 80 66 47 67 31 68
REMARK SMILES IDX 32 69 40 70 33 71 34 72 38 73 41 74 35 75 36 76 39 77 37 78
REMARK SMILES IDX 63 79 64 80 72 81 65 82 66 83 70 84 73 85 67 86 68 87 71 88
REMARK SMILES IDX 69 89 48 90 49 91 57 92 50 93 51 94 55 95 58 96 52 97 53 98
REMARK SMILES IDX 56 99 54 100
REMARK H PARENT 12 7 86 22 19 34 78 53 46 64
REMARK Flexibility Score: inf
ROOT
ATOM      1  C   UNL A   1      31.836  29.012  26.240  1.00  0.00     0.002 C 
ENDROOT
BRANCH   1   2
ATOM      2  C   UNL A   1      32.845  27.979  25.714  1.00  0.00     0.021 C 
BRANCH   2   3
ATOM      3  C   UNL A   1      32.778  26.625  26.427  1.00  0.00     0.116 C 
BRANCH   3   4
ATOM      4  N   UNL A   1      31.396  26.272  26.694  1.00  0.00    -0.352 N 
ATOM      5  C   UNL A   1      30.653  25.140  26.489  1.00  0.00     0.256 C 
ATOM      6  O   UNL A   1      29.454  25.205  26.774  1.00  0.00    -0.269 OA
ATOM      7  H   UNL A   1      30.883  27.003  27.110  1.00  0.00     0.163 HD
BRANCH   5   8
ATOM      8  C   UNL A   1      31.200  23.855  25.991  1.00  0.00     0.100 A 
ATOM      9  C   UNL A   1      32.194  21.511  25.037  1.00  0.00     0.161 A 
ATOM     10  N   UNL A   1      32.517  21.851  26.294  1.00  0.00    -0.236 NA
ATOM     11  N   UNL A   1      31.462  22.268  24.210  1.00  0.00    -0.210 NA
ATOM     12  C   UNL A   1      32.036  23.038  26.721  1.00  0.00     0.131 A 
ATOM     13  C   UNL A   1      30.976  23.443  24.675  1.00  0.00     0.147 A 
BRANCH   9  14
ATOM     14  C   UNL A   1      32.740  20.264  24.507  1.00  0.00     0.019 A 
ATOM     15  C   UNL A   1      34.318  16.517  23.025  1.00  0.00     0.044 C 
ATOM     16  C   UNL A   1      33.780  17.820  23.538  1.00  0.00    -0.051 A 
ATOM     17  C   UNL A   1      32.611  18.361  22.992  1.00  0.00     0.004 A 
ATOM     18  C   UNL A   1      34.441  18.517  24.554  1.00  0.00     0.004 A 
ATOM     19  C   UNL A   1      32.092  19.565  23.478  1.00  0.00     0.012 A 
ATOM     20  C   UNL A   1      33.930  19.729  25.026  1.00  0.00     0.012 A 
ENDBRANCH   9  14
BRANCH  13  21
ATOM     21  N   UNL A   1      30.250  24.258  23.779  1.00  0.00    -0.339 N 
ATOM     22  H   UNL A   1      29.396  23.890  23.457  1.00  0.00     0.168 HD
BRANCH  21  23
ATOM     23  C   UNL A   1      30.596  25.528  23.290  1.00  0.00     0.040 A 
ATOM     24  C   UNL A   1      29.702  26.593  23.461  1.00  0.00     0.026 A 
ATOM     25  C   UNL A   1      31.850  25.790  22.733  1.00  0.00     0.026 A 
ATOM     26  C   UNL A   1      30.054  27.890  23.079  1.00  0.00     0.002 A 
ATOM     27  C   UNL A   1      32.198  27.081  22.328  1.00  0.00     0.002 A 
ATOM     28  C   UNL A   1      31.301  28.132  22.507  1.00  0.00     0.000 A 
ENDBRANCH  21  23
ENDBRANCH  13  21
ENDBRANCH   5   8
ENDBRANCH   3   4
ENDBRANCH   2   3
ENDBRANCH   1   2
BRANCH   1  29
ATOM     29  C   UNL A   1      32.426  30.202  27.018  1.00  0.00     0.002 C 
BRANCH  29  30
ATOM     30  C   UNL A   1      33.852  30.011  27.544  1.00  0.00     0.021 C 
BRANCH  30  31
ATOM     31  C   UNL A   1      34.681  31.289  27.534  1.00  0.00     0.116 C 
BRANCH  31  32
ATOM     32  N   UNL A   1      34.022  32.416  28.173  1.00  0.00    -0.352 N 
ATOM     33  C   UNL A   1      34.405  33.185  29.259  1.00  0.00     0.251 C 
ATOM     34  H   UNL A   1      33.162  32.675  27.768  1.00  0.00     0.163 HD
ATOM     35  O   UNL A   1      33.642  34.015  29.709  1.00  0.00    -0.269 OA
BRANCH  33  36
ATOM     36  C   UNL A   1      35.796  33.096  29.777  1.00  0.00     0.039 A 
ATOM     37  C   UNL A   1      36.816  33.635  28.980  1.00  0.00     0.014 A 
ATOM     38  C   UNL A   1      36.119  32.354  30.908  1.00  0.00     0.014 A 
ATOM     39  C   UNL A   1      38.134  33.229  29.179  1.00  0.00     0.010 A 
ATOM     40  C   UNL A   1      37.403  31.871  31.047  1.00  0.00     0.010 A 
ATOM     41  C   UNL A   1      38.395  32.259  30.143  1.00  0.00    -0.014 A 
BRANCH  41  42
ATOM     42  C   UNL A   1      39.641  31.513  30.222  1.00  0.00     0.031 A 
ATOM     43  C   UNL A   1      39.766  30.190  29.580  1.00  0.00     0.074 A 
ATOM     44  C   UNL A   1      40.721  32.111  30.773  1.00  0.00     0.049 A 
ATOM     45  N   UNL A   1      40.655  29.315  29.902  1.00  0.00    -0.248 NA
ATOM     46  C   UNL A   1      38.866  29.736  28.526  1.00  0.00     0.031 C 
ATOM     47  C   UNL A   1      42.116  31.689  30.668  1.00  0.00     0.029 A 
ATOM     48  N   UNL A   1      40.743  33.155  31.713  1.00  0.00    -0.354 N 
ATOM     49  C   UNL A   1      40.629  28.320  28.952  1.00  0.00     0.074 A 
ATOM     50  C   UNL A   1      39.461  28.600  28.147  1.00  0.00     0.031 C 
ATOM     51  C   UNL A   1      42.808  32.227  31.683  1.00  0.00     0.029 A 
ATOM     52  C   UNL A   1      41.848  32.884  32.552  1.00  0.00     0.049 A 
ATOM     53  H   UNL A   1      40.120  33.915  31.774  1.00  0.00     0.167 HD
ATOM     54  C   UNL A   1      41.673  27.447  28.873  1.00  0.00     0.037 A 
ATOM     55  C   UNL A   1      41.685  32.606  33.878  1.00  0.00     0.037 A 
ATOM     56  C   UNL A   1      42.662  27.712  29.914  1.00  0.00     0.049 A 
ATOM     57  C   UNL A   1      42.218  31.257  34.292  1.00  0.00     0.074 A 
ATOM     58  C   UNL A   1      43.847  28.429  29.916  1.00  0.00     0.029 A 
ATOM     59  N   UNL A   1      42.330  27.495  31.246  1.00  0.00    -0.354 N 
ATOM     60  N   UNL A   1      42.418  30.270  33.462  1.00  0.00    -0.248 NA
ATOM     61  C   UNL A   1      42.547  30.904  35.670  1.00  0.00     0.031 C 
ATOM     62  C   UNL A   1      44.211  28.676  31.260  1.00  0.00     0.029 A 
ATOM     63  C   UNL A   1      43.258  28.093  32.077  1.00  0.00     0.049 A 
ATOM     64  H   UNL A   1      41.545  26.988  31.555  1.00  0.00     0.167 HD
ATOM     65  C   UNL A   1      42.877  29.178  34.153  1.00  0.00     0.074 A 
ATOM     66  C   UNL A   1      42.957  29.630  35.528  1.00  0.00     0.031 C 
ATOM     67  C   UNL A   1      43.144  27.994  33.523  1.00  0.00     0.037 A 
BRANCH  54  68
ATOM     68  C   UNL A   1      41.932  26.555  27.682  1.00  0.00     0.064 A 
ATOM     69  C   UNL A   1      41.242  25.333  27.523  1.00  0.00     0.173 A 
ATOM     70  C   UNL A   1      42.886  26.828  26.685  1.00  0.00     0.173 A 
ATOM     71  F   UNL A   1      40.235  24.984  28.334  1.00  0.00    -0.203 F 
ATOM     72  C   UNL A   1      41.566  24.411  26.524  1.00  0.00     0.198 A 
ATOM     73  C   UNL A   1      43.249  25.882  25.719  1.00  0.00     0.198 A 
ATOM     74  F   UNL A   1      43.460  28.035  26.589  1.00  0.00    -0.203 F 
ATOM     75  F   UNL A   1      40.882  23.262  26.432  1.00  0.00    -0.200 F 
ATOM     76  C   UNL A   1      42.598  24.668  25.647  1.00  0.00     0.200 A 
ATOM     77  F   UNL A   1      44.241  26.159  24.859  1.00  0.00    -0.200 F 
ATOM     78  F   UNL A   1      42.945  23.763  24.722  1.00  0.00    -0.200 F 
ENDBRANCH  54  68
BRANCH  55  79
ATOM     79  C   UNL A   1      40.502  33.282  34.472  1.00  0.00     0.064 A 
ATOM     80  C   UNL A   1      39.324  32.527  34.636  1.00  0.00     0.173 A 
ATOM     81  C   UNL A   1      40.631  34.455  35.223  1.00  0.00     0.173 A 
ATOM     82  F   UNL A   1      39.154  31.392  33.940  1.00  0.00    -0.203 F 
ATOM     83  C   UNL A   1      38.377  32.865  35.601  1.00  0.00     0.198 A 
ATOM     84  C   UNL A   1      39.673  34.797  36.180  1.00  0.00     0.198 A 
ATOM     85  F   UNL A   1      41.737  35.206  35.124  1.00  0.00    -0.203 F 
ATOM     86  F   UNL A   1      37.326  32.062  35.814  1.00  0.00    -0.200 F 
ATOM     87  C   UNL A   1      38.568  33.983  36.393  1.00  0.00     0.200 A 
ATOM     88  F   UNL A   1      39.868  35.867  36.966  1.00  0.00    -0.200 F 
ATOM     89  F   UNL A   1      37.712  34.256  37.388  1.00  0.00    -0.200 F 
ENDBRANCH  55  79
BRANCH  67  90
ATOM     90  C   UNL A   1      43.423  26.658  34.176  1.00  0.00     0.064 A 
ATOM     91  C   UNL A   1      42.441  25.851  34.770  1.00  0.00     0.173 A 
ATOM     92  C   UNL A   1      44.711  26.071  34.080  1.00  0.00     0.173 A 
ATOM     93  F   UNL A   1      41.157  26.231  34.820  1.00  0.00    -0.203 F 
ATOM     94  C   UNL A   1      42.734  24.582  35.283  1.00  0.00     0.198 A 
ATOM     95  C   UNL A   1      44.984  24.781  34.535  1.00  0.00     0.198 A 
ATOM     96  F   UNL A   1      45.740  26.716  33.512  1.00  0.00    -0.203 F 
ATOM     97  F   UNL A   1      41.767  23.870  35.878  1.00  0.00    -0.200 F 
ATOM     98  C   UNL A   1      44.000  24.043  35.153  1.00  0.00     0.200 A 
ATOM     99  F   UNL A   1      46.204  24.255  34.349  1.00  0.00    -0.200 F 
ATOM    100  F   UNL A   1      44.261  22.807  35.598  1.00  0.00    -0.200 F 
ENDBRANCH  67  90
ENDBRANCH  41  42
ENDBRANCH  33  36
ENDBRANCH  31  32
ENDBRANCH  30  31
ENDBRANCH  29  30
ENDBRANCH   1  29
TORSDOF 16
ENDMDL
