MODEL 1
REMARK VINA RESULT:     -11.9      0.000      0.000
REMARK SMILES CCC[C@@](C)(NC(=O)N1CCN(C)C(=O)C1(C)C)C(=O)NCCCCCCNC(=O)c1ccc(-c2c3nc(c(-c4c(F)c(F)c(F)c(F)c4F)c4ccc([nH]4)c(-c4c(F)c(F)c(F)c(F)c4F)c4nc(c(-c5c(F)c(F)c(F)c(F)c5F)c5ccc2[nH]5)C=C4)C=C3)cc1
REMARK SMILES IDX 24 1 23 2 22 3 21 4 19 5 20 6 4 8 5 9 3 10 2 11 1 12 6 13
REMARK SMILES IDX 7 14 8 16 9 17 10 18 16 19 11 20 14 21 17 22 18 23 12 24
REMARK SMILES IDX 15 25 13 26 25 27 26 28 27 29 28 30 29 31 30 33 31 34 32 35
REMARK SMILES IDX 93 36 33 37 92 38 34 39 35 40 36 41 86 42 37 43 91 44 85 45
REMARK SMILES IDX 87 46 38 47 90 48 84 49 83 50 39 52 71 53 51 54 70 55 52 56
REMARK SMILES IDX 55 57 69 58 88 59 53 60 54 61 68 63 89 64 56 65 40 66 41 67
REMARK SMILES IDX 49 68 42 69 43 70 47 71 50 72 44 73 45 74 48 75 46 76 72 77
REMARK SMILES IDX 73 78 81 79 74 80 75 81 79 82 82 83 76 84 77 85 80 86 78 87
REMARK SMILES IDX 57 88 58 89 66 90 59 91 60 92 64 93 67 94 61 95 62 96 65 97
REMARK SMILES IDX 63 98
REMARK H PARENT 21 7 6 15 28 32 87 51 55 62
REMARK Flexibility Score: inf
ROOT
ATOM      1  C   UNL A   1      35.994  21.602  25.206  1.00  0.00     0.002 C 
ENDROOT
BRANCH   1   2
ATOM      2  C   UNL A   1      35.011  20.439  25.084  1.00  0.00     0.021 C 
BRANCH   2   3
ATOM      3  C   UNL A   1      33.586  20.450  25.684  1.00  0.00     0.116 C 
BRANCH   3   4
ATOM      4  N   UNL A   1      33.164  21.293  26.808  1.00  0.00    -0.354 N 
ATOM      5  C   UNL A   1      32.588  22.546  26.939  1.00  0.00     0.245 C 
ATOM      6  O   UNL A   1      31.961  22.768  27.980  1.00  0.00    -0.272 OA
ATOM      7  H   UNL A   1      33.330  20.865  27.679  1.00  0.00     0.163 HD
BRANCH   5   8
ATOM      8  C   UNL A   1      32.535  23.521  25.771  1.00  0.00     0.117 C 
ATOM      9  C   UNL A   1      33.829  24.364  26.007  1.00  0.00     0.045 C 
BRANCH   8  10
ATOM     10  C   UNL A   1      32.585  23.091  24.277  1.00  0.00     0.038 C 
BRANCH  10  11
ATOM     11  C   UNL A   1      33.361  23.926  23.257  1.00  0.00    -0.000 C 
ATOM     12  C   UNL A   1      33.291  23.318  21.865  1.00  0.00     0.004 C 
ENDBRANCH  10  11
ENDBRANCH   8  10
BRANCH   8  13
ATOM     13  N   UNL A   1      31.313  24.307  25.950  1.00  0.00    -0.324 N 
ATOM     14  C   UNL A   1      30.842  25.525  25.712  1.00  0.00     0.319 C 
ATOM     15  H   UNL A   1      30.620  23.757  26.382  1.00  0.00     0.166 HD
ATOM     16  O   UNL A   1      29.919  25.732  26.527  1.00  0.00    -0.249 OA
BRANCH  14  17
ATOM     17  N   UNL A   1      31.161  26.489  24.786  1.00  0.00    -0.309 N 
ATOM     18  C   UNL A   1      30.335  26.272  23.572  1.00  0.00     0.144 C 
ATOM     19  C   UNL A   1      31.985  27.823  24.594  1.00  0.00     0.118 C 
ATOM     20  C   UNL A   1      29.395  27.460  23.366  1.00  0.00     0.140 C 
ATOM     21  C   UNL A   1      31.004  29.007  24.422  1.00  0.00     0.247 C 
ATOM     22  C   UNL A   1      33.110  28.297  25.506  1.00  0.00     0.045 C 
ATOM     23  C   UNL A   1      32.760  27.833  23.194  1.00  0.00     0.045 C 
ATOM     24  N   UNL A   1      30.062  28.750  23.431  1.00  0.00    -0.342 N 
ATOM     25  O   UNL A   1      31.253  30.151  24.802  1.00  0.00    -0.272 OA
ATOM     26  C   UNL A   1      29.967  29.673  22.325  1.00  0.00     0.146 C 
ENDBRANCH  14  17
ENDBRANCH   8  13
ENDBRANCH   5   8
ENDBRANCH   3   4
ENDBRANCH   2   3
ENDBRANCH   1   2
BRANCH   1  27
ATOM     27  C   UNL A   1      37.386  21.454  24.601  1.00  0.00     0.002 C 
BRANCH  27  28
ATOM     28  C   UNL A   1      38.130  20.190  24.989  1.00  0.00     0.021 C 
BRANCH  28  29
ATOM     29  C   UNL A   1      39.405  20.425  25.780  1.00  0.00     0.116 C 
BRANCH  29  30
ATOM     30  N   UNL A   1      40.276  19.260  25.875  1.00  0.00    -0.352 N 
ATOM     31  C   UNL A   1      41.635  19.228  26.132  1.00  0.00     0.251 C 
ATOM     32  H   UNL A   1      39.842  18.386  25.738  1.00  0.00     0.163 HD
ATOM     33  O   UNL A   1      42.269  18.198  26.090  1.00  0.00    -0.269 OA
BRANCH  31  34
ATOM     34  C   UNL A   1      42.303  20.518  26.419  1.00  0.00     0.039 A 
ATOM     35  C   UNL A   1      42.645  21.355  25.357  1.00  0.00     0.014 A 
ATOM     36  C   UNL A   1      42.462  20.936  27.742  1.00  0.00     0.014 A 
ATOM     37  C   UNL A   1      43.065  22.656  25.629  1.00  0.00     0.010 A 
ATOM     38  C   UNL A   1      42.763  22.264  28.004  1.00  0.00     0.010 A 
ATOM     39  C   UNL A   1      43.076  23.136  26.951  1.00  0.00    -0.014 A 
BRANCH  39  40
ATOM     40  C   UNL A   1      43.417  24.548  27.247  1.00  0.00     0.031 A 
ATOM     41  C   UNL A   1      44.802  25.059  26.967  1.00  0.00     0.074 A 
ATOM     42  C   UNL A   1      42.494  25.351  27.811  1.00  0.00     0.049 A 
ATOM     43  N   UNL A   1      45.294  26.258  27.148  1.00  0.00    -0.248 NA
ATOM     44  C   UNL A   1      45.777  24.087  26.445  1.00  0.00     0.031 C 
ATOM     45  C   UNL A   1      41.142  24.942  28.204  1.00  0.00     0.029 A 
ATOM     46  N   UNL A   1      42.547  26.679  28.150  1.00  0.00    -0.354 N 
ATOM     47  C   UNL A   1      46.628  26.177  26.769  1.00  0.00     0.074 A 
ATOM     48  C   UNL A   1      46.892  24.800  26.426  1.00  0.00     0.031 C 
ATOM     49  C   UNL A   1      40.481  26.007  28.683  1.00  0.00     0.029 A 
ATOM     50  C   UNL A   1      41.370  27.165  28.667  1.00  0.00     0.049 A 
ATOM     51  H   UNL A   1      43.353  27.233  28.034  1.00  0.00     0.167 HD
ATOM     52  C   UNL A   1      47.540  27.173  26.678  1.00  0.00     0.037 A 
ATOM     53  C   UNL A   1      41.047  28.407  29.075  1.00  0.00     0.037 A 
ATOM     54  C   UNL A   1      47.260  28.546  27.002  1.00  0.00     0.049 A 
ATOM     55  C   UNL A   1      42.078  29.497  28.959  1.00  0.00     0.074 A 
ATOM     56  C   UNL A   1      48.089  29.647  26.885  1.00  0.00     0.029 A 
ATOM     57  N   UNL A   1      46.053  29.004  27.513  1.00  0.00    -0.354 N 
ATOM     58  N   UNL A   1      43.307  29.430  28.507  1.00  0.00    -0.248 NA
ATOM     59  C   UNL A   1      41.672  30.839  29.397  1.00  0.00     0.031 C 
ATOM     60  C   UNL A   1      47.404  30.760  27.381  1.00  0.00     0.029 A 
ATOM     61  C   UNL A   1      46.126  30.367  27.747  1.00  0.00     0.049 A 
ATOM     62  H   UNL A   1      45.262  28.442  27.683  1.00  0.00     0.167 HD
ATOM     63  C   UNL A   1      43.815  30.720  28.587  1.00  0.00     0.074 A 
ATOM     64  C   UNL A   1      42.748  31.553  29.102  1.00  0.00     0.031 C 
ATOM     65  C   UNL A   1      45.052  31.175  28.266  1.00  0.00     0.037 A 
BRANCH  52  66
ATOM     66  C   UNL A   1      48.919  26.810  26.206  1.00  0.00     0.064 A 
ATOM     67  C   UNL A   1      49.301  26.957  24.862  1.00  0.00     0.173 A 
ATOM     68  C   UNL A   1      49.879  26.331  27.109  1.00  0.00     0.173 A 
ATOM     69  F   UNL A   1      48.419  27.397  23.952  1.00  0.00    -0.203 F 
ATOM     70  C   UNL A   1      50.581  26.608  24.437  1.00  0.00     0.198 A 
ATOM     71  C   UNL A   1      51.168  26.016  26.687  1.00  0.00     0.198 A 
ATOM     72  F   UNL A   1      49.569  26.170  28.404  1.00  0.00    -0.203 F 
ATOM     73  F   UNL A   1      50.903  26.703  23.139  1.00  0.00    -0.200 F 
ATOM     74  C   UNL A   1      51.515  26.146  25.351  1.00  0.00     0.200 A 
ATOM     75  F   UNL A   1      52.075  25.581  27.573  1.00  0.00    -0.200 F 
ATOM     76  F   UNL A   1      52.749  25.818  24.942  1.00  0.00    -0.200 F 
ENDBRANCH  52  66
BRANCH  53  77
ATOM     77  C   UNL A   1      39.682  28.692  29.596  1.00  0.00     0.064 A 
ATOM     78  C   UNL A   1      39.379  28.533  30.956  1.00  0.00     0.173 A 
ATOM     79  C   UNL A   1      38.652  29.123  28.747  1.00  0.00     0.173 A 
ATOM     80  F   UNL A   1      40.324  28.108  31.807  1.00  0.00    -0.203 F 
ATOM     81  C   UNL A   1      38.094  28.770  31.441  1.00  0.00     0.198 A 
ATOM     82  C   UNL A   1      37.376  29.390  29.238  1.00  0.00     0.198 A 
ATOM     83  F   UNL A   1      38.889  29.299  27.438  1.00  0.00    -0.203 F 
ATOM     84  F   UNL A   1      37.820  28.560  32.736  1.00  0.00    -0.200 F 
ATOM     85  C   UNL A   1      37.095  29.203  30.584  1.00  0.00     0.200 A 
ATOM     86  F   UNL A   1      36.418  29.826  28.409  1.00  0.00    -0.200 F 
ATOM     87  F   UNL A   1      35.861  29.435  31.050  1.00  0.00    -0.200 F 
ENDBRANCH  53  77
BRANCH  65  88
ATOM     88  C   UNL A   1      45.306  32.644  28.446  1.00  0.00     0.064 A 
ATOM     89  C   UNL A   1      45.027  33.570  27.430  1.00  0.00     0.173 A 
ATOM     90  C   UNL A   1      45.811  33.134  29.660  1.00  0.00     0.173 A 
ATOM     91  F   UNL A   1      44.556  33.151  26.245  1.00  0.00    -0.203 F 
ATOM     92  C   UNL A   1      45.281  34.926  27.609  1.00  0.00     0.198 A 
ATOM     93  C   UNL A   1      46.027  34.496  29.849  1.00  0.00     0.198 A 
ATOM     94  F   UNL A   1      46.085  32.293  30.669  1.00  0.00    -0.203 F 
ATOM     95  F   UNL A   1      45.066  35.785  26.601  1.00  0.00    -0.200 F 
ATOM     96  C   UNL A   1      45.773  35.390  28.819  1.00  0.00     0.200 A 
ATOM     97  F   UNL A   1      46.486  34.943  31.027  1.00  0.00    -0.200 F 
ATOM     98  F   UNL A   1      46.012  36.697  28.992  1.00  0.00    -0.200 F 
ENDBRANCH  65  88
ENDBRANCH  39  40
ENDBRANCH  31  34
ENDBRANCH  29  30
ENDBRANCH  28  29
ENDBRANCH  27  28
ENDBRANCH   1  27
TORSDOF 17
ENDMDL
MODEL 2
REMARK VINA RESULT:     -11.8      1.046      7.218
REMARK SMILES CCC[C@@](C)(NC(=O)N1CCN(C)C(=O)C1(C)C)C(=O)NCCCCCCNC(=O)c1ccc(-c2c3nc(c(-c4c(F)c(F)c(F)c(F)c4F)c4ccc([nH]4)c(-c4c(F)c(F)c(F)c(F)c4F)c4nc(c(-c5c(F)c(F)c(F)c(F)c5F)c5ccc2[nH]5)C=C4)C=C3)cc1
REMARK SMILES IDX 24 1 23 2 22 3 21 4 19 5 20 6 4 8 5 9 3 10 2 11 1 12 6 13
REMARK SMILES IDX 7 14 8 16 9 17 10 18 16 19 11 20 14 21 17 22 18 23 12 24
REMARK SMILES IDX 15 25 13 26 25 27 26 28 27 29 28 30 29 31 30 33 31 34 32 35
REMARK SMILES IDX 93 36 33 37 92 38 34 39 35 40 36 41 86 42 37 43 91 44 85 45
REMARK SMILES IDX 87 46 38 47 90 48 84 49 83 50 39 52 71 53 51 54 70 55 52 56
REMARK SMILES IDX 55 57 69 58 88 59 53 60 54 61 68 63 89 64 56 65 40 66 41 67
REMARK SMILES IDX 49 68 42 69 43 70 47 71 50 72 44 73 45 74 48 75 46 76 72 77
REMARK SMILES IDX 73 78 81 79 74 80 75 81 79 82 82 83 76 84 77 85 80 86 78 87
REMARK SMILES IDX 57 88 58 89 66 90 59 91 60 92 64 93 67 94 61 95 62 96 65 97
REMARK SMILES IDX 63 98
REMARK H PARENT 21 7 6 15 28 32 87 51 55 62
REMARK Flexibility Score: inf
ROOT
ATOM      1  C   UNL A   1      35.794  21.501  24.556  1.00  0.00     0.002 C 
ENDROOT
BRANCH   1   2
ATOM      2  C   UNL A   1      34.989  20.297  25.044  1.00  0.00     0.021 C 
BRANCH   2   3
ATOM      3  C   UNL A   1      33.593  20.403  25.698  1.00  0.00     0.116 C 
BRANCH   3   4
ATOM      4  N   UNL A   1      33.235  21.369  26.743  1.00  0.00    -0.354 N 
ATOM      5  C   UNL A   1      32.538  22.566  26.783  1.00  0.00     0.245 C 
ATOM      6  O   UNL A   1      32.041  22.887  27.868  1.00  0.00    -0.272 OA
ATOM      7  H   UNL A   1      33.571  21.102  27.629  1.00  0.00     0.163 HD
BRANCH   5   8
ATOM      8  C   UNL A   1      32.207  23.334  25.511  1.00  0.00     0.117 C 
ATOM      9  C   UNL A   1      33.617  23.848  25.079  1.00  0.00     0.045 C 
BRANCH   8  10
ATOM     10  C   UNL A   1      31.591  22.685  24.238  1.00  0.00     0.038 C 
BRANCH  10  11
ATOM     11  C   UNL A   1      32.449  22.463  22.992  1.00  0.00    -0.000 C 
ATOM     12  C   UNL A   1      32.080  21.171  22.280  1.00  0.00     0.004 C 
ENDBRANCH  10  11
ENDBRANCH   8  10
BRANCH   8  13
ATOM     13  N   UNL A   1      31.312  24.421  25.912  1.00  0.00    -0.324 N 
ATOM     14  C   UNL A   1      31.151  25.726  25.730  1.00  0.00     0.319 C 
ATOM     15  H   UNL A   1      30.605  24.074  26.503  1.00  0.00     0.166 HD
ATOM     16  O   UNL A   1      30.516  26.162  26.713  1.00  0.00    -0.249 OA
BRANCH  14  17
ATOM     17  N   UNL A   1      31.513  26.583  24.719  1.00  0.00    -0.309 N 
ATOM     18  C   UNL A   1      32.027  27.838  25.322  1.00  0.00     0.144 C 
ATOM     19  C   UNL A   1      31.712  26.666  23.154  1.00  0.00     0.118 C 
ATOM     20  C   UNL A   1      33.505  28.012  24.976  1.00  0.00     0.140 C 
ATOM     21  C   UNL A   1      33.220  26.808  22.839  1.00  0.00     0.247 C 
ATOM     22  C   UNL A   1      31.129  25.686  22.143  1.00  0.00     0.045 C 
ATOM     23  C   UNL A   1      31.123  28.033  22.564  1.00  0.00     0.045 C 
ATOM     24  N   UNL A   1      33.797  27.848  23.560  1.00  0.00    -0.342 N 
ATOM     25  O   UNL A   1      33.743  26.354  21.821  1.00  0.00    -0.272 OA
ATOM     26  C   UNL A   1      34.458  28.901  22.828  1.00  0.00     0.146 C 
ENDBRANCH  14  17
ENDBRANCH   8  13
ENDBRANCH   5   8
ENDBRANCH   3   4
ENDBRANCH   2   3
ENDBRANCH   1   2
BRANCH   1  27
ATOM     27  C   UNL A   1      37.212  21.698  25.080  1.00  0.00     0.002 C 
BRANCH  27  28
ATOM     28  C   UNL A   1      38.078  20.452  25.092  1.00  0.00     0.021 C 
BRANCH  28  29
ATOM     29  C   UNL A   1      39.357  20.579  25.901  1.00  0.00     0.116 C 
BRANCH  29  30
ATOM     30  N   UNL A   1      40.169  19.368  25.934  1.00  0.00    -0.352 N 
ATOM     31  C   UNL A   1      41.536  19.261  26.112  1.00  0.00     0.251 C 
ATOM     32  H   UNL A   1      39.682  18.520  25.816  1.00  0.00     0.163 HD
ATOM     33  O   UNL A   1      42.111  18.200  26.024  1.00  0.00    -0.269 OA
BRANCH  31  34
ATOM     34  C   UNL A   1      42.288  20.510  26.371  1.00  0.00     0.039 A 
ATOM     35  C   UNL A   1      42.788  21.236  25.290  1.00  0.00     0.014 A 
ATOM     36  C   UNL A   1      42.372  21.011  27.671  1.00  0.00     0.014 A 
ATOM     37  C   UNL A   1      43.295  22.516  25.510  1.00  0.00     0.010 A 
ATOM     38  C   UNL A   1      42.765  22.327  27.870  1.00  0.00     0.010 A 
ATOM     39  C   UNL A   1      43.239  23.090  26.793  1.00  0.00    -0.014 A 
BRANCH  39  40
ATOM     40  C   UNL A   1      43.676  24.488  27.023  1.00  0.00     0.031 A 
ATOM     41  C   UNL A   1      42.694  25.505  27.532  1.00  0.00     0.074 A 
ATOM     42  C   UNL A   1      44.941  24.847  26.727  1.00  0.00     0.049 A 
ATOM     43  N   UNL A   1      42.882  26.771  27.803  1.00  0.00    -0.248 NA
ATOM     44  C   UNL A   1      41.309  25.051  27.732  1.00  0.00     0.031 C 
ATOM     45  C   UNL A   1      45.958  23.964  26.150  1.00  0.00     0.029 A 
ATOM     46  N   UNL A   1      45.590  26.046  26.873  1.00  0.00    -0.354 N 
ATOM     47  C   UNL A   1      41.642  27.258  28.196  1.00  0.00     0.074 A 
ATOM     48  C   UNL A   1      40.694  26.178  28.053  1.00  0.00     0.031 C 
ATOM     49  C   UNL A   1      47.113  24.637  26.038  1.00  0.00     0.029 A 
ATOM     50  C   UNL A   1      46.912  26.007  26.499  1.00  0.00     0.049 A 
ATOM     51  H   UNL A   1      45.151  26.858  27.214  1.00  0.00     0.167 HD
ATOM     52  C   UNL A   1      41.330  28.486  28.673  1.00  0.00     0.037 A 
ATOM     53  C   UNL A   1      47.853  26.970  26.532  1.00  0.00     0.037 A 
ATOM     54  C   UNL A   1      42.287  29.549  28.832  1.00  0.00     0.049 A 
ATOM     55  C   UNL A   1      47.482  28.326  27.071  1.00  0.00     0.074 A 
ATOM     56  C   UNL A   1      42.095  30.810  29.365  1.00  0.00     0.029 A 
ATOM     57  N   UNL A   1      43.620  29.470  28.452  1.00  0.00    -0.354 N 
ATOM     58  N   UNL A   1      46.329  28.746  27.532  1.00  0.00    -0.248 NA
ATOM     59  C   UNL A   1      48.547  29.336  27.105  1.00  0.00     0.031 C 
ATOM     60  C   UNL A   1      43.297  31.516  29.252  1.00  0.00     0.029 A 
ATOM     61  C   UNL A   1      44.256  30.674  28.710  1.00  0.00     0.049 A 
ATOM     62  H   UNL A   1      44.050  28.677  28.058  1.00  0.00     0.167 HD
ATOM     63  C   UNL A   1      46.533  30.061  27.930  1.00  0.00     0.074 A 
ATOM     64  C   UNL A   1      47.929  30.355  27.684  1.00  0.00     0.031 C 
ATOM     65  C   UNL A   1      45.647  30.946  28.450  1.00  0.00     0.037 A 
BRANCH  52  66
ATOM     66  C   UNL A   1      39.900  28.739  29.058  1.00  0.00     0.064 A 
ATOM     67  C   UNL A   1      38.966  29.241  28.137  1.00  0.00     0.173 A 
ATOM     68  C   UNL A   1      39.450  28.456  30.355  1.00  0.00     0.173 A 
ATOM     69  F   UNL A   1      39.345  29.544  26.885  1.00  0.00    -0.203 F 
ATOM     70  C   UNL A   1      37.646  29.479  28.510  1.00  0.00     0.198 A 
ATOM     71  C   UNL A   1      38.121  28.663  30.715  1.00  0.00     0.198 A 
ATOM     72  F   UNL A   1      40.299  27.975  31.277  1.00  0.00    -0.203 F 
ATOM     73  F   UNL A   1      36.788  30.013  27.629  1.00  0.00    -0.200 F 
ATOM     74  C   UNL A   1      37.222  29.182  29.796  1.00  0.00     0.200 A 
ATOM     75  F   UNL A   1      37.710  28.363  31.955  1.00  0.00    -0.200 F 
ATOM     76  F   UNL A   1      35.949  29.404  30.152  1.00  0.00    -0.200 F 
ENDBRANCH  52  66
BRANCH  53  77
ATOM     77  C   UNL A   1      49.239  26.677  26.075  1.00  0.00     0.064 A 
ATOM     78  C   UNL A   1      50.186  26.123  26.948  1.00  0.00     0.173 A 
ATOM     79  C   UNL A   1      49.647  26.950  24.762  1.00  0.00     0.173 A 
ATOM     80  F   UNL A   1      49.851  25.858  28.220  1.00  0.00    -0.203 F 
ATOM     81  C   UNL A   1      51.493  25.877  26.532  1.00  0.00     0.198 A 
ATOM     82  C   UNL A   1      50.945  26.673  24.338  1.00  0.00     0.198 A 
ATOM     83  F   UNL A   1      48.779  27.473  23.883  1.00  0.00    -0.203 F 
ATOM     84  F   UNL A   1      52.392  25.395  27.403  1.00  0.00    -0.200 F 
ATOM     85  C   UNL A   1      51.871  26.146  25.227  1.00  0.00     0.200 A 
ATOM     86  F   UNL A   1      51.301  26.919  23.070  1.00  0.00    -0.200 F 
ATOM     87  F   UNL A   1      53.126  25.906  24.825  1.00  0.00    -0.200 F 
ENDBRANCH  53  77
BRANCH  65  88
ATOM     88  C   UNL A   1      46.170  32.308  28.804  1.00  0.00     0.064 A 
ATOM     89  C   UNL A   1      46.191  33.355  27.869  1.00  0.00     0.173 A 
ATOM     90  C   UNL A   1      46.631  32.577  30.101  1.00  0.00     0.173 A 
ATOM     91  F   UNL A   1      45.773  33.145  26.612  1.00  0.00    -0.203 F 
ATOM     92  C   UNL A   1      46.691  34.608  28.210  1.00  0.00     0.198 A 
ATOM     93  C   UNL A   1      47.095  33.842  30.449  1.00  0.00     0.198 A 
ATOM     94  F   UNL A   1      46.623  31.616  31.036  1.00  0.00    -0.203 F 
ATOM     95  F   UNL A   1      46.760  35.574  27.283  1.00  0.00    -0.200 F 
ATOM     96  C   UNL A   1      47.136  34.853  29.500  1.00  0.00     0.200 A 
ATOM     97  F   UNL A   1      47.506  34.082  31.702  1.00  0.00    -0.200 F 
ATOM     98  F   UNL A   1      47.612  36.062  29.828  1.00  0.00    -0.200 F 
ENDBRANCH  65  88
ENDBRANCH  39  40
ENDBRANCH  31  34
ENDBRANCH  29  30
ENDBRANCH  28  29
ENDBRANCH  27  28
ENDBRANCH   1  27
TORSDOF 17
ENDMDL
MODEL 3
REMARK VINA RESULT:     -11.8      5.131     10.950
REMARK SMILES CCC[C@@](C)(NC(=O)N1CCN(C)C(=O)C1(C)C)C(=O)NCCCCCCNC(=O)c1ccc(-c2c3nc(c(-c4c(F)c(F)c(F)c(F)c4F)c4ccc([nH]4)c(-c4c(F)c(F)c(F)c(F)c4F)c4nc(c(-c5c(F)c(F)c(F)c(F)c5F)c5ccc2[nH]5)C=C4)C=C3)cc1
REMARK SMILES IDX 24 1 23 2 22 3 21 4 19 5 20 6 4 8 5 9 3 10 2 11 1 12 6 13
REMARK SMILES IDX 7 14 8 16 9 17 10 18 16 19 11 20 14 21 17 22 18 23 12 24
REMARK SMILES IDX 15 25 13 26 25 27 26 28 27 29 28 30 29 31 30 33 31 34 32 35
REMARK SMILES IDX 93 36 33 37 92 38 34 39 35 40 36 41 86 42 37 43 91 44 85 45
REMARK SMILES IDX 87 46 38 47 90 48 84 49 83 50 39 52 71 53 51 54 70 55 52 56
REMARK SMILES IDX 55 57 69 58 88 59 53 60 54 61 68 63 89 64 56 65 40 66 41 67
REMARK SMILES IDX 49 68 42 69 43 70 47 71 50 72 44 73 45 74 48 75 46 76 72 77
REMARK SMILES IDX 73 78 81 79 74 80 75 81 79 82 82 83 76 84 77 85 80 86 78 87
REMARK SMILES IDX 57 88 58 89 66 90 59 91 60 92 64 93 67 94 61 95 62 96 65 97
REMARK SMILES IDX 63 98
REMARK H PARENT 21 7 6 15 28 32 87 51 55 62
REMARK Flexibility Score: inf
ROOT
ATOM      1  C   UNL A   1      33.003  29.829  25.855  1.00  0.00     0.002 C 
ENDROOT
BRANCH   1   2
ATOM      2  C   UNL A   1      33.924  28.671  26.236  1.00  0.00     0.021 C 
BRANCH   2   3
ATOM      3  C   UNL A   1      33.434  27.226  26.482  1.00  0.00     0.116 C 
BRANCH   3   4
ATOM      4  N   UNL A   1      32.033  26.850  26.702  1.00  0.00    -0.354 N 
ATOM      5  C   UNL A   1      31.014  26.337  25.915  1.00  0.00     0.245 C 
ATOM      6  O   UNL A   1      30.113  25.724  26.496  1.00  0.00    -0.272 OA
ATOM      7  H   UNL A   1      31.749  26.996  27.633  1.00  0.00     0.163 HD
BRANCH   5   8
ATOM      8  C   UNL A   1      31.112  26.331  24.395  1.00  0.00     0.117 C 
ATOM      9  C   UNL A   1      30.005  27.361  24.005  1.00  0.00     0.045 C 
BRANCH   8  10
ATOM     10  C   UNL A   1      32.381  26.762  23.604  1.00  0.00     0.038 C 
BRANCH  10  11
ATOM     11  C   UNL A   1      32.363  28.028  22.746  1.00  0.00    -0.000 C 
ATOM     12  C   UNL A   1      33.770  28.523  22.450  1.00  0.00     0.004 C 
ENDBRANCH  10  11
ENDBRANCH   8  10
BRANCH   8  13
ATOM     13  N   UNL A   1      30.786  24.968  23.971  1.00  0.00    -0.324 N 
ATOM     14  C   UNL A   1      31.347  23.768  23.880  1.00  0.00     0.319 C 
ATOM     15  H   UNL A   1      29.855  24.929  23.653  1.00  0.00     0.166 HD
ATOM     16  O   UNL A   1      30.732  23.137  22.995  1.00  0.00    -0.249 OA
BRANCH  14  17
ATOM     17  N   UNL A   1      32.378  23.163  24.556  1.00  0.00    -0.309 N 
ATOM     18  C   UNL A   1      31.910  21.845  25.054  1.00  0.00     0.144 C 
ATOM     19  C   UNL A   1      33.919  23.296  24.878  1.00  0.00     0.118 C 
ATOM     20  C   UNL A   1      32.700  20.725  24.378  1.00  0.00     0.140 C 
ATOM     21  C   UNL A   1      34.691  22.169  24.152  1.00  0.00     0.247 C 
ATOM     22  C   UNL A   1      34.738  24.573  24.731  1.00  0.00     0.045 C 
ATOM     23  C   UNL A   1      34.223  22.966  26.415  1.00  0.00     0.045 C 
ATOM     24  N   UNL A   1      34.141  20.919  24.420  1.00  0.00    -0.342 N 
ATOM     25  O   UNL A   1      35.843  22.298  23.738  1.00  0.00    -0.272 OA
ATOM     26  C   UNL A   1      34.993  19.909  24.998  1.00  0.00     0.146 C 
ENDBRANCH  14  17
ENDBRANCH   8  13
ENDBRANCH   5   8
ENDBRANCH   3   4
ENDBRANCH   2   3
ENDBRANCH   1   2
BRANCH   1  27
ATOM     27  C   UNL A   1      32.038  30.375  26.901  1.00  0.00     0.002 C 
BRANCH  27  28
ATOM     28  C   UNL A   1      31.758  31.864  26.810  1.00  0.00     0.021 C 
BRANCH  28  29
ATOM     29  C   UNL A   1      32.842  32.747  27.405  1.00  0.00     0.116 C 
BRANCH  29  30
ATOM     30  N   UNL A   1      32.418  34.117  27.674  1.00  0.00    -0.352 N 
ATOM     31  C   UNL A   1      32.952  35.012  28.582  1.00  0.00     0.251 C 
ATOM     32  H   UNL A   1      31.657  34.444  27.141  1.00  0.00     0.163 HD
ATOM     33  O   UNL A   1      32.449  36.094  28.783  1.00  0.00    -0.269 OA
BRANCH  31  34
ATOM     34  C   UNL A   1      34.146  34.579  29.343  1.00  0.00     0.039 A 
ATOM     35  C   UNL A   1      33.972  33.950  30.576  1.00  0.00     0.014 A 
ATOM     36  C   UNL A   1      35.412  34.684  28.764  1.00  0.00     0.014 A 
ATOM     37  C   UNL A   1      35.069  33.343  31.187  1.00  0.00     0.010 A 
ATOM     38  C   UNL A   1      36.472  33.979  29.313  1.00  0.00     0.010 A 
ATOM     39  C   UNL A   1      36.314  33.308  30.534  1.00  0.00    -0.014 A 
BRANCH  39  40
ATOM     40  C   UNL A   1      37.462  32.576  31.121  1.00  0.00     0.031 A 
ATOM     41  C   UNL A   1      37.964  32.941  32.489  1.00  0.00     0.074 A 
ATOM     42  C   UNL A   1      38.079  31.619  30.400  1.00  0.00     0.049 A 
ATOM     43  N   UNL A   1      38.946  32.417  33.177  1.00  0.00    -0.248 NA
ATOM     44  C   UNL A   1      37.296  34.066  33.164  1.00  0.00     0.031 C 
ATOM     45  C   UNL A   1      37.732  31.236  29.028  1.00  0.00     0.029 A 
ATOM     46  N   UNL A   1      39.124  30.790  30.719  1.00  0.00    -0.354 N 
ATOM     47  C   UNL A   1      39.013  33.152  34.354  1.00  0.00     0.074 A 
ATOM     48  C   UNL A   1      38.031  34.206  34.256  1.00  0.00     0.031 C 
ATOM     49  C   UNL A   1      38.516  30.217  28.644  1.00  0.00     0.029 A 
ATOM     50  C   UNL A   1      39.444  29.897  29.724  1.00  0.00     0.049 A 
ATOM     51  H   UNL A   1      39.600  30.830  31.579  1.00  0.00     0.167 HD
ATOM     52  C   UNL A   1      39.797  32.941  35.437  1.00  0.00     0.037 A 
ATOM     53  C   UNL A   1      40.378  28.928  29.693  1.00  0.00     0.037 A 
ATOM     54  C   UNL A   1      40.757  31.874  35.533  1.00  0.00     0.049 A 
ATOM     55  C   UNL A   1      41.234  28.710  30.912  1.00  0.00     0.074 A 
ATOM     56  C   UNL A   1      41.558  31.527  36.605  1.00  0.00     0.029 A 
ATOM     57  N   UNL A   1      41.048  30.982  34.509  1.00  0.00    -0.354 N 
ATOM     58  N   UNL A   1      41.223  29.349  32.057  1.00  0.00    -0.248 NA
ATOM     59  C   UNL A   1      42.225  27.628  30.837  1.00  0.00     0.031 C 
ATOM     60  C   UNL A   1      42.376  30.463  36.210  1.00  0.00     0.029 A 
ATOM     61  C   UNL A   1      42.040  30.104  34.914  1.00  0.00     0.049 A 
ATOM     62  H   UNL A   1      40.612  30.974  33.625  1.00  0.00     0.167 HD
ATOM     63  C   UNL A   1      42.186  28.736  32.847  1.00  0.00     0.074 A 
ATOM     64  C   UNL A   1      42.740  27.654  32.058  1.00  0.00     0.031 C 
ATOM     65  C   UNL A   1      42.580  29.039  34.109  1.00  0.00     0.037 A 
BRANCH  52  66
ATOM     66  C   UNL A   1      39.643  33.879  36.600  1.00  0.00     0.064 A 
ATOM     67  C   UNL A   1      38.846  33.553  37.709  1.00  0.00     0.173 A 
ATOM     68  C   UNL A   1      40.317  35.108  36.619  1.00  0.00     0.173 A 
ATOM     69  F   UNL A   1      38.165  32.396  37.738  1.00  0.00    -0.203 F 
ATOM     70  C   UNL A   1      38.705  34.436  38.777  1.00  0.00     0.198 A 
ATOM     71  C   UNL A   1      40.202  35.973  37.704  1.00  0.00     0.198 A 
ATOM     72  F   UNL A   1      41.093  35.471  35.586  1.00  0.00    -0.203 F 
ATOM     73  F   UNL A   1      37.892  34.128  39.797  1.00  0.00    -0.200 F 
ATOM     74  C   UNL A   1      39.390  35.642  38.777  1.00  0.00     0.200 A 
ATOM     75  F   UNL A   1      40.874  37.133  37.709  1.00  0.00    -0.200 F 
ATOM     76  F   UNL A   1      39.259  36.488  39.808  1.00  0.00    -0.200 F 
ENDBRANCH  52  66
BRANCH  53  77
ATOM     77  C   UNL A   1      40.528  28.071  28.485  1.00  0.00     0.064 A 
ATOM     78  C   UNL A   1      41.305  28.488  27.394  1.00  0.00     0.173 A 
ATOM     79  C   UNL A   1      39.896  26.823  28.393  1.00  0.00     0.173 A 
ATOM     80  F   UNL A   1      41.917  29.681  27.425  1.00  0.00    -0.203 F 
ATOM     81  C   UNL A   1      41.421  27.702  26.250  1.00  0.00     0.198 A 
ATOM     82  C   UNL A   1      40.040  26.023  27.261  1.00  0.00     0.198 A 
ATOM     83  F   UNL A   1      39.148  26.372  29.411  1.00  0.00    -0.203 F 
ATOM     84  F   UNL A   1      42.128  28.149  25.202  1.00  0.00    -0.200 F 
ATOM     85  C   UNL A   1      40.795  26.468  26.185  1.00  0.00     0.200 A 
ATOM     86  F   UNL A   1      39.446  24.823  27.211  1.00  0.00    -0.200 F 
ATOM     87  F   UNL A   1      40.910  25.710  25.087  1.00  0.00    -0.200 F 
ENDBRANCH  53  77
BRANCH  65  88
ATOM     88  C   UNL A   1      43.648  28.175  34.717  1.00  0.00     0.064 A 
ATOM     89  C   UNL A   1      45.006  28.519  34.639  1.00  0.00     0.173 A 
ATOM     90  C   UNL A   1      43.306  27.004  35.409  1.00  0.00     0.173 A 
ATOM     91  F   UNL A   1      45.387  29.622  33.977  1.00  0.00    -0.203 F 
ATOM     92  C   UNL A   1      45.983  27.701  35.197  1.00  0.00     0.198 A 
ATOM     93  C   UNL A   1      44.283  26.209  35.999  1.00  0.00     0.198 A 
ATOM     94  F   UNL A   1      42.021  26.635  35.522  1.00  0.00    -0.203 F 
ATOM     95  F   UNL A   1      47.279  28.016  35.056  1.00  0.00    -0.200 F 
ATOM     96  C   UNL A   1      45.622  26.551  35.883  1.00  0.00     0.200 A 
ATOM     97  F   UNL A   1      43.929  25.108  36.678  1.00  0.00    -0.200 F 
ATOM     98  F   UNL A   1      46.564  25.768  36.425  1.00  0.00    -0.200 F 
ENDBRANCH  65  88
ENDBRANCH  39  40
ENDBRANCH  31  34
ENDBRANCH  29  30
ENDBRANCH  28  29
ENDBRANCH  27  28
ENDBRANCH   1  27
TORSDOF 17
ENDMDL
