MODEL 1
REMARK VINA RESULT:     -12.8      0.000      0.000
REMARK SMILES C[C@@H](Oc1ccc(/C=C2\C(=O)[NH+]=C(NCCCCCCNC(=O)c3ccc(-c4c5nc(c(-c6c(F)c(F)c(F)c(F)c6F)c6ccc([nH]6)c(-c6c(F)c(F)c(F)c(F)c6F)c6nc(c(-c7c(F)c(F)c(F)c(F)c7F)c7ccc4[nH]7)C=C6)C=C5)cc3)N(c3ccc4c(c3)OCO4)C2=O)cc1)C(=O)[O-]
REMARK SMILES IDX 17 1 16 2 15 3 14 4 8 5 9 6 10 7 97 8 11 9 12 10 87 11 98 12
REMARK SMILES IDX 13 13 7 16 4 17 5 18 100 19 6 20 99 21 3 22 2 23 1 24 101 25
REMARK SMILES IDX 102 26 103 27 88 28 89 29 93 30 90 31 92 32 91 33 94 34
REMARK SMILES IDX 96 35 95 36 18 37 19 38 20 39 21 40 22 41 23 43 24 44 25 45
REMARK SMILES IDX 86 46 26 47 85 48 27 49 28 50 29 51 79 52 30 53 84 54 78 55
REMARK SMILES IDX 80 56 31 57 83 58 77 59 76 60 32 62 64 63 44 64 63 65 45 66
REMARK SMILES IDX 48 67 62 68 81 69 46 70 47 71 61 73 82 74 49 75 33 76 34 77
REMARK SMILES IDX 42 78 35 79 36 80 40 81 43 82 37 83 38 84 41 85 39 86 65 87
REMARK SMILES IDX 66 88 74 89 67 90 68 91 72 92 75 93 69 94 70 95 73 96 71 97
REMARK SMILES IDX 50 98 51 99 59 100 52 101 53 102 57 103 60 104 54 105 55 106
REMARK SMILES IDX 58 107 56 108
REMARK H PARENT 12 14 14 15 21 42 80 61 48 72
REMARK Flexibility Score: inf
ROOT
ATOM      1  C   UNL A   1      35.106  30.145  27.654  1.00  0.00     0.003 C 
ENDROOT
BRANCH   1   2
ATOM      2  C   UNL A   1      33.756  29.596  27.174  1.00  0.00     0.037 C 
BRANCH   2   3
ATOM      3  C   UNL A   1      33.772  28.104  26.852  1.00  0.00     0.197 C 
BRANCH   3   4
ATOM      4  N   UNL A   1      32.878  27.831  25.745  1.00  0.00    -0.277 N 
ATOM      5  C   UNL A   1      31.951  22.949  23.811  1.00  0.00     0.031 C 
ATOM      6  C   UNL A   1      32.471  24.178  23.987  1.00  0.00     0.138 C 
ATOM      7  C   UNL A   1      33.703  24.511  24.723  1.00  0.00     0.321 C 
ATOM      8  C   UNL A   1      31.730  25.298  23.377  1.00  0.00     0.328 C 
ATOM      9  O   UNL A   1      34.669  23.764  24.756  1.00  0.00    -0.250 OA
ATOM     10  N   UNL A   1      33.671  25.706  25.379  1.00  0.00    -0.210 N 
ATOM     11  N   UNL A   1      31.983  26.529  23.967  1.00  0.00    -0.162 N 
ATOM     12  O   UNL A   1      30.954  25.111  22.440  1.00  0.00    -0.249 OA
ATOM     13  C   UNL A   1      32.874  26.664  25.025  1.00  0.00     0.366 C 
ATOM     14  H   UNL A   1      34.273  25.845  26.146  1.00  0.00     0.270 HD
ATOM     15  H   UNL A   1      32.232  28.529  25.494  1.00  0.00     0.260 HD
BRANCH   5  16
ATOM     16  C   UNL A   1      32.400  21.651  24.329  1.00  0.00    -0.024 A 
ATOM     17  C   UNL A   1      33.075  19.072  25.208  1.00  0.00     0.120 A 
ATOM     18  C   UNL A   1      33.054  20.133  26.111  1.00  0.00     0.047 A 
ATOM     19  C   UNL A   1      32.711  19.283  23.883  1.00  0.00     0.047 A 
ATOM     20  C   UNL A   1      32.707  21.417  25.674  1.00  0.00     0.012 A 
ATOM     21  C   UNL A   1      32.390  20.567  23.443  1.00  0.00     0.012 A 
BRANCH  17  22
ATOM     22  O   UNL A   1      33.318  17.821  25.697  1.00  0.00    -0.485 OA
BRANCH  22  23
ATOM     23  C   UNL A   1      32.901  16.759  24.827  1.00  0.00     0.216 C 
ATOM     24  C   UNL A   1      32.132  15.673  25.574  1.00  0.00     0.059 C 
BRANCH  23  25
ATOM     25  C   UNL A   1      34.148  16.112  24.234  1.00  0.00     0.082 C 
ATOM     26  O   UNL A   1      35.051  15.586  24.869  1.00  0.00    -0.546 OA
ATOM     27  O   UNL A   1      34.248  16.232  22.894  1.00  0.00    -0.546 OA
ENDBRANCH  23  25
ENDBRANCH  22  23
ENDBRANCH  17  22
ENDBRANCH   5  16
BRANCH  11  28
ATOM     28  C   UNL A   1      31.233  27.630  23.475  1.00  0.00     0.115 A 
ATOM     29  C   UNL A   1      31.846  28.577  22.625  1.00  0.00     0.048 A 
ATOM     30  C   UNL A   1      29.857  27.682  23.729  1.00  0.00     0.094 A 
ATOM     31  C   UNL A   1      31.072  29.550  21.982  1.00  0.00     0.054 A 
ATOM     32  C   UNL A   1      29.126  28.647  23.078  1.00  0.00     0.169 A 
ATOM     33  C   UNL A   1      29.713  29.544  22.216  1.00  0.00     0.166 A 
ATOM     34  O   UNL A   1      27.778  28.801  23.153  1.00  0.00    -0.453 OA
ATOM     35  O   UNL A   1      28.796  30.358  21.628  1.00  0.00    -0.454 OA
ATOM     36  C   UNL A   1      27.568  29.756  22.094  1.00  0.00     0.468 C 
ENDBRANCH  11  28
ENDBRANCH   3   4
ENDBRANCH   2   3
ENDBRANCH   1   2
BRANCH   1  37
ATOM     37  C   UNL A   1      35.139  31.653  27.925  1.00  0.00     0.002 C 
BRANCH  37  38
ATOM     38  C   UNL A   1      33.777  32.349  27.880  1.00  0.00     0.021 C 
BRANCH  38  39
ATOM     39  C   UNL A   1      33.833  33.834  27.537  1.00  0.00     0.116 C 
BRANCH  39  40
ATOM     40  N   UNL A   1      33.104  34.649  28.497  1.00  0.00    -0.352 N 
ATOM     41  C   UNL A   1      33.279  34.767  29.852  1.00  0.00     0.251 C 
ATOM     42  H   UNL A   1      32.379  35.196  28.117  1.00  0.00     0.163 HD
ATOM     43  O   UNL A   1      32.452  35.363  30.534  1.00  0.00    -0.269 OA
BRANCH  41  44
ATOM     44  C   UNL A   1      34.456  34.147  30.500  1.00  0.00     0.039 A 
ATOM     45  C   UNL A   1      34.254  33.111  31.416  1.00  0.00     0.014 A 
ATOM     46  C   UNL A   1      35.751  34.580  30.203  1.00  0.00     0.014 A 
ATOM     47  C   UNL A   1      35.353  32.460  31.977  1.00  0.00     0.010 A 
ATOM     48  C   UNL A   1      36.846  33.883  30.705  1.00  0.00     0.010 A 
ATOM     49  C   UNL A   1      36.657  32.812  31.593  1.00  0.00    -0.014 A 
BRANCH  49  50
ATOM     50  C   UNL A   1      37.834  32.050  32.082  1.00  0.00     0.031 A 
ATOM     51  C   UNL A   1      38.483  32.403  33.388  1.00  0.00     0.074 A 
ATOM     52  C   UNL A   1      38.367  31.089  31.302  1.00  0.00     0.049 A 
ATOM     53  N   UNL A   1      39.559  31.901  33.941  1.00  0.00    -0.248 NA
ATOM     54  C   UNL A   1      37.859  33.486  34.163  1.00  0.00     0.031 C 
ATOM     55  C   UNL A   1      37.864  30.695  29.986  1.00  0.00     0.029 A 
ATOM     56  N   UNL A   1      39.462  30.284  31.495  1.00  0.00    -0.354 N 
ATOM     57  C   UNL A   1      39.745  32.612  35.119  1.00  0.00     0.074 A 
ATOM     58  C   UNL A   1      38.705  33.617  35.173  1.00  0.00     0.031 C 
ATOM     59  C   UNL A   1      38.642  29.720  29.492  1.00  0.00     0.029 A 
ATOM     60  C   UNL A   1      39.721  29.447  30.437  1.00  0.00     0.049 A 
ATOM     61  H   UNL A   1      40.010  30.304  32.312  1.00  0.00     0.167 HD
ATOM     62  C   UNL A   1      40.686  32.429  36.077  1.00  0.00     0.037 A 
ATOM     63  C   UNL A   1      40.723  28.571  30.240  1.00  0.00     0.037 A 
ATOM     64  C   UNL A   1      41.712  31.420  36.021  1.00  0.00     0.049 A 
ATOM     65  C   UNL A   1      41.761  28.388  31.312  1.00  0.00     0.074 A 
ATOM     66  C   UNL A   1      42.663  31.102  36.975  1.00  0.00     0.029 A 
ATOM     67  N   UNL A   1      41.931  30.574  34.943  1.00  0.00    -0.354 N 
ATOM     68  N   UNL A   1      41.876  29.002  32.465  1.00  0.00    -0.248 NA
ATOM     69  C   UNL A   1      42.804  27.385  31.062  1.00  0.00     0.031 C 
ATOM     70  C   UNL A   1      43.494  30.106  36.449  1.00  0.00     0.029 A 
ATOM     71  C   UNL A   1      43.025  29.760  35.192  1.00  0.00     0.049 A 
ATOM     72  H   UNL A   1      41.388  30.555  34.121  1.00  0.00     0.167 HD
ATOM     73  C   UNL A   1      42.990  28.454  33.083  1.00  0.00     0.074 A 
ATOM     74  C   UNL A   1      43.506  27.439  32.185  1.00  0.00     0.031 C 
ATOM     75  C   UNL A   1      43.537  28.763  34.284  1.00  0.00     0.037 A 
BRANCH  62  76
ATOM     76  C   UNL A   1      40.652  33.351  37.263  1.00  0.00     0.064 A 
ATOM     77  C   UNL A   1      39.732  33.178  38.309  1.00  0.00     0.173 A 
ATOM     78  C   UNL A   1      41.562  34.417  37.362  1.00  0.00     0.173 A 
ATOM     79  F   UNL A   1      38.836  32.181  38.262  1.00  0.00    -0.203 F 
ATOM     80  C   UNL A   1      39.695  34.061  39.387  1.00  0.00     0.198 A 
ATOM     81  C   UNL A   1      41.544  35.276  38.458  1.00  0.00     0.198 A 
ATOM     82  F   UNL A   1      42.468  34.624  36.396  1.00  0.00    -0.203 F 
ATOM     83  F   UNL A   1      38.765  33.913  40.340  1.00  0.00    -0.200 F 
ATOM     84  C   UNL A   1      40.603  35.105  39.462  1.00  0.00     0.200 A 
ATOM     85  F   UNL A   1      42.433  36.275  38.538  1.00  0.00    -0.200 F 
ATOM     86  F   UNL A   1      40.566  35.954  40.499  1.00  0.00    -0.200 F 
ENDBRANCH  62  76
BRANCH  63  87
ATOM     87  C   UNL A   1      40.782  27.801  28.971  1.00  0.00     0.064 A 
ATOM     88  C   UNL A   1      39.989  26.661  28.778  1.00  0.00     0.173 A 
ATOM     89  C   UNL A   1      41.608  28.208  27.912  1.00  0.00     0.173 A 
ATOM     90  F   UNL A   1      39.196  26.222  29.767  1.00  0.00    -0.203 F 
ATOM     91  C   UNL A   1      40.028  25.952  27.579  1.00  0.00     0.198 A 
ATOM     92  C   UNL A   1      41.625  27.515  26.704  1.00  0.00     0.198 A 
ATOM     93  F   UNL A   1      42.381  29.296  28.044  1.00  0.00    -0.203 F 
ATOM     94  F   UNL A   1      39.285  24.847  27.433  1.00  0.00    -0.200 F 
ATOM     95  C   UNL A   1      40.839  26.385  26.541  1.00  0.00     0.200 A 
ATOM     96  F   UNL A   1      42.395  27.948  25.697  1.00  0.00    -0.200 F 
ATOM     97  F   UNL A   1      40.864  25.712  25.382  1.00  0.00    -0.200 F 
ENDBRANCH  63  87
BRANCH  75  98
ATOM     98  C   UNL A   1      44.754  27.990  34.706  1.00  0.00     0.064 A 
ATOM     99  C   UNL A   1      44.649  26.771  35.392  1.00  0.00     0.173 A 
ATOM    100  C   UNL A   1      46.039  28.453  34.385  1.00  0.00     0.173 A 
ATOM    101  F   UNL A   1      43.445  26.293  35.738  1.00  0.00    -0.203 F 
ATOM    102  C   UNL A   1      45.786  26.055  35.759  1.00  0.00     0.198 A 
ATOM    103  C   UNL A   1      47.173  27.719  34.725  1.00  0.00     0.198 A 
ATOM    104  F   UNL A   1      46.196  29.611  33.725  1.00  0.00    -0.203 F 
ATOM    105  F   UNL A   1      45.663  24.916  36.455  1.00  0.00    -0.200 F 
ATOM    106  C   UNL A   1      47.045  26.525  35.418  1.00  0.00     0.200 A 
ATOM    107  F   UNL A   1      48.388  28.169  34.381  1.00  0.00    -0.200 F 
ATOM    108  F   UNL A   1      48.138  25.830  35.762  1.00  0.00    -0.200 F 
ENDBRANCH  75  98
ENDBRANCH  49  50
ENDBRANCH  41  44
ENDBRANCH  39  40
ENDBRANCH  38  39
ENDBRANCH  37  38
ENDBRANCH   1  37
TORSDOF 17
ENDMDL
MODEL 2
REMARK VINA RESULT:     -12.1      0.857      2.149
REMARK SMILES C[C@@H](Oc1ccc(/C=C2\C(=O)[NH+]=C(NCCCCCCNC(=O)c3ccc(-c4c5nc(c(-c6c(F)c(F)c(F)c(F)c6F)c6ccc([nH]6)c(-c6c(F)c(F)c(F)c(F)c6F)c6nc(c(-c7c(F)c(F)c(F)c(F)c7F)c7ccc4[nH]7)C=C6)C=C5)cc3)N(c3ccc4c(c3)OCO4)C2=O)cc1)C(=O)[O-]
REMARK SMILES IDX 17 1 16 2 15 3 14 4 8 5 9 6 10 7 97 8 11 9 12 10 87 11 98 12
REMARK SMILES IDX 13 13 7 16 4 17 5 18 100 19 6 20 99 21 3 22 2 23 1 24 101 25
REMARK SMILES IDX 102 26 103 27 88 28 89 29 93 30 90 31 92 32 91 33 94 34
REMARK SMILES IDX 96 35 95 36 18 37 19 38 20 39 21 40 22 41 23 43 24 44 25 45
REMARK SMILES IDX 86 46 26 47 85 48 27 49 28 50 29 51 79 52 30 53 84 54 78 55
REMARK SMILES IDX 80 56 31 57 83 58 77 59 76 60 32 62 64 63 44 64 63 65 45 66
REMARK SMILES IDX 48 67 62 68 81 69 46 70 47 71 61 73 82 74 49 75 33 76 34 77
REMARK SMILES IDX 42 78 35 79 36 80 40 81 43 82 37 83 38 84 41 85 39 86 65 87
REMARK SMILES IDX 66 88 74 89 67 90 68 91 72 92 75 93 69 94 70 95 73 96 71 97
REMARK SMILES IDX 50 98 51 99 59 100 52 101 53 102 57 103 60 104 54 105 55 106
REMARK SMILES IDX 58 107 56 108
REMARK H PARENT 12 14 14 15 21 42 80 61 48 72
REMARK Flexibility Score: inf
ROOT
ATOM      1  C   UNL A   1      34.026  30.376  27.589  1.00  0.00     0.003 C 
ENDROOT
BRANCH   1   2
ATOM      2  C   UNL A   1      32.678  30.228  26.873  1.00  0.00     0.037 C 
BRANCH   2   3
ATOM      3  C   UNL A   1      32.013  28.869  27.074  1.00  0.00     0.197 C 
BRANCH   3   4
ATOM      4  N   UNL A   1      31.235  28.524  25.903  1.00  0.00    -0.277 N 
ATOM      5  C   UNL A   1      31.350  23.732  23.566  1.00  0.00     0.031 C 
ATOM      6  C   UNL A   1      31.614  25.019  23.861  1.00  0.00     0.138 C 
ATOM      7  C   UNL A   1      32.728  25.517  24.686  1.00  0.00     0.321 C 
ATOM      8  C   UNL A   1      30.696  26.024  23.294  1.00  0.00     0.328 C 
ATOM      9  O   UNL A   1      33.818  24.968  24.718  1.00  0.00    -0.250 OA
ATOM     10  N   UNL A   1      32.438  26.626  25.426  1.00  0.00    -0.210 N 
ATOM     11  N   UNL A   1      30.681  27.228  23.986  1.00  0.00    -0.162 N 
ATOM     12  O   UNL A   1      30.010  25.772  22.304  1.00  0.00    -0.249 OA
ATOM     13  C   UNL A   1      31.485  27.441  25.100  1.00  0.00     0.366 C 
ATOM     14  H   UNL A   1      32.970  26.813  26.233  1.00  0.00     0.270 HD
ATOM     15  H   UNL A   1      30.476  29.105  25.668  1.00  0.00     0.260 HD
BRANCH   5  16
ATOM     16  C   UNL A   1      32.020  22.505  24.012  1.00  0.00    -0.024 A 
ATOM     17  C   UNL A   1      33.263  20.070  24.648  1.00  0.00     0.120 A 
ATOM     18  C   UNL A   1      32.330  20.626  25.521  1.00  0.00     0.047 A 
ATOM     19  C   UNL A   1      33.539  20.697  23.439  1.00  0.00     0.047 A 
ATOM     20  C   UNL A   1      31.703  21.834  25.198  1.00  0.00     0.012 A 
ATOM     21  C   UNL A   1      32.933  21.914  23.129  1.00  0.00     0.012 A 
BRANCH  17  22
ATOM     22  O   UNL A   1      33.773  18.841  24.955  1.00  0.00    -0.485 OA
BRANCH  22  23
ATOM     23  C   UNL A   1      32.875  17.752  24.697  1.00  0.00     0.216 C 
ATOM     24  C   UNL A   1      33.067  16.602  25.680  1.00  0.00     0.059 C 
BRANCH  23  25
ATOM     25  C   UNL A   1      33.168  17.214  23.300  1.00  0.00     0.082 C 
ATOM     26  O   UNL A   1      32.615  17.565  22.268  1.00  0.00    -0.546 OA
ATOM     27  O   UNL A   1      34.068  16.208  23.274  1.00  0.00    -0.546 OA
ENDBRANCH  23  25
ENDBRANCH  22  23
ENDBRANCH  17  22
ENDBRANCH   5  16
BRANCH  11  28
ATOM     28  C   UNL A   1      29.753  28.204  23.535  1.00  0.00     0.115 A 
ATOM     29  C   UNL A   1      28.372  27.911  23.526  1.00  0.00     0.048 A 
ATOM     30  C   UNL A   1      30.214  29.493  23.238  1.00  0.00     0.094 A 
ATOM     31  C   UNL A   1      27.441  28.924  23.270  1.00  0.00     0.054 A 
ATOM     32  C   UNL A   1      29.273  30.464  22.996  1.00  0.00     0.169 A 
ATOM     33  C   UNL A   1      27.924  30.193  23.028  1.00  0.00     0.166 A 
ATOM     34  O   UNL A   1      29.535  31.776  22.759  1.00  0.00    -0.453 OA
ATOM     35  O   UNL A   1      27.175  31.312  22.835  1.00  0.00    -0.454 OA
ATOM     36  C   UNL A   1      28.205  32.325  22.848  1.00  0.00     0.468 C 
ENDBRANCH  11  28
ENDBRANCH   3   4
ENDBRANCH   2   3
ENDBRANCH   1   2
BRANCH   1  37
ATOM     37  C   UNL A   1      34.402  31.808  27.984  1.00  0.00     0.002 C 
BRANCH  37  38
ATOM     38  C   UNL A   1      33.251  32.815  27.942  1.00  0.00     0.021 C 
BRANCH  38  39
ATOM     39  C   UNL A   1      33.680  34.276  28.035  1.00  0.00     0.116 C 
BRANCH  39  40
ATOM     40  N   UNL A   1      32.945  35.003  29.059  1.00  0.00    -0.352 N 
ATOM     41  C   UNL A   1      33.126  35.017  30.419  1.00  0.00     0.251 C 
ATOM     42  H   UNL A   1      32.210  35.567  28.726  1.00  0.00     0.163 HD
ATOM     43  O   UNL A   1      32.294  35.546  31.149  1.00  0.00    -0.269 OA
BRANCH  41  44
ATOM     44  C   UNL A   1      34.315  34.367  31.011  1.00  0.00     0.039 A 
ATOM     45  C   UNL A   1      34.131  33.292  31.885  1.00  0.00     0.014 A 
ATOM     46  C   UNL A   1      35.604  34.809  30.702  1.00  0.00     0.014 A 
ATOM     47  C   UNL A   1      35.241  32.614  32.391  1.00  0.00     0.010 A 
ATOM     48  C   UNL A   1      36.708  34.088  31.147  1.00  0.00     0.010 A 
ATOM     49  C   UNL A   1      36.537  32.980  31.992  1.00  0.00    -0.014 A 
BRANCH  49  50
ATOM     50  C   UNL A   1      37.722  32.194  32.419  1.00  0.00     0.031 A 
ATOM     51  C   UNL A   1      38.437  32.524  33.697  1.00  0.00     0.074 A 
ATOM     52  C   UNL A   1      38.203  31.232  31.607  1.00  0.00     0.049 A 
ATOM     53  N   UNL A   1      39.528  31.999  34.195  1.00  0.00    -0.248 NA
ATOM     54  C   UNL A   1      37.866  33.609  34.509  1.00  0.00     0.031 C 
ATOM     55  C   UNL A   1      37.633  30.860  30.312  1.00  0.00     0.029 A 
ATOM     56  N   UNL A   1      39.292  30.408  31.741  1.00  0.00    -0.354 N 
ATOM     57  C   UNL A   1      39.780  32.696  35.369  1.00  0.00     0.074 A 
ATOM     58  C   UNL A   1      38.760  33.716  35.481  1.00  0.00     0.031 C 
ATOM     59  C   UNL A   1      38.371  29.877  29.774  1.00  0.00     0.029 A 
ATOM     60  C   UNL A   1      39.488  29.577  30.666  1.00  0.00     0.049 A 
ATOM     61  H   UNL A   1      39.877  30.411  32.533  1.00  0.00     0.167 HD
ATOM     62  C   UNL A   1      40.761  32.488  36.281  1.00  0.00     0.037 A 
ATOM     63  C   UNL A   1      40.466  28.687  30.414  1.00  0.00     0.037 A 
ATOM     64  C   UNL A   1      41.766  31.463  36.169  1.00  0.00     0.049 A 
ATOM     65  C   UNL A   1      41.549  28.477  31.435  1.00  0.00     0.074 A 
ATOM     66  C   UNL A   1      42.755  31.120  37.075  1.00  0.00     0.029 A 
ATOM     67  N   UNL A   1      41.921  30.624  35.074  1.00  0.00    -0.354 N 
ATOM     68  N   UNL A   1      41.726  29.078  32.587  1.00  0.00    -0.248 NA
ATOM     69  C   UNL A   1      42.562  27.459  31.128  1.00  0.00     0.031 C 
ATOM     70  C   UNL A   1      43.544  30.117  36.503  1.00  0.00     0.029 A 
ATOM     71  C   UNL A   1      43.012  29.790  35.265  1.00  0.00     0.049 A 
ATOM     72  H   UNL A   1      41.341  30.622  34.278  1.00  0.00     0.167 HD
ATOM     73  C   UNL A   1      42.859  28.506  33.148  1.00  0.00     0.074 A 
ATOM     74  C   UNL A   1      43.316  27.492  32.218  1.00  0.00     0.031 C 
ATOM     75  C   UNL A   1      43.465  28.795  34.326  1.00  0.00     0.037 A 
BRANCH  62  76
ATOM     76  C   UNL A   1      40.797  33.399  37.476  1.00  0.00     0.064 A 
ATOM     77  C   UNL A   1      41.690  34.479  37.557  1.00  0.00     0.173 A 
ATOM     78  C   UNL A   1      39.915  33.198  38.550  1.00  0.00     0.173 A 
ATOM     79  F   UNL A   1      42.559  34.713  36.562  1.00  0.00    -0.203 F 
ATOM     80  C   UNL A   1      41.730  35.296  38.685  1.00  0.00     0.198 A 
ATOM     81  C   UNL A   1      39.935  34.038  39.661  1.00  0.00     0.198 A 
ATOM     82  F   UNL A   1      39.035  32.187  38.522  1.00  0.00    -0.203 F 
ATOM     83  F   UNL A   1      42.635  36.280  38.766  1.00  0.00    -0.200 F 
ATOM     84  C   UNL A   1      40.849  35.077  39.733  1.00  0.00     0.200 A 
ATOM     85  F   UNL A   1      39.072  33.835  40.666  1.00  0.00    -0.200 F 
ATOM     86  F   UNL A   1      40.888  35.863  40.818  1.00  0.00    -0.200 F 
ENDBRANCH  62  76
BRANCH  63  87
ATOM     87  C   UNL A   1      40.453  27.928  29.137  1.00  0.00     0.064 A 
ATOM     88  C   UNL A   1      41.203  28.356  28.033  1.00  0.00     0.173 A 
ATOM     89  C   UNL A   1      39.714  26.743  29.005  1.00  0.00     0.173 A 
ATOM     90  F   UNL A   1      41.910  29.493  28.104  1.00  0.00    -0.203 F 
ATOM     91  C   UNL A   1      41.207  27.632  26.842  1.00  0.00     0.198 A 
ATOM     92  C   UNL A   1      39.742  26.004  27.824  1.00  0.00     0.198 A 
ATOM     93  F   UNL A   1      38.985  26.287  30.035  1.00  0.00    -0.203 F 
ATOM     94  F   UNL A   1      41.907  28.079  25.791  1.00  0.00    -0.200 F 
ATOM     95  C   UNL A   1      40.485  26.452  26.743  1.00  0.00     0.200 A 
ATOM     96  F   UNL A   1      39.057  24.856  27.738  1.00  0.00    -0.200 F 
ATOM     97  F   UNL A   1      40.501  25.748  25.603  1.00  0.00    -0.200 F 
ENDBRANCH  63  87
BRANCH  75  98
ATOM     98  C   UNL A   1      44.688  27.997  34.684  1.00  0.00     0.064 A 
ATOM     99  C   UNL A   1      45.974  28.416  34.312  1.00  0.00     0.173 A 
ATOM    100  C   UNL A   1      44.575  26.823  35.444  1.00  0.00     0.173 A 
ATOM    101  F   UNL A   1      46.135  29.522  33.570  1.00  0.00    -0.203 F 
ATOM    102  C   UNL A   1      47.099  27.677  34.670  1.00  0.00     0.198 A 
ATOM    103  C   UNL A   1      45.704  26.104  35.827  1.00  0.00     0.198 A 
ATOM    104  F   UNL A   1      43.368  26.381  35.831  1.00  0.00    -0.203 F 
ATOM    105  F   UNL A   1      48.314  28.071  34.263  1.00  0.00    -0.200 F 
ATOM    106  C   UNL A   1      46.964  26.528  35.433  1.00  0.00     0.200 A 
ATOM    107  F   UNL A   1      45.571  25.001  36.577  1.00  0.00    -0.200 F 
ATOM    108  F   UNL A   1      48.048  25.824  35.785  1.00  0.00    -0.200 F 
ENDBRANCH  75  98
ENDBRANCH  49  50
ENDBRANCH  41  44
ENDBRANCH  39  40
ENDBRANCH  38  39
ENDBRANCH  37  38
ENDBRANCH   1  37
TORSDOF 17
ENDMDL
MODEL 3
REMARK VINA RESULT:     -12.0      3.627      9.326
REMARK SMILES C[C@@H](Oc1ccc(/C=C2\C(=O)[NH+]=C(NCCCCCCNC(=O)c3ccc(-c4c5nc(c(-c6c(F)c(F)c(F)c(F)c6F)c6ccc([nH]6)c(-c6c(F)c(F)c(F)c(F)c6F)c6nc(c(-c7c(F)c(F)c(F)c(F)c7F)c7ccc4[nH]7)C=C6)C=C5)cc3)N(c3ccc4c(c3)OCO4)C2=O)cc1)C(=O)[O-]
REMARK SMILES IDX 17 1 16 2 15 3 14 4 8 5 9 6 10 7 97 8 11 9 12 10 87 11 98 12
REMARK SMILES IDX 13 13 7 16 4 17 5 18 100 19 6 20 99 21 3 22 2 23 1 24 101 25
REMARK SMILES IDX 102 26 103 27 88 28 89 29 93 30 90 31 92 32 91 33 94 34
REMARK SMILES IDX 96 35 95 36 18 37 19 38 20 39 21 40 22 41 23 43 24 44 25 45
REMARK SMILES IDX 86 46 26 47 85 48 27 49 28 50 29 51 79 52 30 53 84 54 78 55
REMARK SMILES IDX 80 56 31 57 83 58 77 59 76 60 32 62 64 63 44 64 63 65 45 66
REMARK SMILES IDX 48 67 62 68 81 69 46 70 47 71 61 73 82 74 49 75 33 76 34 77
REMARK SMILES IDX 42 78 35 79 36 80 40 81 43 82 37 83 38 84 41 85 39 86 65 87
REMARK SMILES IDX 66 88 74 89 67 90 68 91 72 92 75 93 69 94 70 95 73 96 71 97
REMARK SMILES IDX 50 98 51 99 59 100 52 101 53 102 57 103 60 104 54 105 55 106
REMARK SMILES IDX 58 107 56 108
REMARK H PARENT 12 14 14 15 21 42 80 61 48 72
REMARK Flexibility Score: inf
ROOT
ATOM      1  C   UNL A   1      41.591  26.498  26.850  1.00  0.00     0.003 C 
ENDROOT
BRANCH   1   2
ATOM      2  C   UNL A   1      40.102  26.323  27.177  1.00  0.00     0.037 C 
BRANCH   2   3
ATOM      3  C   UNL A   1      39.803  25.146  28.102  1.00  0.00     0.197 C 
BRANCH   3   4
ATOM      4  N   UNL A   1      39.926  23.903  27.371  1.00  0.00    -0.277 N 
ATOM      5  C   UNL A   1      36.117  21.931  24.203  1.00  0.00     0.031 C 
ATOM      6  C   UNL A   1      36.887  22.174  25.281  1.00  0.00     0.138 C 
ATOM      7  C   UNL A   1      36.589  23.113  26.376  1.00  0.00     0.321 C 
ATOM      8  C   UNL A   1      38.150  21.418  25.368  1.00  0.00     0.328 C 
ATOM      9  O   UNL A   1      35.452  23.334  26.759  1.00  0.00    -0.250 OA
ATOM     10  N   UNL A   1      37.682  23.728  26.912  1.00  0.00    -0.210 N 
ATOM     11  N   UNL A   1      39.113  22.018  26.169  1.00  0.00    -0.162 N 
ATOM     12  O   UNL A   1      38.301  20.360  24.758  1.00  0.00    -0.249 OA
ATOM     13  C   UNL A   1      38.870  23.217  26.829  1.00  0.00     0.366 C 
ATOM     14  H   UNL A   1      37.565  24.588  27.377  1.00  0.00     0.270 HD
ATOM     15  H   UNL A   1      40.828  23.525  27.256  1.00  0.00     0.260 HD
BRANCH   5  16
ATOM     16  C   UNL A   1      34.851  22.548  23.790  1.00  0.00    -0.024 A 
ATOM     17  C   UNL A   1      32.495  23.920  23.123  1.00  0.00     0.120 A 
ATOM     18  C   UNL A   1      32.432  22.599  23.561  1.00  0.00     0.047 A 
ATOM     19  C   UNL A   1      33.720  24.573  23.066  1.00  0.00     0.047 A 
ATOM     20  C   UNL A   1      33.606  21.919  23.903  1.00  0.00     0.012 A 
ATOM     21  C   UNL A   1      34.892  23.888  23.383  1.00  0.00     0.012 A 
BRANCH  17  22
ATOM     22  O   UNL A   1      31.318  24.575  22.898  1.00  0.00    -0.485 OA
BRANCH  22  23
ATOM     23  C   UNL A   1      31.324  25.950  23.309  1.00  0.00     0.216 C 
ATOM     24  C   UNL A   1      30.223  26.253  24.321  1.00  0.00     0.059 C 
BRANCH  23  25
ATOM     25  C   UNL A   1      31.067  26.815  22.080  1.00  0.00     0.082 C 
ATOM     26  O   UNL A   1      30.496  27.896  22.073  1.00  0.00    -0.546 OA
ATOM     27  O   UNL A   1      31.452  26.250  20.916  1.00  0.00    -0.546 OA
ENDBRANCH  23  25
ENDBRANCH  22  23
ENDBRANCH  17  22
ENDBRANCH   5  16
BRANCH  11  28
ATOM     28  C   UNL A   1      40.378  21.377  26.223  1.00  0.00     0.115 A 
ATOM     29  C   UNL A   1      40.462  20.011  26.569  1.00  0.00     0.048 A 
ATOM     30  C   UNL A   1      41.513  22.078  25.794  1.00  0.00     0.094 A 
ATOM     31  C   UNL A   1      41.674  19.325  26.436  1.00  0.00     0.054 A 
ATOM     32  C   UNL A   1      42.686  21.373  25.672  1.00  0.00     0.169 A 
ATOM     33  C   UNL A   1      42.762  20.031  25.967  1.00  0.00     0.166 A 
ATOM     34  O   UNL A   1      43.862  21.872  25.209  1.00  0.00    -0.453 OA
ATOM     35  O   UNL A   1      43.995  19.521  25.702  1.00  0.00    -0.454 OA
ATOM     36  C   UNL A   1      44.618  20.654  25.058  1.00  0.00     0.468 C 
ENDBRANCH  11  28
ENDBRANCH   3   4
ENDBRANCH   2   3
ENDBRANCH   1   2
BRANCH   1  37
ATOM     37  C   UNL A   1      41.949  26.402  25.364  1.00  0.00     0.002 C 
BRANCH  37  38
ATOM     38  C   UNL A   1      42.955  25.304  25.009  1.00  0.00     0.021 C 
BRANCH  38  39
ATOM     39  C   UNL A   1      44.413  25.668  25.269  1.00  0.00     0.116 C 
BRANCH  39  40
ATOM     40  N   UNL A   1      45.177  24.546  25.791  1.00  0.00    -0.352 N 
ATOM     41  C   UNL A   1      45.627  24.315  27.066  1.00  0.00     0.251 C 
ATOM     42  H   UNL A   1      45.404  23.851  25.132  1.00  0.00     0.163 HD
ATOM     43  O   UNL A   1      46.416  23.402  27.288  1.00  0.00    -0.269 OA
BRANCH  41  44
ATOM     44  C   UNL A   1      45.181  25.187  28.175  1.00  0.00     0.039 A 
ATOM     45  C   UNL A   1      45.818  26.416  28.363  1.00  0.00     0.014 A 
ATOM     46  C   UNL A   1      44.138  24.798  29.020  1.00  0.00     0.014 A 
ATOM     47  C   UNL A   1      45.359  27.288  29.352  1.00  0.00     0.010 A 
ATOM     48  C   UNL A   1      43.635  25.696  29.956  1.00  0.00     0.010 A 
ATOM     49  C   UNL A   1      44.237  26.953  30.127  1.00  0.00    -0.014 A 
BRANCH  49  50
ATOM     50  C   UNL A   1      43.657  27.917  31.097  1.00  0.00     0.031 A 
ATOM     51  C   UNL A   1      44.252  28.072  32.467  1.00  0.00     0.074 A 
ATOM     52  C   UNL A   1      42.541  28.593  30.766  1.00  0.00     0.049 A 
ATOM     53  N   UNL A   1      43.841  28.806  33.470  1.00  0.00    -0.248 NA
ATOM     54  C   UNL A   1      45.451  27.273  32.759  1.00  0.00     0.031 C 
ATOM     55  C   UNL A   1      41.835  28.483  29.489  1.00  0.00     0.029 A 
ATOM     56  N   UNL A   1      41.792  29.492  31.484  1.00  0.00    -0.354 N 
ATOM     57  C   UNL A   1      44.721  28.549  34.511  1.00  0.00     0.074 A 
ATOM     58  C   UNL A   1      45.655  27.550  34.038  1.00  0.00     0.031 C 
ATOM     59  C   UNL A   1      40.761  29.287  29.510  1.00  0.00     0.029 A 
ATOM     60  C   UNL A   1      40.680  29.939  30.814  1.00  0.00     0.049 A 
ATOM     61  H   UNL A   1      42.028  29.788  32.392  1.00  0.00     0.167 HD
ATOM     62  C   UNL A   1      44.758  29.111  35.745  1.00  0.00     0.037 A 
ATOM     63  C   UNL A   1      39.694  30.766  31.209  1.00  0.00     0.037 A 
ATOM     64  C   UNL A   1      43.831  30.113  36.205  1.00  0.00     0.049 A 
ATOM     65  C   UNL A   1      39.750  31.373  32.583  1.00  0.00     0.074 A 
ATOM     66  C   UNL A   1      43.831  30.800  37.406  1.00  0.00     0.029 A 
ATOM     67  N   UNL A   1      42.729  30.559  35.491  1.00  0.00    -0.354 N 
ATOM     68  N   UNL A   1      40.639  31.194  33.530  1.00  0.00    -0.248 NA
ATOM     69  C   UNL A   1      38.673  32.305  32.942  1.00  0.00     0.031 C 
ATOM     70  C   UNL A   1      42.695  31.617  37.442  1.00  0.00     0.029 A 
ATOM     71  C   UNL A   1      42.019  31.485  36.240  1.00  0.00     0.049 A 
ATOM     72  H   UNL A   1      42.486  30.261  34.583  1.00  0.00     0.167 HD
ATOM     73  C   UNL A   1      40.240  31.996  34.589  1.00  0.00     0.074 A 
ATOM     74  C   UNL A   1      39.037  32.682  34.159  1.00  0.00     0.031 C 
ATOM     75  C   UNL A   1      40.816  32.150  35.806  1.00  0.00     0.037 A 
BRANCH  62  76
ATOM     76  C   UNL A   1      45.834  28.643  36.684  1.00  0.00     0.064 A 
ATOM     77  C   UNL A   1      45.638  27.557  37.551  1.00  0.00     0.173 A 
ATOM     78  C   UNL A   1      47.084  29.281  36.708  1.00  0.00     0.173 A 
ATOM     79  F   UNL A   1      44.460  26.915  37.575  1.00  0.00    -0.203 F 
ATOM     80  C   UNL A   1      46.636  27.155  38.437  1.00  0.00     0.198 A 
ATOM     81  C   UNL A   1      48.092  28.854  37.570  1.00  0.00     0.198 A 
ATOM     82  F   UNL A   1      47.329  30.319  35.895  1.00  0.00    -0.203 F 
ATOM     83  F   UNL A   1      46.402  26.157  39.300  1.00  0.00    -0.200 F 
ATOM     84  C   UNL A   1      47.863  27.802  38.442  1.00  0.00     0.200 A 
ATOM     85  F   UNL A   1      49.282  29.470  37.563  1.00  0.00    -0.200 F 
ATOM     86  F   UNL A   1      48.822  27.414  39.294  1.00  0.00    -0.200 F 
ENDBRANCH  62  76
BRANCH  63  87
ATOM     87  C   UNL A   1      38.574  31.065  30.279  1.00  0.00     0.064 A 
ATOM     88  C   UNL A   1      37.552  30.133  30.053  1.00  0.00     0.173 A 
ATOM     89  C   UNL A   1      38.488  32.302  29.622  1.00  0.00     0.173 A 
ATOM     90  F   UNL A   1      37.600  28.930  30.643  1.00  0.00    -0.203 F 
ATOM     91  C   UNL A   1      36.491  30.423  29.197  1.00  0.00     0.198 A 
ATOM     92  C   UNL A   1      37.412  32.602  28.789  1.00  0.00     0.198 A 
ATOM     93  F   UNL A   1      39.437  33.231  29.810  1.00  0.00    -0.203 F 
ATOM     94  F   UNL A   1      35.544  29.502  28.972  1.00  0.00    -0.200 F 
ATOM     95  C   UNL A   1      36.417  31.660  28.574  1.00  0.00     0.200 A 
ATOM     96  F   UNL A   1      37.335  33.805  28.205  1.00  0.00    -0.200 F 
ATOM     97  F   UNL A   1      35.389  31.944  27.764  1.00  0.00    -0.200 F 
ENDBRANCH  63  87
BRANCH  75  98
ATOM     98  C   UNL A   1      40.159  33.105  36.763  1.00  0.00     0.064 A 
ATOM     99  C   UNL A   1      39.054  32.725  37.538  1.00  0.00     0.173 A 
ATOM    100  C   UNL A   1      40.668  34.401  36.937  1.00  0.00     0.173 A 
ATOM    101  F   UNL A   1      38.519  31.503  37.397  1.00  0.00    -0.203 F 
ATOM    102  C   UNL A   1      38.469  33.615  38.436  1.00  0.00     0.198 A 
ATOM    103  C   UNL A   1      40.101  35.278  37.858  1.00  0.00     0.198 A 
ATOM    104  F   UNL A   1      41.728  34.813  36.223  1.00  0.00    -0.203 F 
ATOM    105  F   UNL A   1      37.384  33.246  39.131  1.00  0.00    -0.200 F 
ATOM    106  C   UNL A   1      38.997  34.886  38.601  1.00  0.00     0.200 A 
ATOM    107  F   UNL A   1      40.622  36.501  38.025  1.00  0.00    -0.200 F 
ATOM    108  F   UNL A   1      38.440  35.738  39.472  1.00  0.00    -0.200 F 
ENDBRANCH  75  98
ENDBRANCH  49  50
ENDBRANCH  41  44
ENDBRANCH  39  40
ENDBRANCH  38  39
ENDBRANCH  37  38
ENDBRANCH   1  37
TORSDOF 17
ENDMDL
