MODEL 1
REMARK VINA RESULT:     -12.4      0.000      0.000
REMARK SMILES C=CCN1C(=O)/C(=C\c2cccn2-c2ccc(C(=O)NCCCCCCNC(=O)c3ccc(-c4c5nc(c(-c6c(F)c(F)c(F)c(F)c6F)c6ccc([nH]6)c(-c6c(F)c(F)c(F)c(F)c6F)c6nc(c(-c7c(F)c(F)c(F)c(F)c7F)c7ccc4[nH]7)C=C6)C=C5)cc3)cc2)C(O)=NC1=S
REMARK SMILES IDX 22 1 21 2 20 3 18 4 19 5 17 7 14 8 15 9 94 10 16 11 93 12
REMARK SMILES IDX 13 13 9 14 10 15 11 16 12 17 8 18 4 19 5 20 98 21 6 22 7 23
REMARK SMILES IDX 97 24 99 25 95 26 3 27 2 28 1 29 96 30 23 32 24 33 25 34
REMARK SMILES IDX 26 35 27 36 28 37 29 39 30 40 31 41 92 42 32 43 91 44 33 45
REMARK SMILES IDX 34 46 35 47 85 48 36 49 90 50 84 51 86 52 37 53 89 54 83 55
REMARK SMILES IDX 82 56 38 58 70 59 50 60 69 61 51 62 54 63 68 64 87 65 52 66
REMARK SMILES IDX 53 67 67 69 88 70 55 71 39 72 40 73 48 74 41 75 42 76 46 77
REMARK SMILES IDX 49 78 43 79 44 80 47 81 45 82 71 83 72 84 80 85 73 86 74 87
REMARK SMILES IDX 78 88 81 89 75 90 76 91 79 92 77 93 56 94 57 95 65 96 58 97
REMARK SMILES IDX 59 98 63 99 66 100 60 101 61 102 64 103 62 104
REMARK H PARENT 20 6 96 31 27 38 86 57 54 68
REMARK Flexibility Score: inf
ROOT
ATOM      1  C   UNL A   1      33.577  28.997  23.875  1.00  0.00     0.021 C 
ENDROOT
BRANCH   1   2
ATOM      2  C   UNL A   1      33.337  28.897  22.366  1.00  0.00     0.116 C 
BRANCH   2   3
ATOM      3  N   UNL A   1      31.950  29.190  22.072  1.00  0.00    -0.352 N 
ATOM      4  C   UNL A   1      30.774  28.556  22.374  1.00  0.00     0.251 C 
ATOM      5  O   UNL A   1      29.738  29.048  21.925  1.00  0.00    -0.269 OA
ATOM      6  H   UNL A   1      31.826  30.013  21.547  1.00  0.00     0.163 HD
BRANCH   4   7
ATOM      7  C   UNL A   1      30.681  27.364  23.266  1.00  0.00     0.039 A 
ATOM      8  C   UNL A   1      30.607  25.279  25.134  1.00  0.00     0.046 A 
ATOM      9  C   UNL A   1      30.270  26.570  25.539  1.00  0.00     0.027 A 
ATOM     10  C   UNL A   1      30.907  25.005  23.798  1.00  0.00     0.027 A 
ATOM     11  C   UNL A   1      30.342  27.610  24.609  1.00  0.00     0.016 A 
ATOM     12  C   UNL A   1      30.884  26.042  22.862  1.00  0.00     0.016 A 
BRANCH   8  13
ATOM     13  N   UNL A   1      30.537  24.211  26.054  1.00  0.00    -0.317 N 
ATOM     14  C   UNL A   1      31.573  23.400  26.498  1.00  0.00     0.047 A 
ATOM     15  C   UNL A   1      31.007  22.366  27.226  1.00  0.00     0.028 A 
ATOM     16  C   UNL A   1      29.611  22.581  27.274  1.00  0.00     0.020 A 
ATOM     17  C   UNL A   1      29.356  23.749  26.595  1.00  0.00     0.092 A 
BRANCH  14  18
ATOM     18  C   UNL A   1      32.938  23.752  26.298  1.00  0.00     0.046 C 
ATOM     19  N   UNL A   1      34.383  20.768  24.829  1.00  0.00    -0.279 N 
ATOM     20  C   UNL A   1      33.416  21.767  24.877  1.00  0.00     0.265 C 
ATOM     21  C   UNL A   1      35.748  21.041  25.003  1.00  0.00     0.206 C 
ATOM     22  O   UNL A   1      32.344  21.716  24.278  1.00  0.00    -0.268 OA
ATOM     23  C   UNL A   1      33.818  22.977  25.636  1.00  0.00     0.104 C 
ATOM     24  N   UNL A   1      36.135  22.317  25.342  1.00  0.00    -0.184 NA
ATOM     25  S   UNL A   1      36.977  19.894  24.786  1.00  0.00    -0.038 S 
ATOM     26  C   UNL A   1      35.262  23.201  25.655  1.00  0.00     0.226 C 
BRANCH  19  27
ATOM     27  C   UNL A   1      33.874  19.452  24.429  1.00  0.00     0.155 C 
BRANCH  27  28
ATOM     28  C   UNL A   1      33.154  18.829  25.600  1.00  0.00    -0.013 C 
ATOM     29  C   UNL A   1      32.528  17.645  25.545  1.00  0.00     0.006 C 
ENDBRANCH  27  28
ENDBRANCH  19  27
BRANCH  26  30
ATOM     30  O   UNL A   1      35.723  24.412  26.005  1.00  0.00    -0.493 OA
ATOM     31  H   UNL A   1      36.332  24.495  26.713  1.00  0.00     0.295 HD
ENDBRANCH  26  30
ENDBRANCH  14  18
ENDBRANCH   8  13
ENDBRANCH   4   7
ENDBRANCH   2   3
ENDBRANCH   1   2
BRANCH   1  32
ATOM     32  C   UNL A   1      33.973  27.654  24.505  1.00  0.00     0.002 C 
BRANCH  32  33
ATOM     33  C   UNL A   1      33.580  27.502  25.982  1.00  0.00     0.002 C 
BRANCH  33  34
ATOM     34  C   UNL A   1      33.937  28.703  26.872  1.00  0.00     0.021 C 
BRANCH  34  35
ATOM     35  C   UNL A   1      35.358  29.216  26.641  1.00  0.00     0.116 C 
BRANCH  35  36
ATOM     36  N   UNL A   1      35.624  30.338  27.524  1.00  0.00    -0.352 N 
ATOM     37  C   UNL A   1      36.521  30.490  28.544  1.00  0.00     0.251 C 
ATOM     38  H   UNL A   1      35.060  31.127  27.358  1.00  0.00     0.163 HD
ATOM     39  O   UNL A   1      36.312  31.362  29.381  1.00  0.00    -0.269 OA
BRANCH  37  40
ATOM     40  C   UNL A   1      37.723  29.640  28.674  1.00  0.00     0.039 A 
ATOM     41  C   UNL A   1      38.659  29.703  27.633  1.00  0.00     0.014 A 
ATOM     42  C   UNL A   1      37.889  28.715  29.711  1.00  0.00     0.014 A 
ATOM     43  C   UNL A   1      39.779  28.881  27.653  1.00  0.00     0.010 A 
ATOM     44  C   UNL A   1      39.021  27.901  29.746  1.00  0.00     0.010 A 
ATOM     45  C   UNL A   1      39.974  28.001  28.725  1.00  0.00    -0.014 A 
BRANCH  45  46
ATOM     46  C   UNL A   1      41.313  27.384  28.868  1.00  0.00     0.031 A 
ATOM     47  C   UNL A   1      41.285  25.923  28.359  1.00  0.00     0.074 A 
ATOM     48  C   UNL A   1      42.304  28.137  29.441  1.00  0.00     0.049 A 
ATOM     49  N   UNL A   1      41.962  24.887  28.746  1.00  0.00    -0.248 NA
ATOM     50  C   UNL A   1      40.296  25.540  27.308  1.00  0.00     0.031 C 
ATOM     51  C   UNL A   1      42.169  29.561  29.816  1.00  0.00     0.029 A 
ATOM     52  N   UNL A   1      43.609  27.882  29.833  1.00  0.00    -0.354 N 
ATOM     53  C   UNL A   1      41.645  23.812  27.879  1.00  0.00     0.074 A 
ATOM     54  C   UNL A   1      40.518  24.238  27.111  1.00  0.00     0.031 C 
ATOM     55  C   UNL A   1      43.283  30.011  30.438  1.00  0.00     0.029 A 
ATOM     56  C   UNL A   1      44.261  28.943  30.528  1.00  0.00     0.049 A 
ATOM     57  H   UNL A   1      44.056  27.025  29.644  1.00  0.00     0.167 HD
ATOM     58  C   UNL A   1      42.441  22.709  27.742  1.00  0.00     0.037 A 
ATOM     59  C   UNL A   1      45.475  28.944  31.170  1.00  0.00     0.037 A 
ATOM     60  C   UNL A   1      43.544  22.812  28.635  1.00  0.00     0.049 A 
ATOM     61  C   UNL A   1      46.078  27.650  30.834  1.00  0.00     0.074 A 
ATOM     62  C   UNL A   1      43.637  22.753  30.000  1.00  0.00     0.029 A 
ATOM     63  N   UNL A   1      44.680  23.389  28.125  1.00  0.00    -0.354 N 
ATOM     64  N   UNL A   1      46.599  27.356  29.680  1.00  0.00    -0.248 NA
ATOM     65  C   UNL A   1      46.033  26.576  31.834  1.00  0.00     0.031 C 
ATOM     66  C   UNL A   1      44.587  23.752  30.290  1.00  0.00     0.029 A 
ATOM     67  C   UNL A   1      45.204  24.181  29.108  1.00  0.00     0.049 A 
ATOM     68  H   UNL A   1      45.048  23.257  27.222  1.00  0.00     0.167 HD
ATOM     69  C   UNL A   1      46.616  25.984  29.728  1.00  0.00     0.074 A 
ATOM     70  C   UNL A   1      46.605  25.608  31.124  1.00  0.00     0.031 C 
ATOM     71  C   UNL A   1      46.038  25.288  28.716  1.00  0.00     0.037 A 
BRANCH  58  72
ATOM     72  C   UNL A   1      42.549  21.641  26.681  1.00  0.00     0.064 A 
ATOM     73  C   UNL A   1      42.100  20.334  27.013  1.00  0.00     0.173 A 
ATOM     74  C   UNL A   1      43.405  21.732  25.577  1.00  0.00     0.173 A 
ATOM     75  F   UNL A   1      41.231  20.139  28.018  1.00  0.00    -0.203 F 
ATOM     76  C   UNL A   1      42.620  19.194  26.402  1.00  0.00     0.198 A 
ATOM     77  C   UNL A   1      43.878  20.586  24.929  1.00  0.00     0.198 A 
ATOM     78  F   UNL A   1      43.889  22.910  25.167  1.00  0.00    -0.203 F 
ATOM     79  F   UNL A   1      42.302  17.979  26.872  1.00  0.00    -0.200 F 
ATOM     80  C   UNL A   1      43.529  19.322  25.373  1.00  0.00     0.200 A 
ATOM     81  F   UNL A   1      44.751  20.713  23.919  1.00  0.00    -0.200 F 
ATOM     82  F   UNL A   1      44.097  18.233  24.837  1.00  0.00    -0.200 F 
ENDBRANCH  58  72
BRANCH  59  83
ATOM     83  C   UNL A   1      46.290  29.812  32.118  1.00  0.00     0.064 A 
ATOM     84  C   UNL A   1      46.304  29.731  33.515  1.00  0.00     0.173 A 
ATOM     85  C   UNL A   1      47.195  30.789  31.595  1.00  0.00     0.173 A 
ATOM     86  F   UNL A   1      45.421  28.968  34.167  1.00  0.00    -0.203 F 
ATOM     87  C   UNL A   1      47.222  30.465  34.299  1.00  0.00     0.198 A 
ATOM     88  C   UNL A   1      48.140  31.471  32.361  1.00  0.00     0.198 A 
ATOM     89  F   UNL A   1      47.200  31.135  30.301  1.00  0.00    -0.203 F 
ATOM     90  F   UNL A   1      47.195  30.352  35.634  1.00  0.00    -0.200 F 
ATOM     91  C   UNL A   1      48.166  31.296  33.720  1.00  0.00     0.200 A 
ATOM     92  F   UNL A   1      49.023  32.282  31.758  1.00  0.00    -0.200 F 
ATOM     93  F   UNL A   1      49.079  31.937  34.462  1.00  0.00    -0.200 F 
ENDBRANCH  59  83
BRANCH  71  94
ATOM     94  C   UNL A   1      46.018  26.013  27.384  1.00  0.00     0.064 A 
ATOM     95  C   UNL A   1      47.226  26.339  26.749  1.00  0.00     0.173 A 
ATOM     96  C   UNL A   1      44.853  26.495  26.764  1.00  0.00     0.173 A 
ATOM     97  F   UNL A   1      48.387  25.901  27.259  1.00  0.00    -0.203 F 
ATOM     98  C   UNL A   1      47.262  27.108  25.581  1.00  0.00     0.198 A 
ATOM     99  C   UNL A   1      44.883  27.262  25.597  1.00  0.00     0.198 A 
ATOM    100  F   UNL A   1      43.655  26.228  27.276  1.00  0.00    -0.203 F 
ATOM    101  F   UNL A   1      48.440  27.391  25.006  1.00  0.00    -0.200 F 
ATOM    102  C   UNL A   1      46.091  27.572  25.007  1.00  0.00     0.200 A 
ATOM    103  F   UNL A   1      43.736  27.690  25.044  1.00  0.00    -0.200 F 
ATOM    104  F   UNL A   1      46.126  28.298  23.879  1.00  0.00    -0.200 F 
ENDBRANCH  71  94
ENDBRANCH  45  46
ENDBRANCH  37  40
ENDBRANCH  35  36
ENDBRANCH  34  35
ENDBRANCH  33  34
ENDBRANCH  32  33
ENDBRANCH   1  32
TORSDOF 18
ENDMDL
MODEL 2
REMARK VINA RESULT:     -12.0      5.153     10.924
REMARK SMILES C=CCN1C(=O)/C(=C\c2cccn2-c2ccc(C(=O)NCCCCCCNC(=O)c3ccc(-c4c5nc(c(-c6c(F)c(F)c(F)c(F)c6F)c6ccc([nH]6)c(-c6c(F)c(F)c(F)c(F)c6F)c6nc(c(-c7c(F)c(F)c(F)c(F)c7F)c7ccc4[nH]7)C=C6)C=C5)cc3)cc2)C(O)=NC1=S
REMARK SMILES IDX 22 1 21 2 20 3 18 4 19 5 17 7 14 8 15 9 94 10 16 11 93 12
REMARK SMILES IDX 13 13 9 14 10 15 11 16 12 17 8 18 4 19 5 20 98 21 6 22 7 23
REMARK SMILES IDX 97 24 99 25 95 26 3 27 2 28 1 29 96 30 23 32 24 33 25 34
REMARK SMILES IDX 26 35 27 36 28 37 29 39 30 40 31 41 92 42 32 43 91 44 33 45
REMARK SMILES IDX 34 46 35 47 85 48 36 49 90 50 84 51 86 52 37 53 89 54 83 55
REMARK SMILES IDX 82 56 38 58 70 59 50 60 69 61 51 62 54 63 68 64 87 65 52 66
REMARK SMILES IDX 53 67 67 69 88 70 55 71 39 72 40 73 48 74 41 75 42 76 46 77
REMARK SMILES IDX 49 78 43 79 44 80 47 81 45 82 71 83 72 84 80 85 73 86 74 87
REMARK SMILES IDX 78 88 81 89 75 90 76 91 79 92 77 93 56 94 57 95 65 96 58 97
REMARK SMILES IDX 59 98 63 99 66 100 60 101 61 102 64 103 62 104
REMARK H PARENT 20 6 96 31 27 38 86 57 54 68
REMARK Flexibility Score: inf
ROOT
ATOM      1  C   UNL A   1      44.740  30.926  34.389  1.00  0.00     0.021 C 
ENDROOT
BRANCH   1   2
ATOM      2  C   UNL A   1      43.332  31.519  34.292  1.00  0.00     0.116 C 
BRANCH   2   3
ATOM      3  N   UNL A   1      43.311  32.565  33.290  1.00  0.00    -0.352 N 
ATOM      4  C   UNL A   1      42.875  32.610  31.993  1.00  0.00     0.251 C 
ATOM      5  O   UNL A   1      43.046  33.664  31.378  1.00  0.00    -0.269 OA
ATOM      6  H   UNL A   1      43.687  33.417  33.606  1.00  0.00     0.163 HD
BRANCH   4   7
ATOM      7  C   UNL A   1      42.150  31.492  31.323  1.00  0.00     0.039 A 
ATOM      8  C   UNL A   1      40.978  29.231  30.159  1.00  0.00     0.046 A 
ATOM      9  C   UNL A   1      41.538  29.130  31.431  1.00  0.00     0.027 A 
ATOM     10  C   UNL A   1      40.931  30.458  29.494  1.00  0.00     0.027 A 
ATOM     11  C   UNL A   1      42.151  30.254  31.991  1.00  0.00     0.016 A 
ATOM     12  C   UNL A   1      41.466  31.593  30.108  1.00  0.00     0.016 A 
BRANCH   8  13
ATOM     13  N   UNL A   1      40.350  28.110  29.575  1.00  0.00    -0.317 N 
ATOM     14  C   UNL A   1      39.308  27.351  30.091  1.00  0.00     0.047 A 
ATOM     15  C   UNL A   1      39.162  26.240  29.277  1.00  0.00     0.028 A 
ATOM     16  C   UNL A   1      40.091  26.349  28.219  1.00  0.00     0.020 A 
ATOM     17  C   UNL A   1      40.769  27.533  28.394  1.00  0.00     0.092 A 
BRANCH  14  18
ATOM     18  C   UNL A   1      38.515  27.812  31.180  1.00  0.00     0.046 C 
ATOM     19  N   UNL A   1      37.031  30.872  29.921  1.00  0.00    -0.279 N 
ATOM     20  C   UNL A   1      37.328  29.517  29.812  1.00  0.00     0.265 C 
ATOM     21  C   UNL A   1      36.585  31.445  31.121  1.00  0.00     0.206 C 
ATOM     22  O   UNL A   1      37.238  28.875  28.767  1.00  0.00    -0.268 OA
ATOM     23  C   UNL A   1      37.669  28.857  31.096  1.00  0.00     0.104 C 
ATOM     24  N   UNL A   1      36.545  30.669  32.256  1.00  0.00    -0.184 NA
ATOM     25  S   UNL A   1      36.050  33.047  31.263  1.00  0.00    -0.038 S 
ATOM     26  C   UNL A   1      37.059  29.494  32.260  1.00  0.00     0.226 C 
BRANCH  19  27
ATOM     27  C   UNL A   1      37.073  31.604  28.650  1.00  0.00     0.155 C 
BRANCH  27  28
ATOM     28  C   UNL A   1      35.805  31.322  27.881  1.00  0.00    -0.013 C 
ATOM     29  C   UNL A   1      34.694  32.064  27.979  1.00  0.00     0.006 C 
ENDBRANCH  27  28
ENDBRANCH  19  27
BRANCH  26  30
ATOM     30  O   UNL A   1      37.007  28.814  33.417  1.00  0.00    -0.493 OA
ATOM     31  H   UNL A   1      36.784  29.257  34.211  1.00  0.00     0.295 HD
ENDBRANCH  26  30
ENDBRANCH  14  18
ENDBRANCH   8  13
ENDBRANCH   4   7
ENDBRANCH   2   3
ENDBRANCH   1   2
BRANCH   1  32
ATOM     32  C   UNL A   1      44.773  29.594  35.151  1.00  0.00     0.002 C 
BRANCH  32  33
ATOM     33  C   UNL A   1      46.163  29.184  35.660  1.00  0.00     0.002 C 
BRANCH  33  34
ATOM     34  C   UNL A   1      46.172  28.516  37.043  1.00  0.00     0.021 C 
BRANCH  34  35
ATOM     35  C   UNL A   1      44.826  27.897  37.417  1.00  0.00     0.116 C 
BRANCH  35  36
ATOM     36  N   UNL A   1      44.938  26.449  37.430  1.00  0.00    -0.352 N 
ATOM     37  C   UNL A   1      44.687  25.515  36.463  1.00  0.00     0.251 C 
ATOM     38  H   UNL A   1      45.251  26.074  38.285  1.00  0.00     0.163 HD
ATOM     39  O   UNL A   1      44.488  24.356  36.809  1.00  0.00    -0.269 OA
BRANCH  37  40
ATOM     40  C   UNL A   1      44.643  25.857  35.026  1.00  0.00     0.039 A 
ATOM     41  C   UNL A   1      45.853  25.794  34.322  1.00  0.00     0.014 A 
ATOM     42  C   UNL A   1      43.491  26.343  34.397  1.00  0.00     0.014 A 
ATOM     43  C   UNL A   1      45.902  26.168  32.986  1.00  0.00     0.010 A 
ATOM     44  C   UNL A   1      43.530  26.701  33.050  1.00  0.00     0.010 A 
ATOM     45  C   UNL A   1      44.733  26.593  32.342  1.00  0.00    -0.014 A 
BRANCH  45  46
ATOM     46  C   UNL A   1      44.758  26.676  30.863  1.00  0.00     0.031 A 
ATOM     47  C   UNL A   1      44.909  28.149  30.414  1.00  0.00     0.074 A 
ATOM     48  C   UNL A   1      44.603  25.513  30.156  1.00  0.00     0.049 A 
ATOM     49  N   UNL A   1      44.460  28.754  29.357  1.00  0.00    -0.248 NA
ATOM     50  C   UNL A   1      45.599  29.116  31.317  1.00  0.00     0.031 C 
ATOM     51  C   UNL A   1      44.535  24.164  30.760  1.00  0.00     0.029 A 
ATOM     52  N   UNL A   1      44.465  25.210  28.811  1.00  0.00    -0.354 N 
ATOM     53  C   UNL A   1      44.972  30.075  29.363  1.00  0.00     0.074 A 
ATOM     54  C   UNL A   1      45.545  30.276  30.656  1.00  0.00     0.031 C 
ATOM     55  C   UNL A   1      44.294  23.221  29.822  1.00  0.00     0.029 A 
ATOM     56  C   UNL A   1      44.187  23.842  28.515  1.00  0.00     0.049 A 
ATOM     57  H   UNL A   1      44.552  25.892  28.107  1.00  0.00     0.167 HD
ATOM     58  C   UNL A   1      45.034  30.852  28.239  1.00  0.00     0.037 A 
ATOM     59  C   UNL A   1      43.850  23.265  27.315  1.00  0.00     0.037 A 
ATOM     60  C   UNL A   1      44.455  30.147  27.148  1.00  0.00     0.049 A 
ATOM     61  C   UNL A   1      44.014  24.334  26.324  1.00  0.00     0.074 A 
ATOM     62  C   UNL A   1      43.168  29.777  26.864  1.00  0.00     0.029 A 
ATOM     63  N   UNL A   1      45.321  29.407  26.382  1.00  0.00    -0.354 N 
ATOM     64  N   UNL A   1      45.159  24.763  25.886  1.00  0.00    -0.248 NA
ATOM     65  C   UNL A   1      42.815  25.029  25.840  1.00  0.00     0.031 C 
ATOM     66  C   UNL A   1      43.327  28.486  26.323  1.00  0.00     0.029 A 
ATOM     67  C   UNL A   1      44.682  28.241  26.067  1.00  0.00     0.049 A 
ATOM     68  H   UNL A   1      46.231  29.668  26.111  1.00  0.00     0.167 HD
ATOM     69  C   UNL A   1      44.811  25.981  25.356  1.00  0.00     0.074 A 
ATOM     70  C   UNL A   1      43.400  25.921  25.047  1.00  0.00     0.031 C 
ATOM     71  C   UNL A   1      45.487  27.086  25.760  1.00  0.00     0.037 A 
BRANCH  58  72
ATOM     72  C   UNL A   1      45.826  32.086  27.882  1.00  0.00     0.064 A 
ATOM     73  C   UNL A   1      45.101  33.248  27.499  1.00  0.00     0.173 A 
ATOM     74  C   UNL A   1      47.175  32.058  27.511  1.00  0.00     0.173 A 
ATOM     75  F   UNL A   1      43.815  33.404  27.854  1.00  0.00    -0.203 F 
ATOM     76  C   UNL A   1      45.641  34.212  26.650  1.00  0.00     0.198 A 
ATOM     77  C   UNL A   1      47.729  33.060  26.707  1.00  0.00     0.198 A 
ATOM     78  F   UNL A   1      47.960  31.018  27.819  1.00  0.00    -0.203 F 
ATOM     79  F   UNL A   1      44.862  35.193  26.171  1.00  0.00    -0.200 F 
ATOM     80  C   UNL A   1      46.952  34.104  26.235  1.00  0.00     0.200 A 
ATOM     81  F   UNL A   1      49.008  32.960  26.315  1.00  0.00    -0.200 F 
ATOM     82  F   UNL A   1      47.453  34.980  25.353  1.00  0.00    -0.200 F 
ENDBRANCH  58  72
BRANCH  59  83
ATOM     83  C   UNL A   1      43.325  21.946  26.765  1.00  0.00     0.064 A 
ATOM     84  C   UNL A   1      43.927  21.160  25.777  1.00  0.00     0.173 A 
ATOM     85  C   UNL A   1      42.136  21.367  27.308  1.00  0.00     0.173 A 
ATOM     86  F   UNL A   1      44.967  21.617  25.073  1.00  0.00    -0.203 F 
ATOM     87  C   UNL A   1      43.454  19.867  25.455  1.00  0.00     0.198 A 
ATOM     88  C   UNL A   1      41.700  20.071  27.035  1.00  0.00     0.198 A 
ATOM     89  F   UNL A   1      41.328  22.043  28.134  1.00  0.00    -0.203 F 
ATOM     90  F   UNL A   1      44.065  19.153  24.501  1.00  0.00    -0.200 F 
ATOM     91  C   UNL A   1      42.371  19.308  26.115  1.00  0.00     0.200 A 
ATOM     92  F   UNL A   1      40.634  19.578  27.684  1.00  0.00    -0.200 F 
ATOM     93  F   UNL A   1      41.968  18.057  25.856  1.00  0.00    -0.200 F 
ENDBRANCH  59  83
BRANCH  71  94
ATOM     94  C   UNL A   1      46.909  26.822  26.219  1.00  0.00     0.064 A 
ATOM     95  C   UNL A   1      47.892  26.481  25.279  1.00  0.00     0.173 A 
ATOM     96  C   UNL A   1      47.311  26.789  27.565  1.00  0.00     0.173 A 
ATOM     97  F   UNL A   1      47.602  26.508  23.970  1.00  0.00    -0.203 F 
ATOM     98  C   UNL A   1      49.186  26.114  25.665  1.00  0.00     0.198 A 
ATOM     99  C   UNL A   1      48.602  26.426  27.956  1.00  0.00     0.198 A 
ATOM    100  F   UNL A   1      46.459  27.112  28.533  1.00  0.00    -0.203 F 
ATOM    101  F   UNL A   1      50.096  25.800  24.732  1.00  0.00    -0.200 F 
ATOM    102  C   UNL A   1      49.540  26.084  27.003  1.00  0.00     0.200 A 
ATOM    103  F   UNL A   1      48.934  26.418  29.257  1.00  0.00    -0.200 F 
ATOM    104  F   UNL A   1      50.785  25.746  27.371  1.00  0.00    -0.200 F 
ENDBRANCH  71  94
ENDBRANCH  45  46
ENDBRANCH  37  40
ENDBRANCH  35  36
ENDBRANCH  34  35
ENDBRANCH  33  34
ENDBRANCH  32  33
ENDBRANCH   1  32
TORSDOF 18
ENDMDL
MODEL 3
REMARK VINA RESULT:     -12.0      4.801      9.734
REMARK SMILES C=CCN1C(=O)/C(=C\c2cccn2-c2ccc(C(=O)NCCCCCCNC(=O)c3ccc(-c4c5nc(c(-c6c(F)c(F)c(F)c(F)c6F)c6ccc([nH]6)c(-c6c(F)c(F)c(F)c(F)c6F)c6nc(c(-c7c(F)c(F)c(F)c(F)c7F)c7ccc4[nH]7)C=C6)C=C5)cc3)cc2)C(O)=NC1=S
REMARK SMILES IDX 22 1 21 2 20 3 18 4 19 5 17 7 14 8 15 9 94 10 16 11 93 12
REMARK SMILES IDX 13 13 9 14 10 15 11 16 12 17 8 18 4 19 5 20 98 21 6 22 7 23
REMARK SMILES IDX 97 24 99 25 95 26 3 27 2 28 1 29 96 30 23 32 24 33 25 34
REMARK SMILES IDX 26 35 27 36 28 37 29 39 30 40 31 41 92 42 32 43 91 44 33 45
REMARK SMILES IDX 34 46 35 47 85 48 36 49 90 50 84 51 86 52 37 53 89 54 83 55
REMARK SMILES IDX 82 56 38 58 70 59 50 60 69 61 51 62 54 63 68 64 87 65 52 66
REMARK SMILES IDX 53 67 67 69 88 70 55 71 39 72 40 73 48 74 41 75 42 76 46 77
REMARK SMILES IDX 49 78 43 79 44 80 47 81 45 82 71 83 72 84 80 85 73 86 74 87
REMARK SMILES IDX 78 88 81 89 75 90 76 91 79 92 77 93 56 94 57 95 65 96 58 97
REMARK SMILES IDX 59 98 63 99 66 100 60 101 61 102 64 103 62 104
REMARK H PARENT 20 6 96 31 27 38 86 57 54 68
REMARK Flexibility Score: inf
ROOT
ATOM      1  C   UNL A   1      33.718  22.482  27.764  1.00  0.00     0.021 C 
ENDROOT
BRANCH   1   2
ATOM      2  C   UNL A   1      34.474  21.337  27.084  1.00  0.00     0.116 C 
BRANCH   2   3
ATOM      3  N   UNL A   1      33.530  20.375  26.555  1.00  0.00    -0.352 N 
ATOM      4  C   UNL A   1      32.676  20.392  25.484  1.00  0.00     0.251 C 
ATOM      5  O   UNL A   1      31.951  19.409  25.327  1.00  0.00    -0.269 OA
ATOM      6  H   UNL A   1      33.494  19.538  27.070  1.00  0.00     0.163 HD
BRANCH   4   7
ATOM      7  C   UNL A   1      32.635  21.490  24.475  1.00  0.00     0.039 A 
ATOM      8  C   UNL A   1      32.813  23.597  22.640  1.00  0.00     0.046 A 
ATOM      9  C   UNL A   1      33.889  22.721  22.779  1.00  0.00     0.027 A 
ATOM     10  C   UNL A   1      31.628  23.391  23.348  1.00  0.00     0.027 A 
ATOM     11  C   UNL A   1      33.805  21.693  23.721  1.00  0.00     0.016 A 
ATOM     12  C   UNL A   1      31.527  22.302  24.218  1.00  0.00     0.016 A 
BRANCH   8  13
ATOM     13  N   UNL A   1      32.873  24.641  21.692  1.00  0.00    -0.317 N 
ATOM     14  C   UNL A   1      33.021  26.001  21.930  1.00  0.00     0.047 A 
ATOM     15  C   UNL A   1      32.818  26.657  20.727  1.00  0.00     0.028 A 
ATOM     16  C   UNL A   1      32.598  25.681  19.730  1.00  0.00     0.020 A 
ATOM     17  C   UNL A   1      32.691  24.450  20.338  1.00  0.00     0.092 A 
BRANCH  14  18
ATOM     18  C   UNL A   1      33.449  26.498  23.194  1.00  0.00     0.046 C 
ATOM     19  N   UNL A   1      30.892  28.914  24.072  1.00  0.00    -0.279 N 
ATOM     20  C   UNL A   1      31.293  27.646  23.660  1.00  0.00     0.265 C 
ATOM     21  C   UNL A   1      31.547  29.606  25.101  1.00  0.00     0.206 C 
ATOM     22  O   UNL A   1      30.537  26.812  23.166  1.00  0.00    -0.268 OA
ATOM     23  C   UNL A   1      32.709  27.322  23.959  1.00  0.00     0.104 C 
ATOM     24  N   UNL A   1      32.689  29.068  25.645  1.00  0.00    -0.184 NA
ATOM     25  S   UNL A   1      30.997  31.071  25.754  1.00  0.00    -0.038 S 
ATOM     26  C   UNL A   1      33.240  28.039  25.117  1.00  0.00     0.226 C 
BRANCH  19  27
ATOM     27  C   UNL A   1      29.647  29.384  23.455  1.00  0.00     0.155 C 
BRANCH  27  28
ATOM     28  C   UNL A   1      29.955  29.923  22.080  1.00  0.00    -0.013 C 
ATOM     29  C   UNL A   1      29.154  30.765  21.413  1.00  0.00     0.006 C 
ENDBRANCH  27  28
ENDBRANCH  19  27
BRANCH  26  30
ATOM     30  O   UNL A   1      34.371  27.594  25.689  1.00  0.00    -0.493 OA
ATOM     31  H   UNL A   1      35.091  28.179  25.821  1.00  0.00     0.295 HD
ENDBRANCH  26  30
ENDBRANCH  14  18
ENDBRANCH   8  13
ENDBRANCH   4   7
ENDBRANCH   2   3
ENDBRANCH   1   2
BRANCH   1  32
ATOM     32  C   UNL A   1      33.580  23.720  26.867  1.00  0.00     0.002 C 
BRANCH  32  33
ATOM     33  C   UNL A   1      34.818  24.028  26.012  1.00  0.00     0.002 C 
BRANCH  33  34
ATOM     34  C   UNL A   1      36.110  23.338  26.474  1.00  0.00     0.021 C 
BRANCH  34  35
ATOM     35  C   UNL A   1      37.360  24.183  26.228  1.00  0.00     0.116 C 
BRANCH  35  36
ATOM     36  N   UNL A   1      38.504  23.567  26.876  1.00  0.00    -0.352 N 
ATOM     37  C   UNL A   1      39.603  24.115  27.477  1.00  0.00     0.251 C 
ATOM     38  H   UNL A   1      38.484  22.583  26.885  1.00  0.00     0.163 HD
ATOM     39  O   UNL A   1      40.603  23.417  27.612  1.00  0.00    -0.269 OA
BRANCH  37  40
ATOM     40  C   UNL A   1      39.628  25.511  27.960  1.00  0.00     0.039 A 
ATOM     41  C   UNL A   1      39.091  25.751  29.232  1.00  0.00     0.014 A 
ATOM     42  C   UNL A   1      40.045  26.582  27.162  1.00  0.00     0.014 A 
ATOM     43  C   UNL A   1      39.017  27.048  29.723  1.00  0.00     0.010 A 
ATOM     44  C   UNL A   1      39.991  27.885  27.658  1.00  0.00     0.010 A 
ATOM     45  C   UNL A   1      39.495  28.111  28.947  1.00  0.00    -0.014 A 
BRANCH  45  46
ATOM     46  C   UNL A   1      39.689  29.417  29.620  1.00  0.00     0.031 A 
ATOM     47  C   UNL A   1      38.454  30.322  29.395  1.00  0.00     0.074 A 
ATOM     48  C   UNL A   1      40.880  29.633  30.261  1.00  0.00     0.049 A 
ATOM     49  N   UNL A   1      38.367  31.613  29.297  1.00  0.00    -0.248 NA
ATOM     50  C   UNL A   1      37.122  29.689  29.168  1.00  0.00     0.031 C 
ATOM     51  C   UNL A   1      41.939  28.615  30.434  1.00  0.00     0.029 A 
ATOM     52  N   UNL A   1      41.457  30.726  30.887  1.00  0.00    -0.354 N 
ATOM     53  C   UNL A   1      36.994  31.950  29.208  1.00  0.00     0.074 A 
ATOM     54  C   UNL A   1      36.294  30.723  28.995  1.00  0.00     0.031 C 
ATOM     55  C   UNL A   1      43.032  29.143  31.030  1.00  0.00     0.029 A 
ATOM     56  C   UNL A   1      42.806  30.548  31.316  1.00  0.00     0.049 A 
ATOM     57  H   UNL A   1      40.969  31.570  31.026  1.00  0.00     0.167 HD
ATOM     58  C   UNL A   1      36.518  33.202  29.486  1.00  0.00     0.037 A 
ATOM     59  C   UNL A   1      43.688  31.474  31.818  1.00  0.00     0.037 A 
ATOM     60  C   UNL A   1      37.608  34.062  29.792  1.00  0.00     0.049 A 
ATOM     61  C   UNL A   1      42.888  32.689  32.006  1.00  0.00     0.074 A 
ATOM     62  C   UNL A   1      38.621  34.578  29.029  1.00  0.00     0.029 A 
ATOM     63  N   UNL A   1      37.939  34.165  31.120  1.00  0.00    -0.354 N 
ATOM     64  N   UNL A   1      42.032  32.867  32.966  1.00  0.00    -0.248 NA
ATOM     65  C   UNL A   1      42.996  33.759  31.006  1.00  0.00     0.031 C 
ATOM     66  C   UNL A   1      39.731  34.502  29.893  1.00  0.00     0.029 A 
ATOM     67  C   UNL A   1      39.304  34.196  31.191  1.00  0.00     0.049 A 
ATOM     68  H   UNL A   1      37.313  34.208  31.878  1.00  0.00     0.167 HD
ATOM     69  C   UNL A   1      41.279  33.904  32.474  1.00  0.00     0.074 A 
ATOM     70  C   UNL A   1      42.097  34.601  31.507  1.00  0.00     0.031 C 
ATOM     71  C   UNL A   1      39.931  33.761  32.414  1.00  0.00     0.037 A 
BRANCH  58  72
ATOM     72  C   UNL A   1      35.145  33.730  29.824  1.00  0.00     0.064 A 
ATOM     73  C   UNL A   1      34.529  34.609  28.891  1.00  0.00     0.173 A 
ATOM     74  C   UNL A   1      34.624  33.754  31.122  1.00  0.00     0.173 A 
ATOM     75  F   UNL A   1      34.912  34.625  27.604  1.00  0.00    -0.203 F 
ATOM     76  C   UNL A   1      33.593  35.566  29.280  1.00  0.00     0.198 A 
ATOM     77  C   UNL A   1      33.641  34.679  31.493  1.00  0.00     0.198 A 
ATOM     78  F   UNL A   1      35.119  32.969  32.086  1.00  0.00    -0.203 F 
ATOM     79  F   UNL A   1      33.177  36.490  28.401  1.00  0.00    -0.200 F 
ATOM     80  C   UNL A   1      33.167  35.615  30.590  1.00  0.00     0.200 A 
ATOM     81  F   UNL A   1      33.218  34.716  32.765  1.00  0.00    -0.200 F 
ATOM     82  F   UNL A   1      32.333  36.584  30.991  1.00  0.00    -0.200 F 
ENDBRANCH  58  72
BRANCH  59  83
ATOM     83  C   UNL A   1      45.167  31.613  32.147  1.00  0.00     0.064 A 
ATOM     84  C   UNL A   1      45.756  31.459  33.407  1.00  0.00     0.173 A 
ATOM     85  C   UNL A   1      46.111  31.868  31.104  1.00  0.00     0.173 A 
ATOM     86  F   UNL A   1      45.005  31.352  34.508  1.00  0.00    -0.203 F 
ATOM     87  C   UNL A   1      47.158  31.438  33.581  1.00  0.00     0.198 A 
ATOM     88  C   UNL A   1      47.495  31.791  31.263  1.00  0.00     0.198 A 
ATOM     89  F   UNL A   1      45.731  32.215  29.868  1.00  0.00    -0.203 F 
ATOM     90  F   UNL A   1      47.673  31.288  34.809  1.00  0.00    -0.200 F 
ATOM     91  C   UNL A   1      48.023  31.558  32.506  1.00  0.00     0.200 A 
ATOM     92  F   UNL A   1      48.295  31.934  30.196  1.00  0.00    -0.200 F 
ATOM     93  F   UNL A   1      49.350  31.469  32.666  1.00  0.00    -0.200 F 
ENDBRANCH  59  83
BRANCH  71  94
ATOM     94  C   UNL A   1      39.352  32.807  33.442  1.00  0.00     0.064 A 
ATOM     95  C   UNL A   1      39.457  33.107  34.808  1.00  0.00     0.173 A 
ATOM     96  C   UNL A   1      38.793  31.556  33.132  1.00  0.00     0.173 A 
ATOM     97  F   UNL A   1      39.958  34.290  35.195  1.00  0.00    -0.203 F 
ATOM     98  C   UNL A   1      39.045  32.206  35.796  1.00  0.00     0.198 A 
ATOM     99  C   UNL A   1      38.378  30.653  34.113  1.00  0.00     0.198 A 
ATOM    100  F   UNL A   1      38.633  31.182  31.866  1.00  0.00    -0.203 F 
ATOM    101  F   UNL A   1      39.161  32.537  37.089  1.00  0.00    -0.200 F 
ATOM    102  C   UNL A   1      38.509  30.978  35.448  1.00  0.00     0.200 A 
ATOM    103  F   UNL A   1      37.844  29.473  33.759  1.00  0.00    -0.200 F 
ATOM    104  F   UNL A   1      38.100  30.120  36.396  1.00  0.00    -0.200 F 
ENDBRANCH  71  94
ENDBRANCH  45  46
ENDBRANCH  37  40
ENDBRANCH  35  36
ENDBRANCH  34  35
ENDBRANCH  33  34
ENDBRANCH  32  33
ENDBRANCH   1  32
TORSDOF 18
ENDMDL
