MODEL 1
REMARK VINA RESULT:     -13.7      0.000      0.000
REMARK SMILES Cc1ccc(-c2c(C(=O)NCCCCCCNC(=O)c3ccc(-c4c5nc(c(-c6c(F)c(F)c(F)c(F)c6F)c6ccc([nH]6)c(-c6c(F)c(F)c(F)c(F)c6F)c6nc(c(-c7c(F)c(F)c(F)c(F)c7F)c7ccc4[nH]7)C=C6)C=C5)cc3)nnn2Cc2c(F)cccc2Cl)cc1
REMARK SMILES IDX 13 1 12 2 11 3 10 4 8 5 9 6 7 8 6 9 85 10 83 11 84 12 5 13
REMARK SMILES IDX 1 14 2 15 3 16 96 17 4 18 95 19 86 20 87 21 88 22 93 23
REMARK SMILES IDX 89 24 90 25 92 26 94 27 91 28 14 29 15 30 16 31 17 32 18 33
REMARK SMILES IDX 19 35 20 36 21 37 82 38 22 39 81 40 23 41 24 42 25 43 75 44
REMARK SMILES IDX 26 45 80 46 74 47 76 48 27 49 79 50 73 51 72 52 28 54 60 55
REMARK SMILES IDX 40 56 59 57 41 58 44 59 58 60 77 61 42 62 43 63 57 65 78 66
REMARK SMILES IDX 45 67 29 68 30 69 38 70 31 71 32 72 36 73 39 74 33 75 34 76
REMARK SMILES IDX 37 77 35 78 61 79 62 80 70 81 63 82 64 83 68 84 71 85 65 86
REMARK SMILES IDX 66 87 69 88 67 89 46 90 47 91 55 92 48 93 49 94 53 95 56 96
REMARK SMILES IDX 50 97 51 98 54 99 52 100
REMARK H PARENT 10 7 17 34 76 53 44 64
REMARK Flexibility Score: inf
ROOT
ATOM      1  C   UNL A   1      33.220  27.821  25.647  1.00  0.00     0.002 C 
ENDROOT
BRANCH   1   2
ATOM      2  C   UNL A   1      33.909  28.099  24.308  1.00  0.00     0.021 C 
BRANCH   2   3
ATOM      3  C   UNL A   1      33.051  28.448  23.098  1.00  0.00     0.116 C 
BRANCH   3   4
ATOM      4  N   UNL A   1      33.280  27.676  21.912  1.00  0.00    -0.351 N 
ATOM      5  C   UNL A   1      32.991  26.359  21.626  1.00  0.00     0.274 C 
ATOM      6  O   UNL A   1      33.278  26.027  20.470  1.00  0.00    -0.267 OA
ATOM      7  H   UNL A   1      33.716  28.169  21.179  1.00  0.00     0.163 HD
BRANCH   5   8
ATOM      8  C   UNL A   1      32.413  25.370  22.559  1.00  0.00     0.178 A 
ATOM      9  C   UNL A   1      32.890  24.458  23.511  1.00  0.00     0.102 A 
ATOM     10  N   UNL A   1      31.732  23.964  24.090  1.00  0.00    -0.239 N 
ATOM     11  N   UNL A   1      31.027  25.278  22.555  1.00  0.00    -0.124 NA
ATOM     12  N   UNL A   1      30.638  24.394  23.449  1.00  0.00    -0.066 NA
BRANCH   9  13
ATOM     13  C   UNL A   1      34.206  24.042  23.976  1.00  0.00     0.002 A 
ATOM     14  C   UNL A   1      37.998  22.657  25.496  1.00  0.00     0.044 C 
ATOM     15  C   UNL A   1      36.689  23.161  24.966  1.00  0.00    -0.051 A 
ATOM     16  C   UNL A   1      36.225  22.724  23.719  1.00  0.00     0.004 A 
ATOM     17  C   UNL A   1      35.923  24.077  25.695  1.00  0.00     0.004 A 
ATOM     18  C   UNL A   1      34.990  23.159  23.227  1.00  0.00     0.011 A 
ATOM     19  C   UNL A   1      34.695  24.520  25.200  1.00  0.00     0.011 A 
ENDBRANCH   9  13
BRANCH  10  20
ATOM     20  C   UNL A   1      31.545  23.027  25.196  1.00  0.00     0.187 C 
BRANCH  20  21
ATOM     21  C   UNL A   1      32.395  21.781  25.180  1.00  0.00     0.028 A 
ATOM     22  C   UNL A   1      32.269  20.935  24.068  1.00  0.00     0.129 A 
ATOM     23  C   UNL A   1      33.246  21.353  26.211  1.00  0.00     0.049 A 
ATOM     24  F   UNL A   1      31.403  21.248  23.092  1.00  0.00    -0.207 F 
ATOM     25  C   UNL A   1      33.001  19.756  23.937  1.00  0.00     0.040 A 
ATOM     26  C   UNL A   1      34.013  20.187  26.071  1.00  0.00     0.021 A 
ATOM     27  Cl  UNL A   1      33.397  22.189  27.713  1.00  0.00    -0.084 Cl
ATOM     28  C   UNL A   1      33.897  19.391  24.934  1.00  0.00     0.005 A 
ENDBRANCH  20  21
ENDBRANCH  10  20
ENDBRANCH   5   8
ENDBRANCH   3   4
ENDBRANCH   2   3
ENDBRANCH   1   2
BRANCH   1  29
ATOM     29  C   UNL A   1      33.871  28.328  26.942  1.00  0.00     0.002 C 
BRANCH  29  30
ATOM     30  C   UNL A   1      33.316  29.597  27.589  1.00  0.00     0.021 C 
BRANCH  30  31
ATOM     31  C   UNL A   1      34.091  30.877  27.304  1.00  0.00     0.116 C 
BRANCH  31  32
ATOM     32  N   UNL A   1      34.476  31.618  28.504  1.00  0.00    -0.352 N 
ATOM     33  C   UNL A   1      35.511  31.345  29.386  1.00  0.00     0.251 C 
ATOM     34  H   UNL A   1      33.933  32.412  28.712  1.00  0.00     0.163 HD
ATOM     35  O   UNL A   1      35.767  32.081  30.321  1.00  0.00    -0.269 OA
BRANCH  33  36
ATOM     36  C   UNL A   1      36.372  30.179  29.091  1.00  0.00     0.039 A 
ATOM     37  C   UNL A   1      36.712  29.328  30.146  1.00  0.00     0.014 A 
ATOM     38  C   UNL A   1      37.031  30.104  27.865  1.00  0.00     0.014 A 
ATOM     39  C   UNL A   1      37.879  28.576  30.053  1.00  0.00     0.010 A 
ATOM     40  C   UNL A   1      38.234  29.429  27.805  1.00  0.00     0.010 A 
ATOM     41  C   UNL A   1      38.691  28.727  28.928  1.00  0.00    -0.014 A 
BRANCH  41  42
ATOM     42  C   UNL A   1      40.081  28.284  28.899  1.00  0.00     0.031 A 
ATOM     43  C   UNL A   1      40.422  26.922  28.450  1.00  0.00     0.074 A 
ATOM     44  C   UNL A   1      41.061  29.141  29.260  1.00  0.00     0.049 A 
ATOM     45  N   UNL A   1      41.485  26.281  28.805  1.00  0.00    -0.248 NA
ATOM     46  C   UNL A   1      39.543  26.142  27.591  1.00  0.00     0.031 C 
ATOM     47  C   UNL A   1      42.500  28.958  29.091  1.00  0.00     0.029 A 
ATOM     48  N   UNL A   1      40.947  30.283  30.073  1.00  0.00    -0.354 N 
ATOM     49  C   UNL A   1      41.577  25.148  28.028  1.00  0.00     0.074 A 
ATOM     50  C   UNL A   1      40.301  25.067  27.355  1.00  0.00     0.031 C 
ATOM     51  C   UNL A   1      43.139  29.713  29.999  1.00  0.00     0.029 A 
ATOM     52  C   UNL A   1      42.126  30.302  30.855  1.00  0.00     0.049 A 
ATOM     53  H   UNL A   1      40.205  30.930  30.094  1.00  0.00     0.167 HD
ATOM     54  C   UNL A   1      42.777  24.498  27.946  1.00  0.00     0.037 A 
ATOM     55  C   UNL A   1      42.091  30.199  32.214  1.00  0.00     0.037 A 
ATOM     56  C   UNL A   1      43.755  25.084  28.865  1.00  0.00     0.049 A 
ATOM     57  C   UNL A   1      42.884  29.041  32.766  1.00  0.00     0.074 A 
ATOM     58  C   UNL A   1      44.794  25.983  28.681  1.00  0.00     0.029 A 
ATOM     59  N   UNL A   1      43.555  24.991  30.239  1.00  0.00    -0.354 N 
ATOM     60  N   UNL A   1      43.248  28.010  32.056  1.00  0.00    -0.248 NA
ATOM     61  C   UNL A   1      43.298  28.933  34.162  1.00  0.00     0.031 C 
ATOM     62  C   UNL A   1      45.193  26.463  29.951  1.00  0.00     0.029 A 
ATOM     63  C   UNL A   1      44.408  25.846  30.910  1.00  0.00     0.049 A 
ATOM     64  H   UNL A   1      42.898  24.400  30.672  1.00  0.00     0.167 HD
ATOM     65  C   UNL A   1      43.919  27.119  32.854  1.00  0.00     0.074 A 
ATOM     66  C   UNL A   1      43.937  27.749  34.161  1.00  0.00     0.031 C 
ATOM     67  C   UNL A   1      44.393  25.935  32.362  1.00  0.00     0.037 A 
BRANCH  54  68
ATOM     68  C   UNL A   1      43.168  23.550  26.822  1.00  0.00     0.064 A 
ATOM     69  C   UNL A   1      42.814  22.182  26.876  1.00  0.00     0.173 A 
ATOM     70  C   UNL A   1      43.957  23.895  25.710  1.00  0.00     0.173 A 
ATOM     71  F   UNL A   1      41.953  21.713  27.788  1.00  0.00    -0.203 F 
ATOM     72  C   UNL A   1      43.329  21.230  25.987  1.00  0.00     0.198 A 
ATOM     73  C   UNL A   1      44.514  22.940  24.851  1.00  0.00     0.198 A 
ATOM     74  F   UNL A   1      44.163  25.169  25.367  1.00  0.00    -0.203 F 
ATOM     75  F   UNL A   1      42.970  19.943  26.109  1.00  0.00    -0.200 F 
ATOM     76  C   UNL A   1      44.215  21.603  25.002  1.00  0.00     0.200 A 
ATOM     77  F   UNL A   1      45.342  23.332  23.872  1.00  0.00    -0.200 F 
ATOM     78  F   UNL A   1      44.747  20.689  24.180  1.00  0.00    -0.200 F 
ENDBRANCH  54  68
BRANCH  55  79
ATOM     79  C   UNL A   1      40.853  30.759  32.814  1.00  0.00     0.064 A 
ATOM     80  C   UNL A   1      40.699  32.159  32.834  1.00  0.00     0.173 A 
ATOM     81  C   UNL A   1      39.706  29.978  32.999  1.00  0.00     0.173 A 
ATOM     82  F   UNL A   1      41.767  32.952  32.657  1.00  0.00    -0.203 F 
ATOM     83  C   UNL A   1      39.440  32.748  32.912  1.00  0.00     0.198 A 
ATOM     84  C   UNL A   1      38.447  30.575  33.096  1.00  0.00     0.198 A 
ATOM     85  F   UNL A   1      39.784  28.640  32.968  1.00  0.00    -0.203 F 
ATOM     86  F   UNL A   1      39.318  34.080  32.806  1.00  0.00    -0.200 F 
ATOM     87  C   UNL A   1      38.312  31.954  33.015  1.00  0.00     0.200 A 
ATOM     88  F   UNL A   1      37.350  29.806  33.169  1.00  0.00    -0.200 F 
ATOM     89  F   UNL A   1      37.094  32.513  32.993  1.00  0.00    -0.200 F 
ENDBRANCH  55  79
BRANCH  67  90
ATOM     90  C   UNL A   1      44.979  24.795  33.162  1.00  0.00     0.064 A 
ATOM     91  C   UNL A   1      44.290  23.610  33.467  1.00  0.00     0.173 A 
ATOM     92  C   UNL A   1      46.347  24.814  33.534  1.00  0.00     0.173 A 
ATOM     93  F   UNL A   1      43.027  23.415  33.067  1.00  0.00    -0.203 F 
ATOM     94  C   UNL A   1      44.904  22.552  34.145  1.00  0.00     0.198 A 
ATOM     95  C   UNL A   1      46.970  23.735  34.158  1.00  0.00     0.198 A 
ATOM     96  F   UNL A   1      47.129  25.873  33.279  1.00  0.00    -0.203 F 
ATOM     97  F   UNL A   1      44.191  21.458  34.448  1.00  0.00    -0.200 F 
ATOM     98  C   UNL A   1      46.244  22.608  34.479  1.00  0.00     0.200 A 
ATOM     99  F   UNL A   1      48.283  23.786  34.426  1.00  0.00    -0.200 F 
ATOM    100  F   UNL A   1      46.838  21.572  35.085  1.00  0.00    -0.200 F 
ENDBRANCH  67  90
ENDBRANCH  41  42
ENDBRANCH  33  36
ENDBRANCH  31  32
ENDBRANCH  30  31
ENDBRANCH  29  30
ENDBRANCH   1  29
TORSDOF 16
ENDMDL
MODEL 2
REMARK VINA RESULT:     -13.7      3.619      9.706
REMARK SMILES Cc1ccc(-c2c(C(=O)NCCCCCCNC(=O)c3ccc(-c4c5nc(c(-c6c(F)c(F)c(F)c(F)c6F)c6ccc([nH]6)c(-c6c(F)c(F)c(F)c(F)c6F)c6nc(c(-c7c(F)c(F)c(F)c(F)c7F)c7ccc4[nH]7)C=C6)C=C5)cc3)nnn2Cc2c(F)cccc2Cl)cc1
REMARK SMILES IDX 13 1 12 2 11 3 10 4 8 5 9 6 7 8 6 9 85 10 83 11 84 12 5 13
REMARK SMILES IDX 1 14 2 15 3 16 96 17 4 18 95 19 86 20 87 21 88 22 93 23
REMARK SMILES IDX 89 24 90 25 92 26 94 27 91 28 14 29 15 30 16 31 17 32 18 33
REMARK SMILES IDX 19 35 20 36 21 37 82 38 22 39 81 40 23 41 24 42 25 43 75 44
REMARK SMILES IDX 26 45 80 46 74 47 76 48 27 49 79 50 73 51 72 52 28 54 60 55
REMARK SMILES IDX 40 56 59 57 41 58 44 59 58 60 77 61 42 62 43 63 57 65 78 66
REMARK SMILES IDX 45 67 29 68 30 69 38 70 31 71 32 72 36 73 39 74 33 75 34 76
REMARK SMILES IDX 37 77 35 78 61 79 62 80 70 81 63 82 64 83 68 84 71 85 65 86
REMARK SMILES IDX 66 87 69 88 67 89 46 90 47 91 55 92 48 93 49 94 53 95 56 96
REMARK SMILES IDX 50 97 51 98 54 99 52 100
REMARK H PARENT 10 7 17 34 76 53 44 64
REMARK Flexibility Score: inf
ROOT
ATOM      1  C   UNL A   1      36.618  23.037  24.378  1.00  0.00     0.002 C 
ENDROOT
BRANCH   1   2
ATOM      2  C   UNL A   1      35.312  23.065  25.176  1.00  0.00     0.021 C 
BRANCH   2   3
ATOM      3  C   UNL A   1      34.889  21.816  25.940  1.00  0.00     0.116 C 
BRANCH   3   4
ATOM      4  N   UNL A   1      34.084  22.025  27.107  1.00  0.00    -0.351 N 
ATOM      5  C   UNL A   1      32.852  22.628  27.254  1.00  0.00     0.274 C 
ATOM      6  O   UNL A   1      32.414  22.588  28.409  1.00  0.00    -0.267 OA
ATOM      7  H   UNL A   1      34.475  21.682  27.943  1.00  0.00     0.163 HD
BRANCH   5   8
ATOM      8  C   UNL A   1      32.076  23.297  26.189  1.00  0.00     0.178 A 
ATOM      9  C   UNL A   1      31.852  24.611  25.755  1.00  0.00     0.102 A 
ATOM     10  N   UNL A   1      31.104  24.444  24.601  1.00  0.00    -0.239 N 
ATOM     11  N   UNL A   1      31.365  22.455  25.345  1.00  0.00    -0.124 NA
ATOM     12  N   UNL A   1      30.748  23.165  24.424  1.00  0.00    -0.066 NA
BRANCH   9  13
ATOM     13  C   UNL A   1      32.262  25.934  26.207  1.00  0.00     0.002 A 
ATOM     14  C   UNL A   1      33.448  29.927  27.326  1.00  0.00     0.044 C 
ATOM     15  C   UNL A   1      33.052  28.530  26.952  1.00  0.00    -0.051 A 
ATOM     16  C   UNL A   1      31.763  28.067  27.243  1.00  0.00     0.004 A 
ATOM     17  C   UNL A   1      33.959  27.669  26.325  1.00  0.00     0.004 A 
ATOM     18  C   UNL A   1      31.368  26.778  26.871  1.00  0.00     0.011 A 
ATOM     19  C   UNL A   1      33.569  26.378  25.962  1.00  0.00     0.011 A 
ENDBRANCH   9  13
BRANCH  10  20
ATOM     20  C   UNL A   1      30.605  25.424  23.638  1.00  0.00     0.187 C 
BRANCH  20  21
ATOM     21  C   UNL A   1      31.573  26.492  23.195  1.00  0.00     0.028 A 
ATOM     22  C   UNL A   1      31.219  27.825  23.453  1.00  0.00     0.129 A 
ATOM     23  C   UNL A   1      32.762  26.279  22.480  1.00  0.00     0.049 A 
ATOM     24  F   UNL A   1      30.049  28.094  24.054  1.00  0.00    -0.207 F 
ATOM     25  C   UNL A   1      32.029  28.900  23.093  1.00  0.00     0.040 A 
ATOM     26  C   UNL A   1      33.601  27.353  22.146  1.00  0.00     0.021 A 
ATOM     27  Cl  UNL A   1      33.268  24.720  21.941  1.00  0.00    -0.084 Cl
ATOM     28  C   UNL A   1      33.240  28.662  22.457  1.00  0.00     0.005 A 
ENDBRANCH  20  21
ENDBRANCH  10  20
ENDBRANCH   5   8
ENDBRANCH   3   4
ENDBRANCH   2   3
ENDBRANCH   1   2
BRANCH   1  29
ATOM     29  C   UNL A   1      37.408  21.723  24.283  1.00  0.00     0.002 C 
BRANCH  29  30
ATOM     30  C   UNL A   1      38.421  21.401  25.382  1.00  0.00     0.021 C 
BRANCH  30  31
ATOM     31  C   UNL A   1      38.889  22.587  26.216  1.00  0.00     0.116 C 
BRANCH  31  32
ATOM     32  N   UNL A   1      40.343  22.726  26.288  1.00  0.00    -0.352 N 
ATOM     33  C   UNL A   1      41.082  23.861  26.588  1.00  0.00     0.251 C 
ATOM     34  H   UNL A   1      40.863  21.912  26.100  1.00  0.00     0.163 HD
ATOM     35  O   UNL A   1      42.295  23.831  26.676  1.00  0.00    -0.269 OA
BRANCH  33  36
ATOM     36  C   UNL A   1      40.337  25.097  26.909  1.00  0.00     0.039 A 
ATOM     37  C   UNL A   1      40.703  26.276  26.253  1.00  0.00     0.014 A 
ATOM     38  C   UNL A   1      39.495  25.124  28.020  1.00  0.00     0.014 A 
ATOM     39  C   UNL A   1      40.429  27.496  26.862  1.00  0.00     0.010 A 
ATOM     40  C   UNL A   1      39.302  26.327  28.670  1.00  0.00     0.010 A 
ATOM     41  C   UNL A   1      39.835  27.502  28.126  1.00  0.00    -0.014 A 
BRANCH  41  42
ATOM     42  C   UNL A   1      39.847  28.676  28.991  1.00  0.00     0.031 A 
ATOM     43  C   UNL A   1      38.840  29.739  28.822  1.00  0.00     0.074 A 
ATOM     44  C   UNL A   1      40.770  28.771  29.973  1.00  0.00     0.049 A 
ATOM     45  N   UNL A   1      39.011  30.970  29.174  1.00  0.00    -0.248 NA
ATOM     46  C   UNL A   1      37.556  29.501  28.178  1.00  0.00     0.031 C 
ATOM     47  C   UNL A   1      40.805  29.745  31.061  1.00  0.00     0.029 A 
ATOM     48  N   UNL A   1      42.013  28.118  30.049  1.00  0.00    -0.354 N 
ATOM     49  C   UNL A   1      37.798  31.614  29.069  1.00  0.00     0.074 A 
ATOM     50  C   UNL A   1      36.952  30.679  28.363  1.00  0.00     0.031 C 
ATOM     51  C   UNL A   1      42.072  29.868  31.488  1.00  0.00     0.029 A 
ATOM     52  C   UNL A   1      42.901  29.070  30.603  1.00  0.00     0.049 A 
ATOM     53  H   UNL A   1      42.221  27.195  29.774  1.00  0.00     0.167 HD
ATOM     54  C   UNL A   1      37.623  32.804  29.718  1.00  0.00     0.037 A 
ATOM     55  C   UNL A   1      43.983  29.532  29.914  1.00  0.00     0.037 A 
ATOM     56  C   UNL A   1      38.878  33.262  30.321  1.00  0.00     0.049 A 
ATOM     57  C   UNL A   1      44.006  31.029  29.732  1.00  0.00     0.074 A 
ATOM     58  C   UNL A   1      39.376  33.200  31.613  1.00  0.00     0.029 A 
ATOM     59  N   UNL A   1      39.946  33.619  29.505  1.00  0.00    -0.354 N 
ATOM     60  N   UNL A   1      42.953  31.788  29.852  1.00  0.00    -0.248 NA
ATOM     61  C   UNL A   1      45.201  31.784  29.366  1.00  0.00     0.031 C 
ATOM     62  C   UNL A   1      40.762  33.481  31.566  1.00  0.00     0.029 A 
ATOM     63  C   UNL A   1      41.106  33.730  30.248  1.00  0.00     0.049 A 
ATOM     64  H   UNL A   1      39.886  33.771  28.534  1.00  0.00     0.167 HD
ATOM     65  C   UNL A   1      43.294  33.090  29.588  1.00  0.00     0.074 A 
ATOM     66  C   UNL A   1      44.717  33.038  29.305  1.00  0.00     0.031 C 
ATOM     67  C   UNL A   1      42.368  34.094  29.623  1.00  0.00     0.037 A 
BRANCH  54  68
ATOM     68  C   UNL A   1      36.270  33.395  30.084  1.00  0.00     0.064 A 
ATOM     69  C   UNL A   1      35.440  33.967  29.092  1.00  0.00     0.173 A 
ATOM     70  C   UNL A   1      35.764  33.510  31.391  1.00  0.00     0.173 A 
ATOM     71  F   UNL A   1      35.703  33.824  27.787  1.00  0.00    -0.203 F 
ATOM     72  C   UNL A   1      34.295  34.712  29.398  1.00  0.00     0.198 A 
ATOM     73  C   UNL A   1      34.649  34.296  31.705  1.00  0.00     0.198 A 
ATOM     74  F   UNL A   1      36.280  32.812  32.406  1.00  0.00    -0.203 F 
ATOM     75  F   UNL A   1      33.566  35.248  28.408  1.00  0.00    -0.200 F 
ATOM     76  C   UNL A   1      33.925  34.914  30.709  1.00  0.00     0.200 A 
ATOM     77  F   UNL A   1      34.281  34.445  32.986  1.00  0.00    -0.200 F 
ATOM     78  F   UNL A   1      32.857  35.667  31.008  1.00  0.00    -0.200 F 
ENDBRANCH  54  68
BRANCH  55  79
ATOM     79  C   UNL A   1      44.540  28.540  28.960  1.00  0.00     0.064 A 
ATOM     80  C   UNL A   1      45.318  27.485  29.477  1.00  0.00     0.173 A 
ATOM     81  C   UNL A   1      44.023  28.391  27.668  1.00  0.00     0.173 A 
ATOM     82  F   UNL A   1      45.833  27.577  30.713  1.00  0.00    -0.203 F 
ATOM     83  C   UNL A   1      45.470  26.288  28.782  1.00  0.00     0.198 A 
ATOM     84  C   UNL A   1      44.193  27.194  26.967  1.00  0.00     0.198 A 
ATOM     85  F   UNL A   1      43.256  29.349  27.129  1.00  0.00    -0.203 F 
ATOM     86  F   UNL A   1      46.114  25.260  29.355  1.00  0.00    -0.200 F 
ATOM     87  C   UNL A   1      44.883  26.134  27.539  1.00  0.00     0.200 A 
ATOM     88  F   UNL A   1      43.604  27.033  25.773  1.00  0.00    -0.200 F 
ATOM     89  F   UNL A   1      44.945  24.951  26.910  1.00  0.00    -0.200 F 
ENDBRANCH  55  79
BRANCH  67  90
ATOM     90  C   UNL A   1      42.569  35.524  29.178  1.00  0.00     0.064 A 
ATOM     91  C   UNL A   1      41.966  36.088  28.042  1.00  0.00     0.173 A 
ATOM     92  C   UNL A   1      43.290  36.429  29.997  1.00  0.00     0.173 A 
ATOM     93  F   UNL A   1      41.162  35.370  27.250  1.00  0.00    -0.203 F 
ATOM     94  C   UNL A   1      42.123  37.440  27.717  1.00  0.00     0.198 A 
ATOM     95  C   UNL A   1      43.396  37.787  29.699  1.00  0.00     0.198 A 
ATOM     96  F   UNL A   1      43.894  36.029  31.125  1.00  0.00    -0.203 F 
ATOM     97  F   UNL A   1      41.560  37.922  26.600  1.00  0.00    -0.200 F 
ATOM     98  C   UNL A   1      42.826  38.291  28.550  1.00  0.00     0.200 A 
ATOM     99  F   UNL A   1      44.036  38.607  30.546  1.00  0.00    -0.200 F 
ATOM    100  F   UNL A   1      42.932  39.594  28.258  1.00  0.00    -0.200 F 
ENDBRANCH  67  90
ENDBRANCH  41  42
ENDBRANCH  33  36
ENDBRANCH  31  32
ENDBRANCH  30  31
ENDBRANCH  29  30
ENDBRANCH   1  29
TORSDOF 16
ENDMDL
MODEL 3
REMARK VINA RESULT:     -13.6      1.064      1.617
REMARK SMILES Cc1ccc(-c2c(C(=O)NCCCCCCNC(=O)c3ccc(-c4c5nc(c(-c6c(F)c(F)c(F)c(F)c6F)c6ccc([nH]6)c(-c6c(F)c(F)c(F)c(F)c6F)c6nc(c(-c7c(F)c(F)c(F)c(F)c7F)c7ccc4[nH]7)C=C6)C=C5)cc3)nnn2Cc2c(F)cccc2Cl)cc1
REMARK SMILES IDX 13 1 12 2 11 3 10 4 8 5 9 6 7 8 6 9 85 10 83 11 84 12 5 13
REMARK SMILES IDX 1 14 2 15 3 16 96 17 4 18 95 19 86 20 87 21 88 22 93 23
REMARK SMILES IDX 89 24 90 25 92 26 94 27 91 28 14 29 15 30 16 31 17 32 18 33
REMARK SMILES IDX 19 35 20 36 21 37 82 38 22 39 81 40 23 41 24 42 25 43 75 44
REMARK SMILES IDX 26 45 80 46 74 47 76 48 27 49 79 50 73 51 72 52 28 54 60 55
REMARK SMILES IDX 40 56 59 57 41 58 44 59 58 60 77 61 42 62 43 63 57 65 78 66
REMARK SMILES IDX 45 67 29 68 30 69 38 70 31 71 32 72 36 73 39 74 33 75 34 76
REMARK SMILES IDX 37 77 35 78 61 79 62 80 70 81 63 82 64 83 68 84 71 85 65 86
REMARK SMILES IDX 66 87 69 88 67 89 46 90 47 91 55 92 48 93 49 94 53 95 56 96
REMARK SMILES IDX 50 97 51 98 54 99 52 100
REMARK H PARENT 10 7 17 34 76 53 44 64
REMARK Flexibility Score: inf
ROOT
ATOM      1  C   UNL A   1      33.104  27.966  25.992  1.00  0.00     0.002 C 
ENDROOT
BRANCH   1   2
ATOM      2  C   UNL A   1      33.784  28.195  24.640  1.00  0.00     0.021 C 
BRANCH   2   3
ATOM      3  C   UNL A   1      32.920  28.528  23.429  1.00  0.00     0.116 C 
BRANCH   3   4
ATOM      4  N   UNL A   1      33.236  27.839  22.213  1.00  0.00    -0.351 N 
ATOM      5  C   UNL A   1      33.001  26.535  21.830  1.00  0.00     0.274 C 
ATOM      6  O   UNL A   1      33.362  26.284  20.674  1.00  0.00    -0.267 OA
ATOM      7  H   UNL A   1      33.699  28.387  21.538  1.00  0.00     0.163 HD
BRANCH   5   8
ATOM      8  C   UNL A   1      32.400  25.476  22.666  1.00  0.00     0.178 A 
ATOM      9  C   UNL A   1      32.852  24.490  23.553  1.00  0.00     0.102 A 
ATOM     10  N   UNL A   1      31.680  23.953  24.061  1.00  0.00    -0.239 N 
ATOM     11  N   UNL A   1      31.015  25.387  22.618  1.00  0.00    -0.124 NA
ATOM     12  N   UNL A   1      30.602  24.434  23.428  1.00  0.00    -0.066 NA
BRANCH   9  13
ATOM     13  C   UNL A   1      34.156  24.035  24.018  1.00  0.00     0.002 A 
ATOM     14  C   UNL A   1      37.907  22.540  25.533  1.00  0.00     0.044 C 
ATOM     15  C   UNL A   1      36.613  23.082  25.005  1.00  0.00    -0.051 A 
ATOM     16  C   UNL A   1      36.139  22.667  23.754  1.00  0.00     0.004 A 
ATOM     17  C   UNL A   1      35.870  24.012  25.740  1.00  0.00     0.004 A 
ATOM     18  C   UNL A   1      34.917  23.138  23.264  1.00  0.00     0.011 A 
ATOM     19  C   UNL A   1      34.654  24.491  25.247  1.00  0.00     0.011 A 
ENDBRANCH   9  13
BRANCH  10  20
ATOM     20  C   UNL A   1      31.464  22.930  25.083  1.00  0.00     0.187 C 
BRANCH  20  21
ATOM     21  C   UNL A   1      32.265  21.659  24.950  1.00  0.00     0.028 A 
ATOM     22  C   UNL A   1      33.065  21.290  26.042  1.00  0.00     0.129 A 
ATOM     23  C   UNL A   1      32.341  20.851  23.805  1.00  0.00     0.049 A 
ATOM     24  F   UNL A   1      33.102  22.074  27.131  1.00  0.00    -0.207 F 
ATOM     25  C   UNL A   1      33.850  20.139  26.040  1.00  0.00     0.040 A 
ATOM     26  C   UNL A   1      33.100  19.671  23.808  1.00  0.00     0.021 A 
ATOM     27  Cl  UNL A   1      31.548  21.244  22.323  1.00  0.00    -0.084 Cl
ATOM     28  C   UNL A   1      33.849  19.310  24.925  1.00  0.00     0.005 A 
ENDBRANCH  20  21
ENDBRANCH  10  20
ENDBRANCH   5   8
ENDBRANCH   3   4
ENDBRANCH   2   3
ENDBRANCH   1   2
BRANCH   1  29
ATOM     29  C   UNL A   1      33.732  28.569  27.257  1.00  0.00     0.002 C 
BRANCH  29  30
ATOM     30  C   UNL A   1      33.367  30.004  27.638  1.00  0.00     0.021 C 
BRANCH  30  31
ATOM     31  C   UNL A   1      34.429  31.055  27.346  1.00  0.00     0.116 C 
BRANCH  31  32
ATOM     32  N   UNL A   1      34.928  31.743  28.535  1.00  0.00    -0.352 N 
ATOM     33  C   UNL A   1      35.978  31.373  29.363  1.00  0.00     0.251 C 
ATOM     34  H   UNL A   1      34.461  32.575  28.779  1.00  0.00     0.163 HD
ATOM     35  O   UNL A   1      36.336  32.071  30.294  1.00  0.00    -0.269 OA
BRANCH  33  36
ATOM     36  C   UNL A   1      36.727  30.148  29.012  1.00  0.00     0.039 A 
ATOM     37  C   UNL A   1      36.992  29.225  30.027  1.00  0.00     0.014 A 
ATOM     38  C   UNL A   1      37.371  30.066  27.779  1.00  0.00     0.014 A 
ATOM     39  C   UNL A   1      38.085  28.374  29.893  1.00  0.00     0.010 A 
ATOM     40  C   UNL A   1      38.508  29.288  27.681  1.00  0.00     0.010 A 
ATOM     41  C   UNL A   1      38.903  28.499  28.769  1.00  0.00    -0.014 A 
BRANCH  41  42
ATOM     42  C   UNL A   1      40.246  27.933  28.711  1.00  0.00     0.031 A 
ATOM     43  C   UNL A   1      40.441  26.496  28.440  1.00  0.00     0.074 A 
ATOM     44  C   UNL A   1      41.318  28.739  28.878  1.00  0.00     0.049 A 
ATOM     45  N   UNL A   1      41.474  25.817  28.810  1.00  0.00    -0.248 NA
ATOM     46  C   UNL A   1      39.437  25.689  27.763  1.00  0.00     0.031 C 
ATOM     47  C   UNL A   1      42.719  28.406  28.640  1.00  0.00     0.029 A 
ATOM     48  N   UNL A   1      41.360  29.987  29.524  1.00  0.00    -0.354 N 
ATOM     49  C   UNL A   1      41.413  24.584  28.199  1.00  0.00     0.074 A 
ATOM     50  C   UNL A   1      40.085  24.527  27.633  1.00  0.00     0.031 C 
ATOM     51  C   UNL A   1      43.487  29.217  29.385  1.00  0.00     0.029 A 
ATOM     52  C   UNL A   1      42.595  30.007  30.214  1.00  0.00     0.049 A 
ATOM     53  H   UNL A   1      40.676  30.695  29.503  1.00  0.00     0.167 HD
ATOM     54  C   UNL A   1      42.547  23.823  28.131  1.00  0.00     0.037 A 
ATOM     55  C   UNL A   1      42.660  30.095  31.573  1.00  0.00     0.037 A 
ATOM     56  C   UNL A   1      43.638  24.440  28.888  1.00  0.00     0.049 A 
ATOM     57  C   UNL A   1      43.399  28.957  32.231  1.00  0.00     0.074 A 
ATOM     58  C   UNL A   1      44.728  25.208  28.507  1.00  0.00     0.029 A 
ATOM     59  N   UNL A   1      43.541  24.554  30.271  1.00  0.00    -0.354 N 
ATOM     60  N   UNL A   1      43.623  27.809  31.653  1.00  0.00    -0.248 NA
ATOM     61  C   UNL A   1      43.913  29.004  33.597  1.00  0.00     0.031 C 
ATOM     62  C   UNL A   1      45.264  25.819  29.666  1.00  0.00     0.029 A 
ATOM     63  C   UNL A   1      44.511  25.413  30.754  1.00  0.00     0.049 A 
ATOM     64  H   UNL A   1      42.876  24.090  30.828  1.00  0.00     0.167 HD
ATOM     65  C   UNL A   1      44.281  26.979  32.524  1.00  0.00     0.074 A 
ATOM     66  C   UNL A   1      44.454  27.778  33.722  1.00  0.00     0.031 C 
ATOM     67  C   UNL A   1      44.619  25.701  32.176  1.00  0.00     0.037 A 
BRANCH  54  68
ATOM     68  C   UNL A   1      42.770  22.699  27.131  1.00  0.00     0.064 A 
ATOM     69  C   UNL A   1      42.102  21.461  27.275  1.00  0.00     0.173 A 
ATOM     70  C   UNL A   1      43.684  22.736  26.062  1.00  0.00     0.173 A 
ATOM     71  F   UNL A   1      41.102  21.299  28.151  1.00  0.00    -0.203 F 
ATOM     72  C   UNL A   1      42.430  20.329  26.519  1.00  0.00     0.198 A 
ATOM     73  C   UNL A   1      44.050  21.595  25.339  1.00  0.00     0.198 A 
ATOM     74  F   UNL A   1      44.204  23.887  25.626  1.00  0.00    -0.203 F 
ATOM     75  F   UNL A   1      41.773  19.179  26.724  1.00  0.00    -0.200 F 
ATOM     76  C   UNL A   1      43.437  20.385  25.581  1.00  0.00     0.200 A 
ATOM     77  F   UNL A   1      45.004  21.682  24.401  1.00  0.00    -0.200 F 
ATOM     78  F   UNL A   1      43.787  19.293  24.889  1.00  0.00    -0.200 F 
ENDBRANCH  54  68
BRANCH  55  79
ATOM     79  C   UNL A   1      41.522  30.841  32.169  1.00  0.00     0.064 A 
ATOM     80  C   UNL A   1      40.441  30.100  32.685  1.00  0.00     0.173 A 
ATOM     81  C   UNL A   1      41.647  32.173  32.576  1.00  0.00     0.173 A 
ATOM     82  F   UNL A   1      40.278  28.815  32.329  1.00  0.00    -0.203 F 
ATOM     83  C   UNL A   1      39.597  30.631  33.657  1.00  0.00     0.198 A 
ATOM     84  C   UNL A   1      40.787  32.708  33.538  1.00  0.00     0.198 A 
ATOM     85  F   UNL A   1      42.668  32.923  32.137  1.00  0.00    -0.203 F 
ATOM     86  F   UNL A   1      38.653  29.859  34.217  1.00  0.00    -0.200 F 
ATOM     87  C   UNL A   1      39.789  31.926  34.103  1.00  0.00     0.200 A 
ATOM     88  F   UNL A   1      40.987  33.954  33.990  1.00  0.00    -0.200 F 
ATOM     89  F   UNL A   1      39.041  32.408  35.106  1.00  0.00    -0.200 F 
ENDBRANCH  55  79
BRANCH  67  90
ATOM     90  C   UNL A   1      45.173  24.633  33.090  1.00  0.00     0.064 A 
ATOM     91  C   UNL A   1      44.476  23.472  33.458  1.00  0.00     0.173 A 
ATOM     92  C   UNL A   1      46.524  24.693  33.518  1.00  0.00     0.173 A 
ATOM     93  F   UNL A   1      43.233  23.235  33.021  1.00  0.00    -0.203 F 
ATOM     94  C   UNL A   1      45.064  22.475  34.246  1.00  0.00     0.198 A 
ATOM     95  C   UNL A   1      47.123  23.671  34.253  1.00  0.00     0.198 A 
ATOM     96  F   UNL A   1      47.312  25.734  33.214  1.00  0.00    -0.203 F 
ATOM     97  F   UNL A   1      44.343  21.403  34.604  1.00  0.00    -0.200 F 
ATOM     98  C   UNL A   1      46.388  22.568  34.632  1.00  0.00     0.200 A 
ATOM     99  F   UNL A   1      48.422  23.754  34.574  1.00  0.00    -0.200 F 
ATOM    100  F   UNL A   1      46.959  21.589  35.345  1.00  0.00    -0.200 F 
ENDBRANCH  67  90
ENDBRANCH  41  42
ENDBRANCH  33  36
ENDBRANCH  31  32
ENDBRANCH  30  31
ENDBRANCH  29  30
ENDBRANCH   1  29
TORSDOF 16
ENDMDL
