MODEL 1
REMARK VINA RESULT:     -13.9      0.000      0.000
REMARK SMILES Cc1cc(NC(=O)c2ccc(Br)cc2N)ccc1C(=O)NCCCCCCNC(=O)c1ccc(-c2c3nc(c(-c4c(F)c(F)c(F)c(F)c4F)c4ccc([nH]4)c(-c4c(F)c(F)c(F)c(F)c4F)c4nc(c(-c5c(F)c(F)c(F)c(F)c5F)c5ccc2[nH]5)C=C4)C=C3)cc1
REMARK SMILES IDX 24 1 23 2 22 3 21 4 19 5 20 6 18 8 1 9 2 10 3 11 4 12 17 13
REMARK SMILES IDX 16 14 5 15 6 16 7 18 8 19 9 20 14 21 10 22 13 23 11 24 12 25
REMARK SMILES IDX 15 26 25 29 26 30 27 31 28 32 29 33 30 35 31 36 32 37 93 38
REMARK SMILES IDX 33 39 92 40 34 41 35 42 36 43 86 44 37 45 91 46 85 47 87 48
REMARK SMILES IDX 38 49 90 50 84 51 83 52 39 54 71 55 51 56 70 57 52 58 55 59
REMARK SMILES IDX 69 60 88 61 53 62 54 63 68 65 89 66 56 67 40 68 41 69 49 70
REMARK SMILES IDX 42 71 43 72 47 73 50 74 44 75 45 76 48 77 46 78 72 79 73 80
REMARK SMILES IDX 81 81 74 82 75 83 79 84 82 85 76 86 77 87 80 88 78 89 57 90
REMARK SMILES IDX 58 91 66 92 59 93 60 94 64 95 67 96 61 97 62 98 65 99 63 100
REMARK H PARENT 21 7 5 17 15 27 15 28 28 34 87 53 55 64
REMARK Flexibility Score: inf
ROOT
ATOM      1  C   UNL A   1      32.739  29.579  25.225  1.00  0.00     0.002 C 
ENDROOT
BRANCH   1   2
ATOM      2  C   UNL A   1      33.639  28.718  24.331  1.00  0.00     0.021 C 
BRANCH   2   3
ATOM      3  C   UNL A   1      33.621  29.063  22.834  1.00  0.00     0.116 C 
BRANCH   3   4
ATOM      4  N   UNL A   1      32.259  29.285  22.393  1.00  0.00    -0.352 N 
ATOM      5  C   UNL A   1      31.125  28.518  22.372  1.00  0.00     0.251 C 
ATOM      6  O   UNL A   1      30.123  29.042  21.878  1.00  0.00    -0.269 OA
ATOM      7  H   UNL A   1      32.118  30.189  22.027  1.00  0.00     0.163 HD
BRANCH   5   8
ATOM      8  C   UNL A   1      30.973  27.162  22.988  1.00  0.00     0.042 A 
ATOM      9  C   UNL A   1      32.108  25.705  21.186  1.00  0.00     0.045 C 
ATOM     10  C   UNL A   1      31.435  25.925  22.505  1.00  0.00    -0.036 A 
ATOM     11  C   UNL A   1      31.210  24.761  23.276  1.00  0.00     0.030 A 
ATOM     12  C   UNL A   1      30.443  24.785  24.441  1.00  0.00     0.041 A 
ATOM     13  C   UNL A   1      30.146  27.152  24.134  1.00  0.00     0.016 A 
ATOM     14  C   UNL A   1      29.847  25.976  24.829  1.00  0.00     0.027 A 
BRANCH  12  15
ATOM     15  N   UNL A   1      30.234  23.648  25.236  1.00  0.00    -0.322 N 
ATOM     16  C   UNL A   1      31.100  22.611  25.526  1.00  0.00     0.257 C 
ATOM     17  H   UNL A   1      29.342  23.578  25.646  1.00  0.00     0.170 HD
ATOM     18  O   UNL A   1      30.661  21.547  25.960  1.00  0.00    -0.269 OA
BRANCH  16  19
ATOM     19  C   UNL A   1      32.574  22.788  25.402  1.00  0.00     0.063 A 
ATOM     20  C   UNL A   1      33.160  23.754  26.237  1.00  0.00     0.017 A 
ATOM     21  C   UNL A   1      33.364  22.067  24.478  1.00  0.00     0.045 A 
ATOM     22  C   UNL A   1      34.535  23.987  26.189  1.00  0.00     0.016 A 
ATOM     23  C   UNL A   1      34.742  22.325  24.441  1.00  0.00     0.042 A 
ATOM     24  C   UNL A   1      35.320  23.263  25.296  1.00  0.00     0.020 A 
ATOM     25  Br  UNL A   1      37.183  23.574  25.217  1.00  0.00    -0.051 Br
BRANCH  21  26
ATOM     26  N   UNL A   1      32.832  21.232  23.497  1.00  0.00    -0.398 N 
ATOM     27  H   UNL A   1      31.972  20.780  23.649  1.00  0.00     0.156 HD
ATOM     28  H   UNL A   1      33.318  21.095  22.651  1.00  0.00     0.156 HD
ENDBRANCH  21  26
ENDBRANCH  16  19
ENDBRANCH  12  15
ENDBRANCH   5   8
ENDBRANCH   3   4
ENDBRANCH   2   3
ENDBRANCH   1   2
BRANCH   1  29
ATOM     29  C   UNL A   1      32.548  29.102  26.673  1.00  0.00     0.002 C 
BRANCH  29  30
ATOM     30  C   UNL A   1      33.704  29.385  27.635  1.00  0.00     0.021 C 
BRANCH  30  31
ATOM     31  C   UNL A   1      34.424  30.706  27.383  1.00  0.00     0.116 C 
BRANCH  31  32
ATOM     32  N   UNL A   1      34.838  31.395  28.599  1.00  0.00    -0.352 N 
ATOM     33  C   UNL A   1      35.817  31.057  29.511  1.00  0.00     0.251 C 
ATOM     34  H   UNL A   1      34.347  32.225  28.799  1.00  0.00     0.163 HD
ATOM     35  O   UNL A   1      35.992  31.746  30.514  1.00  0.00    -0.269 OA
BRANCH  33  36
ATOM     36  C   UNL A   1      36.738  29.934  29.221  1.00  0.00     0.039 A 
ATOM     37  C   UNL A   1      37.056  29.051  30.261  1.00  0.00     0.014 A 
ATOM     38  C   UNL A   1      37.401  29.841  28.000  1.00  0.00     0.014 A 
ATOM     39  C   UNL A   1      38.185  28.240  30.153  1.00  0.00     0.010 A 
ATOM     40  C   UNL A   1      38.568  29.105  27.922  1.00  0.00     0.010 A 
ATOM     41  C   UNL A   1      38.995  28.356  29.023  1.00  0.00    -0.014 A 
BRANCH  41  42
ATOM     42  C   UNL A   1      40.352  27.823  28.950  1.00  0.00     0.031 A 
ATOM     43  C   UNL A   1      40.597  26.419  28.562  1.00  0.00     0.074 A 
ATOM     44  C   UNL A   1      41.394  28.657  29.161  1.00  0.00     0.049 A 
ATOM     45  N   UNL A   1      41.692  25.780  28.804  1.00  0.00    -0.248 NA
ATOM     46  C   UNL A   1      39.592  25.607  27.889  1.00  0.00     0.031 C 
ATOM     47  C   UNL A   1      42.807  28.405  28.890  1.00  0.00     0.029 A 
ATOM     48  N   UNL A   1      41.390  29.853  29.898  1.00  0.00    -0.354 N 
ATOM     49  C   UNL A   1      41.638  24.576  28.141  1.00  0.00     0.074 A 
ATOM     50  C   UNL A   1      40.295  24.503  27.609  1.00  0.00     0.031 C 
ATOM     51  C   UNL A   1      43.543  29.191  29.690  1.00  0.00     0.029 A 
ATOM     52  C   UNL A   1      42.624  29.863  30.593  1.00  0.00     0.049 A 
ATOM     53  H   UNL A   1      40.683  30.537  29.926  1.00  0.00     0.167 HD
ATOM     54  C   UNL A   1      42.767  23.817  28.035  1.00  0.00     0.037 A 
ATOM     55  C   UNL A   1      42.659  29.789  31.956  1.00  0.00     0.037 A 
ATOM     56  C   UNL A   1      43.880  24.397  28.782  1.00  0.00     0.049 A 
ATOM     57  C   UNL A   1      43.394  28.587  32.508  1.00  0.00     0.074 A 
ATOM     58  C   UNL A   1      44.953  25.206  28.448  1.00  0.00     0.029 A 
ATOM     59  N   UNL A   1      43.814  24.398  30.163  1.00  0.00    -0.354 N 
ATOM     60  N   UNL A   1      43.840  27.599  31.784  1.00  0.00    -0.248 NA
ATOM     61  C   UNL A   1      43.585  28.357  33.942  1.00  0.00     0.031 C 
ATOM     62  C   UNL A   1      45.511  25.722  29.652  1.00  0.00     0.029 A 
ATOM     63  C   UNL A   1      44.778  25.221  30.711  1.00  0.00     0.049 A 
ATOM     64  H   UNL A   1      43.162  23.880  30.689  1.00  0.00     0.167 HD
ATOM     65  C   UNL A   1      44.317  26.617  32.608  1.00  0.00     0.074 A 
ATOM     66  C   UNL A   1      44.137  27.133  33.950  1.00  0.00     0.031 C 
ATOM     67  C   UNL A   1      44.792  25.429  32.145  1.00  0.00     0.037 A 
BRANCH  54  68
ATOM     68  C   UNL A   1      42.923  22.655  27.086  1.00  0.00     0.064 A 
ATOM     69  C   UNL A   1      42.180  21.468  27.272  1.00  0.00     0.173 A 
ATOM     70  C   UNL A   1      43.813  22.630  25.998  1.00  0.00     0.173 A 
ATOM     71  F   UNL A   1      41.225  21.380  28.207  1.00  0.00    -0.203 F 
ATOM     72  C   UNL A   1      42.399  20.319  26.509  1.00  0.00     0.198 A 
ATOM     73  C   UNL A   1      44.077  21.462  25.274  1.00  0.00     0.198 A 
ATOM     74  F   UNL A   1      44.414  23.747  25.568  1.00  0.00    -0.203 F 
ATOM     75  F   UNL A   1      41.664  19.220  26.735  1.00  0.00    -0.200 F 
ATOM     76  C   UNL A   1      43.377  20.303  25.537  1.00  0.00     0.200 A 
ATOM     77  F   UNL A   1      45.017  21.471  24.318  1.00  0.00    -0.200 F 
ATOM     78  F   UNL A   1      43.626  19.185  24.842  1.00  0.00    -0.200 F 
ENDBRANCH  54  68
BRANCH  55  79
ATOM     79  C   UNL A   1      41.477  30.424  32.600  1.00  0.00     0.064 A 
ATOM     80  C   UNL A   1      41.388  31.830  32.609  1.00  0.00     0.173 A 
ATOM     81  C   UNL A   1      40.311  29.700  32.868  1.00  0.00     0.173 A 
ATOM     82  F   UNL A   1      42.478  32.574  32.358  1.00  0.00    -0.203 F 
ATOM     83  C   UNL A   1      40.164  32.476  32.751  1.00  0.00     0.198 A 
ATOM     84  C   UNL A   1      39.089  30.352  33.037  1.00  0.00     0.198 A 
ATOM     85  F   UNL A   1      40.323  28.359  32.856  1.00  0.00    -0.203 F 
ATOM     86  F   UNL A   1      40.093  33.809  32.629  1.00  0.00    -0.200 F 
ATOM     87  C   UNL A   1      39.010  31.734  32.940  1.00  0.00     0.200 A 
ATOM     88  F   UNL A   1      37.970  29.632  33.195  1.00  0.00    -0.200 F 
ATOM     89  F   UNL A   1      37.818  32.345  32.987  1.00  0.00    -0.200 F 
ENDBRANCH  55  79
BRANCH  67  90
ATOM     90  C   UNL A   1      45.321  24.367  33.049  1.00  0.00     0.064 A 
ATOM     91  C   UNL A   1      44.533  23.278  33.447  1.00  0.00     0.173 A 
ATOM     92  C   UNL A   1      46.595  24.479  33.635  1.00  0.00     0.173 A 
ATOM     93  F   UNL A   1      43.295  23.117  32.956  1.00  0.00    -0.203 F 
ATOM     94  C   UNL A   1      45.002  22.340  34.366  1.00  0.00     0.198 A 
ATOM     95  C   UNL A   1      47.045  23.566  34.585  1.00  0.00     0.198 A 
ATOM     96  F   UNL A   1      47.435  25.465  33.284  1.00  0.00    -0.203 F 
ATOM     97  F   UNL A   1      44.237  21.290  34.695  1.00  0.00    -0.200 F 
ATOM     98  C   UNL A   1      46.252  22.493  34.945  1.00  0.00     0.200 A 
ATOM     99  F   UNL A   1      48.251  23.730  35.147  1.00  0.00    -0.200 F 
ATOM    100  F   UNL A   1      46.691  21.603  35.845  1.00  0.00    -0.200 F 
ENDBRANCH  67  90
ENDBRANCH  41  42
ENDBRANCH  33  36
ENDBRANCH  31  32
ENDBRANCH  30  31
ENDBRANCH  29  30
ENDBRANCH   1  29
TORSDOF 16
ENDMDL
MODEL 2
REMARK VINA RESULT:     -13.7      3.719      9.958
REMARK SMILES Cc1cc(NC(=O)c2ccc(Br)cc2N)ccc1C(=O)NCCCCCCNC(=O)c1ccc(-c2c3nc(c(-c4c(F)c(F)c(F)c(F)c4F)c4ccc([nH]4)c(-c4c(F)c(F)c(F)c(F)c4F)c4nc(c(-c5c(F)c(F)c(F)c(F)c5F)c5ccc2[nH]5)C=C4)C=C3)cc1
REMARK SMILES IDX 24 1 23 2 22 3 21 4 19 5 20 6 18 8 1 9 2 10 3 11 4 12 17 13
REMARK SMILES IDX 16 14 5 15 6 16 7 18 8 19 9 20 14 21 10 22 13 23 11 24 12 25
REMARK SMILES IDX 15 26 25 29 26 30 27 31 28 32 29 33 30 35 31 36 32 37 93 38
REMARK SMILES IDX 33 39 92 40 34 41 35 42 36 43 86 44 37 45 91 46 85 47 87 48
REMARK SMILES IDX 38 49 90 50 84 51 83 52 39 54 71 55 51 56 70 57 52 58 55 59
REMARK SMILES IDX 69 60 88 61 53 62 54 63 68 65 89 66 56 67 40 68 41 69 49 70
REMARK SMILES IDX 42 71 43 72 47 73 50 74 44 75 45 76 48 77 46 78 72 79 73 80
REMARK SMILES IDX 81 81 74 82 75 83 79 84 82 85 76 86 77 87 80 88 78 89 57 90
REMARK SMILES IDX 58 91 66 92 59 93 60 94 64 95 67 96 61 97 62 98 65 99 63 100
REMARK H PARENT 21 7 5 17 15 27 15 28 28 34 87 53 55 64
REMARK Flexibility Score: inf
ROOT
ATOM      1  C   UNL A   1      35.722  22.716  26.375  1.00  0.00     0.002 C 
ENDROOT
BRANCH   1   2
ATOM      2  C   UNL A   1      34.346  23.268  26.767  1.00  0.00     0.021 C 
BRANCH   2   3
ATOM      3  C   UNL A   1      33.246  22.220  26.997  1.00  0.00     0.116 C 
BRANCH   3   4
ATOM      4  N   UNL A   1      33.225  21.276  25.898  1.00  0.00    -0.352 N 
ATOM      5  C   UNL A   1      32.907  21.364  24.569  1.00  0.00     0.251 C 
ATOM      6  O   UNL A   1      32.974  20.314  23.923  1.00  0.00    -0.269 OA
ATOM      7  H   UNL A   1      33.500  20.370  26.168  1.00  0.00     0.163 HD
BRANCH   5   8
ATOM      8  C   UNL A   1      32.596  22.624  23.824  1.00  0.00     0.042 A 
ATOM      9  C   UNL A   1      34.936  23.212  22.910  1.00  0.00     0.045 C 
ATOM     10  C   UNL A   1      33.461  23.423  23.056  1.00  0.00    -0.036 A 
ATOM     11  C   UNL A   1      32.941  24.564  22.402  1.00  0.00     0.030 A 
ATOM     12  C   UNL A   1      31.624  24.985  22.589  1.00  0.00     0.041 A 
ATOM     13  C   UNL A   1      31.286  23.105  24.052  1.00  0.00     0.016 A 
ATOM     14  C   UNL A   1      30.817  24.291  23.479  1.00  0.00     0.027 A 
BRANCH  12  15
ATOM     15  N   UNL A   1      31.080  26.096  21.925  1.00  0.00    -0.322 N 
ATOM     16  C   UNL A   1      30.917  27.391  22.375  1.00  0.00     0.257 C 
ATOM     17  H   UNL A   1      30.770  25.927  21.006  1.00  0.00     0.170 HD
ATOM     18  O   UNL A   1      30.137  28.148  21.799  1.00  0.00    -0.269 OA
BRANCH  16  19
ATOM     19  C   UNL A   1      31.737  27.919  23.502  1.00  0.00     0.063 A 
ATOM     20  C   UNL A   1      31.091  28.034  24.745  1.00  0.00     0.017 A 
ATOM     21  C   UNL A   1      33.082  28.326  23.354  1.00  0.00     0.045 A 
ATOM     22  C   UNL A   1      31.782  28.519  25.856  1.00  0.00     0.016 A 
ATOM     23  C   UNL A   1      33.754  28.818  24.483  1.00  0.00     0.042 A 
ATOM     24  C   UNL A   1      33.114  28.899  25.720  1.00  0.00     0.020 A 
ATOM     25  Br  UNL A   1      34.059  29.563  27.217  1.00  0.00    -0.051 Br
BRANCH  21  26
ATOM     26  N   UNL A   1      33.729  28.413  22.124  1.00  0.00    -0.398 N 
ATOM     27  H   UNL A   1      33.765  29.273  21.646  1.00  0.00     0.156 HD
ATOM     28  H   UNL A   1      34.152  27.615  21.731  1.00  0.00     0.156 HD
ENDBRANCH  21  26
ENDBRANCH  16  19
ENDBRANCH  12  15
ENDBRANCH   5   8
ENDBRANCH   3   4
ENDBRANCH   2   3
ENDBRANCH   1   2
BRANCH   1  29
ATOM     29  C   UNL A   1      36.789  23.747  25.975  1.00  0.00     0.002 C 
BRANCH  29  30
ATOM     30  C   UNL A   1      38.124  23.182  25.488  1.00  0.00     0.021 C 
BRANCH  30  31
ATOM     31  C   UNL A   1      39.056  22.719  26.604  1.00  0.00     0.116 C 
BRANCH  31  32
ATOM     32  N   UNL A   1      40.468  22.966  26.337  1.00  0.00    -0.352 N 
ATOM     33  C   UNL A   1      41.174  24.151  26.366  1.00  0.00     0.251 C 
ATOM     34  H   UNL A   1      40.995  22.168  26.101  1.00  0.00     0.163 HD
ATOM     35  O   UNL A   1      42.365  24.168  26.060  1.00  0.00    -0.269 OA
BRANCH  33  36
ATOM     36  C   UNL A   1      40.530  25.380  26.882  1.00  0.00     0.039 A 
ATOM     37  C   UNL A   1      40.772  26.587  26.213  1.00  0.00     0.014 A 
ATOM     38  C   UNL A   1      39.832  25.378  28.087  1.00  0.00     0.014 A 
ATOM     39  C   UNL A   1      40.521  27.795  26.863  1.00  0.00     0.010 A 
ATOM     40  C   UNL A   1      39.663  26.569  28.769  1.00  0.00     0.010 A 
ATOM     41  C   UNL A   1      40.069  27.772  28.182  1.00  0.00    -0.014 A 
BRANCH  41  42
ATOM     42  C   UNL A   1      40.095  28.937  29.060  1.00  0.00     0.031 A 
ATOM     43  C   UNL A   1      39.025  29.954  29.005  1.00  0.00     0.074 A 
ATOM     44  C   UNL A   1      41.071  29.034  29.990  1.00  0.00     0.049 A 
ATOM     45  N   UNL A   1      39.138  31.153  29.471  1.00  0.00    -0.248 NA
ATOM     46  C   UNL A   1      37.735  29.699  28.379  1.00  0.00     0.031 C 
ATOM     47  C   UNL A   1      41.141  29.961  31.117  1.00  0.00     0.029 A 
ATOM     48  N   UNL A   1      42.342  28.435  29.953  1.00  0.00    -0.354 N 
ATOM     49  C   UNL A   1      37.900  31.749  29.418  1.00  0.00     0.074 A 
ATOM     50  C   UNL A   1      37.065  30.811  28.701  1.00  0.00     0.031 C 
ATOM     51  C   UNL A   1      42.428  30.120  31.461  1.00  0.00     0.029 A 
ATOM     52  C   UNL A   1      43.225  29.412  30.475  1.00  0.00     0.049 A 
ATOM     53  H   UNL A   1      42.570  27.532  29.636  1.00  0.00     0.167 HD
ATOM     54  C   UNL A   1      37.696  32.930  30.071  1.00  0.00     0.037 A 
ATOM     55  C   UNL A   1      44.189  29.973  29.686  1.00  0.00     0.037 A 
ATOM     56  C   UNL A   1      38.931  33.443  30.658  1.00  0.00     0.049 A 
ATOM     57  C   UNL A   1      44.077  31.473  29.518  1.00  0.00     0.074 A 
ATOM     58  C   UNL A   1      39.502  33.381  31.919  1.00  0.00     0.029 A 
ATOM     59  N   UNL A   1      39.923  33.897  29.810  1.00  0.00    -0.354 N 
ATOM     60  N   UNL A   1      43.076  32.190  29.945  1.00  0.00    -0.248 NA
ATOM     61  C   UNL A   1      45.044  32.264  28.753  1.00  0.00     0.031 C 
ATOM     62  C   UNL A   1      40.865  33.773  31.807  1.00  0.00     0.029 A 
ATOM     63  C   UNL A   1      41.116  34.075  30.482  1.00  0.00     0.049 A 
ATOM     64  H   UNL A   1      39.796  34.069  28.848  1.00  0.00     0.167 HD
ATOM     65  C   UNL A   1      43.222  33.475  29.499  1.00  0.00     0.074 A 
ATOM     66  C   UNL A   1      44.466  33.477  28.757  1.00  0.00     0.031 C 
ATOM     67  C   UNL A   1      42.298  34.447  29.730  1.00  0.00     0.037 A 
BRANCH  54  68
ATOM     68  C   UNL A   1      36.336  33.519  30.354  1.00  0.00     0.064 A 
ATOM     69  C   UNL A   1      35.537  34.023  29.305  1.00  0.00     0.173 A 
ATOM     70  C   UNL A   1      35.779  33.652  31.638  1.00  0.00     0.173 A 
ATOM     71  F   UNL A   1      35.894  33.878  28.022  1.00  0.00    -0.203 F 
ATOM     72  C   UNL A   1      34.341  34.707  29.535  1.00  0.00     0.198 A 
ATOM     73  C   UNL A   1      34.614  34.391  31.874  1.00  0.00     0.198 A 
ATOM     74  F   UNL A   1      36.314  33.028  32.695  1.00  0.00    -0.203 F 
ATOM     75  F   UNL A   1      33.627  35.167  28.497  1.00  0.00    -0.200 F 
ATOM     76  C   UNL A   1      33.901  34.928  30.823  1.00  0.00     0.200 A 
ATOM     77  F   UNL A   1      34.189  34.577  33.133  1.00  0.00    -0.200 F 
ATOM     78  F   UNL A   1      32.784  35.632  31.048  1.00  0.00    -0.200 F 
ENDBRANCH  54  68
BRANCH  55  79
ATOM     79  C   UNL A   1      44.696  29.043  28.641  1.00  0.00     0.064 A 
ATOM     80  C   UNL A   1      45.553  27.994  29.030  1.00  0.00     0.173 A 
ATOM     81  C   UNL A   1      44.088  28.949  27.385  1.00  0.00     0.173 A 
ATOM     82  F   UNL A   1      46.163  28.033  30.226  1.00  0.00    -0.203 F 
ATOM     83  C   UNL A   1      45.692  26.848  28.253  1.00  0.00     0.198 A 
ATOM     84  C   UNL A   1      44.251  27.810  26.597  1.00  0.00     0.198 A 
ATOM     85  F   UNL A   1      43.246  29.904  26.963  1.00  0.00    -0.203 F 
ATOM     86  F   UNL A   1      46.415  25.815  28.709  1.00  0.00    -0.200 F 
ATOM     87  C   UNL A   1      45.020  26.746  27.047  1.00  0.00     0.200 A 
ATOM     88  F   UNL A   1      43.580  27.702  25.441  1.00  0.00    -0.200 F 
ATOM     89  F   UNL A   1      45.078  25.610  26.339  1.00  0.00    -0.200 F 
ENDBRANCH  55  79
BRANCH  67  90
ATOM     90  C   UNL A   1      42.468  35.849  29.251  1.00  0.00     0.064 A 
ATOM     91  C   UNL A   1      41.880  36.297  28.059  1.00  0.00     0.173 A 
ATOM     92  C   UNL A   1      43.326  36.746  29.914  1.00  0.00     0.173 A 
ATOM     93  F   UNL A   1      41.074  35.491  27.352  1.00  0.00    -0.203 F 
ATOM     94  C   UNL A   1      42.121  37.580  27.570  1.00  0.00     0.198 A 
ATOM     95  C   UNL A   1      43.599  38.010  29.401  1.00  0.00     0.198 A 
ATOM     96  F   UNL A   1      43.900  36.418  31.082  1.00  0.00    -0.203 F 
ATOM     97  F   UNL A   1      41.512  37.990  26.448  1.00  0.00    -0.200 F 
ATOM     98  C   UNL A   1      42.991  38.431  28.233  1.00  0.00     0.200 A 
ATOM     99  F   UNL A   1      44.451  38.820  30.045  1.00  0.00    -0.200 F 
ATOM    100  F   UNL A   1      43.239  39.655  27.748  1.00  0.00    -0.200 F 
ENDBRANCH  67  90
ENDBRANCH  41  42
ENDBRANCH  33  36
ENDBRANCH  31  32
ENDBRANCH  30  31
ENDBRANCH  29  30
ENDBRANCH   1  29
TORSDOF 16
ENDMDL
MODEL 3
REMARK VINA RESULT:     -13.6      1.575      2.058
REMARK SMILES Cc1cc(NC(=O)c2ccc(Br)cc2N)ccc1C(=O)NCCCCCCNC(=O)c1ccc(-c2c3nc(c(-c4c(F)c(F)c(F)c(F)c4F)c4ccc([nH]4)c(-c4c(F)c(F)c(F)c(F)c4F)c4nc(c(-c5c(F)c(F)c(F)c(F)c5F)c5ccc2[nH]5)C=C4)C=C3)cc1
REMARK SMILES IDX 24 1 23 2 22 3 21 4 19 5 20 6 18 8 1 9 2 10 3 11 4 12 17 13
REMARK SMILES IDX 16 14 5 15 6 16 7 18 8 19 9 20 14 21 10 22 13 23 11 24 12 25
REMARK SMILES IDX 15 26 25 29 26 30 27 31 28 32 29 33 30 35 31 36 32 37 93 38
REMARK SMILES IDX 33 39 92 40 34 41 35 42 36 43 86 44 37 45 91 46 85 47 87 48
REMARK SMILES IDX 38 49 90 50 84 51 83 52 39 54 71 55 51 56 70 57 52 58 55 59
REMARK SMILES IDX 69 60 88 61 53 62 54 63 68 65 89 66 56 67 40 68 41 69 49 70
REMARK SMILES IDX 42 71 43 72 47 73 50 74 44 75 45 76 48 77 46 78 72 79 73 80
REMARK SMILES IDX 81 81 74 82 75 83 79 84 82 85 76 86 77 87 80 88 78 89 57 90
REMARK SMILES IDX 58 91 66 92 59 93 60 94 64 95 67 96 61 97 62 98 65 99 63 100
REMARK H PARENT 21 7 5 17 15 27 15 28 28 34 87 53 55 64
REMARK Flexibility Score: inf
ROOT
ATOM      1  C   UNL A   1      31.995  29.670  25.015  1.00  0.00     0.002 C 
ENDROOT
BRANCH   1   2
ATOM      2  C   UNL A   1      30.651  29.546  24.287  1.00  0.00     0.021 C 
BRANCH   2   3
ATOM      3  C   UNL A   1      30.674  28.758  22.968  1.00  0.00     0.116 C 
BRANCH   3   4
ATOM      4  N   UNL A   1      29.988  27.493  23.135  1.00  0.00    -0.352 N 
ATOM      5  C   UNL A   1      30.367  26.251  23.570  1.00  0.00     0.251 C 
ATOM      6  O   UNL A   1      29.496  25.377  23.546  1.00  0.00    -0.269 OA
ATOM      7  H   UNL A   1      29.038  27.537  22.880  1.00  0.00     0.163 HD
BRANCH   5   8
ATOM      8  C   UNL A   1      31.694  25.898  24.165  1.00  0.00     0.042 A 
ATOM      9  C   UNL A   1      31.232  26.385  26.656  1.00  0.00     0.045 C 
ATOM     10  C   UNL A   1      32.079  25.908  25.517  1.00  0.00    -0.036 A 
ATOM     11  C   UNL A   1      33.388  25.498  25.861  1.00  0.00     0.030 A 
ATOM     12  C   UNL A   1      34.344  25.194  24.891  1.00  0.00     0.041 A 
ATOM     13  C   UNL A   1      32.696  25.650  23.199  1.00  0.00     0.016 A 
ATOM     14  C   UNL A   1      34.014  25.344  23.552  1.00  0.00     0.027 A 
BRANCH  12  15
ATOM     15  N   UNL A   1      35.638  24.754  25.212  1.00  0.00    -0.322 N 
ATOM     16  C   UNL A   1      36.041  23.562  25.782  1.00  0.00     0.257 C 
ATOM     17  H   UNL A   1      36.362  25.386  25.001  1.00  0.00     0.170 HD
ATOM     18  O   UNL A   1      37.157  23.472  26.291  1.00  0.00    -0.269 OA
BRANCH  16  19
ATOM     19  C   UNL A   1      35.176  22.351  25.716  1.00  0.00     0.063 A 
ATOM     20  C   UNL A   1      35.069  21.727  24.462  1.00  0.00     0.017 A 
ATOM     21  C   UNL A   1      34.458  21.853  26.827  1.00  0.00     0.045 A 
ATOM     22  C   UNL A   1      34.280  20.586  24.307  1.00  0.00     0.016 A 
ATOM     23  C   UNL A   1      33.664  20.710  26.645  1.00  0.00     0.042 A 
ATOM     24  C   UNL A   1      33.589  20.079  25.403  1.00  0.00     0.020 A 
ATOM     25  Br  UNL A   1      32.512  18.538  25.204  1.00  0.00    -0.051 Br
BRANCH  21  26
ATOM     26  N   UNL A   1      34.368  22.519  28.047  1.00  0.00    -0.398 N 
ATOM     27  H   UNL A   1      34.817  23.385  28.169  1.00  0.00     0.156 HD
ATOM     28  H   UNL A   1      33.856  22.121  28.789  1.00  0.00     0.156 HD
ENDBRANCH  21  26
ENDBRANCH  16  19
ENDBRANCH  12  15
ENDBRANCH   5   8
ENDBRANCH   3   4
ENDBRANCH   2   3
ENDBRANCH   1   2
BRANCH   1  29
ATOM     29  C   UNL A   1      31.939  29.821  26.543  1.00  0.00     0.002 C 
BRANCH  29  30
ATOM     30  C   UNL A   1      32.811  30.925  27.144  1.00  0.00     0.021 C 
BRANCH  30  31
ATOM     31  C   UNL A   1      34.170  30.450  27.648  1.00  0.00     0.116 C 
BRANCH  31  32
ATOM     32  N   UNL A   1      34.771  31.329  28.645  1.00  0.00    -0.352 N 
ATOM     33  C   UNL A   1      35.922  31.159  29.387  1.00  0.00     0.251 C 
ATOM     34  H   UNL A   1      34.282  32.167  28.813  1.00  0.00     0.163 HD
ATOM     35  O   UNL A   1      36.246  31.999  30.224  1.00  0.00    -0.269 OA
BRANCH  33  36
ATOM     36  C   UNL A   1      36.829  30.027  29.090  1.00  0.00     0.039 A 
ATOM     37  C   UNL A   1      37.113  29.118  30.117  1.00  0.00     0.014 A 
ATOM     38  C   UNL A   1      37.514  29.949  27.880  1.00  0.00     0.014 A 
ATOM     39  C   UNL A   1      38.231  28.290  30.013  1.00  0.00     0.010 A 
ATOM     40  C   UNL A   1      38.670  29.194  27.808  1.00  0.00     0.010 A 
ATOM     41  C   UNL A   1      39.064  28.416  28.901  1.00  0.00    -0.014 A 
BRANCH  41  42
ATOM     42  C   UNL A   1      40.412  27.862  28.841  1.00  0.00     0.031 A 
ATOM     43  C   UNL A   1      40.638  26.447  28.482  1.00  0.00     0.074 A 
ATOM     44  C   UNL A   1      41.466  28.685  29.038  1.00  0.00     0.049 A 
ATOM     45  N   UNL A   1      41.723  25.797  28.739  1.00  0.00    -0.248 NA
ATOM     46  C   UNL A   1      39.623  25.636  27.823  1.00  0.00     0.031 C 
ATOM     47  C   UNL A   1      42.876  28.407  28.776  1.00  0.00     0.029 A 
ATOM     48  N   UNL A   1      41.478  29.895  29.752  1.00  0.00    -0.354 N 
ATOM     49  C   UNL A   1      41.653  24.581  28.100  1.00  0.00     0.074 A 
ATOM     50  C   UNL A   1      40.310  24.518  27.566  1.00  0.00     0.031 C 
ATOM     51  C   UNL A   1      43.622  29.198  29.562  1.00  0.00     0.029 A 
ATOM     52  C   UNL A   1      42.711  29.901  30.449  1.00  0.00     0.049 A 
ATOM     53  H   UNL A   1      40.781  30.590  29.765  1.00  0.00     0.167 HD
ATOM     54  C   UNL A   1      42.771  23.804  28.012  1.00  0.00     0.037 A 
ATOM     55  C   UNL A   1      42.742  29.853  31.813  1.00  0.00     0.037 A 
ATOM     56  C   UNL A   1      43.891  24.383  28.750  1.00  0.00     0.049 A 
ATOM     57  C   UNL A   1      43.458  28.652  32.391  1.00  0.00     0.074 A 
ATOM     58  C   UNL A   1      44.976  25.170  28.402  1.00  0.00     0.029 A 
ATOM     59  N   UNL A   1      43.822  24.412  30.130  1.00  0.00    -0.354 N 
ATOM     60  N   UNL A   1      43.892  27.644  31.687  1.00  0.00    -0.248 NA
ATOM     61  C   UNL A   1      43.642  28.448  33.829  1.00  0.00     0.031 C 
ATOM     62  C   UNL A   1      45.539  25.701  29.597  1.00  0.00     0.029 A 
ATOM     63  C   UNL A   1      44.797  25.232  30.664  1.00  0.00     0.049 A 
ATOM     64  H   UNL A   1      43.162  23.914  30.665  1.00  0.00     0.167 HD
ATOM     65  C   UNL A   1      44.352  26.672  32.532  1.00  0.00     0.074 A 
ATOM     66  C   UNL A   1      44.177  27.216  33.863  1.00  0.00     0.031 C 
ATOM     67  C   UNL A   1      44.811  25.468  32.094  1.00  0.00     0.037 A 
BRANCH  54  68
ATOM     68  C   UNL A   1      42.912  22.622  27.086  1.00  0.00     0.064 A 
ATOM     69  C   UNL A   1      42.156  21.448  27.297  1.00  0.00     0.173 A 
ATOM     70  C   UNL A   1      43.801  22.564  25.998  1.00  0.00     0.173 A 
ATOM     71  F   UNL A   1      41.201  21.390  28.234  1.00  0.00    -0.203 F 
ATOM     72  C   UNL A   1      42.360  20.281  26.556  1.00  0.00     0.198 A 
ATOM     73  C   UNL A   1      44.050  21.379  25.297  1.00  0.00     0.198 A 
ATOM     74  F   UNL A   1      44.415  23.665  25.544  1.00  0.00    -0.203 F 
ATOM     75  F   UNL A   1      41.613  19.196  26.806  1.00  0.00    -0.200 F 
ATOM     76  C   UNL A   1      43.337  20.234  25.585  1.00  0.00     0.200 A 
ATOM     77  F   UNL A   1      44.989  21.358  24.340  1.00  0.00    -0.200 F 
ATOM     78  F   UNL A   1      43.572  19.099  24.911  1.00  0.00    -0.200 F 
ENDBRANCH  54  68
BRANCH  55  79
ATOM     79  C   UNL A   1      41.568  30.518  32.442  1.00  0.00     0.064 A 
ATOM     80  C   UNL A   1      41.510  31.926  32.442  1.00  0.00     0.173 A 
ATOM     81  C   UNL A   1      40.383  29.821  32.703  1.00  0.00     0.173 A 
ATOM     82  F   UNL A   1      42.618  32.644  32.197  1.00  0.00    -0.203 F 
ATOM     83  C   UNL A   1      40.298  32.600  32.568  1.00  0.00     0.198 A 
ATOM     84  C   UNL A   1      39.175  30.501  32.856  1.00  0.00     0.198 A 
ATOM     85  F   UNL A   1      40.367  28.481  32.699  1.00  0.00    -0.203 F 
ATOM     86  F   UNL A   1      40.258  33.933  32.438  1.00  0.00    -0.200 F 
ATOM     87  C   UNL A   1      39.127  31.884  32.750  1.00  0.00     0.200 A 
ATOM     88  F   UNL A   1      38.039  29.807  33.007  1.00  0.00    -0.200 F 
ATOM     89  F   UNL A   1      37.948  32.521  32.782  1.00  0.00    -0.200 F 
ENDBRANCH  55  79
BRANCH  67  90
ATOM     90  C   UNL A   1      45.323  24.417  33.019  1.00  0.00     0.064 A 
ATOM     91  C   UNL A   1      44.527  23.331  33.414  1.00  0.00     0.173 A 
ATOM     92  C   UNL A   1      46.585  24.536  33.630  1.00  0.00     0.173 A 
ATOM     93  F   UNL A   1      43.299  23.164  32.900  1.00  0.00    -0.203 F 
ATOM     94  C   UNL A   1      44.979  22.404  34.353  1.00  0.00     0.198 A 
ATOM     95  C   UNL A   1      47.016  23.634  34.598  1.00  0.00     0.198 A 
ATOM     96  F   UNL A   1      47.431  25.519  33.284  1.00  0.00    -0.203 F 
ATOM     97  F   UNL A   1      44.208  21.357  34.678  1.00  0.00    -0.200 F 
ATOM     98  C   UNL A   1      46.217  22.564  34.954  1.00  0.00     0.200 A 
ATOM     99  F   UNL A   1      48.211  23.806  35.182  1.00  0.00    -0.200 F 
ATOM    100  F   UNL A   1      46.639  21.685  35.873  1.00  0.00    -0.200 F 
ENDBRANCH  67  90
ENDBRANCH  41  42
ENDBRANCH  33  36
ENDBRANCH  31  32
ENDBRANCH  30  31
ENDBRANCH  29  30
ENDBRANCH   1  29
TORSDOF 16
ENDMDL
