MODEL 1
REMARK VINA RESULT:     -13.2      0.000      0.000
REMARK SMILES CC(=O)Nc1cc(NC(C)=O)cc(C(=O)Nc2ccc(Br)cc2C(=O)NCCCCCCNC(=O)c2ccc(-c3c4nc(c(-c5c(F)c(F)c(F)c(F)c5F)c5ccc([nH]5)c(-c5c(F)c(F)c(F)c(F)c5F)c5nc(c(-c6c(F)c(F)c(F)c(F)c6F)c6ccc3[nH]6)C=C5)C=C4)cc2)c1
REMARK SMILES IDX 29 1 28 2 27 3 26 4 24 5 25 6 23 8 17 9 18 10 19 11 22 12
REMARK SMILES IDX 20 13 21 14 16 15 14 16 15 17 13 19 5 20 6 21 99 22 7 23
REMARK SMILES IDX 12 24 4 25 1 26 2 27 3 28 8 30 9 31 10 33 11 34 30 35 31 36
REMARK SMILES IDX 32 37 33 38 34 39 35 41 36 42 37 43 98 44 38 45 97 46 39 47
REMARK SMILES IDX 40 48 41 49 91 50 42 51 96 52 90 53 92 54 43 55 95 56 89 57
REMARK SMILES IDX 88 58 44 60 76 61 56 62 75 63 57 64 60 65 74 66 93 67 58 68
REMARK SMILES IDX 59 69 73 71 94 72 61 73 45 74 46 75 54 76 47 77 48 78 52 79
REMARK SMILES IDX 55 80 49 81 50 82 53 83 51 84 77 85 78 86 86 87 79 88 80 89
REMARK SMILES IDX 84 90 87 91 81 92 82 93 85 94 83 95 62 96 63 97 71 98 64 99
REMARK SMILES IDX 65 100 69 101 72 102 66 103 67 104 70 105 68 106
REMARK H PARENT 26 7 16 18 4 29 8 32 33 40 92 59 60 70
REMARK Flexibility Score: inf
ROOT
ATOM      1  C   UNL A   1      33.769  27.553  26.407  1.00  0.00     0.002 C 
ENDROOT
BRANCH   1   2
ATOM      2  C   UNL A   1      33.931  26.533  25.273  1.00  0.00     0.021 C 
BRANCH   2   3
ATOM      3  C   UNL A   1      34.119  25.078  25.688  1.00  0.00     0.116 C 
BRANCH   3   4
ATOM      4  N   UNL A   1      35.345  24.483  25.208  1.00  0.00    -0.352 N 
ATOM      5  C   UNL A   1      35.534  23.392  24.401  1.00  0.00     0.253 C 
ATOM      6  O   UNL A   1      36.690  23.046  24.161  1.00  0.00    -0.269 OA
ATOM      7  H   UNL A   1      36.170  24.930  25.506  1.00  0.00     0.163 HD
BRANCH   5   8
ATOM      8  C   UNL A   1      34.408  22.563  23.882  1.00  0.00     0.064 A 
ATOM      9  C   UNL A   1      33.516  22.880  22.836  1.00  0.00     0.054 A 
ATOM     10  C   UNL A   1      32.394  22.052  22.632  1.00  0.00     0.028 A 
ATOM     11  C   UNL A   1      32.249  20.848  23.324  1.00  0.00     0.018 A 
ATOM     12  C   UNL A   1      34.263  21.327  24.550  1.00  0.00     0.031 A 
ATOM     13  C   UNL A   1      33.208  20.471  24.251  1.00  0.00     0.018 A 
ATOM     14  Br  UNL A   1      33.086  18.788  25.098  1.00  0.00    -0.051 Br
BRANCH   9  15
ATOM     15  N   UNL A   1      33.646  23.901  21.864  1.00  0.00    -0.321 N 
ATOM     16  C   UNL A   1      32.869  25.007  21.576  1.00  0.00     0.255 C 
ATOM     17  O   UNL A   1      33.077  25.633  20.537  1.00  0.00    -0.269 OA
ATOM     18  H   UNL A   1      34.437  23.805  21.287  1.00  0.00     0.170 HD
BRANCH  16  19
ATOM     19  C   UNL A   1      31.834  25.497  22.512  1.00  0.00     0.044 A 
ATOM     20  C   UNL A   1      30.624  27.337  23.493  1.00  0.00     0.044 A 
ATOM     21  C   UNL A   1      30.139  26.456  24.475  1.00  0.00     0.052 A 
ATOM     22  C   UNL A   1      31.416  26.828  22.476  1.00  0.00     0.040 A 
ATOM     23  C   UNL A   1      30.427  25.085  24.434  1.00  0.00     0.044 A 
ATOM     24  C   UNL A   1      31.293  24.612  23.448  1.00  0.00     0.040 A 
BRANCH  20  25
ATOM     25  N   UNL A   1      30.375  28.710  23.679  1.00  0.00    -0.326 N 
ATOM     26  C   UNL A   1      28.018  28.981  22.889  1.00  0.00     0.114 C 
ATOM     27  C   UNL A   1      29.350  29.532  23.315  1.00  0.00     0.221 C 
ATOM     28  O   UNL A   1      29.517  30.753  23.379  1.00  0.00    -0.275 OA
ATOM     29  H   UNL A   1      31.089  29.172  24.174  1.00  0.00     0.169 HD
ENDBRANCH  20  25
BRANCH  23  30
ATOM     30  N   UNL A   1      29.913  24.140  25.349  1.00  0.00    -0.326 N 
ATOM     31  C   UNL A   1      30.385  23.864  26.619  1.00  0.00     0.221 C 
ATOM     32  H   UNL A   1      29.132  23.622  25.049  1.00  0.00     0.169 HD
ATOM     33  C   UNL A   1      29.579  22.807  27.334  1.00  0.00     0.114 C 
ATOM     34  O   UNL A   1      31.336  24.399  27.180  1.00  0.00    -0.275 OA
ENDBRANCH  23  30
ENDBRANCH  16  19
ENDBRANCH   9  15
ENDBRANCH   5   8
ENDBRANCH   3   4
ENDBRANCH   2   3
ENDBRANCH   1   2
BRANCH   1  35
ATOM     35  C   UNL A   1      32.358  27.796  26.952  1.00  0.00     0.002 C 
BRANCH  35  36
ATOM     36  C   UNL A   1      31.798  29.214  26.852  1.00  0.00     0.021 C 
BRANCH  36  37
ATOM     37  C   UNL A   1      32.687  30.242  26.167  1.00  0.00     0.116 C 
BRANCH  37  38
ATOM     38  N   UNL A   1      32.384  31.612  26.539  1.00  0.00    -0.352 N 
ATOM     39  C   UNL A   1      33.068  32.454  27.382  1.00  0.00     0.251 C 
ATOM     40  H   UNL A   1      31.573  31.991  26.130  1.00  0.00     0.163 HD
ATOM     41  O   UNL A   1      32.608  33.561  27.654  1.00  0.00    -0.269 OA
BRANCH  39  42
ATOM     42  C   UNL A   1      34.342  32.017  27.995  1.00  0.00     0.039 A 
ATOM     43  C   UNL A   1      35.399  32.928  28.070  1.00  0.00     0.014 A 
ATOM     44  C   UNL A   1      34.495  30.723  28.498  1.00  0.00     0.014 A 
ATOM     45  C   UNL A   1      36.585  32.567  28.716  1.00  0.00     0.010 A 
ATOM     46  C   UNL A   1      35.648  30.388  29.202  1.00  0.00     0.010 A 
ATOM     47  C   UNL A   1      36.704  31.307  29.321  1.00  0.00    -0.014 A 
BRANCH  47  48
ATOM     48  C   UNL A   1      37.919  30.912  30.076  1.00  0.00     0.031 A 
ATOM     49  C   UNL A   1      38.910  29.969  29.453  1.00  0.00     0.074 A 
ATOM     50  C   UNL A   1      38.083  31.322  31.349  1.00  0.00     0.049 A 
ATOM     51  N   UNL A   1      39.945  29.377  29.993  1.00  0.00    -0.248 NA
ATOM     52  C   UNL A   1      38.688  29.622  28.041  1.00  0.00     0.031 C 
ATOM     53  C   UNL A   1      37.178  32.213  32.074  1.00  0.00     0.029 A 
ATOM     54  N   UNL A   1      39.059  31.021  32.267  1.00  0.00    -0.354 N 
ATOM     55  C   UNL A   1      40.478  28.568  28.997  1.00  0.00     0.074 A 
ATOM     56  C   UNL A   1      39.629  28.714  27.833  1.00  0.00     0.031 C 
ATOM     57  C   UNL A   1      37.643  32.394  33.320  1.00  0.00     0.029 A 
ATOM     58  C   UNL A   1      38.853  31.596  33.498  1.00  0.00     0.049 A 
ATOM     59  H   UNL A   1      39.833  30.448  32.063  1.00  0.00     0.167 HD
ATOM     60  C   UNL A   1      41.584  27.790  29.043  1.00  0.00     0.037 A 
ATOM     61  C   UNL A   1      39.549  31.475  34.644  1.00  0.00     0.037 A 
ATOM     62  C   UNL A   1      42.444  27.677  30.192  1.00  0.00     0.049 A 
ATOM     63  C   UNL A   1      40.771  30.596  34.674  1.00  0.00     0.074 A 
ATOM     64  C   UNL A   1      43.621  26.961  30.321  1.00  0.00     0.029 A 
ATOM     65  N   UNL A   1      42.217  28.301  31.410  1.00  0.00    -0.354 N 
ATOM     66  N   UNL A   1      41.293  29.875  33.713  1.00  0.00    -0.248 NA
ATOM     67  C   UNL A   1      41.499  30.513  35.949  1.00  0.00     0.031 C 
ATOM     68  C   UNL A   1      44.086  27.118  31.631  1.00  0.00     0.029 A 
ATOM     69  C   UNL A   1      43.224  27.971  32.302  1.00  0.00     0.049 A 
ATOM     70  H   UNL A   1      41.455  28.891  31.611  1.00  0.00     0.167 HD
ATOM     71  C   UNL A   1      42.427  29.282  34.252  1.00  0.00     0.074 A 
ATOM     72  C   UNL A   1      42.519  29.728  35.626  1.00  0.00     0.031 C 
ATOM     73  C   UNL A   1      43.312  28.445  33.660  1.00  0.00     0.037 A 
BRANCH  60  74
ATOM     74  C   UNL A   1      41.930  26.997  27.818  1.00  0.00     0.064 A 
ATOM     75  C   UNL A   1      42.835  27.478  26.860  1.00  0.00     0.173 A 
ATOM     76  C   UNL A   1      41.378  25.722  27.616  1.00  0.00     0.173 A 
ATOM     77  F   UNL A   1      43.382  28.694  27.001  1.00  0.00    -0.203 F 
ATOM     78  C   UNL A   1      43.152  26.726  25.732  1.00  0.00     0.198 A 
ATOM     79  C   UNL A   1      41.720  24.960  26.503  1.00  0.00     0.198 A 
ATOM     80  F   UNL A   1      40.511  25.212  28.504  1.00  0.00    -0.203 F 
ATOM     81  F   UNL A   1      43.980  27.228  24.806  1.00  0.00    -0.200 F 
ATOM     82  C   UNL A   1      42.600  25.466  25.558  1.00  0.00     0.200 A 
ATOM     83  F   UNL A   1      41.195  23.738  26.342  1.00  0.00    -0.200 F 
ATOM     84  F   UNL A   1      42.911  24.741  24.474  1.00  0.00    -0.200 F 
ENDBRANCH  60  74
BRANCH  61  85
ATOM     85  C   UNL A   1      39.116  32.217  35.858  1.00  0.00     0.064 A 
ATOM     86  C   UNL A   1      38.283  31.611  36.810  1.00  0.00     0.173 A 
ATOM     87  C   UNL A   1      39.521  33.538  36.093  1.00  0.00     0.173 A 
ATOM     88  F   UNL A   1      37.851  30.356  36.617  1.00  0.00    -0.203 F 
ATOM     89  C   UNL A   1      37.858  32.304  37.940  1.00  0.00     0.198 A 
ATOM     90  C   UNL A   1      39.117  34.223  37.238  1.00  0.00     0.198 A 
ATOM     91  F   UNL A   1      40.320  34.162  35.215  1.00  0.00    -0.203 F 
ATOM     92  F   UNL A   1      37.027  31.716  38.811  1.00  0.00    -0.200 F 
ATOM     93  C   UNL A   1      38.280  33.608  38.157  1.00  0.00     0.200 A 
ATOM     94  F   UNL A   1      39.537  35.477  37.450  1.00  0.00    -0.200 F 
ATOM     95  F   UNL A   1      37.874  34.273  39.246  1.00  0.00    -0.200 F 
ENDBRANCH  61  85
BRANCH  73  96
ATOM     96  C   UNL A   1      44.490  27.993  34.470  1.00  0.00     0.064 A 
ATOM     97  C   UNL A   1      44.454  26.814  35.228  1.00  0.00     0.173 A 
ATOM     98  C   UNL A   1      45.697  28.710  34.423  1.00  0.00     0.173 A 
ATOM     99  F   UNL A   1      43.320  26.102  35.316  1.00  0.00    -0.203 F 
ATOM    100  C   UNL A   1      45.582  26.373  35.916  1.00  0.00     0.198 A 
ATOM    101  C   UNL A   1      46.828  28.253  35.091  1.00  0.00     0.198 A 
ATOM    102  F   UNL A   1      45.782  29.842  33.707  1.00  0.00    -0.203 F 
ATOM    103  F   UNL A   1      45.518  25.259  36.657  1.00  0.00    -0.200 F 
ATOM    104  C   UNL A   1      46.770  27.087  35.839  1.00  0.00     0.200 A 
ATOM    105  F   UNL A   1      47.978  28.936  35.004  1.00  0.00    -0.200 F 
ATOM    106  F   UNL A   1      47.858  26.651  36.487  1.00  0.00    -0.200 F 
ENDBRANCH  73  96
ENDBRANCH  47  48
ENDBRANCH  39  42
ENDBRANCH  37  38
ENDBRANCH  36  37
ENDBRANCH  35  36
ENDBRANCH   1  35
TORSDOF 17
ENDMDL
MODEL 2
REMARK VINA RESULT:     -13.1      4.162      9.709
REMARK SMILES CC(=O)Nc1cc(NC(C)=O)cc(C(=O)Nc2ccc(Br)cc2C(=O)NCCCCCCNC(=O)c2ccc(-c3c4nc(c(-c5c(F)c(F)c(F)c(F)c5F)c5ccc([nH]5)c(-c5c(F)c(F)c(F)c(F)c5F)c5nc(c(-c6c(F)c(F)c(F)c(F)c6F)c6ccc3[nH]6)C=C5)C=C4)cc2)c1
REMARK SMILES IDX 29 1 28 2 27 3 26 4 24 5 25 6 23 8 17 9 18 10 19 11 22 12
REMARK SMILES IDX 20 13 21 14 16 15 14 16 15 17 13 19 5 20 6 21 99 22 7 23
REMARK SMILES IDX 12 24 4 25 1 26 2 27 3 28 8 30 9 31 10 33 11 34 30 35 31 36
REMARK SMILES IDX 32 37 33 38 34 39 35 41 36 42 37 43 98 44 38 45 97 46 39 47
REMARK SMILES IDX 40 48 41 49 91 50 42 51 96 52 90 53 92 54 43 55 95 56 89 57
REMARK SMILES IDX 88 58 44 60 76 61 56 62 75 63 57 64 60 65 74 66 93 67 58 68
REMARK SMILES IDX 59 69 73 71 94 72 61 73 45 74 46 75 54 76 47 77 48 78 52 79
REMARK SMILES IDX 55 80 49 81 50 82 53 83 51 84 77 85 78 86 86 87 79 88 80 89
REMARK SMILES IDX 84 90 87 91 81 92 82 93 85 94 83 95 62 96 63 97 71 98 64 99
REMARK SMILES IDX 65 100 69 101 72 102 66 103 67 104 70 105 68 106
REMARK H PARENT 26 7 16 18 4 29 8 32 33 40 92 59 60 70
REMARK Flexibility Score: inf
ROOT
ATOM      1  C   UNL A   1      35.790  24.354  25.324  1.00  0.00     0.002 C 
ENDROOT
BRANCH   1   2
ATOM      2  C   UNL A   1      34.372  24.871  25.596  1.00  0.00     0.021 C 
BRANCH   2   3
ATOM      3  C   UNL A   1      34.060  26.285  25.119  1.00  0.00     0.116 C 
BRANCH   3   4
ATOM      4  N   UNL A   1      33.623  27.177  26.169  1.00  0.00    -0.352 N 
ATOM      5  C   UNL A   1      32.385  27.716  26.405  1.00  0.00     0.253 C 
ATOM      6  O   UNL A   1      32.266  28.494  27.350  1.00  0.00    -0.269 OA
ATOM      7  H   UNL A   1      34.321  27.437  26.812  1.00  0.00     0.163 HD
BRANCH   5   8
ATOM      8  C   UNL A   1      31.212  27.469  25.518  1.00  0.00     0.064 A 
ATOM      9  C   UNL A   1      30.368  26.338  25.499  1.00  0.00     0.054 A 
ATOM     10  C   UNL A   1      29.439  26.208  24.449  1.00  0.00     0.028 A 
ATOM     11  C   UNL A   1      29.222  27.246  23.541  1.00  0.00     0.018 A 
ATOM     12  C   UNL A   1      30.959  28.522  24.612  1.00  0.00     0.031 A 
ATOM     13  C   UNL A   1      29.957  28.417  23.653  1.00  0.00     0.018 A 
ATOM     14  Br  UNL A   1      29.583  29.872  22.509  1.00  0.00    -0.051 Br
BRANCH   9  15
ATOM     15  N   UNL A   1      30.258  25.322  26.479  1.00  0.00    -0.321 N 
ATOM     16  C   UNL A   1      30.454  23.955  26.419  1.00  0.00     0.255 C 
ATOM     17  O   UNL A   1      30.086  23.254  27.361  1.00  0.00    -0.269 OA
ATOM     18  H   UNL A   1      29.992  25.650  27.368  1.00  0.00     0.170 HD
BRANCH  16  19
ATOM     19  C   UNL A   1      31.151  23.318  25.281  1.00  0.00     0.044 A 
ATOM     20  C   UNL A   1      32.621  21.599  24.444  1.00  0.00     0.044 A 
ATOM     21  C   UNL A   1      32.710  22.307  23.233  1.00  0.00     0.052 A 
ATOM     22  C   UNL A   1      31.781  22.082  25.436  1.00  0.00     0.040 A 
ATOM     23  C   UNL A   1      31.961  23.469  23.009  1.00  0.00     0.044 A 
ATOM     24  C   UNL A   1      31.187  23.979  24.052  1.00  0.00     0.040 A 
BRANCH  20  25
ATOM     25  N   UNL A   1      33.493  20.508  24.620  1.00  0.00    -0.326 N 
ATOM     26  C   UNL A   1      32.411  18.687  23.289  1.00  0.00     0.114 C 
ATOM     27  C   UNL A   1      33.414  19.187  24.292  1.00  0.00     0.221 C 
ATOM     28  O   UNL A   1      34.215  18.400  24.803  1.00  0.00    -0.275 OA
ATOM     29  H   UNL A   1      34.333  20.748  25.073  1.00  0.00     0.169 HD
ENDBRANCH  20  25
BRANCH  23  30
ATOM     30  N   UNL A   1      31.953  24.184  21.791  1.00  0.00    -0.326 N 
ATOM     31  C   UNL A   1      32.913  25.070  21.336  1.00  0.00     0.221 C 
ATOM     32  H   UNL A   1      31.180  24.034  21.201  1.00  0.00     0.169 HD
ATOM     33  C   UNL A   1      32.597  25.638  19.973  1.00  0.00     0.114 C 
ATOM     34  O   UNL A   1      33.949  25.388  21.910  1.00  0.00    -0.275 OA
ENDBRANCH  23  30
ENDBRANCH  16  19
ENDBRANCH   9  15
ENDBRANCH   5   8
ENDBRANCH   3   4
ENDBRANCH   2   3
ENDBRANCH   1   2
BRANCH   1  35
ATOM     35  C   UNL A   1      36.007  23.487  24.080  1.00  0.00     0.002 C 
BRANCH  35  36
ATOM     36  C   UNL A   1      36.693  22.136  24.274  1.00  0.00     0.021 C 
BRANCH  36  37
ATOM     37  C   UNL A   1      37.058  21.765  25.704  1.00  0.00     0.116 C 
BRANCH  37  38
ATOM     38  N   UNL A   1      38.055  20.715  25.795  1.00  0.00    -0.352 N 
ATOM     39  C   UNL A   1      39.375  20.801  26.167  1.00  0.00     0.251 C 
ATOM     40  H   UNL A   1      37.742  19.812  25.556  1.00  0.00     0.163 HD
ATOM     41  O   UNL A   1      40.102  19.813  26.096  1.00  0.00    -0.269 OA
BRANCH  39  42
ATOM     42  C   UNL A   1      39.936  22.094  26.619  1.00  0.00     0.039 A 
ATOM     43  C   UNL A   1      40.882  22.094  27.648  1.00  0.00     0.014 A 
ATOM     44  C   UNL A   1      39.541  23.298  26.031  1.00  0.00     0.014 A 
ATOM     45  C   UNL A   1      41.487  23.292  28.038  1.00  0.00     0.010 A 
ATOM     46  C   UNL A   1      40.193  24.479  26.371  1.00  0.00     0.010 A 
ATOM     47  C   UNL A   1      41.175  24.489  27.376  1.00  0.00    -0.014 A 
BRANCH  47  48
ATOM     48  C   UNL A   1      41.846  25.769  27.713  1.00  0.00     0.031 A 
ATOM     49  C   UNL A   1      41.086  26.838  28.447  1.00  0.00     0.074 A 
ATOM     50  C   UNL A   1      43.099  26.006  27.280  1.00  0.00     0.049 A 
ATOM     51  N   UNL A   1      41.428  28.076  28.698  1.00  0.00    -0.248 NA
ATOM     52  C   UNL A   1      39.748  26.472  28.940  1.00  0.00     0.031 C 
ATOM     53  C   UNL A   1      43.929  25.061  26.533  1.00  0.00     0.029 A 
ATOM     54  N   UNL A   1      43.885  27.128  27.383  1.00  0.00    -0.354 N 
ATOM     55  C   UNL A   1      40.339  28.643  29.349  1.00  0.00     0.074 A 
ATOM     56  C   UNL A   1      39.311  27.627  29.419  1.00  0.00     0.031 C 
ATOM     57  C   UNL A   1      45.109  25.637  26.253  1.00  0.00     0.029 A 
ATOM     58  C   UNL A   1      45.102  27.007  26.758  1.00  0.00     0.049 A 
ATOM     59  H   UNL A   1      43.602  27.942  27.860  1.00  0.00     0.167 HD
ATOM     60  C   UNL A   1      40.217  29.891  29.857  1.00  0.00     0.037 A 
ATOM     61  C   UNL A   1      46.091  27.906  26.594  1.00  0.00     0.037 A 
ATOM     62  C   UNL A   1      41.256  30.885  29.816  1.00  0.00     0.049 A 
ATOM     63  C   UNL A   1      45.927  29.292  27.160  1.00  0.00     0.074 A 
ATOM     64  C   UNL A   1      41.253  32.161  30.354  1.00  0.00     0.029 A 
ATOM     65  N   UNL A   1      42.488  30.713  29.201  1.00  0.00    -0.354 N 
ATOM     66  N   UNL A   1      44.914  29.801  27.816  1.00  0.00    -0.248 NA
ATOM     67  C   UNL A   1      47.044  30.227  26.962  1.00  0.00     0.031 C 
ATOM     68  C   UNL A   1      42.466  32.775  30.030  1.00  0.00     0.029 A 
ATOM     69  C   UNL A   1      43.245  31.866  29.331  1.00  0.00     0.049 A 
ATOM     70  H   UNL A   1      42.781  29.893  28.741  1.00  0.00     0.167 HD
ATOM     71  C   UNL A   1      45.282  31.100  28.140  1.00  0.00     0.074 A 
ATOM     72  C   UNL A   1      46.614  31.302  27.609  1.00  0.00     0.031 C 
ATOM     73  C   UNL A   1      44.580  32.040  28.817  1.00  0.00     0.037 A 
BRANCH  60  74
ATOM     74  C   UNL A   1      38.912  30.255  30.502  1.00  0.00     0.064 A 
ATOM     75  C   UNL A   1      38.716  30.136  31.886  1.00  0.00     0.173 A 
ATOM     76  C   UNL A   1      37.856  30.766  29.731  1.00  0.00     0.173 A 
ATOM     77  F   UNL A   1      39.690  29.644  32.665  1.00  0.00    -0.203 F 
ATOM     78  C   UNL A   1      37.502  30.486  32.471  1.00  0.00     0.198 A 
ATOM     79  C   UNL A   1      36.654  31.144  30.323  1.00  0.00     0.198 A 
ATOM     80  F   UNL A   1      37.993  30.906  28.405  1.00  0.00    -0.203 F 
ATOM     81  F   UNL A   1      37.321  30.316  33.787  1.00  0.00    -0.200 F 
ATOM     82  C   UNL A   1      36.475  30.996  31.690  1.00  0.00     0.200 A 
ATOM     83  F   UNL A   1      35.667  31.648  29.570  1.00  0.00    -0.200 F 
ATOM     84  F   UNL A   1      35.309  31.338  32.256  1.00  0.00    -0.200 F 
ENDBRANCH  60  74
BRANCH  61  85
ATOM     85  C   UNL A   1      47.331  27.522  25.871  1.00  0.00     0.064 A 
ATOM     86  C   UNL A   1      47.432  27.682  24.482  1.00  0.00     0.173 A 
ATOM     87  C   UNL A   1      48.438  26.989  26.547  1.00  0.00     0.173 A 
ATOM     88  F   UNL A   1      46.391  28.167  23.788  1.00  0.00    -0.203 F 
ATOM     89  C   UNL A   1      48.584  27.308  23.795  1.00  0.00     0.198 A 
ATOM     90  C   UNL A   1      49.601  26.640  25.863  1.00  0.00     0.198 A 
ATOM     91  F   UNL A   1      48.395  26.818  27.877  1.00  0.00    -0.203 F 
ATOM     92  F   UNL A   1      48.637  27.431  22.462  1.00  0.00    -0.200 F 
ATOM     93  C   UNL A   1      49.671  26.793  24.486  1.00  0.00     0.200 A 
ATOM     94  F   UNL A   1      50.653  26.154  26.537  1.00  0.00    -0.200 F 
ATOM     95  F   UNL A   1      50.780  26.435  23.826  1.00  0.00    -0.200 F 
ENDBRANCH  61  85
BRANCH  73  96
ATOM     96  C   UNL A   1      45.249  33.357  29.076  1.00  0.00     0.064 A 
ATOM     97  C   UNL A   1      46.069  33.559  30.193  1.00  0.00     0.173 A 
ATOM     98  C   UNL A   1      45.127  34.404  28.148  1.00  0.00     0.173 A 
ATOM     99  F   UNL A   1      46.205  32.594  31.115  1.00  0.00    -0.203 F 
ATOM    100  C   UNL A   1      46.740  34.766  30.378  1.00  0.00     0.198 A 
ATOM    101  C   UNL A   1      45.818  35.598  28.323  1.00  0.00     0.198 A 
ATOM    102  F   UNL A   1      44.357  34.256  27.059  1.00  0.00    -0.203 F 
ATOM    103  F   UNL A   1      47.497  34.949  31.468  1.00  0.00    -0.200 F 
ATOM    104  C   UNL A   1      46.621  35.780  29.438  1.00  0.00     0.200 A 
ATOM    105  F   UNL A   1      45.713  36.571  27.407  1.00  0.00    -0.200 F 
ATOM    106  F   UNL A   1      47.281  36.934  29.608  1.00  0.00    -0.200 F 
ENDBRANCH  73  96
ENDBRANCH  47  48
ENDBRANCH  39  42
ENDBRANCH  37  38
ENDBRANCH  36  37
ENDBRANCH  35  36
ENDBRANCH   1  35
TORSDOF 17
ENDMDL
MODEL 3
REMARK VINA RESULT:     -13.0      2.434      7.692
REMARK SMILES CC(=O)Nc1cc(NC(C)=O)cc(C(=O)Nc2ccc(Br)cc2C(=O)NCCCCCCNC(=O)c2ccc(-c3c4nc(c(-c5c(F)c(F)c(F)c(F)c5F)c5ccc([nH]5)c(-c5c(F)c(F)c(F)c(F)c5F)c5nc(c(-c6c(F)c(F)c(F)c(F)c6F)c6ccc3[nH]6)C=C5)C=C4)cc2)c1
REMARK SMILES IDX 29 1 28 2 27 3 26 4 24 5 25 6 23 8 17 9 18 10 19 11 22 12
REMARK SMILES IDX 20 13 21 14 16 15 14 16 15 17 13 19 5 20 6 21 99 22 7 23
REMARK SMILES IDX 12 24 4 25 1 26 2 27 3 28 8 30 9 31 10 33 11 34 30 35 31 36
REMARK SMILES IDX 32 37 33 38 34 39 35 41 36 42 37 43 98 44 38 45 97 46 39 47
REMARK SMILES IDX 40 48 41 49 91 50 42 51 96 52 90 53 92 54 43 55 95 56 89 57
REMARK SMILES IDX 88 58 44 60 76 61 56 62 75 63 57 64 60 65 74 66 93 67 58 68
REMARK SMILES IDX 59 69 73 71 94 72 61 73 45 74 46 75 54 76 47 77 48 78 52 79
REMARK SMILES IDX 55 80 49 81 50 82 53 83 51 84 77 85 78 86 86 87 79 88 80 89
REMARK SMILES IDX 84 90 87 91 81 92 82 93 85 94 83 95 62 96 63 97 71 98 64 99
REMARK SMILES IDX 65 100 69 101 72 102 66 103 67 104 70 105 68 106
REMARK H PARENT 26 7 16 18 4 29 8 32 33 40 92 59 60 70
REMARK Flexibility Score: inf
ROOT
ATOM      1  C   UNL A   1      37.973  21.174  25.512  1.00  0.00     0.002 C 
ENDROOT
BRANCH   1   2
ATOM      2  C   UNL A   1      37.410  21.816  24.238  1.00  0.00     0.021 C 
BRANCH   2   3
ATOM      3  C   UNL A   1      36.898  23.246  24.365  1.00  0.00     0.116 C 
BRANCH   3   4
ATOM      4  N   UNL A   1      36.006  23.454  25.483  1.00  0.00    -0.352 N 
ATOM      5  C   UNL A   1      34.690  23.104  25.633  1.00  0.00     0.253 C 
ATOM      6  O   UNL A   1      34.122  23.432  26.674  1.00  0.00    -0.269 OA
ATOM      7  H   UNL A   1      36.405  23.919  26.253  1.00  0.00     0.163 HD
BRANCH   5   8
ATOM      8  C   UNL A   1      33.904  22.429  24.561  1.00  0.00     0.064 A 
ATOM      9  C   UNL A   1      33.445  22.986  23.348  1.00  0.00     0.054 A 
ATOM     10  C   UNL A   1      32.546  22.240  22.561  1.00  0.00     0.028 A 
ATOM     11  C   UNL A   1      32.243  20.912  22.871  1.00  0.00     0.018 A 
ATOM     12  C   UNL A   1      33.613  21.076  24.842  1.00  0.00     0.031 A 
ATOM     13  C   UNL A   1      32.812  20.323  23.989  1.00  0.00     0.018 A 
ATOM     14  Br  UNL A   1      32.508  18.494  24.345  1.00  0.00    -0.051 Br
BRANCH   9  15
ATOM     15  N   UNL A   1      33.852  24.198  22.741  1.00  0.00    -0.321 N 
ATOM     16  C   UNL A   1      33.236  25.430  22.634  1.00  0.00     0.255 C 
ATOM     17  O   UNL A   1      33.705  26.272  21.869  1.00  0.00    -0.269 OA
ATOM     18  H   UNL A   1      34.739  24.156  22.317  1.00  0.00     0.170 HD
BRANCH  16  19
ATOM     19  C   UNL A   1      32.063  25.789  23.461  1.00  0.00     0.044 A 
ATOM     20  C   UNL A   1      30.697  25.398  25.409  1.00  0.00     0.044 A 
ATOM     21  C   UNL A   1      29.711  26.226  24.847  1.00  0.00     0.052 A 
ATOM     22  C   UNL A   1      31.899  25.244  24.735  1.00  0.00     0.040 A 
ATOM     23  C   UNL A   1      29.925  26.903  23.639  1.00  0.00     0.044 A 
ATOM     24  C   UNL A   1      31.109  26.666  22.940  1.00  0.00     0.040 A 
BRANCH  20  25
ATOM     25  N   UNL A   1      30.350  24.675  26.566  1.00  0.00    -0.326 N 
ATOM     26  C   UNL A   1      30.528  22.291  25.828  1.00  0.00     0.114 C 
ATOM     27  C   UNL A   1      30.105  23.355  26.803  1.00  0.00     0.221 C 
ATOM     28  O   UNL A   1      29.560  23.034  27.863  1.00  0.00    -0.275 OA
ATOM     29  H   UNL A   1      30.267  25.238  27.369  1.00  0.00     0.169 HD
ENDBRANCH  20  25
BRANCH  23  30
ATOM     30  N   UNL A   1      29.003  27.801  23.060  1.00  0.00    -0.326 N 
ATOM     31  C   UNL A   1      29.065  29.183  23.066  1.00  0.00     0.221 C 
ATOM     32  H   UNL A   1      28.232  27.400  22.600  1.00  0.00     0.169 HD
ATOM     33  C   UNL A   1      27.919  29.832  22.327  1.00  0.00     0.114 C 
ATOM     34  O   UNL A   1      29.941  29.875  23.574  1.00  0.00    -0.275 OA
ENDBRANCH  23  30
ENDBRANCH  16  19
ENDBRANCH   9  15
ENDBRANCH   5   8
ENDBRANCH   3   4
ENDBRANCH   2   3
ENDBRANCH   1   2
BRANCH   1  35
ATOM     35  C   UNL A   1      39.252  21.772  26.107  1.00  0.00     0.002 C 
BRANCH  35  36
ATOM     36  C   UNL A   1      40.516  20.916  26.065  1.00  0.00     0.021 C 
BRANCH  36  37
ATOM     37  C   UNL A   1      41.786  21.563  26.598  1.00  0.00     0.116 C 
BRANCH  37  38
ATOM     38  N   UNL A   1      42.641  22.108  25.559  1.00  0.00    -0.352 N 
ATOM     39  C   UNL A   1      43.013  23.412  25.336  1.00  0.00     0.251 C 
ATOM     40  H   UNL A   1      43.006  21.450  24.924  1.00  0.00     0.163 HD
ATOM     41  O   UNL A   1      43.675  23.703  24.343  1.00  0.00    -0.269 OA
BRANCH  39  42
ATOM     42  C   UNL A   1      42.585  24.476  26.271  1.00  0.00     0.039 A 
ATOM     43  C   UNL A   1      41.616  24.177  27.233  1.00  0.00     0.014 A 
ATOM     44  C   UNL A   1      43.138  25.758  26.208  1.00  0.00     0.014 A 
ATOM     45  C   UNL A   1      41.254  25.141  28.179  1.00  0.00     0.010 A 
ATOM     46  C   UNL A   1      42.829  26.692  27.192  1.00  0.00     0.010 A 
ATOM     47  C   UNL A   1      41.886  26.393  28.189  1.00  0.00    -0.014 A 
BRANCH  47  48
ATOM     48  C   UNL A   1      41.580  27.416  29.220  1.00  0.00     0.031 A 
ATOM     49  C   UNL A   1      42.384  27.459  30.489  1.00  0.00     0.074 A 
ATOM     50  C   UNL A   1      40.527  28.240  29.058  1.00  0.00     0.049 A 
ATOM     51  N   UNL A   1      42.182  28.160  31.576  1.00  0.00    -0.248 NA
ATOM     52  C   UNL A   1      43.554  26.570  30.556  1.00  0.00     0.031 C 
ATOM     53  C   UNL A   1      39.653  28.276  27.885  1.00  0.00     0.029 A 
ATOM     54  N   UNL A   1      39.995  29.190  29.896  1.00  0.00    -0.354 N 
ATOM     55  C   UNL A   1      43.180  27.776  32.462  1.00  0.00     0.074 A 
ATOM     56  C   UNL A   1      43.962  26.752  31.803  1.00  0.00     0.031 C 
ATOM     57  C   UNL A   1      38.701  29.203  28.073  1.00  0.00     0.029 A 
ATOM     58  C   UNL A   1      38.868  29.796  29.397  1.00  0.00     0.049 A 
ATOM     59  H   UNL A   1      40.386  29.415  30.772  1.00  0.00     0.167 HD
ATOM     60  C   UNL A   1      43.433  28.249  33.705  1.00  0.00     0.037 A 
ATOM     61  C   UNL A   1      38.051  30.710  29.954  1.00  0.00     0.037 A 
ATOM     62  C   UNL A   1      42.674  29.293  34.341  1.00  0.00     0.049 A 
ATOM     63  C   UNL A   1      38.346  31.213  31.342  1.00  0.00     0.074 A 
ATOM     64  C   UNL A   1      42.885  29.884  35.575  1.00  0.00     0.029 A 
ATOM     65  N   UNL A   1      41.557  29.905  33.789  1.00  0.00    -0.354 N 
ATOM     66  N   UNL A   1      39.320  30.879  32.151  1.00  0.00    -0.248 NA
ATOM     67  C   UNL A   1      37.428  32.220  31.894  1.00  0.00     0.031 C 
ATOM     68  C   UNL A   1      41.871  30.824  35.788  1.00  0.00     0.029 A 
ATOM     69  C   UNL A   1      41.057  30.853  34.666  1.00  0.00     0.049 A 
ATOM     70  H   UNL A   1      41.177  29.695  32.905  1.00  0.00     0.167 HD
ATOM     71  C   UNL A   1      39.156  31.655  33.290  1.00  0.00     0.074 A 
ATOM     72  C   UNL A   1      37.987  32.481  33.068  1.00  0.00     0.031 C 
ATOM     73  C   UNL A   1      39.907  31.683  34.417  1.00  0.00     0.037 A 
BRANCH  60  74
ATOM     74  C   UNL A   1      44.576  27.641  34.462  1.00  0.00     0.064 A 
ATOM     75  C   UNL A   1      44.399  26.520  35.288  1.00  0.00     0.173 A 
ATOM     76  C   UNL A   1      45.873  28.161  34.331  1.00  0.00     0.173 A 
ATOM     77  F   UNL A   1      43.178  25.992  35.455  1.00  0.00    -0.203 F 
ATOM     78  C   UNL A   1      45.472  25.961  35.977  1.00  0.00     0.198 A 
ATOM     79  C   UNL A   1      46.949  27.581  34.998  1.00  0.00     0.198 A 
ATOM     80  F   UNL A   1      46.098  29.228  33.550  1.00  0.00    -0.203 F 
ATOM     81  F   UNL A   1      45.270  24.923  36.800  1.00  0.00    -0.200 F 
ATOM     82  C   UNL A   1      46.747  26.488  35.827  1.00  0.00     0.200 A 
ATOM     83  F   UNL A   1      48.181  28.083  34.842  1.00  0.00    -0.200 F 
ATOM     84  F   UNL A   1      47.779  25.945  36.487  1.00  0.00    -0.200 F 
ENDBRANCH  60  74
BRANCH  61  85
ATOM     85  C   UNL A   1      36.879  31.219  29.194  1.00  0.00     0.064 A 
ATOM     86  C   UNL A   1      35.763  30.403  28.963  1.00  0.00     0.173 A 
ATOM     87  C   UNL A   1      36.848  32.525  28.684  1.00  0.00     0.173 A 
ATOM     88  F   UNL A   1      35.756  29.139  29.412  1.00  0.00    -0.203 F 
ATOM     89  C   UNL A   1      34.669  30.866  28.236  1.00  0.00     0.198 A 
ATOM     90  C   UNL A   1      35.742  32.997  27.980  1.00  0.00     0.198 A 
ATOM     91  F   UNL A   1      37.889  33.347  28.880  1.00  0.00    -0.203 F 
ATOM     92  F   UNL A   1      33.634  30.051  27.993  1.00  0.00    -0.200 F 
ATOM     93  C   UNL A   1      34.656  32.165  27.751  1.00  0.00     0.200 A 
ATOM     94  F   UNL A   1      35.728  34.257  27.523  1.00  0.00    -0.200 F 
ATOM     95  F   UNL A   1      33.603  32.612  27.055  1.00  0.00    -0.200 F 
ENDBRANCH  61  85
BRANCH  73  96
ATOM     96  C   UNL A   1      39.528  32.670  35.481  1.00  0.00     0.064 A 
ATOM     97  C   UNL A   1      38.679  32.321  36.540  1.00  0.00     0.173 A 
ATOM     98  C   UNL A   1      40.088  33.958  35.480  1.00  0.00     0.173 A 
ATOM     99  F   UNL A   1      38.108  31.107  36.577  1.00  0.00    -0.203 F 
ATOM    100  C   UNL A   1      38.396  33.229  37.558  1.00  0.00     0.198 A 
ATOM    101  C   UNL A   1      39.823  34.853  36.512  1.00  0.00     0.198 A 
ATOM    102  F   UNL A   1      40.911  34.336  34.491  1.00  0.00    -0.203 F 
ATOM    103  F   UNL A   1      37.559  32.886  38.546  1.00  0.00    -0.200 F 
ATOM    104  C   UNL A   1      38.977  34.490  37.548  1.00  0.00     0.200 A 
ATOM    105  F   UNL A   1      40.395  36.065  36.508  1.00  0.00    -0.200 F 
ATOM    106  F   UNL A   1      38.718  35.355  38.537  1.00  0.00    -0.200 F 
ENDBRANCH  73  96
ENDBRANCH  47  48
ENDBRANCH  39  42
ENDBRANCH  37  38
ENDBRANCH  36  37
ENDBRANCH  35  36
ENDBRANCH   1  35
TORSDOF 17
ENDMDL
