MODEL 1
REMARK VINA RESULT:     -10.8      0.000      0.000
REMARK SMILES O=C(NCCCCCCNC(=O)c1[nH]nc2c1CCC2)c1ccc(-c2c3nc(c(-c4c(F)c(F)c(F)c(F)c4F)c4ccc([nH]4)c(-c4c(F)c(F)c(F)c(F)c4F)c4nc(c(-c5c(F)c(F)c(F)c(F)c5F)c5ccc2[nH]5)C=C4)C=C3)cc1
REMARK SMILES IDX 5 1 4 2 3 3 1 4 2 5 21 7 22 8 83 9 23 10 82 11 24 12 25 13
REMARK SMILES IDX 26 14 76 15 27 16 81 17 75 18 77 19 28 20 80 21 74 22 73 23
REMARK SMILES IDX 29 25 61 26 41 27 60 28 42 29 45 30 59 31 78 32 43 33 44 34
REMARK SMILES IDX 58 36 79 37 46 38 30 39 31 40 39 41 32 42 33 43 37 44 40 45
REMARK SMILES IDX 34 46 35 47 38 48 36 49 62 50 63 51 71 52 64 53 65 54 69 55
REMARK SMILES IDX 72 56 66 57 67 58 70 59 68 60 47 61 48 62 56 63 49 64 50 65
REMARK SMILES IDX 54 66 57 67 51 68 52 69 55 70 53 71 6 72 7 73 8 74 9 75
REMARK SMILES IDX 10 76 11 77 12 79 13 80 14 81 17 82 15 83 16 85 18 86 20 87
REMARK SMILES IDX 19 88
REMARK H PARENT 3 6 77 24 45 35 10 78 14 84
REMARK Flexibility Score: inf
ROOT
ATOM      1  C   UNL A   1      44.934  20.074  24.452  1.00  0.00     0.021 C 
ENDROOT
BRANCH   1   2
ATOM      2  C   UNL A   1      44.582  18.932  25.406  1.00  0.00     0.116 C 
BRANCH   2   3
ATOM      3  N   UNL A   1      43.168  18.647  25.502  1.00  0.00    -0.352 N 
ATOM      4  O   UNL A   1      40.971  18.834  25.642  1.00  0.00    -0.269 OA
ATOM      5  C   UNL A   1      42.063  19.378  25.826  1.00  0.00     0.251 C 
ATOM      6  H   UNL A   1      42.953  17.711  25.282  1.00  0.00     0.163 HD
BRANCH   5   7
ATOM      7  C   UNL A   1      42.089  20.726  26.454  1.00  0.00     0.039 A 
ATOM      8  C   UNL A   1      42.026  21.947  25.782  1.00  0.00     0.014 A 
ATOM      9  C   UNL A   1      42.223  20.733  27.856  1.00  0.00     0.014 A 
ATOM     10  C   UNL A   1      42.194  23.142  26.475  1.00  0.00     0.010 A 
ATOM     11  C   UNL A   1      42.378  21.921  28.556  1.00  0.00     0.010 A 
ATOM     12  C   UNL A   1      42.397  23.123  27.857  1.00  0.00    -0.014 A 
BRANCH  12  13
ATOM     13  C   UNL A   1      42.403  24.394  28.577  1.00  0.00     0.031 A 
ATOM     14  C   UNL A   1      41.241  25.262  28.236  1.00  0.00     0.074 A 
ATOM     15  C   UNL A   1      43.269  24.675  29.571  1.00  0.00     0.049 A 
ATOM     16  N   UNL A   1      41.256  26.450  27.724  1.00  0.00    -0.248 NA
ATOM     17  C   UNL A   1      39.890  24.681  28.344  1.00  0.00     0.031 C 
ATOM     18  C   UNL A   1      44.257  23.767  30.160  1.00  0.00     0.029 A 
ATOM     19  N   UNL A   1      43.382  25.791  30.352  1.00  0.00    -0.354 N 
ATOM     20  C   UNL A   1      39.920  26.843  27.636  1.00  0.00     0.074 A 
ATOM     21  C   UNL A   1      39.134  25.661  27.848  1.00  0.00     0.031 C 
ATOM     22  C   UNL A   1      44.690  24.278  31.335  1.00  0.00     0.029 A 
ATOM     23  C   UNL A   1      44.102  25.592  31.527  1.00  0.00     0.049 A 
ATOM     24  H   UNL A   1      42.987  26.659  30.104  1.00  0.00     0.167 HD
ATOM     25  C   UNL A   1      39.586  28.162  27.701  1.00  0.00     0.037 A 
ATOM     26  C   UNL A   1      44.153  26.415  32.607  1.00  0.00     0.037 A 
ATOM     27  C   UNL A   1      40.726  28.987  27.379  1.00  0.00     0.049 A 
ATOM     28  C   UNL A   1      43.702  27.754  32.166  1.00  0.00     0.074 A 
ATOM     29  C   UNL A   1      41.538  29.188  26.283  1.00  0.00     0.029 A 
ATOM     30  N   UNL A   1      41.385  29.533  28.447  1.00  0.00    -0.354 N 
ATOM     31  N   UNL A   1      44.378  28.525  31.364  1.00  0.00    -0.248 NA
ATOM     32  C   UNL A   1      42.295  28.088  32.315  1.00  0.00     0.031 C 
ATOM     33  C   UNL A   1      42.826  29.501  26.817  1.00  0.00     0.029 A 
ATOM     34  C   UNL A   1      42.727  29.527  28.208  1.00  0.00     0.049 A 
ATOM     35  H   UNL A   1      40.957  29.878  29.264  1.00  0.00     0.167 HD
ATOM     36  C   UNL A   1      43.415  29.125  30.570  1.00  0.00     0.074 A 
ATOM     37  C   UNL A   1      42.161  28.934  31.293  1.00  0.00     0.031 C 
ATOM     38  C   UNL A   1      43.700  29.440  29.272  1.00  0.00     0.037 A 
BRANCH  25  39
ATOM     39  C   UNL A   1      38.450  28.699  28.572  1.00  0.00     0.064 A 
ATOM     40  C   UNL A   1      37.673  29.765  28.062  1.00  0.00     0.173 A 
ATOM     41  C   UNL A   1      38.340  28.499  29.966  1.00  0.00     0.173 A 
ATOM     42  F   UNL A   1      37.671  30.042  26.749  1.00  0.00    -0.203 F 
ATOM     43  C   UNL A   1      36.990  30.653  28.898  1.00  0.00     0.198 A 
ATOM     44  C   UNL A   1      37.619  29.361  30.792  1.00  0.00     0.198 A 
ATOM     45  F   UNL A   1      38.995  27.533  30.615  1.00  0.00    -0.203 F 
ATOM     46  F   UNL A   1      36.416  31.746  28.378  1.00  0.00    -0.200 F 
ATOM     47  C   UNL A   1      36.983  30.463  30.266  1.00  0.00     0.200 A 
ATOM     48  F   UNL A   1      37.628  29.161  32.118  1.00  0.00    -0.200 F 
ATOM     49  F   UNL A   1      36.407  31.359  31.077  1.00  0.00    -0.200 F 
ENDBRANCH  25  39
BRANCH  26  50
ATOM     50  C   UNL A   1      44.278  26.070  34.047  1.00  0.00     0.064 A 
ATOM     51  C   UNL A   1      43.159  25.666  34.799  1.00  0.00     0.173 A 
ATOM     52  C   UNL A   1      45.535  25.851  34.642  1.00  0.00     0.173 A 
ATOM     53  F   UNL A   1      41.923  25.791  34.293  1.00  0.00    -0.203 F 
ATOM     54  C   UNL A   1      43.293  25.056  36.053  1.00  0.00     0.198 A 
ATOM     55  C   UNL A   1      45.668  25.250  35.896  1.00  0.00     0.198 A 
ATOM     56  F   UNL A   1      46.668  26.121  33.978  1.00  0.00    -0.203 F 
ATOM     57  F   UNL A   1      42.206  24.623  36.707  1.00  0.00    -0.200 F 
ATOM     58  C   UNL A   1      44.548  24.840  36.595  1.00  0.00     0.200 A 
ATOM     59  F   UNL A   1      46.891  25.013  36.391  1.00  0.00    -0.200 F 
ATOM     60  F   UNL A   1      44.683  24.198  37.765  1.00  0.00    -0.200 F 
ENDBRANCH  26  50
BRANCH  38  61
ATOM     61  C   UNL A   1      45.147  29.512  28.881  1.00  0.00     0.064 A 
ATOM     62  C   UNL A   1      45.941  30.667  28.970  1.00  0.00     0.173 A 
ATOM     63  C   UNL A   1      45.773  28.322  28.487  1.00  0.00     0.173 A 
ATOM     64  F   UNL A   1      45.439  31.819  29.433  1.00  0.00    -0.203 F 
ATOM     65  C   UNL A   1      47.291  30.638  28.627  1.00  0.00     0.198 A 
ATOM     66  C   UNL A   1      47.129  28.286  28.186  1.00  0.00     0.198 A 
ATOM     67  F   UNL A   1      45.072  27.179  28.434  1.00  0.00    -0.203 F 
ATOM     68  F   UNL A   1      48.027  31.756  28.697  1.00  0.00    -0.200 F 
ATOM     69  C   UNL A   1      47.885  29.446  28.241  1.00  0.00     0.200 A 
ATOM     70  F   UNL A   1      47.708  27.123  27.862  1.00  0.00    -0.200 F 
ATOM     71  F   UNL A   1      49.192  29.410  27.947  1.00  0.00    -0.200 F 
ENDBRANCH  38  61
ENDBRANCH  12  13
ENDBRANCH   5   7
ENDBRANCH   2   3
ENDBRANCH   1   2
BRANCH   1  72
ATOM     72  C   UNL A   1      46.025  21.024  24.959  1.00  0.00     0.002 C 
BRANCH  72  73
ATOM     73  C   UNL A   1      45.579  22.462  25.235  1.00  0.00     0.002 C 
BRANCH  73  74
ATOM     74  C   UNL A   1      46.007  23.036  26.588  1.00  0.00     0.021 C 
BRANCH  74  75
ATOM     75  C   UNL A   1      45.763  24.533  26.752  1.00  0.00     0.116 C 
BRANCH  75  76
ATOM     76  N   UNL A   1      44.619  24.987  25.986  1.00  0.00    -0.351 N 
ATOM     77  C   UNL A   1      44.490  26.141  25.254  1.00  0.00     0.269 C 
ATOM     78  H   UNL A   1      43.835  24.392  25.990  1.00  0.00     0.163 HD
ATOM     79  O   UNL A   1      43.368  26.502  24.915  1.00  0.00    -0.268 OA
BRANCH  77  80
ATOM     80  C   UNL A   1      45.667  26.908  24.969  1.00  0.00     0.126 A 
ATOM     81  N   UNL A   1      45.652  28.288  24.899  1.00  0.00    -0.272 N 
ATOM     82  C   UNL A   1      46.966  26.577  24.683  1.00  0.00     0.006 A 
ATOM     83  N   UNL A   1      46.882  28.852  24.758  1.00  0.00    -0.180 NA
ATOM     84  H   UNL A   1      44.824  28.818  24.947  1.00  0.00     0.190 HD
ATOM     85  C   UNL A   1      47.655  27.786  24.613  1.00  0.00     0.066 A 
ATOM     86  C   UNL A   1      47.869  25.428  24.486  1.00  0.00     0.040 C 
ATOM     87  C   UNL A   1      49.108  27.613  24.435  1.00  0.00     0.059 C 
ATOM     88  C   UNL A   1      49.266  26.085  24.741  1.00  0.00     0.011 C 
ENDBRANCH  77  80
ENDBRANCH  75  76
ENDBRANCH  74  75
ENDBRANCH  73  74
ENDBRANCH  72  73
ENDBRANCH   1  72
TORSDOF 13
ENDMDL
MODEL 2
REMARK VINA RESULT:     -10.5      4.231      9.342
REMARK SMILES O=C(NCCCCCCNC(=O)c1[nH]nc2c1CCC2)c1ccc(-c2c3nc(c(-c4c(F)c(F)c(F)c(F)c4F)c4ccc([nH]4)c(-c4c(F)c(F)c(F)c(F)c4F)c4nc(c(-c5c(F)c(F)c(F)c(F)c5F)c5ccc2[nH]5)C=C4)C=C3)cc1
REMARK SMILES IDX 5 1 4 2 3 3 1 4 2 5 21 7 22 8 83 9 23 10 82 11 24 12 25 13
REMARK SMILES IDX 26 14 76 15 27 16 81 17 75 18 77 19 28 20 80 21 74 22 73 23
REMARK SMILES IDX 29 25 61 26 41 27 60 28 42 29 45 30 59 31 78 32 43 33 44 34
REMARK SMILES IDX 58 36 79 37 46 38 30 39 31 40 39 41 32 42 33 43 37 44 40 45
REMARK SMILES IDX 34 46 35 47 38 48 36 49 62 50 63 51 71 52 64 53 65 54 69 55
REMARK SMILES IDX 72 56 66 57 67 58 70 59 68 60 47 61 48 62 56 63 49 64 50 65
REMARK SMILES IDX 54 66 57 67 51 68 52 69 55 70 53 71 6 72 7 73 8 74 9 75
REMARK SMILES IDX 10 76 11 77 12 79 13 80 14 81 17 82 15 83 16 85 18 86 20 87
REMARK SMILES IDX 19 88
REMARK H PARENT 3 6 77 24 45 35 10 78 14 84
REMARK Flexibility Score: inf
ROOT
ATOM      1  C   UNL A   1      36.922  22.207  23.939  1.00  0.00     0.021 C 
ENDROOT
BRANCH   1   2
ATOM      2  C   UNL A   1      37.256  22.090  25.426  1.00  0.00     0.116 C 
BRANCH   2   3
ATOM      3  N   UNL A   1      38.509  21.426  25.708  1.00  0.00    -0.352 N 
ATOM      4  O   UNL A   1      40.448  20.842  26.590  1.00  0.00    -0.269 OA
ATOM      5  C   UNL A   1      39.616  21.740  26.442  1.00  0.00     0.251 C 
ATOM      6  H   UNL A   1      38.580  20.546  25.270  1.00  0.00     0.163 HD
BRANCH   5   7
ATOM      7  C   UNL A   1      39.918  23.088  26.990  1.00  0.00     0.039 A 
ATOM      8  C   UNL A   1      39.172  24.248  26.778  1.00  0.00     0.014 A 
ATOM      9  C   UNL A   1      41.092  23.173  27.765  1.00  0.00     0.014 A 
ATOM     10  C   UNL A   1      39.635  25.477  27.239  1.00  0.00     0.010 A 
ATOM     11  C   UNL A   1      41.553  24.392  28.238  1.00  0.00     0.010 A 
ATOM     12  C   UNL A   1      40.838  25.549  27.943  1.00  0.00    -0.014 A 
BRANCH  12  13
ATOM     13  C   UNL A   1      41.212  26.822  28.555  1.00  0.00     0.031 A 
ATOM     14  C   UNL A   1      42.432  27.424  27.950  1.00  0.00     0.074 A 
ATOM     15  C   UNL A   1      40.436  27.466  29.451  1.00  0.00     0.049 A 
ATOM     16  N   UNL A   1      43.551  27.713  28.530  1.00  0.00    -0.248 NA
ATOM     17  C   UNL A   1      42.464  27.594  26.485  1.00  0.00     0.031 C 
ATOM     18  C   UNL A   1      39.090  27.083  29.885  1.00  0.00     0.029 A 
ATOM     19  N   UNL A   1      40.628  28.662  30.083  1.00  0.00    -0.354 N 
ATOM     20  C   UNL A   1      44.354  28.289  27.544  1.00  0.00     0.074 A 
ATOM     21  C   UNL A   1      43.713  28.016  26.289  1.00  0.00     0.031 C 
ATOM     22  C   UNL A   1      38.506  28.130  30.510  1.00  0.00     0.029 A 
ATOM     23  C   UNL A   1      39.468  29.213  30.620  1.00  0.00     0.049 A 
ATOM     24  H   UNL A   1      41.510  29.096  30.151  1.00  0.00     0.167 HD
ATOM     25  C   UNL A   1      45.309  29.199  27.880  1.00  0.00     0.037 A 
ATOM     26  C   UNL A   1      39.291  30.487  31.058  1.00  0.00     0.037 A 
ATOM     27  C   UNL A   1      45.656  29.073  29.276  1.00  0.00     0.049 A 
ATOM     28  C   UNL A   1      40.633  31.062  31.302  1.00  0.00     0.074 A 
ATOM     29  C   UNL A   1      46.212  28.105  30.086  1.00  0.00     0.029 A 
ATOM     30  N   UNL A   1      45.083  29.989  30.116  1.00  0.00    -0.354 N 
ATOM     31  N   UNL A   1      41.425  30.686  32.264  1.00  0.00    -0.248 NA
ATOM     32  C   UNL A   1      41.267  31.806  30.225  1.00  0.00     0.031 C 
ATOM     33  C   UNL A   1      45.605  28.287  31.367  1.00  0.00     0.029 A 
ATOM     34  C   UNL A   1      44.750  29.386  31.292  1.00  0.00     0.049 A 
ATOM     35  H   UNL A   1      44.934  30.939  29.905  1.00  0.00     0.167 HD
ATOM     36  C   UNL A   1      42.691  30.729  31.705  1.00  0.00     0.074 A 
ATOM     37  C   UNL A   1      42.546  31.559  30.512  1.00  0.00     0.031 C 
ATOM     38  C   UNL A   1      43.646  29.838  32.106  1.00  0.00     0.037 A 
BRANCH  25  39
ATOM     39  C   UNL A   1      45.509  30.521  27.140  1.00  0.00     0.064 A 
ATOM     40  C   UNL A   1      46.834  30.939  26.878  1.00  0.00     0.173 A 
ATOM     41  C   UNL A   1      44.534  31.537  27.027  1.00  0.00     0.173 A 
ATOM     42  F   UNL A   1      47.850  30.063  26.927  1.00  0.00    -0.203 F 
ATOM     43  C   UNL A   1      47.167  32.284  26.694  1.00  0.00     0.198 A 
ATOM     44  C   UNL A   1      44.866  32.872  26.798  1.00  0.00     0.198 A 
ATOM     45  F   UNL A   1      43.232  31.319  27.229  1.00  0.00    -0.203 F 
ATOM     46  F   UNL A   1      48.455  32.646  26.627  1.00  0.00    -0.200 F 
ATOM     47  C   UNL A   1      46.184  33.253  26.677  1.00  0.00     0.200 A 
ATOM     48  F   UNL A   1      43.895  33.798  26.788  1.00  0.00    -0.200 F 
ATOM     49  F   UNL A   1      46.503  34.550  26.593  1.00  0.00    -0.200 F 
ENDBRANCH  25  39
BRANCH  26  50
ATOM     50  C   UNL A   1      38.076  31.342  31.004  1.00  0.00     0.064 A 
ATOM     51  C   UNL A   1      37.504  31.716  29.774  1.00  0.00     0.173 A 
ATOM     52  C   UNL A   1      37.287  31.568  32.148  1.00  0.00     0.173 A 
ATOM     53  F   UNL A   1      38.161  31.493  28.626  1.00  0.00    -0.203 F 
ATOM     54  C   UNL A   1      36.214  32.255  29.694  1.00  0.00     0.198 A 
ATOM     55  C   UNL A   1      36.004  32.114  32.068  1.00  0.00     0.198 A 
ATOM     56  F   UNL A   1      37.702  31.171  33.359  1.00  0.00    -0.203 F 
ATOM     57  F   UNL A   1      35.677  32.534  28.497  1.00  0.00    -0.200 F 
ATOM     58  C   UNL A   1      35.462  32.444  30.840  1.00  0.00     0.200 A 
ATOM     59  F   UNL A   1      35.273  32.255  33.183  1.00  0.00    -0.200 F 
ATOM     60  F   UNL A   1      34.203  32.899  30.761  1.00  0.00    -0.200 F 
ENDBRANCH  26  50
BRANCH  38  61
ATOM     61  C   UNL A   1      43.425  29.132  33.411  1.00  0.00     0.064 A 
ATOM     62  C   UNL A   1      42.660  27.965  33.567  1.00  0.00     0.173 A 
ATOM     63  C   UNL A   1      44.105  29.618  34.536  1.00  0.00     0.173 A 
ATOM     64  F   UNL A   1      42.061  27.384  32.520  1.00  0.00    -0.203 F 
ATOM     65  C   UNL A   1      42.541  27.346  34.810  1.00  0.00     0.198 A 
ATOM     66  C   UNL A   1      44.019  28.975  35.764  1.00  0.00     0.198 A 
ATOM     67  F   UNL A   1      44.891  30.702  34.430  1.00  0.00    -0.203 F 
ATOM     68  F   UNL A   1      41.787  26.246  34.943  1.00  0.00    -0.200 F 
ATOM     69  C   UNL A   1      43.225  27.849  35.905  1.00  0.00     0.200 A 
ATOM     70  F   UNL A   1      44.722  29.436  36.807  1.00  0.00    -0.200 F 
ATOM     71  F   UNL A   1      43.141  27.232  37.093  1.00  0.00    -0.200 F 
ENDBRANCH  38  61
ENDBRANCH  12  13
ENDBRANCH   5   7
ENDBRANCH   2   3
ENDBRANCH   1   2
BRANCH   1  72
ATOM     72  C   UNL A   1      35.578  22.877  23.631  1.00  0.00     0.002 C 
BRANCH  72  73
ATOM     73  C   UNL A   1      34.421  22.508  24.563  1.00  0.00     0.002 C 
BRANCH  73  74
ATOM     74  C   UNL A   1      33.246  21.788  23.900  1.00  0.00     0.021 C 
BRANCH  74  75
ATOM     75  C   UNL A   1      31.929  21.875  24.666  1.00  0.00     0.116 C 
BRANCH  75  76
ATOM     76  N   UNL A   1      32.126  21.792  26.100  1.00  0.00    -0.351 N 
ATOM     77  C   UNL A   1      32.058  22.802  27.028  1.00  0.00     0.269 C 
ATOM     78  H   UNL A   1      32.334  20.898  26.455  1.00  0.00     0.163 HD
ATOM     79  O   UNL A   1      32.533  22.612  28.142  1.00  0.00    -0.268 OA
BRANCH  77  80
ATOM     80  C   UNL A   1      31.488  24.057  26.635  1.00  0.00     0.126 A 
ATOM     81  N   UNL A   1      30.124  24.267  26.581  1.00  0.00    -0.272 N 
ATOM     82  C   UNL A   1      32.022  25.249  26.216  1.00  0.00     0.006 A 
ATOM     83  N   UNL A   1      29.768  25.555  26.324  1.00  0.00    -0.180 NA
ATOM     84  H   UNL A   1      29.465  23.548  26.718  1.00  0.00     0.190 HD
ATOM     85  C   UNL A   1      30.942  26.120  26.090  1.00  0.00     0.066 A 
ATOM     86  C   UNL A   1      33.299  25.923  25.916  1.00  0.00     0.040 C 
ATOM     87  C   UNL A   1      31.348  27.500  25.765  1.00  0.00     0.059 C 
ATOM     88  C   UNL A   1      32.889  27.429  26.037  1.00  0.00     0.011 C 
ENDBRANCH  77  80
ENDBRANCH  75  76
ENDBRANCH  74  75
ENDBRANCH  73  74
ENDBRANCH  72  73
ENDBRANCH   1  72
TORSDOF 13
ENDMDL
MODEL 3
REMARK VINA RESULT:     -10.5      3.179      8.282
REMARK SMILES O=C(NCCCCCCNC(=O)c1[nH]nc2c1CCC2)c1ccc(-c2c3nc(c(-c4c(F)c(F)c(F)c(F)c4F)c4ccc([nH]4)c(-c4c(F)c(F)c(F)c(F)c4F)c4nc(c(-c5c(F)c(F)c(F)c(F)c5F)c5ccc2[nH]5)C=C4)C=C3)cc1
REMARK SMILES IDX 5 1 4 2 3 3 1 4 2 5 21 7 22 8 83 9 23 10 82 11 24 12 25 13
REMARK SMILES IDX 26 14 76 15 27 16 81 17 75 18 77 19 28 20 80 21 74 22 73 23
REMARK SMILES IDX 29 25 61 26 41 27 60 28 42 29 45 30 59 31 78 32 43 33 44 34
REMARK SMILES IDX 58 36 79 37 46 38 30 39 31 40 39 41 32 42 33 43 37 44 40 45
REMARK SMILES IDX 34 46 35 47 38 48 36 49 62 50 63 51 71 52 64 53 65 54 69 55
REMARK SMILES IDX 72 56 66 57 67 58 70 59 68 60 47 61 48 62 56 63 49 64 50 65
REMARK SMILES IDX 54 66 57 67 51 68 52 69 55 70 53 71 6 72 7 73 8 74 9 75
REMARK SMILES IDX 10 76 11 77 12 79 13 80 14 81 17 82 15 83 16 85 18 86 20 87
REMARK SMILES IDX 19 88
REMARK H PARENT 3 6 77 24 45 35 10 78 14 84
REMARK Flexibility Score: inf
ROOT
ATOM      1  C   UNL A   1      41.169  19.839  26.183  1.00  0.00     0.021 C 
ENDROOT
BRANCH   1   2
ATOM      2  C   UNL A   1      42.575  19.245  26.109  1.00  0.00     0.116 C 
BRANCH   2   3
ATOM      3  N   UNL A   1      43.360  19.706  24.985  1.00  0.00    -0.352 N 
ATOM      4  O   UNL A   1      44.759  20.823  23.690  1.00  0.00    -0.269 OA
ATOM      5  C   UNL A   1      44.062  20.843  24.707  1.00  0.00     0.251 C 
ATOM      6  H   UNL A   1      43.397  19.048  24.252  1.00  0.00     0.163 HD
BRANCH   5   7
ATOM      7  C   UNL A   1      43.976  22.106  25.486  1.00  0.00     0.039 A 
ATOM      8  C   UNL A   1      44.710  22.417  26.632  1.00  0.00     0.014 A 
ATOM      9  C   UNL A   1      43.034  23.041  25.016  1.00  0.00     0.014 A 
ATOM     10  C   UNL A   1      44.442  23.580  27.346  1.00  0.00     0.010 A 
ATOM     11  C   UNL A   1      42.770  24.209  25.715  1.00  0.00     0.010 A 
ATOM     12  C   UNL A   1      43.453  24.459  26.901  1.00  0.00    -0.014 A 
BRANCH  12  13
ATOM     13  C   UNL A   1      43.311  25.747  27.576  1.00  0.00     0.031 A 
ATOM     14  C   UNL A   1      44.349  26.735  27.170  1.00  0.00     0.074 A 
ATOM     15  C   UNL A   1      42.251  26.062  28.348  1.00  0.00     0.049 A 
ATOM     16  N   UNL A   1      45.223  27.326  27.918  1.00  0.00    -0.248 NA
ATOM     17  C   UNL A   1      44.532  26.992  25.730  1.00  0.00     0.031 C 
ATOM     18  C   UNL A   1      41.050  25.252  28.568  1.00  0.00     0.029 A 
ATOM     19  N   UNL A   1      41.960  27.219  29.014  1.00  0.00    -0.354 N 
ATOM     20  C   UNL A   1      45.931  28.181  27.073  1.00  0.00     0.074 A 
ATOM     21  C   UNL A   1      45.596  27.795  25.731  1.00  0.00     0.031 C 
ATOM     22  C   UNL A   1      40.080  26.025  29.105  1.00  0.00     0.029 A 
ATOM     23  C   UNL A   1      40.621  27.346  29.373  1.00  0.00     0.049 A 
ATOM     24  H   UNL A   1      42.639  27.903  29.221  1.00  0.00     0.167 HD
ATOM     25  C   UNL A   1      46.489  29.324  27.560  1.00  0.00     0.037 A 
ATOM     26  C   UNL A   1      39.988  28.473  29.792  1.00  0.00     0.037 A 
ATOM     27  C   UNL A   1      46.656  29.231  28.991  1.00  0.00     0.049 A 
ATOM     28  C   UNL A   1      41.027  29.425  30.244  1.00  0.00     0.074 A 
ATOM     29  C   UNL A   1      47.370  28.441  29.867  1.00  0.00     0.029 A 
ATOM     30  N   UNL A   1      45.708  29.871  29.743  1.00  0.00    -0.354 N 
ATOM     31  N   UNL A   1      41.753  29.261  31.312  1.00  0.00    -0.248 NA
ATOM     32  C   UNL A   1      41.537  30.391  29.284  1.00  0.00     0.031 C 
ATOM     33  C   UNL A   1      46.562  28.349  31.042  1.00  0.00     0.029 A 
ATOM     34  C   UNL A   1      45.421  29.127  30.848  1.00  0.00     0.049 A 
ATOM     35  H   UNL A   1      45.296  30.737  29.521  1.00  0.00     0.167 HD
ATOM     36  C   UNL A   1      43.005  29.731  30.953  1.00  0.00     0.074 A 
ATOM     37  C   UNL A   1      42.774  30.541  29.761  1.00  0.00     0.031 C 
ATOM     38  C   UNL A   1      44.127  29.162  31.487  1.00  0.00     0.037 A 
BRANCH  25  39
ATOM     39  C   UNL A   1      46.360  30.682  26.872  1.00  0.00     0.064 A 
ATOM     40  C   UNL A   1      47.508  31.507  26.816  1.00  0.00     0.173 A 
ATOM     41  C   UNL A   1      45.139  31.349  26.626  1.00  0.00     0.173 A 
ATOM     42  F   UNL A   1      48.732  30.990  27.006  1.00  0.00    -0.203 F 
ATOM     43  C   UNL A   1      47.419  32.897  26.698  1.00  0.00     0.198 A 
ATOM     44  C   UNL A   1      45.060  32.731  26.463  1.00  0.00     0.198 A 
ATOM     45  F   UNL A   1      43.958  30.724  26.629  1.00  0.00    -0.203 F 
ATOM     46  F   UNL A   1      48.523  33.646  26.828  1.00  0.00    -0.200 F 
ATOM     47  C   UNL A   1      46.192  33.511  26.546  1.00  0.00     0.200 A 
ATOM     48  F   UNL A   1      43.857  33.307  26.319  1.00  0.00    -0.200 F 
ATOM     49  F   UNL A   1      46.093  34.845  26.524  1.00  0.00    -0.200 F 
ENDBRANCH  25  39
BRANCH  26  50
ATOM     50  C   UNL A   1      38.584  28.905  29.560  1.00  0.00     0.064 A 
ATOM     51  C   UNL A   1      37.741  29.247  30.634  1.00  0.00     0.173 A 
ATOM     52  C   UNL A   1      38.132  29.270  28.277  1.00  0.00     0.173 A 
ATOM     53  F   UNL A   1      38.111  28.983  31.895  1.00  0.00    -0.203 F 
ATOM     54  C   UNL A   1      36.536  29.933  30.436  1.00  0.00     0.198 A 
ATOM     55  C   UNL A   1      36.927  29.947  28.081  1.00  0.00     0.198 A 
ATOM     56  F   UNL A   1      38.896  29.068  27.195  1.00  0.00    -0.203 F 
ATOM     57  F   UNL A   1      35.794  30.302  31.490  1.00  0.00    -0.200 F 
ATOM     58  C   UNL A   1      36.136  30.292  29.161  1.00  0.00     0.200 A 
ATOM     59  F   UNL A   1      36.571  30.321  26.843  1.00  0.00    -0.200 F 
ATOM     60  F   UNL A   1      35.016  31.005  28.974  1.00  0.00    -0.200 F 
ENDBRANCH  26  50
BRANCH  38  61
ATOM     61  C   UNL A   1      43.960  28.348  32.736  1.00  0.00     0.064 A 
ATOM     62  C   UNL A   1      43.739  26.961  32.760  1.00  0.00     0.173 A 
ATOM     63  C   UNL A   1      44.126  29.001  33.965  1.00  0.00     0.173 A 
ATOM     64  F   UNL A   1      43.668  26.251  31.627  1.00  0.00    -0.203 F 
ATOM     65  C   UNL A   1      43.639  26.271  33.967  1.00  0.00     0.198 A 
ATOM     66  C   UNL A   1      44.068  28.304  35.165  1.00  0.00     0.198 A 
ATOM     67  F   UNL A   1      44.390  30.317  33.996  1.00  0.00    -0.203 F 
ATOM     68  F   UNL A   1      43.405  24.952  33.970  1.00  0.00    -0.200 F 
ATOM     69  C   UNL A   1      43.808  26.943  35.168  1.00  0.00     0.200 A 
ATOM     70  F   UNL A   1      44.283  28.949  36.320  1.00  0.00    -0.200 F 
ATOM     71  F   UNL A   1      43.749  26.274  36.328  1.00  0.00    -0.200 F 
ENDBRANCH  38  61
ENDBRANCH  12  13
ENDBRANCH   5   7
ENDBRANCH   2   3
ENDBRANCH   1   2
BRANCH   1  72
ATOM     72  C   UNL A   1      40.968  20.885  27.286  1.00  0.00     0.002 C 
BRANCH  72  73
ATOM     73  C   UNL A   1      40.009  22.030  26.948  1.00  0.00     0.002 C 
BRANCH  73  74
ATOM     74  C   UNL A   1      38.904  21.690  25.946  1.00  0.00     0.021 C 
BRANCH  74  75
ATOM     75  C   UNL A   1      37.869  22.791  25.738  1.00  0.00     0.116 C 
BRANCH  75  76
ATOM     76  N   UNL A   1      37.625  23.053  24.333  1.00  0.00    -0.351 N 
ATOM     77  C   UNL A   1      36.422  23.088  23.671  1.00  0.00     0.269 C 
ATOM     78  H   UNL A   1      38.422  23.229  23.783  1.00  0.00     0.163 HD
ATOM     79  O   UNL A   1      36.422  23.035  22.446  1.00  0.00    -0.268 OA
BRANCH  77  80
ATOM     80  C   UNL A   1      35.215  23.125  24.443  1.00  0.00     0.126 A 
ATOM     81  N   UNL A   1      34.605  21.980  24.918  1.00  0.00    -0.272 N 
ATOM     82  C   UNL A   1      34.388  24.136  24.860  1.00  0.00     0.006 A 
ATOM     83  N   UNL A   1      33.551  22.213  25.746  1.00  0.00    -0.180 NA
ATOM     84  H   UNL A   1      34.907  21.073  24.680  1.00  0.00     0.190 HD
ATOM     85  C   UNL A   1      33.435  23.530  25.675  1.00  0.00     0.066 A 
ATOM     86  C   UNL A   1      34.194  25.597  24.794  1.00  0.00     0.040 C 
ATOM     87  C   UNL A   1      32.527  24.497  26.319  1.00  0.00     0.059 C 
ATOM     88  C   UNL A   1      33.278  25.843  26.038  1.00  0.00     0.011 C 
ENDBRANCH  77  80
ENDBRANCH  75  76
ENDBRANCH  74  75
ENDBRANCH  73  74
ENDBRANCH  72  73
ENDBRANCH   1  72
TORSDOF 13
ENDMDL
