MODEL 1
REMARK VINA RESULT:     -12.0      0.000      0.000
REMARK SMILES O=C(NCc1ccc(C(=O)NCCCCCCNC(=O)c2ccc(-c3c4nc(c(-c5c(F)c(F)c(F)c(F)c5F)c5ccc([nH]5)c(-c5c(F)c(F)c(F)c(F)c5F)c5nc(c(-c6c(F)c(F)c(F)c(F)c6F)c6ccc3[nH]6)C=C5)C=C4)cc2)cc1)Nc1ccccc1Br
REMARK SMILES IDX 14 1 13 2 12 3 11 4 9 5 10 6 8 8 5 9 6 10 85 11 7 12 84 13
REMARK SMILES IDX 4 14 3 15 1 16 2 17 86 18 87 21 88 22 92 23 89 24 91 25
REMARK SMILES IDX 93 26 90 27 15 28 16 29 17 30 18 31 19 32 20 34 21 35 22 36
REMARK SMILES IDX 83 37 23 38 82 39 24 40 25 41 26 42 76 43 27 44 81 45 75 46
REMARK SMILES IDX 77 47 28 48 80 49 74 50 73 51 29 53 61 54 41 55 60 56 42 57
REMARK SMILES IDX 45 58 59 59 78 60 43 61 44 62 58 64 79 65 46 66 30 67 31 68
REMARK SMILES IDX 39 69 32 70 33 71 37 72 40 73 34 74 35 75 38 76 36 77 62 78
REMARK SMILES IDX 63 79 71 80 64 81 65 82 69 83 72 84 66 85 67 86 70 87 68 88
REMARK SMILES IDX 47 89 48 90 56 91 49 92 50 93 54 94 57 95 51 96 52 97 55 98
REMARK SMILES IDX 53 99
REMARK H PARENT 11 7 3 19 86 20 18 33 77 52 45 63
REMARK Flexibility Score: inf
ROOT
ATOM      1  C   UNL A   1      35.053  32.780  29.017  1.00  0.00     0.002 C 
ENDROOT
BRANCH   1   2
ATOM      2  C   UNL A   1      35.588  31.665  28.107  1.00  0.00     0.021 C 
BRANCH   2   3
ATOM      3  C   UNL A   1      34.491  30.741  27.573  1.00  0.00     0.116 C 
BRANCH   3   4
ATOM      4  N   UNL A   1      33.292  31.504  27.292  1.00  0.00    -0.352 N 
ATOM      5  C   UNL A   1      32.079  31.152  26.760  1.00  0.00     0.251 C 
ATOM      6  O   UNL A   1      31.225  32.033  26.649  1.00  0.00    -0.269 OA
ATOM      7  H   UNL A   1      33.361  32.457  27.529  1.00  0.00     0.163 HD
BRANCH   5   8
ATOM      8  C   UNL A   1      31.731  29.757  26.378  1.00  0.00     0.039 A 
ATOM      9  C   UNL A   1      31.149  27.050  25.841  1.00  0.00    -0.029 A 
ATOM     10  C   UNL A   1      31.429  27.467  27.146  1.00  0.00     0.006 A 
ATOM     11  C   UNL A   1      31.111  28.006  24.817  1.00  0.00     0.006 A 
ATOM     12  C   UNL A   1      31.722  28.807  27.409  1.00  0.00     0.014 A 
ATOM     13  C   UNL A   1      31.375  29.353  25.090  1.00  0.00     0.014 A 
BRANCH   9  14
ATOM     14  C   UNL A   1      30.838  25.607  25.547  1.00  0.00     0.153 C 
BRANCH  14  15
ATOM     15  N   UNL A   1      31.234  24.767  26.654  1.00  0.00    -0.334 N 
ATOM     16  O   UNL A   1      32.009  22.995  27.742  1.00  0.00    -0.248 OA
ATOM     17  C   UNL A   1      31.901  23.584  26.672  1.00  0.00     0.319 C 
ATOM     18  N   UNL A   1      32.453  23.184  25.486  1.00  0.00    -0.307 N 
ATOM     19  H   UNL A   1      30.978  25.109  27.541  1.00  0.00     0.165 HD
ATOM     20  H   UNL A   1      32.431  23.820  24.735  1.00  0.00     0.171 HD
BRANCH  18  21
ATOM     21  C   UNL A   1      33.055  21.924  25.262  1.00  0.00     0.057 A 
ATOM     22  C   UNL A   1      32.171  20.862  25.014  1.00  0.00     0.027 A 
ATOM     23  C   UNL A   1      34.436  21.661  25.279  1.00  0.00     0.041 A 
ATOM     24  C   UNL A   1      32.648  19.590  24.691  1.00  0.00     0.002 A 
ATOM     25  C   UNL A   1      34.909  20.382  24.947  1.00  0.00     0.018 A 
ATOM     26  Br  UNL A   1      35.736  22.878  25.953  1.00  0.00    -0.049 Br
ATOM     27  C   UNL A   1      34.018  19.355  24.636  1.00  0.00     0.001 A 
ENDBRANCH  18  21
ENDBRANCH  14  15
ENDBRANCH   9  14
ENDBRANCH   5   8
ENDBRANCH   3   4
ENDBRANCH   2   3
ENDBRANCH   1   2
BRANCH   1  28
ATOM     28  C   UNL A   1      35.408  34.202  28.569  1.00  0.00     0.002 C 
BRANCH  28  29
ATOM     29  C   UNL A   1      34.290  35.234  28.742  1.00  0.00     0.021 C 
BRANCH  29  30
ATOM     30  C   UNL A   1      33.032  34.689  29.411  1.00  0.00     0.116 C 
BRANCH  30  31
ATOM     31  N   UNL A   1      32.565  35.563  30.473  1.00  0.00    -0.352 N 
ATOM     32  C   UNL A   1      32.951  35.615  31.790  1.00  0.00     0.251 C 
ATOM     33  H   UNL A   1      31.872  36.212  30.212  1.00  0.00     0.163 HD
ATOM     34  O   UNL A   1      32.297  36.259  32.603  1.00  0.00    -0.269 OA
BRANCH  32  35
ATOM     35  C   UNL A   1      34.155  34.881  32.231  1.00  0.00     0.039 A 
ATOM     36  C   UNL A   1      34.018  33.568  32.688  1.00  0.00     0.014 A 
ATOM     37  C   UNL A   1      35.411  35.494  32.215  1.00  0.00     0.014 A 
ATOM     38  C   UNL A   1      35.150  32.850  33.079  1.00  0.00     0.010 A 
ATOM     39  C   UNL A   1      36.546  34.756  32.542  1.00  0.00     0.010 A 
ATOM     40  C   UNL A   1      36.425  33.430  32.983  1.00  0.00    -0.014 A 
BRANCH  40  41
ATOM     41  C   UNL A   1      37.646  32.666  33.343  1.00  0.00     0.031 A 
ATOM     42  C   UNL A   1      38.366  32.959  34.629  1.00  0.00     0.074 A 
ATOM     43  C   UNL A   1      38.140  31.758  32.480  1.00  0.00     0.049 A 
ATOM     44  N   UNL A   1      39.485  32.453  35.084  1.00  0.00    -0.248 NA
ATOM     45  C   UNL A   1      37.764  33.973  35.507  1.00  0.00     0.031 C 
ATOM     46  C   UNL A   1      37.555  31.420  31.182  1.00  0.00     0.029 A 
ATOM     47  N   UNL A   1      39.254  30.960  32.560  1.00  0.00    -0.354 N 
ATOM     48  C   UNL A   1      39.726  33.097  36.291  1.00  0.00     0.074 A 
ATOM     49  C   UNL A   1      38.667  34.066  36.472  1.00  0.00     0.031 C 
ATOM     50  C   UNL A   1      38.303  30.472  30.596  1.00  0.00     0.029 A 
ATOM     51  C   UNL A   1      39.440  30.162  31.459  1.00  0.00     0.049 A 
ATOM     52  H   UNL A   1      39.862  30.961  33.334  1.00  0.00     0.167 HD
ATOM     53  C   UNL A   1      40.729  32.884  37.176  1.00  0.00     0.037 A 
ATOM     54  C   UNL A   1      40.420  29.285  31.175  1.00  0.00     0.037 A 
ATOM     55  C   UNL A   1      41.766  31.902  37.003  1.00  0.00     0.049 A 
ATOM     56  C   UNL A   1      41.524  29.068  32.175  1.00  0.00     0.074 A 
ATOM     57  C   UNL A   1      42.791  31.566  37.869  1.00  0.00     0.029 A 
ATOM     58  N   UNL A   1      41.910  31.096  35.882  1.00  0.00    -0.354 N 
ATOM     59  N   UNL A   1      41.705  29.636  33.342  1.00  0.00    -0.248 NA
ATOM     60  C   UNL A   1      42.555  28.084  31.819  1.00  0.00     0.031 C 
ATOM     61  C   UNL A   1      43.582  30.590  37.254  1.00  0.00     0.029 A 
ATOM     62  C   UNL A   1      43.021  30.280  36.026  1.00  0.00     0.049 A 
ATOM     63  H   UNL A   1      41.311  31.104  35.100  1.00  0.00     0.167 HD
ATOM     64  C   UNL A   1      42.851  29.060  33.872  1.00  0.00     0.074 A 
ATOM     65  C   UNL A   1      43.316  28.087  32.905  1.00  0.00     0.031 C 
ATOM     66  C   UNL A   1      43.464  29.313  35.055  1.00  0.00     0.037 A 
BRANCH  53  67
ATOM     67  C   UNL A   1      40.749  33.729  38.417  1.00  0.00     0.064 A 
ATOM     68  C   UNL A   1      40.004  33.383  39.556  1.00  0.00     0.173 A 
ATOM     69  C   UNL A   1      41.551  34.878  38.483  1.00  0.00     0.173 A 
ATOM     70  F   UNL A   1      39.213  32.301  39.542  1.00  0.00    -0.203 F 
ATOM     71  C   UNL A   1      40.037  34.174  40.701  1.00  0.00     0.198 A 
ATOM     72  C   UNL A   1      41.605  35.650  39.641  1.00  0.00     0.198 A 
ATOM     73  F   UNL A   1      42.288  35.252  37.426  1.00  0.00    -0.203 F 
ATOM     74  F   UNL A   1      39.278  33.852  41.757  1.00  0.00    -0.200 F 
ATOM     75  C   UNL A   1      40.842  35.303  40.746  1.00  0.00     0.200 A 
ATOM     76  F   UNL A   1      42.394  36.733  39.687  1.00  0.00    -0.200 F 
ATOM     77  F   UNL A   1      40.878  36.059  41.852  1.00  0.00    -0.200 F 
ENDBRANCH  53  67
BRANCH  54  78
ATOM     78  C   UNL A   1      40.390  28.527  29.897  1.00  0.00     0.064 A 
ATOM     79  C   UNL A   1      41.077  28.995  28.768  1.00  0.00     0.173 A 
ATOM     80  C   UNL A   1      39.678  27.324  29.777  1.00  0.00     0.173 A 
ATOM     81  F   UNL A   1      41.754  30.150  28.828  1.00  0.00    -0.203 F 
ATOM     82  C   UNL A   1      41.036  28.299  27.561  1.00  0.00     0.198 A 
ATOM     83  C   UNL A   1      39.661  26.616  28.577  1.00  0.00     0.198 A 
ATOM     84  F   UNL A   1      39.009  26.831  30.829  1.00  0.00    -0.203 F 
ATOM     85  F   UNL A   1      41.665  28.791  26.485  1.00  0.00    -0.200 F 
ATOM     86  C   UNL A   1      40.333  27.107  27.468  1.00  0.00     0.200 A 
ATOM     87  F   UNL A   1      38.993  25.457  28.496  1.00  0.00    -0.200 F 
ATOM     88  F   UNL A   1      40.298  26.436  26.309  1.00  0.00    -0.200 F 
ENDBRANCH  54  78
BRANCH  66  89
ATOM     89  C   UNL A   1      44.685  28.503  35.383  1.00  0.00     0.064 A 
ATOM     90  C   UNL A   1      44.597  27.280  36.063  1.00  0.00     0.173 A 
ATOM     91  C   UNL A   1      45.955  28.940  34.977  1.00  0.00     0.173 A 
ATOM     92  F   UNL A   1      43.407  26.828  36.486  1.00  0.00    -0.203 F 
ATOM     93  C   UNL A   1      45.739  26.535  36.346  1.00  0.00     0.198 A 
ATOM     94  C   UNL A   1      47.091  28.179  35.235  1.00  0.00     0.198 A 
ATOM     95  F   UNL A   1      46.092  30.102  34.319  1.00  0.00    -0.203 F 
ATOM     96  F   UNL A   1      45.636  25.392  37.038  1.00  0.00    -0.200 F 
ATOM     97  C   UNL A   1      46.983  26.981  35.925  1.00  0.00     0.200 A 
ATOM     98  F   UNL A   1      48.290  28.605  34.816  1.00  0.00    -0.200 F 
ATOM     99  F   UNL A   1      48.080  26.260  36.192  1.00  0.00    -0.200 F 
ENDBRANCH  66  89
ENDBRANCH  40  41
ENDBRANCH  32  35
ENDBRANCH  30  31
ENDBRANCH  29  30
ENDBRANCH  28  29
ENDBRANCH   1  28
TORSDOF 16
ENDMDL
MODEL 2
REMARK VINA RESULT:     -11.9      4.744      8.383
REMARK SMILES O=C(NCc1ccc(C(=O)NCCCCCCNC(=O)c2ccc(-c3c4nc(c(-c5c(F)c(F)c(F)c(F)c5F)c5ccc([nH]5)c(-c5c(F)c(F)c(F)c(F)c5F)c5nc(c(-c6c(F)c(F)c(F)c(F)c6F)c6ccc3[nH]6)C=C5)C=C4)cc2)cc1)Nc1ccccc1Br
REMARK SMILES IDX 14 1 13 2 12 3 11 4 9 5 10 6 8 8 5 9 6 10 85 11 7 12 84 13
REMARK SMILES IDX 4 14 3 15 1 16 2 17 86 18 87 21 88 22 92 23 89 24 91 25
REMARK SMILES IDX 93 26 90 27 15 28 16 29 17 30 18 31 19 32 20 34 21 35 22 36
REMARK SMILES IDX 83 37 23 38 82 39 24 40 25 41 26 42 76 43 27 44 81 45 75 46
REMARK SMILES IDX 77 47 28 48 80 49 74 50 73 51 29 53 61 54 41 55 60 56 42 57
REMARK SMILES IDX 45 58 59 59 78 60 43 61 44 62 58 64 79 65 46 66 30 67 31 68
REMARK SMILES IDX 39 69 32 70 33 71 37 72 40 73 34 74 35 75 38 76 36 77 62 78
REMARK SMILES IDX 63 79 71 80 64 81 65 82 69 83 72 84 66 85 67 86 70 87 68 88
REMARK SMILES IDX 47 89 48 90 56 91 49 92 50 93 54 94 57 95 51 96 52 97 55 98
REMARK SMILES IDX 53 99
REMARK H PARENT 11 7 3 19 86 20 18 33 77 52 45 63
REMARK Flexibility Score: inf
ROOT
ATOM      1  C   UNL A   1      37.623  33.204  30.423  1.00  0.00     0.002 C 
ENDROOT
BRANCH   1   2
ATOM      2  C   UNL A   1      38.249  34.421  31.119  1.00  0.00     0.021 C 
BRANCH   2   3
ATOM      3  C   UNL A   1      39.008  34.063  32.399  1.00  0.00     0.116 C 
BRANCH   3   4
ATOM      4  N   UNL A   1      38.072  33.741  33.457  1.00  0.00    -0.352 N 
ATOM      5  C   UNL A   1      37.856  32.596  34.178  1.00  0.00     0.251 C 
ATOM      6  O   UNL A   1      36.979  32.621  35.043  1.00  0.00    -0.269 OA
ATOM      7  H   UNL A   1      37.478  34.485  33.705  1.00  0.00     0.163 HD
BRANCH   5   8
ATOM      8  C   UNL A   1      38.670  31.362  34.011  1.00  0.00     0.039 A 
ATOM      9  C   UNL A   1      40.379  29.131  33.765  1.00  0.00    -0.029 A 
ATOM     10  C   UNL A   1      40.762  30.233  34.536  1.00  0.00     0.006 A 
ATOM     11  C   UNL A   1      39.114  29.133  33.162  1.00  0.00     0.006 A 
ATOM     12  C   UNL A   1      39.916  31.338  34.653  1.00  0.00     0.014 A 
ATOM     13  C   UNL A   1      38.257  30.230  33.306  1.00  0.00     0.014 A 
BRANCH   9  14
ATOM     14  C   UNL A   1      41.285  27.937  33.629  1.00  0.00     0.153 C 
BRANCH  14  15
ATOM     15  N   UNL A   1      41.153  27.067  34.774  1.00  0.00    -0.334 N 
ATOM     16  O   UNL A   1      41.510  25.342  36.123  1.00  0.00    -0.248 OA
ATOM     17  C   UNL A   1      41.903  26.006  35.170  1.00  0.00     0.319 C 
ATOM     18  N   UNL A   1      43.078  25.813  34.498  1.00  0.00    -0.307 N 
ATOM     19  H   UNL A   1      40.394  27.279  35.365  1.00  0.00     0.165 HD
ATOM     20  H   UNL A   1      43.357  26.507  33.857  1.00  0.00     0.171 HD
BRANCH  18  21
ATOM     21  C   UNL A   1      43.923  24.689  34.657  1.00  0.00     0.057 A 
ATOM     22  C   UNL A   1      43.422  23.476  34.160  1.00  0.00     0.027 A 
ATOM     23  C   UNL A   1      45.187  24.696  35.270  1.00  0.00     0.041 A 
ATOM     24  C   UNL A   1      44.199  22.316  34.179  1.00  0.00     0.002 A 
ATOM     25  C   UNL A   1      45.966  23.528  35.280  1.00  0.00     0.018 A 
ATOM     26  Br  UNL A   1      45.851  26.145  36.311  1.00  0.00    -0.049 Br
ATOM     27  C   UNL A   1      45.480  22.347  34.719  1.00  0.00     0.001 A 
ENDBRANCH  18  21
ENDBRANCH  14  15
ENDBRANCH   9  14
ENDBRANCH   5   8
ENDBRANCH   3   4
ENDBRANCH   2   3
ENDBRANCH   1   2
BRANCH   1  28
ATOM     28  C   UNL A   1      37.294  33.410  28.939  1.00  0.00     0.002 C 
BRANCH  28  29
ATOM     29  C   UNL A   1      35.800  33.464  28.608  1.00  0.00     0.021 C 
BRANCH  29  30
ATOM     30  C   UNL A   1      34.932  32.565  29.482  1.00  0.00     0.116 C 
BRANCH  30  31
ATOM     31  N   UNL A   1      34.214  31.577  28.693  1.00  0.00    -0.352 N 
ATOM     32  C   UNL A   1      34.692  30.457  28.059  1.00  0.00     0.251 C 
ATOM     33  H   UNL A   1      33.247  31.735  28.599  1.00  0.00     0.163 HD
ATOM     34  O   UNL A   1      33.992  29.857  27.250  1.00  0.00    -0.269 OA
BRANCH  32  35
ATOM     35  C   UNL A   1      36.060  29.979  28.345  1.00  0.00     0.039 A 
ATOM     36  C   UNL A   1      37.043  30.114  27.362  1.00  0.00     0.014 A 
ATOM     37  C   UNL A   1      36.366  29.379  29.570  1.00  0.00     0.014 A 
ATOM     38  C   UNL A   1      38.348  29.695  27.627  1.00  0.00     0.010 A 
ATOM     39  C   UNL A   1      37.681  29.023  29.857  1.00  0.00     0.010 A 
ATOM     40  C   UNL A   1      38.683  29.173  28.887  1.00  0.00    -0.014 A 
BRANCH  40  41
ATOM     41  C   UNL A   1      40.075  28.771  29.208  1.00  0.00     0.031 A 
ATOM     42  C   UNL A   1      40.971  29.703  29.973  1.00  0.00     0.074 A 
ATOM     43  C   UNL A   1      40.550  27.597  28.750  1.00  0.00     0.049 A 
ATOM     44  N   UNL A   1      42.235  29.566  30.286  1.00  0.00    -0.248 NA
ATOM     45  C   UNL A   1      40.375  30.970  30.424  1.00  0.00     0.031 C 
ATOM     46  C   UNL A   1      39.790  26.629  27.959  1.00  0.00     0.029 A 
ATOM     47  N   UNL A   1      41.790  27.022  28.877  1.00  0.00    -0.354 N 
ATOM     48  C   UNL A   1      42.587  30.730  30.955  1.00  0.00     0.074 A 
ATOM     49  C   UNL A   1      41.420  31.586  30.958  1.00  0.00     0.031 C 
ATOM     50  C   UNL A   1      40.573  25.573  27.686  1.00  0.00     0.029 A 
ATOM     51  C   UNL A   1      41.899  25.805  28.252  1.00  0.00     0.049 A 
ATOM     52  H   UNL A   1      42.531  27.443  29.370  1.00  0.00     0.167 HD
ATOM     53  C   UNL A   1      43.771  31.048  31.533  1.00  0.00     0.037 A 
ATOM     54  C   UNL A   1      42.953  24.974  28.141  1.00  0.00     0.037 A 
ATOM     55  C   UNL A   1      44.921  30.184  31.548  1.00  0.00     0.049 A 
ATOM     56  C   UNL A   1      44.257  25.352  28.790  1.00  0.00     0.074 A 
ATOM     57  C   UNL A   1      46.146  30.387  32.159  1.00  0.00     0.029 A 
ATOM     58  N   UNL A   1      44.988  28.949  30.920  1.00  0.00    -0.354 N 
ATOM     59  N   UNL A   1      44.558  26.427  29.476  1.00  0.00    -0.248 NA
ATOM     60  C   UNL A   1      45.365  24.397  28.653  1.00  0.00     0.031 C 
ATOM     61  C   UNL A   1      46.969  29.296  31.863  1.00  0.00     0.029 A 
ATOM     62  C   UNL A   1      46.241  28.388  31.110  1.00  0.00     0.049 A 
ATOM     63  H   UNL A   1      44.253  28.531  30.414  1.00  0.00     0.167 HD
ATOM     64  C   UNL A   1      45.877  26.266  29.877  1.00  0.00     0.074 A 
ATOM     65  C   UNL A   1      46.315  24.982  29.368  1.00  0.00     0.031 C 
ATOM     66  C   UNL A   1      46.656  27.106  30.602  1.00  0.00     0.037 A 
BRANCH  53  67
ATOM     67  C   UNL A   1      43.879  32.389  32.200  1.00  0.00     0.064 A 
ATOM     68  C   UNL A   1      43.755  32.531  33.591  1.00  0.00     0.173 A 
ATOM     69  C   UNL A   1      44.145  33.541  31.445  1.00  0.00     0.173 A 
ATOM     70  F   UNL A   1      43.489  31.463  34.358  1.00  0.00    -0.203 F 
ATOM     71  C   UNL A   1      43.862  33.780  34.197  1.00  0.00     0.198 A 
ATOM     72  C   UNL A   1      44.282  34.784  32.057  1.00  0.00     0.198 A 
ATOM     73  F   UNL A   1      44.279  33.462  30.113  1.00  0.00    -0.203 F 
ATOM     74  F   UNL A   1      43.690  33.898  35.520  1.00  0.00    -0.200 F 
ATOM     75  C   UNL A   1      44.133  34.905  33.431  1.00  0.00     0.200 A 
ATOM     76  F   UNL A   1      44.558  35.868  31.317  1.00  0.00    -0.200 F 
ATOM     77  F   UNL A   1      44.244  36.105  34.017  1.00  0.00    -0.200 F 
ENDBRANCH  53  67
BRANCH  54  78
ATOM     78  C   UNL A   1      42.810  23.691  27.405  1.00  0.00     0.064 A 
ATOM     79  C   UNL A   1      42.284  22.556  28.038  1.00  0.00     0.173 A 
ATOM     80  C   UNL A   1      43.194  23.571  26.062  1.00  0.00     0.173 A 
ATOM     81  F   UNL A   1      41.923  22.616  29.328  1.00  0.00    -0.203 F 
ATOM     82  C   UNL A   1      42.166  21.343  27.360  1.00  0.00     0.198 A 
ATOM     83  C   UNL A   1      43.049  22.366  25.378  1.00  0.00     0.198 A 
ATOM     84  F   UNL A   1      43.697  24.630  25.410  1.00  0.00    -0.203 F 
ATOM     85  F   UNL A   1      41.702  20.263  28.001  1.00  0.00    -0.200 F 
ATOM     86  C   UNL A   1      42.543  21.252  26.029  1.00  0.00     0.200 A 
ATOM     87  F   UNL A   1      43.401  22.286  24.087  1.00  0.00    -0.200 F 
ATOM     88  F   UNL A   1      42.426  20.087  25.376  1.00  0.00    -0.200 F 
ENDBRANCH  54  78
BRANCH  66  89
ATOM     89  C   UNL A   1      48.051  26.649  30.916  1.00  0.00     0.064 A 
ATOM     90  C   UNL A   1      48.330  25.844  32.030  1.00  0.00     0.173 A 
ATOM     91  C   UNL A   1      49.117  26.991  30.069  1.00  0.00     0.173 A 
ATOM     92  F   UNL A   1      47.348  25.504  32.879  1.00  0.00    -0.203 F 
ATOM     93  C   UNL A   1      49.628  25.417  32.297  1.00  0.00     0.198 A 
ATOM     94  C   UNL A   1      50.408  26.539  30.323  1.00  0.00     0.198 A 
ATOM     95  F   UNL A   1      48.901  27.755  28.987  1.00  0.00    -0.203 F 
ATOM     96  F   UNL A   1      49.878  24.687  33.393  1.00  0.00    -0.200 F 
ATOM     97  C   UNL A   1      50.664  25.758  31.440  1.00  0.00     0.200 A 
ATOM     98  F   UNL A   1      51.404  26.858  29.486  1.00  0.00    -0.200 F 
ATOM     99  F   UNL A   1      51.911  25.341  31.695  1.00  0.00    -0.200 F 
ENDBRANCH  66  89
ENDBRANCH  40  41
ENDBRANCH  32  35
ENDBRANCH  30  31
ENDBRANCH  29  30
ENDBRANCH  28  29
ENDBRANCH   1  28
TORSDOF 16
ENDMDL
MODEL 3
REMARK VINA RESULT:     -11.9      6.556     12.292
REMARK SMILES O=C(NCc1ccc(C(=O)NCCCCCCNC(=O)c2ccc(-c3c4nc(c(-c5c(F)c(F)c(F)c(F)c5F)c5ccc([nH]5)c(-c5c(F)c(F)c(F)c(F)c5F)c5nc(c(-c6c(F)c(F)c(F)c(F)c6F)c6ccc3[nH]6)C=C5)C=C4)cc2)cc1)Nc1ccccc1Br
REMARK SMILES IDX 14 1 13 2 12 3 11 4 9 5 10 6 8 8 5 9 6 10 85 11 7 12 84 13
REMARK SMILES IDX 4 14 3 15 1 16 2 17 86 18 87 21 88 22 92 23 89 24 91 25
REMARK SMILES IDX 93 26 90 27 15 28 16 29 17 30 18 31 19 32 20 34 21 35 22 36
REMARK SMILES IDX 83 37 23 38 82 39 24 40 25 41 26 42 76 43 27 44 81 45 75 46
REMARK SMILES IDX 77 47 28 48 80 49 74 50 73 51 29 53 61 54 41 55 60 56 42 57
REMARK SMILES IDX 45 58 59 59 78 60 43 61 44 62 58 64 79 65 46 66 30 67 31 68
REMARK SMILES IDX 39 69 32 70 33 71 37 72 40 73 34 74 35 75 38 76 36 77 62 78
REMARK SMILES IDX 63 79 71 80 64 81 65 82 69 83 72 84 66 85 67 86 70 87 68 88
REMARK SMILES IDX 47 89 48 90 56 91 49 92 50 93 54 94 57 95 51 96 52 97 55 98
REMARK SMILES IDX 53 99
REMARK H PARENT 11 7 3 19 86 20 18 33 77 52 45 63
REMARK Flexibility Score: inf
ROOT
ATOM      1  C   UNL A   1      41.365  22.047  26.723  1.00  0.00     0.002 C 
ENDROOT
BRANCH   1   2
ATOM      2  C   UNL A   1      40.130  22.775  27.274  1.00  0.00     0.021 C 
BRANCH   2   3
ATOM      3  C   UNL A   1      38.897  22.640  26.377  1.00  0.00     0.116 C 
BRANCH   3   4
ATOM      4  N   UNL A   1      38.832  21.303  25.821  1.00  0.00    -0.352 N 
ATOM      5  C   UNL A   1      37.878  20.661  25.078  1.00  0.00     0.251 C 
ATOM      6  O   UNL A   1      38.108  19.502  24.728  1.00  0.00    -0.269 OA
ATOM      7  H   UNL A   1      39.625  20.753  26.013  1.00  0.00     0.163 HD
BRANCH   5   8
ATOM      8  C   UNL A   1      36.621  21.315  24.625  1.00  0.00     0.039 A 
ATOM      9  C   UNL A   1      34.356  22.717  23.696  1.00  0.00    -0.029 A 
ATOM     10  C   UNL A   1      35.636  23.080  23.267  1.00  0.00     0.006 A 
ATOM     11  C   UNL A   1      34.214  21.615  24.551  1.00  0.00     0.006 A 
ATOM     12  C   UNL A   1      36.757  22.388  23.732  1.00  0.00     0.014 A 
ATOM     13  C   UNL A   1      35.337  20.905  24.990  1.00  0.00     0.014 A 
BRANCH   9  14
ATOM     14  C   UNL A   1      33.143  23.461  23.206  1.00  0.00     0.153 C 
BRANCH  14  15
ATOM     15  N   UNL A   1      33.535  24.596  22.403  1.00  0.00    -0.334 N 
ATOM     16  O   UNL A   1      33.483  26.632  21.521  1.00  0.00    -0.248 OA
ATOM     17  C   UNL A   1      33.071  25.873  22.392  1.00  0.00     0.319 C 
ATOM     18  N   UNL A   1      32.222  26.216  23.408  1.00  0.00    -0.307 N 
ATOM     19  H   UNL A   1      34.257  24.415  21.759  1.00  0.00     0.165 HD
ATOM     20  H   UNL A   1      32.090  25.563  24.134  1.00  0.00     0.171 HD
BRANCH  18  21
ATOM     21  C   UNL A   1      31.519  27.441  23.492  1.00  0.00     0.057 A 
ATOM     22  C   UNL A   1      30.451  27.593  22.595  1.00  0.00     0.027 A 
ATOM     23  C   UNL A   1      31.811  28.493  24.377  1.00  0.00     0.041 A 
ATOM     24  C   UNL A   1      29.627  28.720  22.642  1.00  0.00     0.002 A 
ATOM     25  C   UNL A   1      30.975  29.620  24.424  1.00  0.00     0.018 A 
ATOM     26  Br  UNL A   1      33.420  28.610  25.387  1.00  0.00    -0.049 Br
ATOM     27  C   UNL A   1      29.877  29.724  23.571  1.00  0.00     0.001 A 
ENDBRANCH  18  21
ENDBRANCH  14  15
ENDBRANCH   9  14
ENDBRANCH   5   8
ENDBRANCH   3   4
ENDBRANCH   2   3
ENDBRANCH   1   2
BRANCH   1  28
ATOM     28  C   UNL A   1      42.043  21.092  27.712  1.00  0.00     0.002 C 
BRANCH  28  29
ATOM     29  C   UNL A   1      42.330  19.690  27.165  1.00  0.00     0.021 C 
BRANCH  29  30
ATOM     30  C   UNL A   1      42.135  19.553  25.659  1.00  0.00     0.116 C 
BRANCH  30  31
ATOM     31  N   UNL A   1      43.314  19.002  25.012  1.00  0.00    -0.352 N 
ATOM     32  C   UNL A   1      44.444  19.645  24.569  1.00  0.00     0.251 C 
ATOM     33  H   UNL A   1      43.302  18.028  24.871  1.00  0.00     0.163 HD
ATOM     34  O   UNL A   1      45.243  19.064  23.843  1.00  0.00    -0.269 OA
BRANCH  32  35
ATOM     35  C   UNL A   1      44.690  21.049  24.958  1.00  0.00     0.039 A 
ATOM     36  C   UNL A   1      44.228  22.073  24.127  1.00  0.00     0.014 A 
ATOM     37  C   UNL A   1      45.393  21.353  26.127  1.00  0.00     0.014 A 
ATOM     38  C   UNL A   1      44.426  23.405  24.496  1.00  0.00     0.010 A 
ATOM     39  C   UNL A   1      45.531  22.679  26.527  1.00  0.00     0.010 A 
ATOM     40  C   UNL A   1      45.054  23.717  25.712  1.00  0.00    -0.014 A 
BRANCH  40  41
ATOM     41  C   UNL A   1      45.226  25.126  26.149  1.00  0.00     0.031 A 
ATOM     42  C   UNL A   1      46.578  25.777  26.079  1.00  0.00     0.074 A 
ATOM     43  C   UNL A   1      44.178  25.792  26.669  1.00  0.00     0.049 A 
ATOM     44  N   UNL A   1      46.945  26.968  26.480  1.00  0.00    -0.248 NA
ATOM     45  C   UNL A   1      47.669  24.973  25.508  1.00  0.00     0.031 C 
ATOM     46  C   UNL A   1      42.827  25.252  26.830  1.00  0.00     0.029 A 
ATOM     47  N   UNL A   1      44.087  27.067  27.169  1.00  0.00    -0.354 N 
ATOM     48  C   UNL A   1      48.307  27.050  26.223  1.00  0.00     0.074 A 
ATOM     49  C   UNL A   1      48.712  25.771  25.681  1.00  0.00     0.031 C 
ATOM     50  C   UNL A   1      42.039  26.193  27.373  1.00  0.00     0.029 A 
ATOM     51  C   UNL A   1      42.835  27.390  27.631  1.00  0.00     0.049 A 
ATOM     52  H   UNL A   1      44.848  27.691  27.194  1.00  0.00     0.167 HD
ATOM     53  C   UNL A   1      49.139  28.104  26.403  1.00  0.00     0.037 A 
ATOM     54  C   UNL A   1      42.382  28.520  28.205  1.00  0.00     0.037 A 
ATOM     55  C   UNL A   1      48.725  29.382  26.920  1.00  0.00     0.049 A 
ATOM     56  C   UNL A   1      43.328  29.675  28.396  1.00  0.00     0.074 A 
ATOM     57  C   UNL A   1      49.477  30.531  27.083  1.00  0.00     0.029 A 
ATOM     58  N   UNL A   1      47.443  29.677  27.359  1.00  0.00    -0.354 N 
ATOM     59  N   UNL A   1      44.599  29.763  28.089  1.00  0.00    -0.248 NA
ATOM     60  C   UNL A   1      42.773  30.890  29.009  1.00  0.00     0.031 C 
ATOM     61  C   UNL A   1      48.662  31.509  27.663  1.00  0.00     0.029 A 
ATOM     62  C   UNL A   1      47.388  30.985  27.814  1.00  0.00     0.049 A 
ATOM     63  H   UNL A   1      46.683  29.050  27.348  1.00  0.00     0.167 HD
ATOM     64  C   UNL A   1      44.989  31.047  28.443  1.00  0.00     0.074 A 
ATOM     65  C   UNL A   1      43.815  31.708  28.975  1.00  0.00     0.031 C 
ATOM     66  C   UNL A   1      46.210  31.628  28.335  1.00  0.00     0.037 A 
BRANCH  53  67
ATOM     67  C   UNL A   1      50.582  27.918  26.035  1.00  0.00     0.064 A 
ATOM     68  C   UNL A   1      51.554  27.607  26.999  1.00  0.00     0.173 A 
ATOM     69  C   UNL A   1      50.995  28.017  24.698  1.00  0.00     0.173 A 
ATOM     70  F   UNL A   1      51.215  27.512  28.293  1.00  0.00    -0.203 F 
ATOM     71  C   UNL A   1      52.889  27.433  26.642  1.00  0.00     0.198 A 
ATOM     72  C   UNL A   1      52.325  27.813  24.340  1.00  0.00     0.198 A 
ATOM     73  F   UNL A   1      50.107  28.307  23.734  1.00  0.00    -0.203 F 
ATOM     74  F   UNL A   1      53.806  27.186  27.587  1.00  0.00    -0.200 F 
ATOM     75  C   UNL A   1      53.272  27.528  25.313  1.00  0.00     0.200 A 
ATOM     76  F   UNL A   1      52.692  27.892  23.053  1.00  0.00    -0.200 F 
ATOM     77  F   UNL A   1      54.556  27.353  24.970  1.00  0.00    -0.200 F 
ENDBRANCH  53  67
BRANCH  54  78
ATOM     78  C   UNL A   1      40.959  28.624  28.617  1.00  0.00     0.064 A 
ATOM     79  C   UNL A   1      39.981  29.070  27.717  1.00  0.00     0.173 A 
ATOM     80  C   UNL A   1      40.546  28.280  29.913  1.00  0.00     0.173 A 
ATOM     81  F   UNL A   1      40.331  29.429  26.473  1.00  0.00    -0.203 F 
ATOM     82  C   UNL A   1      38.647  29.188  28.103  1.00  0.00     0.198 A 
ATOM     83  C   UNL A   1      39.207  28.373  30.289  1.00  0.00     0.198 A 
ATOM     84  F   UNL A   1      41.442  27.843  30.810  1.00  0.00    -0.203 F 
ATOM     85  F   UNL A   1      37.741  29.660  27.237  1.00  0.00    -0.200 F 
ATOM     86  C   UNL A   1      38.261  28.834  29.387  1.00  0.00     0.200 A 
ATOM     87  F   UNL A   1      38.836  28.015  31.526  1.00  0.00    -0.200 F 
ATOM     88  F   UNL A   1      36.977  28.943  29.757  1.00  0.00    -0.200 F 
ENDBRANCH  54  78
BRANCH  66  89
ATOM     89  C   UNL A   1      46.330  33.059  28.773  1.00  0.00     0.064 A 
ATOM     90  C   UNL A   1      46.097  34.122  27.889  1.00  0.00     0.173 A 
ATOM     91  C   UNL A   1      46.647  33.368  30.105  1.00  0.00     0.173 A 
ATOM     92  F   UNL A   1      45.807  33.878  26.602  1.00  0.00    -0.203 F 
ATOM     93  C   UNL A   1      46.198  35.443  28.317  1.00  0.00     0.198 A 
ATOM     94  C   UNL A   1      46.719  34.689  30.536  1.00  0.00     0.198 A 
ATOM     95  F   UNL A   1      46.875  32.387  30.991  1.00  0.00    -0.203 F 
ATOM     96  F   UNL A   1      46.017  36.443  27.443  1.00  0.00    -0.200 F 
ATOM     97  C   UNL A   1      46.502  35.726  29.640  1.00  0.00     0.200 A 
ATOM     98  F   UNL A   1      46.999  34.960  31.818  1.00  0.00    -0.200 F 
ATOM     99  F   UNL A   1      46.593  36.997  30.051  1.00  0.00    -0.200 F 
ENDBRANCH  66  89
ENDBRANCH  40  41
ENDBRANCH  32  35
ENDBRANCH  30  31
ENDBRANCH  29  30
ENDBRANCH  28  29
ENDBRANCH   1  28
TORSDOF 16
ENDMDL
