MODEL 1
REMARK VINA RESULT:     -12.6      0.000      0.000
REMARK SMILES O=C(NCCCCCCNC(=O)c1cc(-c2cccc(Cl)c2)ccc1Cl)c1ccc(-c2c3nc(c(-c4c(F)c(F)c(F)c(F)c4F)c4ccc([nH]4)c(-c4c(F)c(F)c(F)c(F)c4F)c4nc(c(-c5c(F)c(F)c(F)c(F)c5F)c5ccc2[nH]5)C=C4)C=C3)cc1
REMARK SMILES IDX 6 1 5 2 4 3 3 4 1 5 2 6 27 8 28 9 89 10 29 11 88 12 30 13
REMARK SMILES IDX 31 14 32 15 82 16 33 17 87 18 81 19 83 20 34 21 86 22 80 23
REMARK SMILES IDX 79 24 35 26 67 27 47 28 66 29 48 30 51 31 65 32 84 33 49 34
REMARK SMILES IDX 50 35 64 37 85 38 52 39 36 40 37 41 45 42 38 43 39 44 43 45
REMARK SMILES IDX 46 46 40 47 41 48 44 49 42 50 68 51 69 52 77 53 70 54 71 55
REMARK SMILES IDX 75 56 78 57 72 58 73 59 76 60 74 61 53 62 54 63 62 64 55 65
REMARK SMILES IDX 56 66 60 67 63 68 57 69 58 70 61 71 59 72 7 73 8 74 9 75
REMARK SMILES IDX 10 76 11 77 12 79 13 80 14 81 25 82 15 83 24 84 26 85 23 86
REMARK SMILES IDX 16 87 17 88 22 89 18 90 20 91 19 92 21 93
REMARK H PARENT 3 7 83 25 51 36 10 78
REMARK Flexibility Score: inf
ROOT
ATOM      1  C   UNL A   1      31.596  30.318  26.228  1.00  0.00     0.002 C 
ENDROOT
BRANCH   1   2
ATOM      2  C   UNL A   1      31.444  31.814  26.502  1.00  0.00     0.021 C 
BRANCH   2   3
ATOM      3  C   UNL A   1      32.689  32.489  27.056  1.00  0.00     0.116 C 
BRANCH   3   4
ATOM      4  N   UNL A   1      32.449  33.869  27.442  1.00  0.00    -0.352 N 
ATOM      5  O   UNL A   1      32.622  35.703  28.752  1.00  0.00    -0.269 OA
ATOM      6  C   UNL A   1      33.048  34.595  28.441  1.00  0.00     0.251 C 
ATOM      7  H   UNL A   1      31.767  34.347  26.917  1.00  0.00     0.163 HD
BRANCH   6   8
ATOM      8  C   UNL A   1      34.211  34.025  29.153  1.00  0.00     0.039 A 
ATOM      9  C   UNL A   1      34.020  33.147  30.224  1.00  0.00     0.014 A 
ATOM     10  C   UNL A   1      35.502  34.356  28.734  1.00  0.00     0.014 A 
ATOM     11  C   UNL A   1      35.115  32.688  30.945  1.00  0.00     0.010 A 
ATOM     12  C   UNL A   1      36.605  33.823  29.405  1.00  0.00     0.010 A 
ATOM     13  C   UNL A   1      36.419  32.989  30.518  1.00  0.00    -0.014 A 
BRANCH  13  14
ATOM     14  C   UNL A   1      37.563  32.302  31.167  1.00  0.00     0.031 A 
ATOM     15  C   UNL A   1      38.269  31.154  30.509  1.00  0.00     0.074 A 
ATOM     16  C   UNL A   1      37.953  32.744  32.380  1.00  0.00     0.049 A 
ATOM     17  N   UNL A   1      39.273  30.444  30.958  1.00  0.00    -0.248 NA
ATOM     18  C   UNL A   1      37.788  30.740  29.182  1.00  0.00     0.031 C 
ATOM     19  C   UNL A   1      37.319  33.841  33.117  1.00  0.00     0.029 A 
ATOM     20  N   UNL A   1      38.968  32.337  33.205  1.00  0.00    -0.354 N 
ATOM     21  C   UNL A   1      39.534  29.490  29.983  1.00  0.00     0.074 A 
ATOM     22  C   UNL A   1      38.574  29.701  28.920  1.00  0.00     0.031 C 
ATOM     23  C   UNL A   1      37.976  34.038  34.268  1.00  0.00     0.029 A 
ATOM     24  C   UNL A   1      39.028  33.038  34.384  1.00  0.00     0.049 A 
ATOM     25  H   UNL A   1      39.594  31.612  32.974  1.00  0.00     0.167 HD
ATOM     26  C   UNL A   1      40.492  28.532  29.986  1.00  0.00     0.037 A 
ATOM     27  C   UNL A   1      39.817  32.870  35.460  1.00  0.00     0.037 A 
ATOM     28  C   UNL A   1      41.452  28.347  31.045  1.00  0.00     0.049 A 
ATOM     29  C   UNL A   1      40.844  31.775  35.438  1.00  0.00     0.074 A 
ATOM     30  C   UNL A   1      42.507  27.452  31.103  1.00  0.00     0.029 A 
ATOM     31  N   UNL A   1      41.467  29.059  32.236  1.00  0.00    -0.354 N 
ATOM     32  N   UNL A   1      41.129  30.929  34.479  1.00  0.00    -0.248 NA
ATOM     33  C   UNL A   1      41.656  31.607  36.650  1.00  0.00     0.031 C 
ATOM     34  C   UNL A   1      43.118  27.576  32.355  1.00  0.00     0.029 A 
ATOM     35  C   UNL A   1      42.485  28.591  33.053  1.00  0.00     0.049 A 
ATOM     36  H   UNL A   1      40.847  29.788  32.466  1.00  0.00     0.167 HD
ATOM     37  C   UNL A   1      42.156  30.135  34.965  1.00  0.00     0.074 A 
ATOM     38  C   UNL A   1      42.470  30.625  36.291  1.00  0.00     0.031 C 
ATOM     39  C   UNL A   1      42.778  29.088  34.373  1.00  0.00     0.037 A 
BRANCH  26  40
ATOM     40  C   UNL A   1      40.558  27.586  28.823  1.00  0.00     0.064 A 
ATOM     41  C   UNL A   1      39.754  26.440  28.753  1.00  0.00     0.173 A 
ATOM     42  C   UNL A   1      41.358  27.894  27.710  1.00  0.00     0.173 A 
ATOM     43  F   UNL A   1      38.976  26.098  29.791  1.00  0.00    -0.203 F 
ATOM     44  C   UNL A   1      39.750  25.636  27.615  1.00  0.00     0.198 A 
ATOM     45  C   UNL A   1      41.333  27.102  26.564  1.00  0.00     0.198 A 
ATOM     46  F   UNL A   1      42.141  28.984  27.721  1.00  0.00    -0.203 F 
ATOM     47  F   UNL A   1      38.984  24.536  27.576  1.00  0.00    -0.200 F 
ATOM     48  C   UNL A   1      40.529  25.974  26.518  1.00  0.00     0.200 A 
ATOM     49  F   UNL A   1      42.074  27.441  25.501  1.00  0.00    -0.200 F 
ATOM     50  F   UNL A   1      40.503  25.214  25.416  1.00  0.00    -0.200 F 
ENDBRANCH  26  40
BRANCH  27  51
ATOM     51  C   UNL A   1      39.635  33.729  36.660  1.00  0.00     0.064 A 
ATOM     52  C   UNL A   1      38.823  33.324  37.727  1.00  0.00     0.173 A 
ATOM     53  C   UNL A   1      40.249  34.988  36.750  1.00  0.00     0.173 A 
ATOM     54  F   UNL A   1      38.199  32.137  37.681  1.00  0.00    -0.203 F 
ATOM     55  C   UNL A   1      38.607  34.157  38.822  1.00  0.00     0.198 A 
ATOM     56  C   UNL A   1      40.064  35.803  37.862  1.00  0.00     0.198 A 
ATOM     57  F   UNL A   1      41.042  35.422  35.759  1.00  0.00    -0.203 F 
ATOM     58  F   UNL A   1      37.775  33.771  39.799  1.00  0.00    -0.200 F 
ATOM     59  C   UNL A   1      39.231  35.393  38.892  1.00  0.00     0.200 A 
ATOM     60  F   UNL A   1      40.686  36.988  37.934  1.00  0.00    -0.200 F 
ATOM     61  F   UNL A   1      39.020  36.194  39.945  1.00  0.00    -0.200 F 
ENDBRANCH  27  51
BRANCH  39  62
ATOM     62  C   UNL A   1      43.867  28.414  35.154  1.00  0.00     0.064 A 
ATOM     63  C   UNL A   1      43.595  27.335  36.008  1.00  0.00     0.173 A 
ATOM     64  C   UNL A   1      45.200  28.835  35.030  1.00  0.00     0.173 A 
ATOM     65  F   UNL A   1      42.334  26.908  36.176  1.00  0.00    -0.203 F 
ATOM     66  C   UNL A   1      44.613  26.721  36.732  1.00  0.00     0.198 A 
ATOM     67  C   UNL A   1      46.220  28.196  35.729  1.00  0.00     0.198 A 
ATOM     68  F   UNL A   1      45.514  29.858  34.223  1.00  0.00    -0.203 F 
ATOM     69  F   UNL A   1      44.322  25.728  37.585  1.00  0.00    -0.200 F 
ATOM     70  C   UNL A   1      45.925  27.147  36.586  1.00  0.00     0.200 A 
ATOM     71  F   UNL A   1      47.489  28.600  35.576  1.00  0.00    -0.200 F 
ATOM     72  F   UNL A   1      46.905  26.550  37.279  1.00  0.00    -0.200 F 
ENDBRANCH  39  62
ENDBRANCH  13  14
ENDBRANCH   6   8
ENDBRANCH   3   4
ENDBRANCH   2   3
ENDBRANCH   1   2
BRANCH   1  73
ATOM     73  C   UNL A   1      32.811  29.650  26.880  1.00  0.00     0.002 C 
BRANCH  73  74
ATOM     74  C   UNL A   1      33.738  28.884  25.931  1.00  0.00     0.021 C 
BRANCH  74  75
ATOM     75  C   UNL A   1      33.356  27.427  25.693  1.00  0.00     0.116 C 
BRANCH  75  76
ATOM     76  N   UNL A   1      33.708  26.972  24.361  1.00  0.00    -0.352 N 
ATOM     77  C   UNL A   1      32.890  26.766  23.279  1.00  0.00     0.252 C 
ATOM     78  H   UNL A   1      34.663  26.784  24.214  1.00  0.00     0.163 HD
ATOM     79  O   UNL A   1      33.340  26.311  22.232  1.00  0.00    -0.269 OA
BRANCH  77  80
ATOM     80  C   UNL A   1      31.445  27.026  23.395  1.00  0.00     0.059 A 
ATOM     81  C   UNL A   1      30.994  28.297  23.002  1.00  0.00     0.024 A 
ATOM     82  C   UNL A   1      30.547  26.084  23.905  1.00  0.00     0.053 A 
ATOM     83  C   UNL A   1      29.632  28.626  23.071  1.00  0.00    -0.017 A 
ATOM     84  C   UNL A   1      29.184  26.381  23.923  1.00  0.00     0.022 A 
ATOM     85  Cl  UNL A   1      31.041  24.567  24.564  1.00  0.00    -0.083 Cl
ATOM     86  C   UNL A   1      28.734  27.635  23.501  1.00  0.00     0.010 A 
BRANCH  83  87
ATOM     87  C   UNL A   1      29.155  29.982  22.763  1.00  0.00    -0.017 A 
ATOM     88  C   UNL A   1      29.170  30.973  23.762  1.00  0.00     0.009 A 
ATOM     89  C   UNL A   1      28.688  30.333  21.488  1.00  0.00     0.029 A 
ATOM     90  C   UNL A   1      28.725  32.271  23.503  1.00  0.00     0.002 A 
ATOM     91  C   UNL A   1      28.241  31.632  21.232  1.00  0.00     0.041 A 
ATOM     92  C   UNL A   1      28.257  32.601  22.234  1.00  0.00     0.020 A 
ATOM     93  Cl  UNL A   1      27.659  32.042  19.665  1.00  0.00    -0.084 Cl
ENDBRANCH  83  87
ENDBRANCH  77  80
ENDBRANCH  75  76
ENDBRANCH  74  75
ENDBRANCH  73  74
ENDBRANCH   1  73
TORSDOF 14
ENDMDL
MODEL 2
REMARK VINA RESULT:     -12.5      0.980      1.710
REMARK SMILES O=C(NCCCCCCNC(=O)c1cc(-c2cccc(Cl)c2)ccc1Cl)c1ccc(-c2c3nc(c(-c4c(F)c(F)c(F)c(F)c4F)c4ccc([nH]4)c(-c4c(F)c(F)c(F)c(F)c4F)c4nc(c(-c5c(F)c(F)c(F)c(F)c5F)c5ccc2[nH]5)C=C4)C=C3)cc1
REMARK SMILES IDX 6 1 5 2 4 3 3 4 1 5 2 6 27 8 28 9 89 10 29 11 88 12 30 13
REMARK SMILES IDX 31 14 32 15 82 16 33 17 87 18 81 19 83 20 34 21 86 22 80 23
REMARK SMILES IDX 79 24 35 26 67 27 47 28 66 29 48 30 51 31 65 32 84 33 49 34
REMARK SMILES IDX 50 35 64 37 85 38 52 39 36 40 37 41 45 42 38 43 39 44 43 45
REMARK SMILES IDX 46 46 40 47 41 48 44 49 42 50 68 51 69 52 77 53 70 54 71 55
REMARK SMILES IDX 75 56 78 57 72 58 73 59 76 60 74 61 53 62 54 63 62 64 55 65
REMARK SMILES IDX 56 66 60 67 63 68 57 69 58 70 61 71 59 72 7 73 8 74 9 75
REMARK SMILES IDX 10 76 11 77 12 79 13 80 14 81 25 82 15 83 24 84 26 85 23 86
REMARK SMILES IDX 16 87 17 88 22 89 18 90 20 91 19 92 21 93
REMARK H PARENT 3 7 83 25 51 36 10 78
REMARK Flexibility Score: inf
ROOT
ATOM      1  C   UNL A   1      31.638  30.748  26.159  1.00  0.00     0.002 C 
ENDROOT
BRANCH   1   2
ATOM      2  C   UNL A   1      31.410  32.133  26.761  1.00  0.00     0.021 C 
BRANCH   2   3
ATOM      3  C   UNL A   1      32.677  32.857  27.189  1.00  0.00     0.116 C 
BRANCH   3   4
ATOM      4  N   UNL A   1      32.425  34.227  27.600  1.00  0.00    -0.352 N 
ATOM      5  O   UNL A   1      32.576  36.037  28.946  1.00  0.00    -0.269 OA
ATOM      6  C   UNL A   1      33.012  34.938  28.617  1.00  0.00     0.251 C 
ATOM      7  H   UNL A   1      31.743  34.710  27.081  1.00  0.00     0.163 HD
BRANCH   6   8
ATOM      8  C   UNL A   1      34.175  34.363  29.325  1.00  0.00     0.039 A 
ATOM      9  C   UNL A   1      33.991  33.621  30.495  1.00  0.00     0.014 A 
ATOM     10  C   UNL A   1      35.458  34.551  28.804  1.00  0.00     0.014 A 
ATOM     11  C   UNL A   1      35.094  33.163  31.203  1.00  0.00     0.010 A 
ATOM     12  C   UNL A   1      36.561  34.013  29.470  1.00  0.00     0.010 A 
ATOM     13  C   UNL A   1      36.387  33.319  30.678  1.00  0.00    -0.014 A 
BRANCH  13  14
ATOM     14  C   UNL A   1      37.519  32.622  31.336  1.00  0.00     0.031 A 
ATOM     15  C   UNL A   1      38.220  31.466  30.687  1.00  0.00     0.074 A 
ATOM     16  C   UNL A   1      37.903  33.062  32.552  1.00  0.00     0.049 A 
ATOM     17  N   UNL A   1      39.213  30.747  31.145  1.00  0.00    -0.248 NA
ATOM     18  C   UNL A   1      37.746  31.055  29.356  1.00  0.00     0.031 C 
ATOM     19  C   UNL A   1      37.273  34.166  33.282  1.00  0.00     0.029 A 
ATOM     20  N   UNL A   1      38.908  32.647  33.386  1.00  0.00    -0.354 N 
ATOM     21  C   UNL A   1      39.473  29.790  30.174  1.00  0.00     0.074 A 
ATOM     22  C   UNL A   1      38.524  30.008  29.103  1.00  0.00     0.031 C 
ATOM     23  C   UNL A   1      37.923  34.360  34.438  1.00  0.00     0.029 A 
ATOM     24  C   UNL A   1      38.964  33.350  34.565  1.00  0.00     0.049 A 
ATOM     25  H   UNL A   1      39.529  31.916  33.161  1.00  0.00     0.167 HD
ATOM     26  C   UNL A   1      40.422  28.823  30.186  1.00  0.00     0.037 A 
ATOM     27  C   UNL A   1      39.743  33.177  35.648  1.00  0.00     0.037 A 
ATOM     28  C   UNL A   1      41.372  28.631  31.253  1.00  0.00     0.049 A 
ATOM     29  C   UNL A   1      40.760  32.072  35.635  1.00  0.00     0.074 A 
ATOM     30  C   UNL A   1      42.418  27.726  31.322  1.00  0.00     0.029 A 
ATOM     31  N   UNL A   1      41.384  29.345  32.443  1.00  0.00    -0.354 N 
ATOM     32  N   UNL A   1      41.044  31.222  34.681  1.00  0.00    -0.248 NA
ATOM     33  C   UNL A   1      41.560  31.898  36.855  1.00  0.00     0.031 C 
ATOM     34  C   UNL A   1      43.020  27.847  32.578  1.00  0.00     0.029 A 
ATOM     35  C   UNL A   1      42.391  28.869  33.270  1.00  0.00     0.049 A 
ATOM     36  H   UNL A   1      40.768  30.080  32.667  1.00  0.00     0.167 HD
ATOM     37  C   UNL A   1      42.060  30.419  35.177  1.00  0.00     0.074 A 
ATOM     38  C   UNL A   1      42.368  30.909  36.504  1.00  0.00     0.031 C 
ATOM     39  C   UNL A   1      42.677  29.365  34.591  1.00  0.00     0.037 A 
BRANCH  26  40
ATOM     40  C   UNL A   1      40.489  27.875  29.025  1.00  0.00     0.064 A 
ATOM     41  C   UNL A   1      39.696  26.720  28.965  1.00  0.00     0.173 A 
ATOM     42  C   UNL A   1      41.277  28.187  27.905  1.00  0.00     0.173 A 
ATOM     43  F   UNL A   1      38.930  26.373  30.010  1.00  0.00    -0.203 F 
ATOM     44  C   UNL A   1      39.692  25.913  27.829  1.00  0.00     0.198 A 
ATOM     45  C   UNL A   1      41.251  27.392  26.762  1.00  0.00     0.198 A 
ATOM     46  F   UNL A   1      42.049  29.286  27.907  1.00  0.00    -0.203 F 
ATOM     47  F   UNL A   1      38.938  24.804  27.800  1.00  0.00    -0.200 F 
ATOM     48  C   UNL A   1      40.459  26.255  26.725  1.00  0.00     0.200 A 
ATOM     49  F   UNL A   1      41.980  27.735  25.692  1.00  0.00    -0.200 F 
ATOM     50  F   UNL A   1      40.432  25.492  25.625  1.00  0.00    -0.200 F 
ENDBRANCH  26  40
BRANCH  27  51
ATOM     51  C   UNL A   1      39.559  34.040  36.844  1.00  0.00     0.064 A 
ATOM     52  C   UNL A   1      40.186  35.289  36.942  1.00  0.00     0.173 A 
ATOM     53  C   UNL A   1      38.774  33.618  37.928  1.00  0.00     0.173 A 
ATOM     54  F   UNL A   1      40.962  35.730  35.940  1.00  0.00    -0.203 F 
ATOM     55  C   UNL A   1      40.060  36.068  38.089  1.00  0.00     0.198 A 
ATOM     56  C   UNL A   1      38.617  34.414  39.058  1.00  0.00     0.198 A 
ATOM     57  F   UNL A   1      38.147  32.433  37.884  1.00  0.00    -0.203 F 
ATOM     58  F   UNL A   1      40.721  37.230  38.182  1.00  0.00    -0.200 F 
ATOM     59  C   UNL A   1      39.272  35.634  39.145  1.00  0.00     0.200 A 
ATOM     60  F   UNL A   1      37.838  33.999  40.066  1.00  0.00    -0.200 F 
ATOM     61  F   UNL A   1      39.153  36.383  40.249  1.00  0.00    -0.200 F 
ENDBRANCH  27  51
BRANCH  39  62
ATOM     62  C   UNL A   1      43.754  28.682  35.382  1.00  0.00     0.064 A 
ATOM     63  C   UNL A   1      43.453  27.665  36.300  1.00  0.00     0.173 A 
ATOM     64  C   UNL A   1      45.101  29.032  35.205  1.00  0.00     0.173 A 
ATOM     65  F   UNL A   1      42.179  27.308  36.519  1.00  0.00    -0.203 F 
ATOM     66  C   UNL A   1      44.460  27.042  37.033  1.00  0.00     0.198 A 
ATOM     67  C   UNL A   1      46.107  28.383  35.914  1.00  0.00     0.198 A 
ATOM     68  F   UNL A   1      45.441  29.995  34.336  1.00  0.00    -0.203 F 
ATOM     69  F   UNL A   1      44.145  26.112  37.945  1.00  0.00    -0.200 F 
ATOM     70  C   UNL A   1      45.786  27.396  36.833  1.00  0.00     0.200 A 
ATOM     71  F   UNL A   1      47.390  28.717  35.710  1.00  0.00    -0.200 F 
ATOM     72  F   UNL A   1      46.755  26.791  37.535  1.00  0.00    -0.200 F 
ENDBRANCH  39  62
ENDBRANCH  13  14
ENDBRANCH   6   8
ENDBRANCH   3   4
ENDBRANCH   2   3
ENDBRANCH   1   2
BRANCH   1  73
ATOM     73  C   UNL A   1      32.298  29.726  27.090  1.00  0.00     0.002 C 
BRANCH  73  74
ATOM     74  C   UNL A   1      33.812  29.555  26.923  1.00  0.00     0.021 C 
BRANCH  74  75
ATOM     75  C   UNL A   1      34.233  28.450  25.961  1.00  0.00     0.116 C 
BRANCH  75  76
ATOM     76  N   UNL A   1      33.860  27.130  26.435  1.00  0.00    -0.352 N 
ATOM     77  C   UNL A   1      33.063  26.192  25.830  1.00  0.00     0.252 C 
ATOM     78  H   UNL A   1      34.227  26.873  27.313  1.00  0.00     0.163 HD
ATOM     79  O   UNL A   1      32.789  25.141  26.400  1.00  0.00    -0.269 OA
BRANCH  77  80
ATOM     80  C   UNL A   1      32.471  26.478  24.512  1.00  0.00     0.059 A 
ATOM     81  C   UNL A   1      31.400  27.386  24.479  1.00  0.00     0.024 A 
ATOM     82  C   UNL A   1      32.908  25.858  23.337  1.00  0.00     0.053 A 
ATOM     83  C   UNL A   1      30.783  27.722  23.264  1.00  0.00    -0.017 A 
ATOM     84  C   UNL A   1      32.341  26.229  22.118  1.00  0.00     0.022 A 
ATOM     85  Cl  UNL A   1      34.100  24.610  23.314  1.00  0.00    -0.083 Cl
ATOM     86  C   UNL A   1      31.296  27.158  22.084  1.00  0.00     0.010 A 
BRANCH  83  87
ATOM     87  C   UNL A   1      29.597  28.589  23.222  1.00  0.00    -0.017 A 
ATOM     88  C   UNL A   1      28.312  28.016  23.170  1.00  0.00     0.009 A 
ATOM     89  C   UNL A   1      29.699  29.987  23.241  1.00  0.00     0.029 A 
ATOM     90  C   UNL A   1      27.165  28.811  23.129  1.00  0.00     0.002 A 
ATOM     91  C   UNL A   1      28.548  30.780  23.199  1.00  0.00     0.041 A 
ATOM     92  C   UNL A   1      27.284  30.197  23.141  1.00  0.00     0.020 A 
ATOM     93  Cl  UNL A   1      28.693  32.495  23.211  1.00  0.00    -0.084 Cl
ENDBRANCH  83  87
ENDBRANCH  77  80
ENDBRANCH  75  76
ENDBRANCH  74  75
ENDBRANCH  73  74
ENDBRANCH   1  73
TORSDOF 14
ENDMDL
MODEL 3
REMARK VINA RESULT:     -12.5      6.431     11.797
REMARK SMILES O=C(NCCCCCCNC(=O)c1cc(-c2cccc(Cl)c2)ccc1Cl)c1ccc(-c2c3nc(c(-c4c(F)c(F)c(F)c(F)c4F)c4ccc([nH]4)c(-c4c(F)c(F)c(F)c(F)c4F)c4nc(c(-c5c(F)c(F)c(F)c(F)c5F)c5ccc2[nH]5)C=C4)C=C3)cc1
REMARK SMILES IDX 6 1 5 2 4 3 3 4 1 5 2 6 27 8 28 9 89 10 29 11 88 12 30 13
REMARK SMILES IDX 31 14 32 15 82 16 33 17 87 18 81 19 83 20 34 21 86 22 80 23
REMARK SMILES IDX 79 24 35 26 67 27 47 28 66 29 48 30 51 31 65 32 84 33 49 34
REMARK SMILES IDX 50 35 64 37 85 38 52 39 36 40 37 41 45 42 38 43 39 44 43 45
REMARK SMILES IDX 46 46 40 47 41 48 44 49 42 50 68 51 69 52 77 53 70 54 71 55
REMARK SMILES IDX 75 56 78 57 72 58 73 59 76 60 74 61 53 62 54 63 62 64 55 65
REMARK SMILES IDX 56 66 60 67 63 68 57 69 58 70 61 71 59 72 7 73 8 74 9 75
REMARK SMILES IDX 10 76 11 77 12 79 13 80 14 81 25 82 15 83 24 84 26 85 23 86
REMARK SMILES IDX 16 87 17 88 22 89 18 90 20 91 19 92 21 93
REMARK H PARENT 3 7 83 25 51 36 10 78
REMARK Flexibility Score: inf
ROOT
ATOM      1  C   UNL A   1      36.735  20.681  24.997  1.00  0.00     0.002 C 
ENDROOT
BRANCH   1   2
ATOM      2  C   UNL A   1      37.938  19.739  24.971  1.00  0.00     0.021 C 
BRANCH   2   3
ATOM      3  C   UNL A   1      39.143  20.225  25.761  1.00  0.00     0.116 C 
BRANCH   3   4
ATOM      4  N   UNL A   1      40.160  19.199  25.913  1.00  0.00    -0.352 N 
ATOM      5  O   UNL A   1      42.265  18.390  26.070  1.00  0.00    -0.269 OA
ATOM      6  C   UNL A   1      41.507  19.354  26.127  1.00  0.00     0.251 C 
ATOM      7  H   UNL A   1      39.841  18.270  25.855  1.00  0.00     0.163 HD
BRANCH   6   8
ATOM      8  C   UNL A   1      42.045  20.700  26.415  1.00  0.00     0.039 A 
ATOM      9  C   UNL A   1      42.286  21.601  25.373  1.00  0.00     0.014 A 
ATOM     10  C   UNL A   1      42.292  21.071  27.739  1.00  0.00     0.014 A 
ATOM     11  C   UNL A   1      42.875  22.829  25.645  1.00  0.00     0.010 A 
ATOM     12  C   UNL A   1      42.802  22.341  28.019  1.00  0.00     0.010 A 
ATOM     13  C   UNL A   1      43.102  23.227  26.972  1.00  0.00    -0.014 A 
BRANCH  13  14
ATOM     14  C   UNL A   1      43.517  24.626  27.241  1.00  0.00     0.031 A 
ATOM     15  C   UNL A   1      42.558  25.643  27.782  1.00  0.00     0.074 A 
ATOM     16  C   UNL A   1      44.797  24.960  26.980  1.00  0.00     0.049 A 
ATOM     17  N   UNL A   1      42.769  26.906  28.053  1.00  0.00    -0.248 NA
ATOM     18  C   UNL A   1      41.183  25.194  28.050  1.00  0.00     0.031 C 
ATOM     19  C   UNL A   1      45.807  24.051  26.431  1.00  0.00     0.029 A 
ATOM     20  N   UNL A   1      45.472  26.142  27.141  1.00  0.00    -0.354 N 
ATOM     21  C   UNL A   1      41.556  27.409  28.504  1.00  0.00     0.074 A 
ATOM     22  C   UNL A   1      40.605  26.318  28.459  1.00  0.00     0.031 C 
ATOM     23  C   UNL A   1      46.976  24.697  26.328  1.00  0.00     0.029 A 
ATOM     24  C   UNL A   1      46.782  26.083  26.733  1.00  0.00     0.049 A 
ATOM     25  H   UNL A   1      45.057  26.954  27.512  1.00  0.00     0.167 HD
ATOM     26  C   UNL A   1      41.274  28.668  28.917  1.00  0.00     0.037 A 
ATOM     27  C   UNL A   1      47.717  27.047  26.656  1.00  0.00     0.037 A 
ATOM     28  C   UNL A   1      42.238  29.738  28.973  1.00  0.00     0.049 A 
ATOM     29  C   UNL A   1      47.355  28.438  27.091  1.00  0.00     0.074 A 
ATOM     30  C   UNL A   1      42.066  31.028  29.448  1.00  0.00     0.029 A 
ATOM     31  N   UNL A   1      43.550  29.650  28.529  1.00  0.00    -0.354 N 
ATOM     32  N   UNL A   1      46.226  28.882  27.585  1.00  0.00    -0.248 NA
ATOM     33  C   UNL A   1      48.397  29.464  26.952  1.00  0.00     0.031 C 
ATOM     34  C   UNL A   1      43.251  31.738  29.229  1.00  0.00     0.029 A 
ATOM     35  C   UNL A   1      44.183  30.875  28.676  1.00  0.00     0.049 A 
ATOM     36  H   UNL A   1      43.968  28.837  28.163  1.00  0.00     0.167 HD
ATOM     37  C   UNL A   1      46.422  30.233  27.825  1.00  0.00     0.074 A 
ATOM     38  C   UNL A   1      47.791  30.529  27.458  1.00  0.00     0.031 C 
ATOM     39  C   UNL A   1      45.545  31.151  28.298  1.00  0.00     0.037 A 
BRANCH  26  40
ATOM     40  C   UNL A   1      39.868  28.986  29.332  1.00  0.00     0.064 A 
ATOM     41  C   UNL A   1      38.904  29.423  28.412  1.00  0.00     0.173 A 
ATOM     42  C   UNL A   1      39.450  28.739  30.650  1.00  0.00     0.173 A 
ATOM     43  F   UNL A   1      39.252  29.678  27.142  1.00  0.00    -0.203 F 
ATOM     44  C   UNL A   1      37.577  29.604  28.796  1.00  0.00     0.198 A 
ATOM     45  C   UNL A   1      38.118  28.898  31.024  1.00  0.00     0.198 A 
ATOM     46  F   UNL A   1      40.330  28.312  31.570  1.00  0.00    -0.203 F 
ATOM     47  F   UNL A   1      36.677  30.038  27.902  1.00  0.00    -0.200 F 
ATOM     48  C   UNL A   1      37.183  29.331  30.097  1.00  0.00     0.200 A 
ATOM     49  F   UNL A   1      37.737  28.617  32.278  1.00  0.00    -0.200 F 
ATOM     50  F   UNL A   1      35.901  29.481  30.457  1.00  0.00    -0.200 F 
ENDBRANCH  26  40
BRANCH  27  51
ATOM     51  C   UNL A   1      49.063  26.739  26.105  1.00  0.00     0.064 A 
ATOM     52  C   UNL A   1      50.083  26.234  26.921  1.00  0.00     0.173 A 
ATOM     53  C   UNL A   1      49.363  26.971  24.754  1.00  0.00     0.173 A 
ATOM     54  F   UNL A   1      49.851  26.011  28.224  1.00  0.00    -0.203 F 
ATOM     55  C   UNL A   1      51.360  26.002  26.415  1.00  0.00     0.198 A 
ATOM     56  C   UNL A   1      50.629  26.703  24.240  1.00  0.00     0.198 A 
ATOM     57  F   UNL A   1      48.422  27.449  23.927  1.00  0.00    -0.203 F 
ATOM     58  F   UNL A   1      52.334  25.579  27.232  1.00  0.00    -0.200 F 
ATOM     59  C   UNL A   1      51.631  26.232  25.075  1.00  0.00     0.200 A 
ATOM     60  F   UNL A   1      50.880  26.908  22.940  1.00  0.00    -0.200 F 
ATOM     61  F   UNL A   1      52.860  26.012  24.590  1.00  0.00    -0.200 F 
ENDBRANCH  27  51
BRANCH  39  62
ATOM     62  C   UNL A   1      46.049  32.555  28.454  1.00  0.00     0.064 A 
ATOM     63  C   UNL A   1      46.687  32.977  29.630  1.00  0.00     0.173 A 
ATOM     64  C   UNL A   1      45.914  33.482  27.409  1.00  0.00     0.173 A 
ATOM     65  F   UNL A   1      46.822  32.134  30.664  1.00  0.00    -0.203 F 
ATOM     66  C   UNL A   1      47.146  34.285  29.765  1.00  0.00     0.198 A 
ATOM     67  C   UNL A   1      46.405  34.778  27.536  1.00  0.00     0.198 A 
ATOM     68  F   UNL A   1      45.316  33.128  26.263  1.00  0.00    -0.203 F 
ATOM     69  F   UNL A   1      47.702  34.682  30.919  1.00  0.00    -0.200 F 
ATOM     70  C   UNL A   1      47.011  35.181  28.716  1.00  0.00     0.200 A 
ATOM     71  F   UNL A   1      46.287  35.639  26.515  1.00  0.00    -0.200 F 
ATOM     72  F   UNL A   1      47.460  36.437  28.846  1.00  0.00    -0.200 F 
ENDBRANCH  39  62
ENDBRANCH  13  14
ENDBRANCH   6   8
ENDBRANCH   3   4
ENDBRANCH   2   3
ENDBRANCH   1   2
BRANCH   1  73
ATOM     73  C   UNL A   1      37.035  22.141  24.646  1.00  0.00     0.002 C 
BRANCH  73  74
ATOM     74  C   UNL A   1      36.489  23.186  25.625  1.00  0.00     0.021 C 
BRANCH  74  75
ATOM     75  C   UNL A   1      35.282  23.971  25.122  1.00  0.00     0.116 C 
BRANCH  75  76
ATOM     76  N   UNL A   1      34.185  23.970  26.073  1.00  0.00    -0.352 N 
ATOM     77  C   UNL A   1      33.050  23.199  26.075  1.00  0.00     0.252 C 
ATOM     78  H   UNL A   1      34.265  24.611  26.816  1.00  0.00     0.163 HD
ATOM     79  O   UNL A   1      32.180  23.369  26.922  1.00  0.00    -0.269 OA
BRANCH  77  80
ATOM     80  C   UNL A   1      32.840  22.205  25.009  1.00  0.00     0.059 A 
ATOM     81  C   UNL A   1      33.151  20.870  25.313  1.00  0.00     0.024 A 
ATOM     82  C   UNL A   1      32.389  22.551  23.731  1.00  0.00     0.053 A 
ATOM     83  C   UNL A   1      32.972  19.857  24.359  1.00  0.00    -0.017 A 
ATOM     84  C   UNL A   1      32.152  21.545  22.795  1.00  0.00     0.022 A 
ATOM     85  Cl  UNL A   1      32.145  24.184  23.226  1.00  0.00    -0.083 Cl
ATOM     86  C   UNL A   1      32.433  20.212  23.112  1.00  0.00     0.010 A 
BRANCH  83  87
ATOM     87  C   UNL A   1      33.389  18.472  24.624  1.00  0.00    -0.017 A 
ATOM     88  C   UNL A   1      34.698  18.063  24.307  1.00  0.00     0.009 A 
ATOM     89  C   UNL A   1      32.522  17.533  25.199  1.00  0.00     0.029 A 
ATOM     90  C   UNL A   1      35.127  16.756  24.546  1.00  0.00     0.002 A 
ATOM     91  C   UNL A   1      32.953  16.225  25.435  1.00  0.00     0.041 A 
ATOM     92  C   UNL A   1      34.251  15.833  25.110  1.00  0.00     0.020 A 
ATOM     93  Cl  UNL A   1      31.871  15.081  26.130  1.00  0.00    -0.084 Cl
ENDBRANCH  83  87
ENDBRANCH  77  80
ENDBRANCH  75  76
ENDBRANCH  74  75
ENDBRANCH  73  74
ENDBRANCH   1  73
TORSDOF 14
ENDMDL
