MODEL 1
REMARK VINA RESULT:     -12.0      0.000      0.000
REMARK SMILES CC(C)N1C(=O)C[C@@H](Sc2csc(C(=O)NCCCCCCNC(=O)c3ccc(-c4c5nc(c(-c6c(F)c(F)c(F)c(F)c6F)c6ccc([nH]6)c(-c6c(F)c(F)c(F)c(F)c6F)c6nc(c(-c7c(F)c(F)c(F)c(F)c7F)c7ccc4[nH]7)C=C6)C=C5)cc3)c2)C1=O
REMARK SMILES IDX 19 1 18 2 17 3 16 4 14 5 15 6 13 8 10 9 11 10 89 11 12 12
REMARK SMILES IDX 9 13 8 14 4 15 5 16 90 17 6 18 7 19 91 20 2 21 1 22 3 23
REMARK SMILES IDX 20 24 21 25 22 26 23 27 24 28 25 30 26 31 27 32 88 33 28 34
REMARK SMILES IDX 87 35 29 36 30 37 31 38 81 39 32 40 86 41 80 42 82 43 33 44
REMARK SMILES IDX 85 45 79 46 78 47 34 49 66 50 46 51 65 52 47 53 50 54 64 55
REMARK SMILES IDX 83 56 48 57 49 58 63 60 84 61 51 62 35 63 36 64 44 65 37 66
REMARK SMILES IDX 38 67 42 68 45 69 39 70 40 71 43 72 41 73 67 74 68 75 76 76
REMARK SMILES IDX 69 77 70 78 74 79 77 80 71 81 72 82 75 83 73 84 52 85 53 86
REMARK SMILES IDX 61 87 54 88 55 89 59 90 62 91 56 92 57 93 60 94 58 95
REMARK H PARENT 16 7 23 29 82 48 50 59
REMARK Flexibility Score: inf
ROOT
ATOM      1  C   UNL A   1      36.939  21.977  24.257  1.00  0.00     0.002 C 
ENDROOT
BRANCH   1   2
ATOM      2  C   UNL A   1      37.124  23.220  25.138  1.00  0.00     0.021 C 
BRANCH   2   3
ATOM      3  C   UNL A   1      35.794  23.815  25.601  1.00  0.00     0.116 C 
BRANCH   3   4
ATOM      4  N   UNL A   1      35.226  23.000  26.649  1.00  0.00    -0.351 N 
ATOM      5  C   UNL A   1      33.928  22.738  27.008  1.00  0.00     0.261 C 
ATOM      6  O   UNL A   1      33.801  21.999  27.987  1.00  0.00    -0.268 OA
ATOM      7  H   UNL A   1      35.895  22.548  27.212  1.00  0.00     0.163 HD
BRANCH   5   8
ATOM      8  C   UNL A   1      32.801  23.271  26.252  1.00  0.00     0.093 A 
ATOM      9  C   UNL A   1      31.048  24.575  25.369  1.00  0.00     0.020 A 
ATOM     10  C   UNL A   1      31.160  23.587  24.428  1.00  0.00     0.080 A 
ATOM     11  C   UNL A   1      31.923  24.320  26.469  1.00  0.00     0.040 A 
ATOM     12  S   UNL A   1      32.398  22.468  24.784  1.00  0.00    -0.137 S 
BRANCH   9  13
ATOM     13  S   UNL A   1      30.014  25.995  25.404  1.00  0.00    -0.111 SA
BRANCH  13  14
ATOM     14  C   UNL A   1      29.788  26.592  23.713  1.00  0.00     0.150 C 
ATOM     15  N   UNL A   1      29.088  28.708  23.014  1.00  0.00    -0.279 N 
ATOM     16  C   UNL A   1      30.421  28.650  22.713  1.00  0.00     0.231 C 
ATOM     17  C   UNL A   1      28.623  27.529  23.539  1.00  0.00     0.243 C 
ATOM     18  O   UNL A   1      31.095  29.521  22.184  1.00  0.00    -0.274 OA
ATOM     19  C   UNL A   1      30.986  27.334  23.156  1.00  0.00     0.125 C 
ATOM     20  O   UNL A   1      27.458  27.260  23.796  1.00  0.00    -0.273 OA
BRANCH  15  21
ATOM     21  C   UNL A   1      28.217  29.858  22.755  1.00  0.00     0.087 C 
ATOM     22  C   UNL A   1      28.608  31.094  23.571  1.00  0.00     0.031 C 
ATOM     23  C   UNL A   1      28.160  30.181  21.266  1.00  0.00     0.031 C 
ENDBRANCH  15  21
ENDBRANCH  13  14
ENDBRANCH   9  13
ENDBRANCH   5   8
ENDBRANCH   3   4
ENDBRANCH   2   3
ENDBRANCH   1   2
BRANCH   1  24
ATOM     24  C   UNL A   1      36.918  20.650  25.027  1.00  0.00     0.002 C 
BRANCH  24  25
ATOM     25  C   UNL A   1      38.177  19.797  24.853  1.00  0.00     0.021 C 
BRANCH  25  26
ATOM     26  C   UNL A   1      39.317  20.197  25.782  1.00  0.00     0.116 C 
BRANCH  26  27
ATOM     27  N   UNL A   1      40.276  19.113  25.941  1.00  0.00    -0.352 N 
ATOM     28  C   UNL A   1      41.636  19.185  26.101  1.00  0.00     0.251 C 
ATOM     29  H   UNL A   1      39.896  18.204  25.935  1.00  0.00     0.163 HD
ATOM     30  O   UNL A   1      42.337  18.188  25.972  1.00  0.00    -0.269 OA
BRANCH  28  31
ATOM     31  C   UNL A   1      42.249  20.489  26.419  1.00  0.00     0.039 A 
ATOM     32  C   UNL A   1      42.787  21.262  25.388  1.00  0.00     0.014 A 
ATOM     33  C   UNL A   1      42.267  20.949  27.738  1.00  0.00     0.014 A 
ATOM     34  C   UNL A   1      43.288  22.532  25.675  1.00  0.00     0.010 A 
ATOM     35  C   UNL A   1      42.693  22.243  28.009  1.00  0.00     0.010 A 
ATOM     36  C   UNL A   1      43.211  23.046  26.980  1.00  0.00    -0.014 A 
BRANCH  36  37
ATOM     37  C   UNL A   1      43.667  24.419  27.304  1.00  0.00     0.031 A 
ATOM     38  C   UNL A   1      42.682  25.429  27.822  1.00  0.00     0.074 A 
ATOM     39  C   UNL A   1      44.940  24.779  27.051  1.00  0.00     0.049 A 
ATOM     40  N   UNL A   1      42.847  26.706  28.052  1.00  0.00    -0.248 NA
ATOM     41  C   UNL A   1      41.320  24.942  28.092  1.00  0.00     0.031 C 
ATOM     42  C   UNL A   1      45.977  23.897  26.512  1.00  0.00     0.029 A 
ATOM     43  N   UNL A   1      45.574  25.987  27.196  1.00  0.00    -0.354 N 
ATOM     44  C   UNL A   1      41.611  27.177  28.473  1.00  0.00     0.074 A 
ATOM     45  C   UNL A   1      40.690  26.063  28.414  1.00  0.00     0.031 C 
ATOM     46  C   UNL A   1      47.120  24.588  26.389  1.00  0.00     0.029 A 
ATOM     47  C   UNL A   1      46.887  25.971  26.791  1.00  0.00     0.049 A 
ATOM     48  H   UNL A   1      45.131  26.789  27.556  1.00  0.00     0.167 HD
ATOM     49  C   UNL A   1      41.280  28.420  28.893  1.00  0.00     0.037 A 
ATOM     50  C   UNL A   1      47.793  26.966  26.734  1.00  0.00     0.037 A 
ATOM     51  C   UNL A   1      42.208  29.518  28.968  1.00  0.00     0.049 A 
ATOM     52  C   UNL A   1      47.391  28.348  27.180  1.00  0.00     0.074 A 
ATOM     53  C   UNL A   1      41.987  30.804  29.430  1.00  0.00     0.029 A 
ATOM     54  N   UNL A   1      43.534  29.461  28.562  1.00  0.00    -0.354 N 
ATOM     55  N   UNL A   1      46.236  28.768  27.637  1.00  0.00    -0.248 NA
ATOM     56  C   UNL A   1      48.420  29.394  27.103  1.00  0.00     0.031 C 
ATOM     57  C   UNL A   1      43.161  31.540  29.251  1.00  0.00     0.029 A 
ATOM     58  C   UNL A   1      44.135  30.697  28.738  1.00  0.00     0.049 A 
ATOM     59  H   UNL A   1      43.981  28.661  28.203  1.00  0.00     0.167 HD
ATOM     60  C   UNL A   1      46.409  30.112  27.936  1.00  0.00     0.074 A 
ATOM     61  C   UNL A   1      47.783  30.437  27.616  1.00  0.00     0.031 C 
ATOM     62  C   UNL A   1      45.510  30.998  28.431  1.00  0.00     0.037 A 
BRANCH  49  63
ATOM     63  C   UNL A   1      39.856  28.662  29.303  1.00  0.00     0.064 A 
ATOM     64  C   UNL A   1      39.421  28.449  30.621  1.00  0.00     0.173 A 
ATOM     65  C   UNL A   1      38.921  29.149  28.377  1.00  0.00     0.173 A 
ATOM     66  F   UNL A   1      40.271  27.974  31.544  1.00  0.00    -0.203 F 
ATOM     67  C   UNL A   1      38.098  28.684  30.987  1.00  0.00     0.198 A 
ATOM     68  C   UNL A   1      37.608  29.417  28.755  1.00  0.00     0.198 A 
ATOM     69  F   UNL A   1      39.283  29.376  27.106  1.00  0.00    -0.203 F 
ATOM     70  F   UNL A   1      37.695  28.421  32.238  1.00  0.00    -0.200 F 
ATOM     71  C   UNL A   1      37.195  29.175  30.057  1.00  0.00     0.200 A 
ATOM     72  F   UNL A   1      36.741  29.906  27.859  1.00  0.00    -0.200 F 
ATOM     73  F   UNL A   1      35.926  29.410  30.412  1.00  0.00    -0.200 F 
ENDBRANCH  49  63
BRANCH  50  74
ATOM     74  C   UNL A   1      49.171  26.693  26.249  1.00  0.00     0.064 A 
ATOM     75  C   UNL A   1      50.155  26.198  27.117  1.00  0.00     0.173 A 
ATOM     76  C   UNL A   1      49.538  26.932  24.916  1.00  0.00     0.173 A 
ATOM     77  F   UNL A   1      49.859  25.973  28.405  1.00  0.00    -0.203 F 
ATOM     78  C   UNL A   1      51.459  25.977  26.677  1.00  0.00     0.198 A 
ATOM     79  C   UNL A   1      50.835  26.679  24.470  1.00  0.00     0.198 A 
ATOM     80  F   UNL A   1      48.634  27.399  24.043  1.00  0.00    -0.203 F 
ATOM     81  F   UNL A   1      52.392  25.556  27.542  1.00  0.00    -0.200 F 
ATOM     82  C   UNL A   1      51.796  26.212  25.353  1.00  0.00     0.200 A 
ATOM     83  F   UNL A   1      51.151  26.892  23.186  1.00  0.00    -0.200 F 
ATOM     84  F   UNL A   1      53.050  25.998  24.931  1.00  0.00    -0.200 F 
ENDBRANCH  50  74
BRANCH  62  85
ATOM     85  C   UNL A   1      45.991  32.394  28.708  1.00  0.00     0.064 A 
ATOM     86  C   UNL A   1      45.890  33.415  27.751  1.00  0.00     0.173 A 
ATOM     87  C   UNL A   1      46.507  32.725  29.971  1.00  0.00     0.173 A 
ATOM     88  F   UNL A   1      45.418  33.147  26.525  1.00  0.00    -0.203 F 
ATOM     89  C   UNL A   1      46.307  34.712  28.043  1.00  0.00     0.198 A 
ATOM     90  C   UNL A   1      46.890  34.029  30.270  1.00  0.00     0.198 A 
ATOM     91  F   UNL A   1      46.619  31.787  30.923  1.00  0.00    -0.203 F 
ATOM     92  F   UNL A   1      46.242  35.662  27.101  1.00  0.00    -0.200 F 
ATOM     93  C   UNL A   1      46.796  35.019  29.304  1.00  0.00     0.200 A 
ATOM     94  F   UNL A   1      47.346  34.328  31.493  1.00  0.00    -0.200 F 
ATOM     95  F   UNL A   1      47.181  36.271  29.588  1.00  0.00    -0.200 F 
ENDBRANCH  62  85
ENDBRANCH  36  37
ENDBRANCH  28  31
ENDBRANCH  26  27
ENDBRANCH  25  26
ENDBRANCH  24  25
ENDBRANCH   1  24
TORSDOF 16
ENDMDL
MODEL 2
REMARK VINA RESULT:     -12.0      6.329     10.956
REMARK SMILES CC(C)N1C(=O)C[C@@H](Sc2csc(C(=O)NCCCCCCNC(=O)c3ccc(-c4c5nc(c(-c6c(F)c(F)c(F)c(F)c6F)c6ccc([nH]6)c(-c6c(F)c(F)c(F)c(F)c6F)c6nc(c(-c7c(F)c(F)c(F)c(F)c7F)c7ccc4[nH]7)C=C6)C=C5)cc3)c2)C1=O
REMARK SMILES IDX 19 1 18 2 17 3 16 4 14 5 15 6 13 8 10 9 11 10 89 11 12 12
REMARK SMILES IDX 9 13 8 14 4 15 5 16 90 17 6 18 7 19 91 20 2 21 1 22 3 23
REMARK SMILES IDX 20 24 21 25 22 26 23 27 24 28 25 30 26 31 27 32 88 33 28 34
REMARK SMILES IDX 87 35 29 36 30 37 31 38 81 39 32 40 86 41 80 42 82 43 33 44
REMARK SMILES IDX 85 45 79 46 78 47 34 49 66 50 46 51 65 52 47 53 50 54 64 55
REMARK SMILES IDX 83 56 48 57 49 58 63 60 84 61 51 62 35 63 36 64 44 65 37 66
REMARK SMILES IDX 38 67 42 68 45 69 39 70 40 71 43 72 41 73 67 74 68 75 76 76
REMARK SMILES IDX 69 77 70 78 74 79 77 80 71 81 72 82 75 83 73 84 52 85 53 86
REMARK SMILES IDX 61 87 54 88 55 89 59 90 62 91 56 92 57 93 60 94 58 95
REMARK H PARENT 16 7 23 29 82 48 50 59
REMARK Flexibility Score: inf
ROOT
ATOM      1  C   UNL A   1      34.352  32.179  29.040  1.00  0.00     0.002 C 
ENDROOT
BRANCH   1   2
ATOM      2  C   UNL A   1      34.793  31.071  28.073  1.00  0.00     0.021 C 
BRANCH   2   3
ATOM      3  C   UNL A   1      33.699  30.691  27.076  1.00  0.00     0.116 C 
BRANCH   3   4
ATOM      4  N   UNL A   1      32.884  29.628  27.617  1.00  0.00    -0.351 N 
ATOM      5  C   UNL A   1      32.203  28.598  27.020  1.00  0.00     0.261 C 
ATOM      6  O   UNL A   1      31.578  27.871  27.797  1.00  0.00    -0.268 OA
ATOM      7  H   UNL A   1      32.802  29.647  28.598  1.00  0.00     0.163 HD
BRANCH   5   8
ATOM      8  C   UNL A   1      32.257  28.375  25.580  1.00  0.00     0.093 A 
ATOM      9  C   UNL A   1      32.647  27.567  23.401  1.00  0.00     0.020 A 
ATOM     10  C   UNL A   1      31.673  28.503  23.179  1.00  0.00     0.080 A 
ATOM     11  C   UNL A   1      33.052  27.581  24.771  1.00  0.00     0.040 A 
ATOM     12  S   UNL A   1      31.149  29.268  24.611  1.00  0.00    -0.137 S 
BRANCH   9  13
ATOM     13  S   UNL A   1      33.426  26.455  22.285  1.00  0.00    -0.111 SA
BRANCH  13  14
ATOM     14  C   UNL A   1      32.539  24.881  22.318  1.00  0.00     0.150 C 
ATOM     15  N   UNL A   1      32.714  23.162  23.889  1.00  0.00    -0.279 N 
ATOM     16  C   UNL A   1      31.497  23.742  24.122  1.00  0.00     0.231 C 
ATOM     17  C   UNL A   1      33.359  23.720  22.815  1.00  0.00     0.243 C 
ATOM     18  O   UNL A   1      30.677  23.420  24.969  1.00  0.00    -0.274 OA
ATOM     19  C   UNL A   1      31.295  24.892  23.182  1.00  0.00     0.125 C 
ATOM     20  O   UNL A   1      34.405  23.331  22.316  1.00  0.00    -0.273 OA
BRANCH  15  21
ATOM     21  C   UNL A   1      33.263  22.029  24.641  1.00  0.00     0.087 C 
ATOM     22  C   UNL A   1      33.309  22.286  26.151  1.00  0.00     0.031 C 
ATOM     23  C   UNL A   1      32.505  20.743  24.328  1.00  0.00     0.031 C 
ENDBRANCH  15  21
ENDBRANCH  13  14
ENDBRANCH   9  13
ENDBRANCH   5   8
ENDBRANCH   3   4
ENDBRANCH   2   3
ENDBRANCH   1   2
BRANCH   1  24
ATOM     24  C   UNL A   1      34.500  33.602  28.487  1.00  0.00     0.002 C 
BRANCH  24  25
ATOM     25  C   UNL A   1      33.287  34.504  28.726  1.00  0.00     0.021 C 
BRANCH  25  26
ATOM     26  C   UNL A   1      33.646  35.868  29.303  1.00  0.00     0.116 C 
BRANCH  26  27
ATOM     27  N   UNL A   1      32.725  36.254  30.363  1.00  0.00    -0.352 N 
ATOM     28  C   UNL A   1      32.681  35.821  31.664  1.00  0.00     0.251 C 
ATOM     29  H   UNL A   1      32.042  36.917  30.112  1.00  0.00     0.163 HD
ATOM     30  O   UNL A   1      31.703  36.044  32.367  1.00  0.00    -0.269 OA
BRANCH  28  31
ATOM     31  C   UNL A   1      33.829  35.068  32.204  1.00  0.00     0.039 A 
ATOM     32  C   UNL A   1      33.659  33.733  32.574  1.00  0.00     0.014 A 
ATOM     33  C   UNL A   1      35.077  35.686  32.320  1.00  0.00     0.014 A 
ATOM     34  C   UNL A   1      34.762  32.995  33.003  1.00  0.00     0.010 A 
ATOM     35  C   UNL A   1      36.187  34.929  32.671  1.00  0.00     0.010 A 
ATOM     36  C   UNL A   1      36.040  33.577  33.020  1.00  0.00    -0.014 A 
BRANCH  36  37
ATOM     37  C   UNL A   1      37.245  32.800  33.399  1.00  0.00     0.031 A 
ATOM     38  C   UNL A   1      37.951  33.102  34.690  1.00  0.00     0.074 A 
ATOM     39  C   UNL A   1      37.747  31.887  32.546  1.00  0.00     0.049 A 
ATOM     40  N   UNL A   1      39.080  32.626  35.149  1.00  0.00    -0.248 NA
ATOM     41  C   UNL A   1      37.319  34.097  35.571  1.00  0.00     0.031 C 
ATOM     42  C   UNL A   1      37.170  31.534  31.248  1.00  0.00     0.029 A 
ATOM     43  N   UNL A   1      38.869  31.102  32.635  1.00  0.00    -0.354 N 
ATOM     44  C   UNL A   1      39.300  33.272  36.358  1.00  0.00     0.074 A 
ATOM     45  C   UNL A   1      38.219  34.216  36.536  1.00  0.00     0.031 C 
ATOM     46  C   UNL A   1      37.931  30.592  30.670  1.00  0.00     0.029 A 
ATOM     47  C   UNL A   1      39.075  30.310  31.531  1.00  0.00     0.049 A 
ATOM     48  H   UNL A   1      39.470  31.106  33.415  1.00  0.00     0.167 HD
ATOM     49  C   UNL A   1      40.301  33.079  37.248  1.00  0.00     0.037 A 
ATOM     50  C   UNL A   1      40.083  29.465  31.241  1.00  0.00     0.037 A 
ATOM     51  C   UNL A   1      41.362  32.123  37.072  1.00  0.00     0.049 A 
ATOM     52  C   UNL A   1      41.200  29.290  32.236  1.00  0.00     0.074 A 
ATOM     53  C   UNL A   1      42.395  31.811  37.939  1.00  0.00     0.029 A 
ATOM     54  N   UNL A   1      41.530  31.327  35.947  1.00  0.00    -0.354 N 
ATOM     55  N   UNL A   1      41.365  29.861  33.405  1.00  0.00    -0.248 NA
ATOM     56  C   UNL A   1      42.271  28.352  31.872  1.00  0.00     0.031 C 
ATOM     57  C   UNL A   1      43.218  30.870  37.316  1.00  0.00     0.029 A 
ATOM     58  C   UNL A   1      42.665  30.546  36.086  1.00  0.00     0.049 A 
ATOM     59  H   UNL A   1      40.931  31.319  35.166  1.00  0.00     0.167 HD
ATOM     60  C   UNL A   1      42.534  29.326  33.931  1.00  0.00     0.074 A 
ATOM     61  C   UNL A   1      43.033  28.378  32.956  1.00  0.00     0.031 C 
ATOM     62  C   UNL A   1      43.138  29.594  35.114  1.00  0.00     0.037 A 
BRANCH  49  63
ATOM     63  C   UNL A   1      40.298  33.918  38.493  1.00  0.00     0.064 A 
ATOM     64  C   UNL A   1      39.578  33.539  39.638  1.00  0.00     0.173 A 
ATOM     65  C   UNL A   1      41.054  35.098  38.558  1.00  0.00     0.173 A 
ATOM     66  F   UNL A   1      38.831  32.425  39.627  1.00  0.00    -0.203 F 
ATOM     67  C   UNL A   1      39.592  34.326  40.787  1.00  0.00     0.198 A 
ATOM     68  C   UNL A   1      41.093  35.864  39.720  1.00  0.00     0.198 A 
ATOM     69  F   UNL A   1      41.765  35.506  37.495  1.00  0.00    -0.203 F 
ATOM     70  F   UNL A   1      38.853  33.970  41.848  1.00  0.00    -0.200 F 
ATOM     71  C   UNL A   1      40.355  35.482  40.830  1.00  0.00     0.200 A 
ATOM     72  F   UNL A   1      41.843  36.973  39.765  1.00  0.00    -0.200 F 
ATOM     73  F   UNL A   1      40.374  36.233  41.939  1.00  0.00    -0.200 F 
ENDBRANCH  49  63
BRANCH  50  74
ATOM     74  C   UNL A   1      40.080  28.712  29.960  1.00  0.00     0.064 A 
ATOM     75  C   UNL A   1      39.478  27.448  29.870  1.00  0.00     0.173 A 
ATOM     76  C   UNL A   1      40.686  29.229  28.805  1.00  0.00     0.173 A 
ATOM     77  F   UNL A   1      38.904  26.903  30.951  1.00  0.00    -0.203 F 
ATOM     78  C   UNL A   1      39.506  26.720  28.682  1.00  0.00     0.198 A 
ATOM     79  C   UNL A   1      40.683  28.513  27.608  1.00  0.00     0.198 A 
ATOM     80  F   UNL A   1      41.270  30.436  28.835  1.00  0.00    -0.203 F 
ATOM     81  F   UNL A   1      38.971  25.492  28.639  1.00  0.00    -0.200 F 
ATOM     82  C   UNL A   1      40.103  27.256  27.551  1.00  0.00     0.200 A 
ATOM     83  F   UNL A   1      41.248  29.042  26.514  1.00  0.00    -0.200 F 
ATOM     84  F   UNL A   1      40.128  26.555  26.408  1.00  0.00    -0.200 F 
ENDBRANCH  50  74
BRANCH  62  85
ATOM     85  C   UNL A   1      44.381  28.821  35.450  1.00  0.00     0.064 A 
ATOM     86  C   UNL A   1      44.329  27.594  36.128  1.00  0.00     0.173 A 
ATOM     87  C   UNL A   1      45.638  29.289  35.034  1.00  0.00     0.173 A 
ATOM     88  F   UNL A   1      43.154  27.110  36.559  1.00  0.00    -0.203 F 
ATOM     89  C   UNL A   1      45.491  26.874  36.394  1.00  0.00     0.198 A 
ATOM     90  C   UNL A   1      46.793  28.550  35.272  1.00  0.00     0.198 A 
ATOM     91  F   UNL A   1      45.742  30.453  34.376  1.00  0.00    -0.203 F 
ATOM     92  F   UNL A   1      45.423  25.726  37.082  1.00  0.00    -0.200 F 
ATOM     93  C   UNL A   1      46.720  27.348  35.958  1.00  0.00     0.200 A 
ATOM     94  F   UNL A   1      47.976  29.001  34.834  1.00  0.00    -0.200 F 
ATOM     95  F   UNL A   1      47.835  26.645  36.201  1.00  0.00    -0.200 F 
ENDBRANCH  62  85
ENDBRANCH  36  37
ENDBRANCH  28  31
ENDBRANCH  26  27
ENDBRANCH  25  26
ENDBRANCH  24  25
ENDBRANCH   1  24
TORSDOF 16
ENDMDL
MODEL 3
REMARK VINA RESULT:     -11.9      1.136      2.113
REMARK SMILES CC(C)N1C(=O)C[C@@H](Sc2csc(C(=O)NCCCCCCNC(=O)c3ccc(-c4c5nc(c(-c6c(F)c(F)c(F)c(F)c6F)c6ccc([nH]6)c(-c6c(F)c(F)c(F)c(F)c6F)c6nc(c(-c7c(F)c(F)c(F)c(F)c7F)c7ccc4[nH]7)C=C6)C=C5)cc3)c2)C1=O
REMARK SMILES IDX 19 1 18 2 17 3 16 4 14 5 15 6 13 8 10 9 11 10 89 11 12 12
REMARK SMILES IDX 9 13 8 14 4 15 5 16 90 17 6 18 7 19 91 20 2 21 1 22 3 23
REMARK SMILES IDX 20 24 21 25 22 26 23 27 24 28 25 30 26 31 27 32 88 33 28 34
REMARK SMILES IDX 87 35 29 36 30 37 31 38 81 39 32 40 86 41 80 42 82 43 33 44
REMARK SMILES IDX 85 45 79 46 78 47 34 49 66 50 46 51 65 52 47 53 50 54 64 55
REMARK SMILES IDX 83 56 48 57 49 58 63 60 84 61 51 62 35 63 36 64 44 65 37 66
REMARK SMILES IDX 38 67 42 68 45 69 39 70 40 71 43 72 41 73 67 74 68 75 76 76
REMARK SMILES IDX 69 77 70 78 74 79 77 80 71 81 72 82 75 83 73 84 52 85 53 86
REMARK SMILES IDX 61 87 54 88 55 89 59 90 62 91 56 92 57 93 60 94 58 95
REMARK H PARENT 16 7 23 29 82 48 50 59
REMARK Flexibility Score: inf
ROOT
ATOM      1  C   UNL A   1      37.275  22.194  24.559  1.00  0.00     0.002 C 
ENDROOT
BRANCH   1   2
ATOM      2  C   UNL A   1      37.337  23.220  25.699  1.00  0.00     0.021 C 
BRANCH   2   3
ATOM      3  C   UNL A   1      35.963  23.788  26.054  1.00  0.00     0.116 C 
BRANCH   3   4
ATOM      4  N   UNL A   1      35.269  22.884  26.941  1.00  0.00    -0.351 N 
ATOM      5  C   UNL A   1      34.048  22.264  26.850  1.00  0.00     0.261 C 
ATOM      6  O   UNL A   1      33.752  21.561  27.819  1.00  0.00    -0.268 OA
ATOM      7  H   UNL A   1      35.764  22.673  27.765  1.00  0.00     0.163 HD
BRANCH   5   8
ATOM      8  C   UNL A   1      33.200  22.409  25.674  1.00  0.00     0.093 A 
ATOM      9  C   UNL A   1      31.719  23.146  23.995  1.00  0.00     0.020 A 
ATOM     10  C   UNL A   1      32.276  22.042  23.408  1.00  0.00     0.080 A 
ATOM     11  C   UNL A   1      32.178  23.283  25.342  1.00  0.00     0.040 A 
ATOM     12  S   UNL A   1      33.440  21.281  24.396  1.00  0.00    -0.137 S 
BRANCH   9  13
ATOM     13  S   UNL A   1      30.569  24.311  23.356  1.00  0.00    -0.111 SA
BRANCH  13  14
ATOM     14  C   UNL A   1      31.389  25.914  23.202  1.00  0.00     0.150 C 
ATOM     15  N   UNL A   1      31.763  27.508  24.867  1.00  0.00    -0.279 N 
ATOM     16  C   UNL A   1      32.990  26.962  24.606  1.00  0.00     0.231 C 
ATOM     17  C   UNL A   1      30.786  27.002  24.049  1.00  0.00     0.243 C 
ATOM     18  O   UNL A   1      34.054  27.256  25.132  1.00  0.00    -0.274 OA
ATOM     19  C   UNL A   1      32.860  25.892  23.565  1.00  0.00     0.125 C 
ATOM     20  O   UNL A   1      29.625  27.383  23.985  1.00  0.00    -0.273 OA
BRANCH  15  21
ATOM     21  C   UNL A   1      31.504  28.560  25.854  1.00  0.00     0.087 C 
ATOM     22  C   UNL A   1      31.865  28.137  27.281  1.00  0.00     0.031 C 
ATOM     23  C   UNL A   1      32.209  29.857  25.473  1.00  0.00     0.031 C 
ENDBRANCH  15  21
ENDBRANCH  13  14
ENDBRANCH   9  13
ENDBRANCH   5   8
ENDBRANCH   3   4
ENDBRANCH   2   3
ENDBRANCH   1   2
BRANCH   1  24
ATOM     24  C   UNL A   1      37.017  20.752  25.015  1.00  0.00     0.002 C 
BRANCH  24  25
ATOM     25  C   UNL A   1      38.236  19.832  24.924  1.00  0.00     0.021 C 
BRANCH  25  26
ATOM     26  C   UNL A   1      39.354  20.203  25.891  1.00  0.00     0.116 C 
BRANCH  26  27
ATOM     27  N   UNL A   1      40.326  19.126  26.017  1.00  0.00    -0.352 N 
ATOM     28  C   UNL A   1      41.691  19.207  26.127  1.00  0.00     0.251 C 
ATOM     29  H   UNL A   1      39.953  18.215  26.025  1.00  0.00     0.163 HD
ATOM     30  O   UNL A   1      42.394  18.216  25.975  1.00  0.00    -0.269 OA
BRANCH  28  31
ATOM     31  C   UNL A   1      42.305  20.516  26.422  1.00  0.00     0.039 A 
ATOM     32  C   UNL A   1      42.725  21.328  25.368  1.00  0.00     0.014 A 
ATOM     33  C   UNL A   1      42.441  20.941  27.747  1.00  0.00     0.014 A 
ATOM     34  C   UNL A   1      43.226  22.602  25.642  1.00  0.00     0.010 A 
ATOM     35  C   UNL A   1      42.865  22.237  28.012  1.00  0.00     0.010 A 
ATOM     36  C   UNL A   1      43.266  23.078  26.962  1.00  0.00    -0.014 A 
BRANCH  36  37
ATOM     37  C   UNL A   1      43.723  24.453  27.280  1.00  0.00     0.031 A 
ATOM     38  C   UNL A   1      42.737  25.468  27.785  1.00  0.00     0.074 A 
ATOM     39  C   UNL A   1      44.999  24.807  27.035  1.00  0.00     0.049 A 
ATOM     40  N   UNL A   1      42.904  26.747  28.007  1.00  0.00    -0.248 NA
ATOM     41  C   UNL A   1      41.371  24.988  28.047  1.00  0.00     0.031 C 
ATOM     42  C   UNL A   1      46.037  23.919  26.509  1.00  0.00     0.029 A 
ATOM     43  N   UNL A   1      45.635  26.014  27.176  1.00  0.00    -0.354 N 
ATOM     44  C   UNL A   1      41.666  27.224  28.416  1.00  0.00     0.074 A 
ATOM     45  C   UNL A   1      40.743  26.112  28.358  1.00  0.00     0.031 C 
ATOM     46  C   UNL A   1      47.183  24.606  26.390  1.00  0.00     0.029 A 
ATOM     47  C   UNL A   1      46.951  25.992  26.781  1.00  0.00     0.049 A 
ATOM     48  H   UNL A   1      45.191  26.820  27.528  1.00  0.00     0.167 HD
ATOM     49  C   UNL A   1      41.336  28.471  28.825  1.00  0.00     0.037 A 
ATOM     50  C   UNL A   1      47.860  26.984  26.724  1.00  0.00     0.037 A 
ATOM     51  C   UNL A   1      42.266  29.567  28.899  1.00  0.00     0.049 A 
ATOM     52  C   UNL A   1      47.459  28.370  27.158  1.00  0.00     0.074 A 
ATOM     53  C   UNL A   1      42.045  30.857  29.351  1.00  0.00     0.029 A 
ATOM     54  N   UNL A   1      43.595  29.503  28.504  1.00  0.00    -0.354 N 
ATOM     55  N   UNL A   1      46.302  28.796  27.603  1.00  0.00    -0.248 NA
ATOM     56  C   UNL A   1      48.491  29.412  27.082  1.00  0.00     0.031 C 
ATOM     57  C   UNL A   1      43.223  31.588  29.176  1.00  0.00     0.029 A 
ATOM     58  C   UNL A   1      44.198  30.738  28.676  1.00  0.00     0.049 A 
ATOM     59  H   UNL A   1      44.042  28.700  28.154  1.00  0.00     0.167 HD
ATOM     60  C   UNL A   1      46.476  30.142  27.895  1.00  0.00     0.074 A 
ATOM     61  C   UNL A   1      47.854  30.460  27.583  1.00  0.00     0.031 C 
ATOM     62  C   UNL A   1      45.577  31.034  28.377  1.00  0.00     0.037 A 
BRANCH  49  63
ATOM     63  C   UNL A   1      39.910  28.720  29.223  1.00  0.00     0.064 A 
ATOM     64  C   UNL A   1      38.952  29.168  28.298  1.00  0.00     0.173 A 
ATOM     65  C   UNL A   1      39.483  28.471  30.536  1.00  0.00     0.173 A 
ATOM     66  F   UNL A   1      39.308  29.431  27.032  1.00  0.00    -0.203 F 
ATOM     67  C   UNL A   1      37.632  29.387  28.683  1.00  0.00     0.198 A 
ATOM     68  C   UNL A   1      38.154  28.658  30.908  1.00  0.00     0.198 A 
ATOM     69  F   UNL A   1      40.354  28.036  31.460  1.00  0.00    -0.203 F 
ATOM     70  F   UNL A   1      36.749  29.867  27.794  1.00  0.00    -0.200 F 
ATOM     71  C   UNL A   1      37.232  29.124  29.984  1.00  0.00     0.200 A 
ATOM     72  F   UNL A   1      37.767  28.388  32.162  1.00  0.00    -0.200 F 
ATOM     73  F   UNL A   1      35.960  29.327  30.349  1.00  0.00    -0.200 F 
ENDBRANCH  49  63
BRANCH  50  74
ATOM     74  C   UNL A   1      49.241  26.704  26.251  1.00  0.00     0.064 A 
ATOM     75  C   UNL A   1      49.605  26.934  24.916  1.00  0.00     0.173 A 
ATOM     76  C   UNL A   1      50.220  26.190  27.114  1.00  0.00     0.173 A 
ATOM     77  F   UNL A   1      48.699  27.405  24.048  1.00  0.00    -0.203 F 
ATOM     78  C   UNL A   1      50.887  26.637  24.457  1.00  0.00     0.198 A 
ATOM     79  C   UNL A   1      51.512  25.925  26.661  1.00  0.00     0.198 A 
ATOM     80  F   UNL A   1      49.927  25.958  28.402  1.00  0.00    -0.203 F 
ATOM     81  F   UNL A   1      51.190  26.816  23.164  1.00  0.00    -0.200 F 
ATOM     82  C   UNL A   1      51.840  26.138  25.331  1.00  0.00     0.200 A 
ATOM     83  F   UNL A   1      52.435  25.458  27.513  1.00  0.00    -0.200 F 
ATOM     84  F   UNL A   1      53.074  25.854  24.889  1.00  0.00    -0.200 F 
ENDBRANCH  50  74
BRANCH  62  85
ATOM     85  C   UNL A   1      46.060  32.430  28.648  1.00  0.00     0.064 A 
ATOM     86  C   UNL A   1      45.962  33.447  27.687  1.00  0.00     0.173 A 
ATOM     87  C   UNL A   1      46.574  32.766  29.910  1.00  0.00     0.173 A 
ATOM     88  F   UNL A   1      45.491  33.174  26.461  1.00  0.00    -0.203 F 
ATOM     89  C   UNL A   1      46.380  34.744  27.973  1.00  0.00     0.198 A 
ATOM     90  C   UNL A   1      46.959  34.071  30.204  1.00  0.00     0.198 A 
ATOM     91  F   UNL A   1      46.683  31.832  30.867  1.00  0.00    -0.203 F 
ATOM     92  F   UNL A   1      46.318  35.690  27.026  1.00  0.00    -0.200 F 
ATOM     93  C   UNL A   1      46.868  35.057  29.234  1.00  0.00     0.200 A 
ATOM     94  F   UNL A   1      47.414  34.374  31.427  1.00  0.00    -0.200 F 
ATOM     95  F   UNL A   1      47.255  36.309  29.512  1.00  0.00    -0.200 F 
ENDBRANCH  62  85
ENDBRANCH  36  37
ENDBRANCH  28  31
ENDBRANCH  26  27
ENDBRANCH  25  26
ENDBRANCH  24  25
ENDBRANCH   1  24
TORSDOF 16
ENDMDL
