MODEL 1
REMARK VINA RESULT:     -12.2      0.000      0.000
REMARK SMILES CC[C@@]1(C)C[C@@H]([NH2+]C[C@H]2CC[C@@H](C(=O)NCCCCCCNC(=O)c3ccc(-c4c5nc(c(-c6c(F)c(F)c(F)c(F)c6F)c6ccc([nH]6)c(-c6c(F)c(F)c(F)c(F)c6F)c6nc(c(-c7c(F)c(F)c(F)c(F)c7F)c7ccc4[nH]7)C=C6)C=C5)cc3)CC2)CCO1
REMARK SMILES IDX 17 1 16 2 15 3 13 4 14 5 12 7 9 8 10 9 89 10 11 11 88 12
REMARK SMILES IDX 8 13 7 14 6 17 3 18 4 19 5 20 92 21 91 22 90 23 2 24 1 25
REMARK SMILES IDX 18 26 19 27 20 28 21 29 22 30 23 31 24 33 25 34 26 35 87 36
REMARK SMILES IDX 27 37 86 38 28 39 29 40 30 41 80 42 31 43 85 44 79 45 81 46
REMARK SMILES IDX 32 47 84 48 78 49 77 50 33 52 65 53 45 54 64 55 46 56 49 57
REMARK SMILES IDX 63 58 82 59 47 60 48 61 62 63 83 64 50 65 34 66 35 67 43 68
REMARK SMILES IDX 36 69 37 70 41 71 44 72 38 73 39 74 42 75 40 76 66 77 67 78
REMARK SMILES IDX 75 79 68 80 69 81 73 82 76 83 70 84 71 85 74 86 72 87 51 88
REMARK SMILES IDX 52 89 60 90 53 91 54 92 58 93 61 94 55 95 56 96 59 97 57 98
REMARK H PARENT 15 6 7 15 7 16 22 32 81 51 49 62
REMARK Flexibility Score: inf
ROOT
ATOM      1  C   UNL A   1      31.936  28.552  26.198  1.00  0.00     0.021 C 
ENDROOT
BRANCH   1   2
ATOM      2  C   UNL A   1      33.126  27.622  25.977  1.00  0.00     0.116 C 
BRANCH   2   3
ATOM      3  N   UNL A   1      32.863  26.728  24.866  1.00  0.00    -0.356 N 
ATOM      4  C   UNL A   1      33.377  25.504  24.563  1.00  0.00     0.223 C 
ATOM      5  O   UNL A   1      33.065  25.014  23.474  1.00  0.00    -0.275 OA
ATOM      6  H   UNL A   1      32.200  27.064  24.221  1.00  0.00     0.163 HD
BRANCH   4   7
ATOM      7  C   UNL A   1      34.199  24.695  25.571  1.00  0.00     0.078 C 
ATOM      8  C   UNL A   1      35.495  21.980  26.102  1.00  0.00     0.044 C 
ATOM      9  C   UNL A   1      36.263  23.226  25.645  1.00  0.00     0.010 C 
ATOM     10  C   UNL A   1      34.348  22.526  26.999  1.00  0.00     0.010 C 
ATOM     11  C   UNL A   1      35.442  24.215  24.844  1.00  0.00     0.014 C 
ATOM     12  C   UNL A   1      33.448  23.589  26.329  1.00  0.00     0.014 C 
BRANCH   8  13
ATOM     13  C   UNL A   1      34.939  20.913  25.089  1.00  0.00     0.264 C 
BRANCH  13  14
ATOM     14  N   UNL A   1      34.417  19.570  25.421  1.00  0.00    -0.343 N 
ATOM     15  H   UNL A   1      34.948  18.898  24.867  1.00  0.00     0.346 HD
ATOM     16  H   UNL A   1      34.523  19.510  26.434  1.00  0.00     0.346 HD
BRANCH  14  17
ATOM     17  C   UNL A   1      32.986  19.283  25.196  1.00  0.00     0.187 C 
ATOM     18  C   UNL A   1      33.196  16.781  24.722  1.00  0.00     0.071 C 
ATOM     19  C   UNL A   1      32.777  15.443  25.376  1.00  0.00     0.042 C 
ATOM     20  C   UNL A   1      32.597  17.887  25.633  1.00  0.00     0.100 C 
ATOM     21  O   UNL A   1      32.532  16.872  23.463  1.00  0.00    -0.375 OA
ATOM     22  C   UNL A   1      32.604  18.144  22.821  1.00  0.00     0.167 C 
ATOM     23  C   UNL A   1      32.542  19.401  23.712  1.00  0.00     0.093 C 
BRANCH  18  24
ATOM     24  C   UNL A   1      34.745  16.746  24.574  1.00  0.00     0.032 C 
ATOM     25  C   UNL A   1      35.643  15.824  25.388  1.00  0.00     0.007 C 
ENDBRANCH  18  24
ENDBRANCH  14  17
ENDBRANCH  13  14
ENDBRANCH   8  13
ENDBRANCH   4   7
ENDBRANCH   2   3
ENDBRANCH   1   2
BRANCH   1  26
ATOM     26  C   UNL A   1      32.306  30.033  26.076  1.00  0.00     0.002 C 
BRANCH  26  27
ATOM     27  C   UNL A   1      31.129  30.958  25.746  1.00  0.00     0.002 C 
BRANCH  27  28
ATOM     28  C   UNL A   1      31.196  32.341  26.396  1.00  0.00     0.021 C 
BRANCH  28  29
ATOM     29  C   UNL A   1      32.437  32.577  27.250  1.00  0.00     0.116 C 
BRANCH  29  30
ATOM     30  N   UNL A   1      32.598  33.978  27.610  1.00  0.00    -0.352 N 
ATOM     31  C   UNL A   1      33.499  34.557  28.462  1.00  0.00     0.251 C 
ATOM     32  H   UNL A   1      31.968  34.598  27.177  1.00  0.00     0.163 HD
ATOM     33  O   UNL A   1      33.369  35.734  28.797  1.00  0.00    -0.269 OA
BRANCH  31  34
ATOM     34  C   UNL A   1      34.620  33.760  28.997  1.00  0.00     0.039 A 
ATOM     35  C   UNL A   1      35.929  34.160  28.715  1.00  0.00     0.014 A 
ATOM     36  C   UNL A   1      34.383  32.621  29.772  1.00  0.00     0.014 A 
ATOM     37  C   UNL A   1      36.999  33.451  29.260  1.00  0.00     0.010 A 
ATOM     38  C   UNL A   1      35.448  31.962  30.378  1.00  0.00     0.010 A 
ATOM     39  C   UNL A   1      36.767  32.368  30.124  1.00  0.00    -0.014 A 
BRANCH  39  40
ATOM     40  C   UNL A   1      37.894  31.646  30.768  1.00  0.00     0.031 A 
ATOM     41  C   UNL A   1      38.312  31.994  32.170  1.00  0.00     0.074 A 
ATOM     42  C   UNL A   1      38.574  30.715  30.069  1.00  0.00     0.049 A 
ATOM     43  N   UNL A   1      39.313  31.529  32.874  1.00  0.00    -0.248 NA
ATOM     44  C   UNL A   1      37.516  33.020  32.862  1.00  0.00     0.031 C 
ATOM     45  C   UNL A   1      38.291  30.322  28.688  1.00  0.00     0.029 A 
ATOM     46  N   UNL A   1      39.649  29.939  30.421  1.00  0.00    -0.354 N 
ATOM     47  C   UNL A   1      39.263  32.201  34.089  1.00  0.00     0.074 A 
ATOM     48  C   UNL A   1      38.179  33.156  34.001  1.00  0.00     0.031 C 
ATOM     49  C   UNL A   1      39.158  29.366  28.317  1.00  0.00     0.029 A 
ATOM     50  C   UNL A   1      40.084  29.111  29.415  1.00  0.00     0.049 A 
ATOM     51  H   UNL A   1      40.069  29.971  31.311  1.00  0.00     0.167 HD
ATOM     52  C   UNL A   1      40.029  32.016  35.190  1.00  0.00     0.037 A 
ATOM     53  C   UNL A   1      41.123  28.255  29.378  1.00  0.00     0.037 A 
ATOM     54  C   UNL A   1      41.103  31.060  35.276  1.00  0.00     0.049 A 
ATOM     55  C   UNL A   1      41.984  28.095  30.604  1.00  0.00     0.074 A 
ATOM     56  C   UNL A   1      41.924  30.779  36.354  1.00  0.00     0.029 A 
ATOM     57  N   UNL A   1      41.504  30.229  34.240  1.00  0.00    -0.354 N 
ATOM     58  N   UNL A   1      41.890  28.696  31.766  1.00  0.00    -0.248 NA
ATOM     59  C   UNL A   1      43.090  27.132  30.517  1.00  0.00     0.031 C 
ATOM     60  C   UNL A   1      42.854  29.814  35.955  1.00  0.00     0.029 A 
ATOM     61  C   UNL A   1      42.574  29.449  34.649  1.00  0.00     0.049 A 
ATOM     62  H   UNL A   1      41.091  30.198  33.347  1.00  0.00     0.167 HD
ATOM     63  C   UNL A   1      42.898  28.160  32.556  1.00  0.00     0.074 A 
ATOM     64  C   UNL A   1      43.582  27.173  31.746  1.00  0.00     0.031 C 
ATOM     65  C   UNL A   1      43.234  28.460  33.834  1.00  0.00     0.037 A 
BRANCH  52  66
ATOM     66  C   UNL A   1      39.726  32.858  36.397  1.00  0.00     0.064 A 
ATOM     67  C   UNL A   1      40.391  34.072  36.628  1.00  0.00     0.173 A 
ATOM     68  C   UNL A   1      38.731  32.473  37.308  1.00  0.00     0.173 A 
ATOM     69  F   UNL A   1      41.360  34.481  35.793  1.00  0.00    -0.203 F 
ATOM     70  C   UNL A   1      40.092  34.856  37.740  1.00  0.00     0.198 A 
ATOM     71  C   UNL A   1      38.411  33.276  38.400  1.00  0.00     0.198 A 
ATOM     72  F   UNL A   1      38.060  31.325  37.133  1.00  0.00    -0.203 F 
ATOM     73  F   UNL A   1      40.776  35.985  37.964  1.00  0.00    -0.200 F 
ATOM     74  C   UNL A   1      39.095  34.461  38.620  1.00  0.00     0.200 A 
ATOM     75  F   UNL A   1      37.438  32.900  39.242  1.00  0.00    -0.200 F 
ATOM     76  F   UNL A   1      38.800  35.221  39.683  1.00  0.00    -0.200 F 
ENDBRANCH  52  66
BRANCH  53  77
ATOM     77  C   UNL A   1      41.412  27.482  28.140  1.00  0.00     0.064 A 
ATOM     78  C   UNL A   1      40.855  26.211  27.932  1.00  0.00     0.173 A 
ATOM     79  C   UNL A   1      42.277  27.980  27.155  1.00  0.00     0.173 A 
ATOM     80  F   UNL A   1      40.036  25.680  28.852  1.00  0.00    -0.203 F 
ATOM     81  C   UNL A   1      41.180  25.457  26.806  1.00  0.00     0.198 A 
ATOM     82  C   UNL A   1      42.573  27.240  26.012  1.00  0.00     0.198 A 
ATOM     83  F   UNL A   1      42.832  29.193  27.299  1.00  0.00    -0.203 F 
ATOM     84  F   UNL A   1      40.684  24.220  26.666  1.00  0.00    -0.200 F 
ATOM     85  C   UNL A   1      42.036  25.973  25.845  1.00  0.00     0.200 A 
ATOM     86  F   UNL A   1      43.386  27.752  25.078  1.00  0.00    -0.200 F 
ATOM     87  F   UNL A   1      42.351  25.246  24.765  1.00  0.00    -0.200 F 
ENDBRANCH  53  77
BRANCH  65  88
ATOM     88  C   UNL A   1      44.358  27.680  34.453  1.00  0.00     0.064 A 
ATOM     89  C   UNL A   1      45.687  28.127  34.401  1.00  0.00     0.173 A 
ATOM     90  C   UNL A   1      44.096  26.485  35.143  1.00  0.00     0.173 A 
ATOM     91  F   UNL A   1      45.993  29.256  33.742  1.00  0.00    -0.203 F 
ATOM     92  C   UNL A   1      46.714  27.392  34.987  1.00  0.00     0.198 A 
ATOM     93  C   UNL A   1      45.120  25.773  35.758  1.00  0.00     0.198 A 
ATOM     94  F   UNL A   1      42.842  26.017  35.231  1.00  0.00    -0.203 F 
ATOM     95  F   UNL A   1      47.982  27.811  34.875  1.00  0.00    -0.200 F 
ATOM     96  C   UNL A   1      46.429  26.220  35.673  1.00  0.00     0.200 A 
ATOM     97  F   UNL A   1      44.840  24.650  36.435  1.00  0.00    -0.200 F 
ATOM     98  F   UNL A   1      47.418  25.519  36.243  1.00  0.00    -0.200 F 
ENDBRANCH  65  88
ENDBRANCH  39  40
ENDBRANCH  31  34
ENDBRANCH  29  30
ENDBRANCH  28  29
ENDBRANCH  27  28
ENDBRANCH  26  27
ENDBRANCH   1  26
TORSDOF 17
ENDMDL
MODEL 2
REMARK VINA RESULT:     -12.1      0.647      7.306
REMARK SMILES CC[C@@]1(C)C[C@@H]([NH2+]C[C@H]2CC[C@@H](C(=O)NCCCCCCNC(=O)c3ccc(-c4c5nc(c(-c6c(F)c(F)c(F)c(F)c6F)c6ccc([nH]6)c(-c6c(F)c(F)c(F)c(F)c6F)c6nc(c(-c7c(F)c(F)c(F)c(F)c7F)c7ccc4[nH]7)C=C6)C=C5)cc3)CC2)CCO1
REMARK SMILES IDX 17 1 16 2 15 3 13 4 14 5 12 7 9 8 10 9 89 10 11 11 88 12
REMARK SMILES IDX 8 13 7 14 6 17 3 18 4 19 5 20 92 21 91 22 90 23 2 24 1 25
REMARK SMILES IDX 18 26 19 27 20 28 21 29 22 30 23 31 24 33 25 34 26 35 87 36
REMARK SMILES IDX 27 37 86 38 28 39 29 40 30 41 80 42 31 43 85 44 79 45 81 46
REMARK SMILES IDX 32 47 84 48 78 49 77 50 33 52 65 53 45 54 64 55 46 56 49 57
REMARK SMILES IDX 63 58 82 59 47 60 48 61 62 63 83 64 50 65 34 66 35 67 43 68
REMARK SMILES IDX 36 69 37 70 41 71 44 72 38 73 39 74 42 75 40 76 66 77 67 78
REMARK SMILES IDX 75 79 68 80 69 81 73 82 76 83 70 84 71 85 74 86 72 87 51 88
REMARK SMILES IDX 52 89 60 90 53 91 54 92 58 93 61 94 55 95 56 96 59 97 57 98
REMARK H PARENT 15 6 7 15 7 16 22 32 81 51 49 62
REMARK Flexibility Score: inf
ROOT
ATOM      1  C   UNL A   1      32.021  28.684  26.182  1.00  0.00     0.021 C 
ENDROOT
BRANCH   1   2
ATOM      2  C   UNL A   1      33.293  27.856  26.014  1.00  0.00     0.116 C 
BRANCH   2   3
ATOM      3  N   UNL A   1      33.195  27.023  24.831  1.00  0.00    -0.356 N 
ATOM      4  C   UNL A   1      33.667  25.771  24.579  1.00  0.00     0.223 C 
ATOM      5  O   UNL A   1      33.547  25.342  23.428  1.00  0.00    -0.275 OA
ATOM      6  H   UNL A   1      32.704  27.433  24.084  1.00  0.00     0.163 HD
BRANCH   4   7
ATOM      7  C   UNL A   1      34.204  24.864  25.692  1.00  0.00     0.078 C 
ATOM      8  C   UNL A   1      35.149  22.033  26.343  1.00  0.00     0.044 C 
ATOM      9  C   UNL A   1      36.088  23.220  26.104  1.00  0.00     0.010 C 
ATOM     10  C   UNL A   1      33.892  22.650  27.021  1.00  0.00     0.010 C 
ATOM     11  C   UNL A   1      35.525  24.299  25.202  1.00  0.00     0.014 C 
ATOM     12  C   UNL A   1      33.232  23.806  26.236  1.00  0.00     0.014 C 
BRANCH   8  13
ATOM     13  C   UNL A   1      34.723  21.048  25.194  1.00  0.00     0.264 C 
BRANCH  13  14
ATOM     14  N   UNL A   1      34.297  19.641  25.350  1.00  0.00    -0.343 N 
ATOM     15  H   UNL A   1      34.881  19.081  24.730  1.00  0.00     0.346 HD
ATOM     16  H   UNL A   1      34.395  19.466  26.350  1.00  0.00     0.346 HD
BRANCH  14  17
ATOM     17  C   UNL A   1      32.893  19.283  25.063  1.00  0.00     0.187 C 
ATOM     18  C   UNL A   1      33.234  16.778  24.698  1.00  0.00     0.071 C 
ATOM     19  C   UNL A   1      32.837  15.446  25.380  1.00  0.00     0.042 C 
ATOM     20  C   UNL A   1      32.540  17.888  25.533  1.00  0.00     0.100 C 
ATOM     21  O   UNL A   1      32.634  16.793  23.403  1.00  0.00    -0.375 OA
ATOM     22  C   UNL A   1      32.686  18.042  22.718  1.00  0.00     0.167 C 
ATOM     23  C   UNL A   1      32.524  19.327  23.554  1.00  0.00     0.093 C 
BRANCH  18  24
ATOM     24  C   UNL A   1      34.788  16.806  24.632  1.00  0.00     0.032 C 
ATOM     25  C   UNL A   1      35.676  15.817  25.376  1.00  0.00     0.007 C 
ENDBRANCH  18  24
ENDBRANCH  14  17
ENDBRANCH  13  14
ENDBRANCH   8  13
ENDBRANCH   4   7
ENDBRANCH   2   3
ENDBRANCH   1   2
BRANCH   1  26
ATOM     26  C   UNL A   1      32.276  30.191  26.098  1.00  0.00     0.002 C 
BRANCH  26  27
ATOM     27  C   UNL A   1      31.033  31.031  25.782  1.00  0.00     0.002 C 
BRANCH  27  28
ATOM     28  C   UNL A   1      31.082  32.471  26.298  1.00  0.00     0.021 C 
BRANCH  28  29
ATOM     29  C   UNL A   1      32.279  32.782  27.189  1.00  0.00     0.116 C 
BRANCH  29  30
ATOM     30  N   UNL A   1      32.296  34.171  27.621  1.00  0.00    -0.352 N 
ATOM     31  C   UNL A   1      33.080  34.778  28.564  1.00  0.00     0.251 C 
ATOM     32  H   UNL A   1      31.649  34.760  27.169  1.00  0.00     0.163 HD
ATOM     33  O   UNL A   1      32.828  35.921  28.940  1.00  0.00    -0.269 OA
BRANCH  31  34
ATOM     34  C   UNL A   1      34.222  34.047  29.149  1.00  0.00     0.039 A 
ATOM     35  C   UNL A   1      35.520  34.440  28.812  1.00  0.00     0.014 A 
ATOM     36  C   UNL A   1      34.014  32.977  30.024  1.00  0.00     0.014 A 
ATOM     37  C   UNL A   1      36.609  33.796  29.399  1.00  0.00     0.010 A 
ATOM     38  C   UNL A   1      35.099  32.389  30.668  1.00  0.00     0.010 A 
ATOM     39  C   UNL A   1      36.407  32.790  30.359  1.00  0.00    -0.014 A 
BRANCH  39  40
ATOM     40  C   UNL A   1      37.555  32.144  31.044  1.00  0.00     0.031 A 
ATOM     41  C   UNL A   1      38.333  31.058  30.354  1.00  0.00     0.074 A 
ATOM     42  C   UNL A   1      37.861  32.499  32.308  1.00  0.00     0.049 A 
ATOM     43  N   UNL A   1      39.319  30.327  30.812  1.00  0.00    -0.248 NA
ATOM     44  C   UNL A   1      37.935  30.733  28.975  1.00  0.00     0.031 C 
ATOM     45  C   UNL A   1      37.153  33.507  33.097  1.00  0.00     0.029 A 
ATOM     46  N   UNL A   1      38.841  32.044  33.154  1.00  0.00    -0.354 N 
ATOM     47  C   UNL A   1      39.657  29.462  29.780  1.00  0.00     0.074 A 
ATOM     48  C   UNL A   1      38.728  29.708  28.698  1.00  0.00     0.031 C 
ATOM     49  C   UNL A   1      37.732  33.607  34.305  1.00  0.00     0.029 A 
ATOM     50  C   UNL A   1      38.822  32.641  34.391  1.00  0.00     0.049 A 
ATOM     51  H   UNL A   1      39.497  31.355  32.899  1.00  0.00     0.167 HD
ATOM     52  C   UNL A   1      40.672  28.566  29.726  1.00  0.00     0.037 A 
ATOM     53  C   UNL A   1      39.587  32.422  35.478  1.00  0.00     0.037 A 
ATOM     54  C   UNL A   1      41.598  28.329  30.802  1.00  0.00     0.049 A 
ATOM     55  C   UNL A   1      40.685  31.393  35.403  1.00  0.00     0.074 A 
ATOM     56  C   UNL A   1      42.674  27.459  30.838  1.00  0.00     0.029 A 
ATOM     57  N   UNL A   1      41.555  28.964  32.035  1.00  0.00    -0.354 N 
ATOM     58  N   UNL A   1      41.031  30.622  34.401  1.00  0.00    -0.248 NA
ATOM     59  C   UNL A   1      41.505  31.210  36.609  1.00  0.00     0.031 C 
ATOM     60  C   UNL A   1      43.252  27.531  32.109  1.00  0.00     0.029 A 
ATOM     61  C   UNL A   1      42.575  28.490  32.845  1.00  0.00     0.049 A 
ATOM     62  H   UNL A   1      40.898  29.648  32.296  1.00  0.00     0.167 HD
ATOM     63  C   UNL A   1      42.126  29.890  34.842  1.00  0.00     0.074 A 
ATOM     64  C   UNL A   1      42.397  30.322  36.197  1.00  0.00     0.031 C 
ATOM     65  C   UNL A   1      42.840  28.942  34.187  1.00  0.00     0.037 A 
BRANCH  52  66
ATOM     66  C   UNL A   1      40.841  27.784  28.454  1.00  0.00     0.064 A 
ATOM     67  C   UNL A   1      41.681  28.235  27.423  1.00  0.00     0.173 A 
ATOM     68  C   UNL A   1      40.196  26.550  28.280  1.00  0.00     0.173 A 
ATOM     69  F   UNL A   1      42.313  29.414  27.535  1.00  0.00    -0.203 F 
ATOM     70  C   UNL A   1      41.846  27.495  26.255  1.00  0.00     0.198 A 
ATOM     71  C   UNL A   1      40.390  25.797  27.125  1.00  0.00     0.198 A 
ATOM     72  F   UNL A   1      39.386  26.069  29.235  1.00  0.00    -0.203 F 
ATOM     73  F   UNL A   1      42.612  27.972  25.266  1.00  0.00    -0.200 F 
ATOM     74  C   UNL A   1      41.207  26.272  26.111  1.00  0.00     0.200 A 
ATOM     75  F   UNL A   1      39.784  24.609  26.993  1.00  0.00    -0.200 F 
ATOM     76  F   UNL A   1      41.375  25.556  24.991  1.00  0.00    -0.200 F 
ENDBRANCH  52  66
BRANCH  53  77
ATOM     77  C   UNL A   1      39.347  33.188  36.730  1.00  0.00     0.064 A 
ATOM     78  C   UNL A   1      40.016  34.396  36.982  1.00  0.00     0.173 A 
ATOM     79  C   UNL A   1      38.470  32.713  37.716  1.00  0.00     0.173 A 
ATOM     80  F   UNL A   1      40.879  34.883  36.079  1.00  0.00    -0.203 F 
ATOM     81  C   UNL A   1      39.844  35.077  38.185  1.00  0.00     0.198 A 
ATOM     82  C   UNL A   1      38.271  33.415  38.903  1.00  0.00     0.198 A 
ATOM     83  F   UNL A   1      37.798  31.568  37.525  1.00  0.00    -0.203 F 
ATOM     84  F   UNL A   1      40.545  36.194  38.424  1.00  0.00    -0.200 F 
ATOM     85  C   UNL A   1      38.969  34.589  39.143  1.00  0.00     0.200 A 
ATOM     86  F   UNL A   1      37.411  32.949  39.818  1.00  0.00    -0.200 F 
ATOM     87  F   UNL A   1      38.806  35.243  40.301  1.00  0.00    -0.200 F 
ENDBRANCH  53  77
BRANCH  65  88
ATOM     88  C   UNL A   1      44.013  28.342  34.909  1.00  0.00     0.064 A 
ATOM     89  C   UNL A   1      43.889  27.181  35.686  1.00  0.00     0.173 A 
ATOM     90  C   UNL A   1      45.289  28.916  34.788  1.00  0.00     0.173 A 
ATOM     91  F   UNL A   1      42.689  26.601  35.846  1.00  0.00    -0.203 F 
ATOM     92  C   UNL A   1      44.990  26.637  36.343  1.00  0.00     0.198 A 
ATOM     93  C   UNL A   1      46.393  28.349  35.416  1.00  0.00     0.198 A 
ATOM     94  F   UNL A   1      45.465  30.022  34.049  1.00  0.00    -0.203 F 
ATOM     95  F   UNL A   1      44.836  25.559  37.125  1.00  0.00    -0.200 F 
ATOM     96  C   UNL A   1      46.243  27.216  36.200  1.00  0.00     0.200 A 
ATOM     97  F   UNL A   1      47.605  28.900  35.263  1.00  0.00    -0.200 F 
ATOM     98  F   UNL A   1      47.303  26.686  36.825  1.00  0.00    -0.200 F 
ENDBRANCH  65  88
ENDBRANCH  39  40
ENDBRANCH  31  34
ENDBRANCH  29  30
ENDBRANCH  28  29
ENDBRANCH  27  28
ENDBRANCH  26  27
ENDBRANCH   1  26
TORSDOF 17
ENDMDL
MODEL 3
REMARK VINA RESULT:     -12.0      5.398     10.284
REMARK SMILES CC[C@@]1(C)C[C@@H]([NH2+]C[C@H]2CC[C@@H](C(=O)NCCCCCCNC(=O)c3ccc(-c4c5nc(c(-c6c(F)c(F)c(F)c(F)c6F)c6ccc([nH]6)c(-c6c(F)c(F)c(F)c(F)c6F)c6nc(c(-c7c(F)c(F)c(F)c(F)c7F)c7ccc4[nH]7)C=C6)C=C5)cc3)CC2)CCO1
REMARK SMILES IDX 17 1 16 2 15 3 13 4 14 5 12 7 9 8 10 9 89 10 11 11 88 12
REMARK SMILES IDX 8 13 7 14 6 17 3 18 4 19 5 20 92 21 91 22 90 23 2 24 1 25
REMARK SMILES IDX 18 26 19 27 20 28 21 29 22 30 23 31 24 33 25 34 26 35 87 36
REMARK SMILES IDX 27 37 86 38 28 39 29 40 30 41 80 42 31 43 85 44 79 45 81 46
REMARK SMILES IDX 32 47 84 48 78 49 77 50 33 52 65 53 45 54 64 55 46 56 49 57
REMARK SMILES IDX 63 58 82 59 47 60 48 61 62 63 83 64 50 65 34 66 35 67 43 68
REMARK SMILES IDX 36 69 37 70 41 71 44 72 38 73 39 74 42 75 40 76 66 77 67 78
REMARK SMILES IDX 75 79 68 80 69 81 73 82 76 83 70 84 71 85 74 86 72 87 51 88
REMARK SMILES IDX 52 89 60 90 53 91 54 92 58 93 61 94 55 95 56 96 59 97 57 98
REMARK H PARENT 15 6 7 15 7 16 22 32 81 51 49 62
REMARK Flexibility Score: inf
ROOT
ATOM      1  C   UNL A   1      36.308  23.437  25.660  1.00  0.00     0.021 C 
ENDROOT
BRANCH   1   2
ATOM      2  C   UNL A   1      35.189  23.569  24.631  1.00  0.00     0.116 C 
BRANCH   2   3
ATOM      3  N   UNL A   1      33.922  23.801  25.297  1.00  0.00    -0.356 N 
ATOM      4  C   UNL A   1      33.335  24.953  25.724  1.00  0.00     0.223 C 
ATOM      5  O   UNL A   1      32.296  24.849  26.381  1.00  0.00    -0.275 OA
ATOM      6  H   UNL A   1      33.397  22.987  25.469  1.00  0.00     0.163 HD
BRANCH   4   7
ATOM      7  C   UNL A   1      33.851  26.334  25.304  1.00  0.00     0.078 C 
ATOM      8  C   UNL A   1      33.065  29.259  24.906  1.00  0.00     0.044 C 
ATOM      9  C   UNL A   1      33.837  28.733  26.121  1.00  0.00     0.010 C 
ATOM     10  C   UNL A   1      33.538  28.372  23.719  1.00  0.00     0.010 C 
ATOM     11  C   UNL A   1      33.572  27.280  26.458  1.00  0.00     0.014 C 
ATOM     12  C   UNL A   1      33.375  26.851  23.937  1.00  0.00     0.014 C 
BRANCH   8  13
ATOM     13  C   UNL A   1      31.498  29.397  24.896  1.00  0.00     0.264 C 
BRANCH  13  14
ATOM     14  N   UNL A   1      30.679  30.076  23.871  1.00  0.00    -0.343 N 
ATOM     15  H   UNL A   1      29.899  30.518  24.356  1.00  0.00     0.346 HD
ATOM     16  H   UNL A   1      31.339  30.699  23.405  1.00  0.00     0.346 HD
BRANCH  14  17
ATOM     17  C   UNL A   1      30.106  29.278  22.768  1.00  0.00     0.187 C 
ATOM     18  C   UNL A   1      28.332  30.950  22.005  1.00  0.00     0.071 C 
ATOM     19  C   UNL A   1      28.028  31.828  20.768  1.00  0.00     0.042 C 
ATOM     20  C   UNL A   1      29.600  30.137  21.629  1.00  0.00     0.100 C 
ATOM     21  O   UNL A   1      27.262  30.015  22.142  1.00  0.00    -0.375 OA
ATOM     22  C   UNL A   1      27.482  28.965  23.082  1.00  0.00     0.167 C 
ATOM     23  C   UNL A   1      28.907  28.385  23.190  1.00  0.00     0.093 C 
BRANCH  18  24
ATOM     24  C   UNL A   1      28.439  31.910  23.225  1.00  0.00     0.032 C 
ATOM     25  C   UNL A   1      28.968  33.334  23.126  1.00  0.00     0.007 C 
ENDBRANCH  18  24
ENDBRANCH  14  17
ENDBRANCH  13  14
ENDBRANCH   8  13
ENDBRANCH   4   7
ENDBRANCH   2   3
ENDBRANCH   1   2
BRANCH   1  26
ATOM     26  C   UNL A   1      37.356  22.391  25.270  1.00  0.00     0.002 C 
BRANCH  26  27
ATOM     27  C   UNL A   1      38.686  22.511  26.024  1.00  0.00     0.002 C 
BRANCH  27  28
ATOM     28  C   UNL A   1      39.276  21.181  26.502  1.00  0.00     0.021 C 
BRANCH  28  29
ATOM     29  C   UNL A   1      39.341  20.099  25.430  1.00  0.00     0.116 C 
BRANCH  29  30
ATOM     30  N   UNL A   1      40.308  19.062  25.756  1.00  0.00    -0.352 N 
ATOM     31  C   UNL A   1      41.628  19.182  26.096  1.00  0.00     0.251 C 
ATOM     32  H   UNL A   1      39.962  18.141  25.728  1.00  0.00     0.163 HD
ATOM     33  O   UNL A   1      42.349  18.187  26.153  1.00  0.00    -0.269 OA
BRANCH  31  34
ATOM     34  C   UNL A   1      42.195  20.517  26.377  1.00  0.00     0.039 A 
ATOM     35  C   UNL A   1      42.608  21.313  25.306  1.00  0.00     0.014 A 
ATOM     36  C   UNL A   1      42.322  20.979  27.690  1.00  0.00     0.014 A 
ATOM     37  C   UNL A   1      43.094  22.598  25.550  1.00  0.00     0.010 A 
ATOM     38  C   UNL A   1      42.732  22.288  27.925  1.00  0.00     0.010 A 
ATOM     39  C   UNL A   1      43.126  23.108  26.858  1.00  0.00    -0.014 A 
BRANCH  39  40
ATOM     40  C   UNL A   1      43.575  24.499  27.127  1.00  0.00     0.031 A 
ATOM     41  C   UNL A   1      42.592  25.529  27.611  1.00  0.00     0.074 A 
ATOM     42  C   UNL A   1      44.854  24.844  26.882  1.00  0.00     0.049 A 
ATOM     43  N   UNL A   1      42.775  26.806  27.833  1.00  0.00    -0.248 NA
ATOM     44  C   UNL A   1      41.216  25.068  27.855  1.00  0.00     0.031 C 
ATOM     45  C   UNL A   1      45.889  23.945  26.370  1.00  0.00     0.029 A 
ATOM     46  N   UNL A   1      45.500  26.047  27.023  1.00  0.00    -0.354 N 
ATOM     47  C   UNL A   1      41.542  27.297  28.243  1.00  0.00     0.074 A 
ATOM     48  C   UNL A   1      40.603  26.198  28.172  1.00  0.00     0.031 C 
ATOM     49  C   UNL A   1      47.042  24.623  26.256  1.00  0.00     0.029 A 
ATOM     50  C   UNL A   1      46.819  26.011  26.644  1.00  0.00     0.049 A 
ATOM     51  H   UNL A   1      45.059  26.859  27.363  1.00  0.00     0.167 HD
ATOM     52  C   UNL A   1      41.228  28.543  28.672  1.00  0.00     0.037 A 
ATOM     53  C   UNL A   1      47.741  26.993  26.599  1.00  0.00     0.037 A 
ATOM     54  C   UNL A   1      42.167  29.632  28.747  1.00  0.00     0.049 A 
ATOM     55  C   UNL A   1      47.356  28.378  27.047  1.00  0.00     0.074 A 
ATOM     56  C   UNL A   1      41.954  30.925  29.190  1.00  0.00     0.029 A 
ATOM     57  N   UNL A   1      43.499  29.553  28.369  1.00  0.00    -0.354 N 
ATOM     58  N   UNL A   1      46.201  28.816  27.487  1.00  0.00    -0.248 NA
ATOM     59  C   UNL A   1      48.405  29.406  26.999  1.00  0.00     0.031 C 
ATOM     60  C   UNL A   1      43.143  31.644  29.032  1.00  0.00     0.029 A 
ATOM     61  C   UNL A   1      44.114  30.782  28.549  1.00  0.00     0.049 A 
ATOM     62  H   UNL A   1      43.941  28.745  28.022  1.00  0.00     0.167 HD
ATOM     63  C   UNL A   1      46.393  30.155  27.800  1.00  0.00     0.074 A 
ATOM     64  C   UNL A   1      47.781  30.454  27.516  1.00  0.00     0.031 C 
ATOM     65  C   UNL A   1      45.501  31.058  28.275  1.00  0.00     0.037 A 
BRANCH  52  66
ATOM     66  C   UNL A   1      39.811  28.792  29.105  1.00  0.00     0.064 A 
ATOM     67  C   UNL A   1      39.411  28.610  30.439  1.00  0.00     0.173 A 
ATOM     68  C   UNL A   1      38.854  29.261  28.193  1.00  0.00     0.173 A 
ATOM     69  F   UNL A   1      40.284  28.152  31.349  1.00  0.00    -0.203 F 
ATOM     70  C   UNL A   1      38.099  28.860  30.836  1.00  0.00     0.198 A 
ATOM     71  C   UNL A   1      37.552  29.543  28.601  1.00  0.00     0.198 A 
ATOM     72  F   UNL A   1      39.183  29.458  26.908  1.00  0.00    -0.203 F 
ATOM     73  F   UNL A   1      37.730  28.630  32.103  1.00  0.00    -0.200 F 
ATOM     74  C   UNL A   1      37.174  29.335  29.918  1.00  0.00     0.200 A 
ATOM     75  F   UNL A   1      36.663  30.015  27.717  1.00  0.00    -0.200 F 
ATOM     76  F   UNL A   1      35.915  29.586  30.304  1.00  0.00    -0.200 F 
ENDBRANCH  52  66
BRANCH  53  77
ATOM     77  C   UNL A   1      49.118  26.706  26.114  1.00  0.00     0.064 A 
ATOM     78  C   UNL A   1      50.107  26.220  26.983  1.00  0.00     0.173 A 
ATOM     79  C   UNL A   1      49.484  26.942  24.781  1.00  0.00     0.173 A 
ATOM     80  F   UNL A   1      49.814  25.995  28.272  1.00  0.00    -0.203 F 
ATOM     81  C   UNL A   1      51.414  26.017  26.545  1.00  0.00     0.198 A 
ATOM     82  C   UNL A   1      50.783  26.704  24.336  1.00  0.00     0.198 A 
ATOM     83  F   UNL A   1      48.577  27.399  23.905  1.00  0.00    -0.203 F 
ATOM     84  F   UNL A   1      52.353  25.615  27.413  1.00  0.00    -0.200 F 
ATOM     85  C   UNL A   1      51.751  26.255  25.221  1.00  0.00     0.200 A 
ATOM     86  F   UNL A   1      51.097  26.919  23.052  1.00  0.00    -0.200 F 
ATOM     87  F   UNL A   1      53.009  26.064  24.802  1.00  0.00    -0.200 F 
ENDBRANCH  53  77
BRANCH  65  88
ATOM     88  C   UNL A   1      46.009  32.442  28.564  1.00  0.00     0.064 A 
ATOM     89  C   UNL A   1      46.557  32.785  29.809  1.00  0.00     0.173 A 
ATOM     90  C   UNL A   1      45.983  33.430  27.566  1.00  0.00     0.173 A 
ATOM     91  F   UNL A   1      46.593  31.882  30.802  1.00  0.00    -0.203 F 
ATOM     92  C   UNL A   1      47.028  34.072  30.055  1.00  0.00     0.198 A 
ATOM     93  C   UNL A   1      46.488  34.704  27.804  1.00  0.00     0.198 A 
ATOM     94  F   UNL A   1      45.478  33.153  26.354  1.00  0.00    -0.203 F 
ATOM     95  F   UNL A   1      47.496  34.391  31.270  1.00  0.00    -0.200 F 
ATOM     96  C   UNL A   1      47.002  35.028  29.050  1.00  0.00     0.200 A 
ATOM     97  F   UNL A   1      46.477  35.621  26.826  1.00  0.00    -0.200 F 
ATOM     98  F   UNL A   1      47.464  36.263  29.285  1.00  0.00    -0.200 F 
ENDBRANCH  65  88
ENDBRANCH  39  40
ENDBRANCH  31  34
ENDBRANCH  29  30
ENDBRANCH  28  29
ENDBRANCH  27  28
ENDBRANCH  26  27
ENDBRANCH   1  26
TORSDOF 17
ENDMDL
