MODEL 1
REMARK VINA RESULT:     -12.5      0.000      0.000
REMARK SMILES Cc1nc(-c2ccc(S(=O)(=O)N3CC[NH2+][C@H](C(=O)NCCCCCCNC(=O)c4ccc(-c5c6nc(c(-c7c(F)c(F)c(F)c(F)c7F)c7ccc([nH]7)c(-c7c(F)c(F)c(F)c(F)c7F)c7nc(c(-c8c(F)c(F)c(F)c(F)c8F)c8ccc5[nH]8)C=C7)C=C6)cc4)C3)s2)cs1
REMARK SMILES IDX 22 1 21 2 20 3 19 4 17 5 18 6 16 8 12 9 13 10 92 11 14 12
REMARK SMILES IDX 15 13 9 16 10 17 11 18 8 19 5 20 6 21 93 22 7 23 4 24 1 25
REMARK SMILES IDX 2 26 3 27 95 28 94 29 23 30 24 31 25 32 26 33 27 34 28 36
REMARK SMILES IDX 29 37 30 38 91 39 31 40 90 41 32 42 33 43 34 44 84 45 35 46
REMARK SMILES IDX 89 47 83 48 85 49 36 50 88 51 82 52 81 53 37 55 69 56 49 57
REMARK SMILES IDX 68 58 50 59 53 60 67 61 86 62 51 63 52 64 66 66 87 67 54 68
REMARK SMILES IDX 38 69 39 70 47 71 40 72 41 73 45 74 48 75 42 76 43 77 46 78
REMARK SMILES IDX 44 79 70 80 71 81 79 82 72 83 73 84 77 85 80 86 74 87 75 88
REMARK SMILES IDX 78 89 76 90 55 91 56 92 64 93 57 94 58 95 62 96 65 97 59 98
REMARK SMILES IDX 60 99 63 100 61 101
REMARK H PARENT 19 7 15 14 15 15 26 35 85 54 53 65
REMARK Flexibility Score: inf
ROOT
ATOM      1  C   UNL A   1      36.935  21.932  24.073  1.00  0.00     0.002 C 
ENDROOT
BRANCH   1   2
ATOM      2  C   UNL A   1      35.879  22.998  24.408  1.00  0.00     0.021 C 
BRANCH   2   3
ATOM      3  C   UNL A   1      34.749  23.038  23.374  1.00  0.00     0.116 C 
BRANCH   3   4
ATOM      4  N   UNL A   1      34.683  24.366  22.801  1.00  0.00    -0.351 N 
ATOM      5  C   UNL A   1      33.595  25.171  22.640  1.00  0.00     0.279 C 
ATOM      6  O   UNL A   1      33.563  25.836  21.597  1.00  0.00    -0.268 OA
ATOM      7  H   UNL A   1      35.538  24.738  22.487  1.00  0.00     0.163 HD
BRANCH   5   8
ATOM      8  C   UNL A   1      32.546  25.382  23.766  1.00  0.00     0.287 C 
ATOM      9  N   UNL A   1      30.524  24.780  25.024  1.00  0.00    -0.185 NA
ATOM     10  C   UNL A   1      29.913  26.116  24.933  1.00  0.00     0.164 C 
ATOM     11  C   UNL A   1      31.330  24.466  23.816  1.00  0.00     0.178 C 
ATOM     12  C   UNL A   1      30.928  27.196  24.509  1.00  0.00     0.278 C 
ATOM     13  N   UNL A   1      32.129  26.821  23.745  1.00  0.00    -0.334 N 
ATOM     14  H   UNL A   1      32.906  27.370  24.111  1.00  0.00     0.347 HD
ATOM     15  H   UNL A   1      31.882  27.004  22.772  1.00  0.00     0.347 HD
BRANCH   9  16
ATOM     16  S   UNL A   1      30.979  24.138  26.528  1.00  0.00     0.253 S 
ATOM     17  O   UNL A   1      29.770  23.610  27.132  1.00  0.00    -0.206 OA
ATOM     18  O   UNL A   1      31.782  25.138  27.193  1.00  0.00    -0.206 OA
BRANCH  16  19
ATOM     19  C   UNL A   1      32.074  22.722  26.404  1.00  0.00     0.135 A 
ATOM     20  C   UNL A   1      32.881  20.477  25.713  1.00  0.00     0.055 A 
ATOM     21  C   UNL A   1      33.691  21.051  26.663  1.00  0.00     0.023 A 
ATOM     22  S   UNL A   1      31.615  21.517  25.246  1.00  0.00    -0.121 S 
ATOM     23  C   UNL A   1      33.232  22.332  27.046  1.00  0.00     0.034 A 
BRANCH  20  24
ATOM     24  C   UNL A   1      33.144  19.081  25.250  1.00  0.00     0.091 A 
ATOM     25  C   UNL A   1      32.253  15.593  25.803  1.00  0.00     0.079 C 
ATOM     26  C   UNL A   1      32.826  16.891  25.357  1.00  0.00     0.090 A 
ATOM     27  N   UNL A   1      32.588  18.030  25.963  1.00  0.00    -0.241 NA
ATOM     28  S   UNL A   1      33.852  16.997  23.984  1.00  0.00    -0.127 S 
ATOM     29  C   UNL A   1      33.883  18.711  24.149  1.00  0.00     0.096 A 
ENDBRANCH  20  24
ENDBRANCH  16  19
ENDBRANCH   9  16
ENDBRANCH   5   8
ENDBRANCH   3   4
ENDBRANCH   2   3
ENDBRANCH   1   2
BRANCH   1  30
ATOM     30  C   UNL A   1      36.841  20.664  24.929  1.00  0.00     0.002 C 
BRANCH  30  31
ATOM     31  C   UNL A   1      38.093  19.782  24.900  1.00  0.00     0.021 C 
BRANCH  31  32
ATOM     32  C   UNL A   1      39.136  20.151  25.948  1.00  0.00     0.116 C 
BRANCH  32  33
ATOM     33  N   UNL A   1      40.225  19.190  25.978  1.00  0.00    -0.352 N 
ATOM     34  C   UNL A   1      41.574  19.421  26.045  1.00  0.00     0.251 C 
ATOM     35  H   UNL A   1      39.957  18.242  25.946  1.00  0.00     0.163 HD
ATOM     36  O   UNL A   1      42.372  18.515  25.831  1.00  0.00    -0.269 OA
BRANCH  34  37
ATOM     37  C   UNL A   1      42.065  20.774  26.372  1.00  0.00     0.039 A 
ATOM     38  C   UNL A   1      42.306  21.100  27.709  1.00  0.00     0.014 A 
ATOM     39  C   UNL A   1      42.256  21.726  25.366  1.00  0.00     0.014 A 
ATOM     40  C   UNL A   1      42.769  22.375  28.035  1.00  0.00     0.010 A 
ATOM     41  C   UNL A   1      42.778  22.976  25.686  1.00  0.00     0.010 A 
ATOM     42  C   UNL A   1      43.021  23.317  27.024  1.00  0.00    -0.014 A 
BRANCH  42  43
ATOM     43  C   UNL A   1      43.503  24.679  27.353  1.00  0.00     0.031 A 
ATOM     44  C   UNL A   1      42.549  25.694  27.916  1.00  0.00     0.074 A 
ATOM     45  C   UNL A   1      44.782  25.015  27.100  1.00  0.00     0.049 A 
ATOM     46  N   UNL A   1      42.759  26.951  28.221  1.00  0.00    -0.248 NA
ATOM     47  C   UNL A   1      41.167  25.245  28.143  1.00  0.00     0.031 C 
ATOM     48  C   UNL A   1      45.788  24.130  26.510  1.00  0.00     0.029 A 
ATOM     49  N   UNL A   1      45.451  26.196  27.297  1.00  0.00    -0.354 N 
ATOM     50  C   UNL A   1      41.536  27.442  28.655  1.00  0.00     0.074 A 
ATOM     51  C   UNL A   1      40.577  26.367  28.529  1.00  0.00     0.031 C 
ATOM     52  C   UNL A   1      46.951  24.792  26.413  1.00  0.00     0.029 A 
ATOM     53  C   UNL A   1      46.766  26.154  26.907  1.00  0.00     0.049 A 
ATOM     54  H   UNL A   1      45.028  26.996  27.684  1.00  0.00     0.167 HD
ATOM     55  C   UNL A   1      41.244  28.674  29.136  1.00  0.00     0.037 A 
ATOM     56  C   UNL A   1      47.714  27.110  26.944  1.00  0.00     0.037 A 
ATOM     57  C   UNL A   1      42.208  29.730  29.292  1.00  0.00     0.049 A 
ATOM     58  C   UNL A   1      47.369  28.462  27.504  1.00  0.00     0.074 A 
ATOM     59  C   UNL A   1      42.029  30.993  29.827  1.00  0.00     0.029 A 
ATOM     60  N   UNL A   1      43.541  29.640  28.914  1.00  0.00    -0.354 N 
ATOM     61  N   UNL A   1      46.225  28.898  27.972  1.00  0.00    -0.248 NA
ATOM     62  C   UNL A   1      48.454  29.453  27.554  1.00  0.00     0.031 C 
ATOM     63  C   UNL A   1      43.245  31.681  29.741  1.00  0.00     0.029 A 
ATOM     64  C   UNL A   1      44.192  30.833  29.192  1.00  0.00     0.049 A 
ATOM     65  H   UNL A   1      43.961  28.848  28.510  1.00  0.00     0.167 HD
ATOM     66  C   UNL A   1      46.455  30.200  28.393  1.00  0.00     0.074 A 
ATOM     67  C   UNL A   1      47.853  30.479  28.139  1.00  0.00     0.031 C 
ATOM     68  C   UNL A   1      45.586  31.086  28.939  1.00  0.00     0.037 A 
BRANCH  55  69
ATOM     69  C   UNL A   1      39.823  28.941  29.536  1.00  0.00     0.064 A 
ATOM     70  C   UNL A   1      38.879  29.421  28.616  1.00  0.00     0.173 A 
ATOM     71  C   UNL A   1      39.392  28.689  30.847  1.00  0.00     0.173 A 
ATOM     72  F   UNL A   1      39.244  29.691  27.353  1.00  0.00    -0.203 F 
ATOM     73  C   UNL A   1      37.563  29.669  29.001  1.00  0.00     0.198 A 
ATOM     74  C   UNL A   1      38.069  28.910  31.221  1.00  0.00     0.198 A 
ATOM     75  F   UNL A   1      40.253  28.225  31.765  1.00  0.00    -0.203 F 
ATOM     76  F   UNL A   1      36.693  30.176  28.118  1.00  0.00    -0.200 F 
ATOM     77  C   UNL A   1      37.158  29.407  30.301  1.00  0.00     0.200 A 
ATOM     78  F   UNL A   1      37.676  28.647  32.475  1.00  0.00    -0.200 F 
ATOM     79  F   UNL A   1      35.891  29.642  30.669  1.00  0.00    -0.200 F 
ENDBRANCH  55  69
BRANCH  56  80
ATOM     80  C   UNL A   1      49.088  26.809  26.469  1.00  0.00     0.064 A 
ATOM     81  C   UNL A   1      50.071  26.355  27.359  1.00  0.00     0.173 A 
ATOM     82  C   UNL A   1      49.447  26.967  25.122  1.00  0.00     0.173 A 
ATOM     83  F   UNL A   1      49.779  26.208  28.659  1.00  0.00    -0.203 F 
ATOM     84  C   UNL A   1      51.368  26.090  26.924  1.00  0.00     0.198 A 
ATOM     85  C   UNL A   1      50.738  26.677  24.684  1.00  0.00     0.198 A 
ATOM     86  F   UNL A   1      48.540  27.393  24.231  1.00  0.00    -0.203 F 
ATOM     87  F   UNL A   1      52.299  25.698  27.803  1.00  0.00    -0.200 F 
ATOM     88  C   UNL A   1      51.698  26.246  25.587  1.00  0.00     0.200 A 
ATOM     89  F   UNL A   1      51.050  26.817  23.389  1.00  0.00    -0.200 F 
ATOM     90  F   UNL A   1      52.945  25.988  25.168  1.00  0.00    -0.200 F 
ENDBRANCH  56  80
BRANCH  68  91
ATOM     91  C   UNL A   1      46.133  32.429  29.326  1.00  0.00     0.064 A 
ATOM     92  C   UNL A   1      46.689  32.657  30.593  1.00  0.00     0.173 A 
ATOM     93  C   UNL A   1      46.126  33.489  28.407  1.00  0.00     0.173 A 
ATOM     94  F   UNL A   1      46.703  31.679  31.510  1.00  0.00    -0.203 F 
ATOM     95  C   UNL A   1      47.197  33.907  30.934  1.00  0.00     0.198 A 
ATOM     96  C   UNL A   1      46.660  34.729  28.744  1.00  0.00     0.198 A 
ATOM     97  F   UNL A   1      45.610  33.318  27.180  1.00  0.00    -0.203 F 
ATOM     98  F   UNL A   1      47.681  34.118  32.166  1.00  0.00    -0.200 F 
ATOM     99  C   UNL A   1      47.188  34.940  30.008  1.00  0.00     0.200 A 
ATOM    100  F   UNL A   1      46.661  35.722  27.844  1.00  0.00    -0.200 F 
ATOM    101  F   UNL A   1      47.680  36.142  30.338  1.00  0.00    -0.200 F 
ENDBRANCH  68  91
ENDBRANCH  42  43
ENDBRANCH  34  37
ENDBRANCH  32  33
ENDBRANCH  31  32
ENDBRANCH  30  31
ENDBRANCH   1  30
TORSDOF 16
ENDMDL
MODEL 2
REMARK VINA RESULT:     -12.2      5.973     10.299
REMARK SMILES Cc1nc(-c2ccc(S(=O)(=O)N3CC[NH2+][C@H](C(=O)NCCCCCCNC(=O)c4ccc(-c5c6nc(c(-c7c(F)c(F)c(F)c(F)c7F)c7ccc([nH]7)c(-c7c(F)c(F)c(F)c(F)c7F)c7nc(c(-c8c(F)c(F)c(F)c(F)c8F)c8ccc5[nH]8)C=C7)C=C6)cc4)C3)s2)cs1
REMARK SMILES IDX 22 1 21 2 20 3 19 4 17 5 18 6 16 8 12 9 13 10 92 11 14 12
REMARK SMILES IDX 15 13 9 16 10 17 11 18 8 19 5 20 6 21 93 22 7 23 4 24 1 25
REMARK SMILES IDX 2 26 3 27 95 28 94 29 23 30 24 31 25 32 26 33 27 34 28 36
REMARK SMILES IDX 29 37 30 38 91 39 31 40 90 41 32 42 33 43 34 44 84 45 35 46
REMARK SMILES IDX 89 47 83 48 85 49 36 50 88 51 82 52 81 53 37 55 69 56 49 57
REMARK SMILES IDX 68 58 50 59 53 60 67 61 86 62 51 63 52 64 66 66 87 67 54 68
REMARK SMILES IDX 38 69 39 70 47 71 40 72 41 73 45 74 48 75 42 76 43 77 46 78
REMARK SMILES IDX 44 79 70 80 71 81 79 82 72 83 73 84 77 85 80 86 74 87 75 88
REMARK SMILES IDX 78 89 76 90 55 91 56 92 64 93 57 94 58 95 62 96 65 97 59 98
REMARK SMILES IDX 60 99 63 100 61 101
REMARK H PARENT 19 7 15 14 15 15 26 35 85 54 53 65
REMARK Flexibility Score: inf
ROOT
ATOM      1  C   UNL A   1      34.864  32.985  28.834  1.00  0.00     0.002 C 
ENDROOT
BRANCH   1   2
ATOM      2  C   UNL A   1      35.746  32.054  27.986  1.00  0.00     0.021 C 
BRANCH   2   3
ATOM      3  C   UNL A   1      35.041  30.735  27.652  1.00  0.00     0.116 C 
BRANCH   3   4
ATOM      4  N   UNL A   1      33.612  30.917  27.794  1.00  0.00    -0.351 N 
ATOM      5  C   UNL A   1      32.629  30.682  26.880  1.00  0.00     0.279 C 
ATOM      6  O   UNL A   1      31.693  31.492  26.871  1.00  0.00    -0.268 OA
ATOM      7  H   UNL A   1      33.310  31.254  28.668  1.00  0.00     0.163 HD
BRANCH   5   8
ATOM      8  C   UNL A   1      32.585  29.388  26.023  1.00  0.00     0.287 C 
ATOM      9  N   UNL A   1      32.846  26.969  25.686  1.00  0.00    -0.185 NA
ATOM     10  C   UNL A   1      33.698  27.095  24.493  1.00  0.00     0.164 C 
ATOM     11  C   UNL A   1      33.074  28.084  26.640  1.00  0.00     0.178 C 
ATOM     12  C   UNL A   1      33.649  28.512  23.888  1.00  0.00     0.278 C 
ATOM     13  N   UNL A   1      33.293  29.664  24.732  1.00  0.00    -0.334 N 
ATOM     14  H   UNL A   1      32.691  30.273  24.178  1.00  0.00     0.347 HD
ATOM     15  H   UNL A   1      34.188  30.067  25.008  1.00  0.00     0.347 HD
BRANCH   9  16
ATOM     16  S   UNL A   1      31.308  26.257  25.579  1.00  0.00     0.253 S 
ATOM     17  O   UNL A   1      30.830  26.515  24.233  1.00  0.00    -0.206 OA
ATOM     18  O   UNL A   1      30.561  26.679  26.740  1.00  0.00    -0.206 OA
BRANCH  16  19
ATOM     19  C   UNL A   1      31.333  24.468  25.710  1.00  0.00     0.135 A 
ATOM     20  C   UNL A   1      31.816  22.111  25.096  1.00  0.00     0.055 A 
ATOM     21  C   UNL A   1      30.977  22.204  26.180  1.00  0.00     0.023 A 
ATOM     22  S   UNL A   1      32.328  23.644  24.556  1.00  0.00    -0.121 S 
ATOM     23  C   UNL A   1      30.713  23.547  26.531  1.00  0.00     0.034 A 
BRANCH  20  24
ATOM     24  C   UNL A   1      32.138  20.774  24.511  1.00  0.00     0.091 A 
ATOM     25  C   UNL A   1      32.748  17.281  25.344  1.00  0.00     0.079 C 
ATOM     26  C   UNL A   1      32.567  18.609  24.698  1.00  0.00     0.090 A 
ATOM     27  N   UNL A   1      32.418  19.724  25.372  1.00  0.00    -0.241 NA
ATOM     28  S   UNL A   1      32.530  18.780  22.990  1.00  0.00    -0.127 S 
ATOM     29  C   UNL A   1      32.171  20.454  23.173  1.00  0.00     0.096 A 
ENDBRANCH  20  24
ENDBRANCH  16  19
ENDBRANCH   9  16
ENDBRANCH   5   8
ENDBRANCH   3   4
ENDBRANCH   2   3
ENDBRANCH   1   2
BRANCH   1  30
ATOM     30  C   UNL A   1      35.256  34.464  28.758  1.00  0.00     0.002 C 
BRANCH  30  31
ATOM     31  C   UNL A   1      34.072  35.434  28.702  1.00  0.00     0.021 C 
BRANCH  31  32
ATOM     32  C   UNL A   1      32.828  34.938  29.431  1.00  0.00     0.116 C 
BRANCH  32  33
ATOM     33  N   UNL A   1      32.443  35.841  30.502  1.00  0.00    -0.352 N 
ATOM     34  C   UNL A   1      32.883  35.872  31.800  1.00  0.00     0.251 C 
ATOM     35  H   UNL A   1      31.775  36.524  30.263  1.00  0.00     0.163 HD
ATOM     36  O   UNL A   1      32.296  36.545  32.640  1.00  0.00    -0.269 OA
BRANCH  34  37
ATOM     37  C   UNL A   1      34.070  35.083  32.185  1.00  0.00     0.039 A 
ATOM     38  C   UNL A   1      35.329  35.686  32.128  1.00  0.00     0.014 A 
ATOM     39  C   UNL A   1      33.943  33.745  32.569  1.00  0.00     0.014 A 
ATOM     40  C   UNL A   1      36.461  34.954  32.488  1.00  0.00     0.010 A 
ATOM     41  C   UNL A   1      35.065  33.035  32.987  1.00  0.00     0.010 A 
ATOM     42  C   UNL A   1      36.334  33.627  32.933  1.00  0.00    -0.014 A 
BRANCH  42  43
ATOM     43  C   UNL A   1      37.527  32.832  33.308  1.00  0.00     0.031 A 
ATOM     44  C   UNL A   1      38.235  33.110  34.604  1.00  0.00     0.074 A 
ATOM     45  C   UNL A   1      38.001  31.898  32.462  1.00  0.00     0.049 A 
ATOM     46  N   UNL A   1      39.322  32.565  35.089  1.00  0.00    -0.248 NA
ATOM     47  C   UNL A   1      37.658  34.162  35.457  1.00  0.00     0.031 C 
ATOM     48  C   UNL A   1      37.427  31.572  31.155  1.00  0.00     0.029 A 
ATOM     49  N   UNL A   1      39.079  31.058  32.571  1.00  0.00    -0.354 N 
ATOM     50  C   UNL A   1      39.567  33.218  36.289  1.00  0.00     0.074 A 
ATOM     51  C   UNL A   1      38.546  34.233  36.437  1.00  0.00     0.031 C 
ATOM     52  C   UNL A   1      38.147  30.589  30.593  1.00  0.00     0.029 A 
ATOM     53  C   UNL A   1      39.246  30.234  31.486  1.00  0.00     0.049 A 
ATOM     54  H   UNL A   1      39.675  31.046  33.355  1.00  0.00     0.167 HD
ATOM     55  C   UNL A   1      40.543  32.977  37.197  1.00  0.00     0.037 A 
ATOM     56  C   UNL A   1      40.184  29.299  31.243  1.00  0.00     0.037 A 
ATOM     57  C   UNL A   1      41.535  31.944  37.063  1.00  0.00     0.049 A 
ATOM     58  C   UNL A   1      41.243  29.035  32.278  1.00  0.00     0.074 A 
ATOM     59  C   UNL A   1      42.528  31.578  37.953  1.00  0.00     0.029 A 
ATOM     60  N   UNL A   1      41.654  31.107  35.962  1.00  0.00    -0.354 N 
ATOM     61  N   UNL A   1      41.428  29.615  33.439  1.00  0.00    -0.248 NA
ATOM     62  C   UNL A   1      42.217  27.978  31.973  1.00  0.00     0.031 C 
ATOM     63  C   UNL A   1      43.271  30.540  37.377  1.00  0.00     0.029 A 
ATOM     64  C   UNL A   1      42.715  30.233  36.146  1.00  0.00     0.049 A 
ATOM     65  H   UNL A   1      41.071  31.129  35.169  1.00  0.00     0.167 HD
ATOM     66  C   UNL A   1      42.519  28.978  34.013  1.00  0.00     0.074 A 
ATOM     67  C   UNL A   1      42.946  27.958  33.079  1.00  0.00     0.031 C 
ATOM     68  C   UNL A   1      43.117  29.219  35.206  1.00  0.00     0.037 A 
BRANCH  55  69
ATOM     69  C   UNL A   1      40.577  33.844  38.421  1.00  0.00     0.064 A 
ATOM     70  C   UNL A   1      41.373  34.999  38.481  1.00  0.00     0.173 A 
ATOM     71  C   UNL A   1      39.786  33.534  39.538  1.00  0.00     0.173 A 
ATOM     72  F   UNL A   1      42.158  35.331  37.445  1.00  0.00    -0.203 F 
ATOM     73  C   UNL A   1      41.399  35.793  39.625  1.00  0.00     0.198 A 
ATOM     74  C   UNL A   1      39.793  34.346  40.668  1.00  0.00     0.198 A 
ATOM     75  F   UNL A   1      39.004  32.444  39.531  1.00  0.00    -0.203 F 
ATOM     76  F   UNL A   1      42.206  36.862  39.677  1.00  0.00    -0.200 F 
ATOM     77  C   UNL A   1      40.605  35.470  40.714  1.00  0.00     0.200 A 
ATOM     78  F   UNL A   1      39.017  34.039  41.717  1.00  0.00    -0.200 F 
ATOM     79  F   UNL A   1      40.628  36.238  41.813  1.00  0.00    -0.200 F 
ENDBRANCH  55  69
BRANCH  56  80
ATOM     80  C   UNL A   1      40.140  28.518  29.981  1.00  0.00     0.064 A 
ATOM     81  C   UNL A   1      39.500  27.272  29.930  1.00  0.00     0.173 A 
ATOM     82  C   UNL A   1      40.733  28.998  28.804  1.00  0.00     0.173 A 
ATOM     83  F   UNL A   1      38.937  26.765  31.036  1.00  0.00    -0.203 F 
ATOM     84  C   UNL A   1      39.473  26.525  28.755  1.00  0.00     0.198 A 
ATOM     85  C   UNL A   1      40.683  28.260  27.622  1.00  0.00     0.198 A 
ATOM     86  F   UNL A   1      41.352  30.187  28.800  1.00  0.00    -0.203 F 
ATOM     87  F   UNL A   1      38.892  25.318  28.745  1.00  0.00    -0.200 F 
ATOM     88  C   UNL A   1      40.059  27.022  27.601  1.00  0.00     0.200 A 
ATOM     89  F   UNL A   1      41.239  28.749  26.507  1.00  0.00    -0.200 F 
ATOM     90  F   UNL A   1      40.030  26.304  26.470  1.00  0.00    -0.200 F 
ENDBRANCH  56  80
BRANCH  68  91
ATOM     91  C   UNL A   1      44.276  28.342  35.580  1.00  0.00     0.064 A 
ATOM     92  C   UNL A   1      44.092  27.145  36.285  1.00  0.00     0.173 A 
ATOM     93  C   UNL A   1      45.580  28.692  35.200  1.00  0.00     0.173 A 
ATOM     94  F   UNL A   1      42.865  26.777  36.683  1.00  0.00    -0.203 F 
ATOM     95  C   UNL A   1      45.177  26.339  36.619  1.00  0.00     0.198 A 
ATOM     96  C   UNL A   1      46.659  27.870  35.512  1.00  0.00     0.198 A 
ATOM     97  F   UNL A   1      45.806  29.825  34.518  1.00  0.00    -0.203 F 
ATOM     98  F   UNL A   1      44.985  25.222  37.334  1.00  0.00    -0.200 F 
ATOM     99  C   UNL A   1      46.459  26.699  36.227  1.00  0.00     0.200 A 
ATOM    100  F   UNL A   1      47.895  28.213  35.122  1.00  0.00    -0.200 F 
ATOM    101  F   UNL A   1      47.501  25.921  36.546  1.00  0.00    -0.200 F 
ENDBRANCH  68  91
ENDBRANCH  42  43
ENDBRANCH  34  37
ENDBRANCH  32  33
ENDBRANCH  31  32
ENDBRANCH  30  31
ENDBRANCH   1  30
TORSDOF 16
ENDMDL
MODEL 3
REMARK VINA RESULT:     -12.2      5.985     10.375
REMARK SMILES Cc1nc(-c2ccc(S(=O)(=O)N3CC[NH2+][C@H](C(=O)NCCCCCCNC(=O)c4ccc(-c5c6nc(c(-c7c(F)c(F)c(F)c(F)c7F)c7ccc([nH]7)c(-c7c(F)c(F)c(F)c(F)c7F)c7nc(c(-c8c(F)c(F)c(F)c(F)c8F)c8ccc5[nH]8)C=C7)C=C6)cc4)C3)s2)cs1
REMARK SMILES IDX 22 1 21 2 20 3 19 4 17 5 18 6 16 8 12 9 13 10 92 11 14 12
REMARK SMILES IDX 15 13 9 16 10 17 11 18 8 19 5 20 6 21 93 22 7 23 4 24 1 25
REMARK SMILES IDX 2 26 3 27 95 28 94 29 23 30 24 31 25 32 26 33 27 34 28 36
REMARK SMILES IDX 29 37 30 38 91 39 31 40 90 41 32 42 33 43 34 44 84 45 35 46
REMARK SMILES IDX 89 47 83 48 85 49 36 50 88 51 82 52 81 53 37 55 69 56 49 57
REMARK SMILES IDX 68 58 50 59 53 60 67 61 86 62 51 63 52 64 66 66 87 67 54 68
REMARK SMILES IDX 38 69 39 70 47 71 40 72 41 73 45 74 48 75 42 76 43 77 46 78
REMARK SMILES IDX 44 79 70 80 71 81 79 82 72 83 73 84 77 85 80 86 74 87 75 88
REMARK SMILES IDX 78 89 76 90 55 91 56 92 64 93 57 94 58 95 62 96 65 97 59 98
REMARK SMILES IDX 60 99 63 100 61 101
REMARK H PARENT 19 7 15 14 15 15 26 35 85 54 53 65
REMARK Flexibility Score: inf
ROOT
ATOM      1  C   UNL A   1      34.710  33.023  28.734  1.00  0.00     0.002 C 
ENDROOT
BRANCH   1   2
ATOM      2  C   UNL A   1      35.700  32.080  28.031  1.00  0.00     0.021 C 
BRANCH   2   3
ATOM      3  C   UNL A   1      35.045  30.759  27.613  1.00  0.00     0.116 C 
BRANCH   3   4
ATOM      4  N   UNL A   1      33.610  30.877  27.769  1.00  0.00    -0.351 N 
ATOM      5  C   UNL A   1      32.631  30.623  26.856  1.00  0.00     0.279 C 
ATOM      6  O   UNL A   1      31.662  31.392  26.872  1.00  0.00    -0.268 OA
ATOM      7  H   UNL A   1      33.301  31.181  28.652  1.00  0.00     0.163 HD
BRANCH   5   8
ATOM      8  C   UNL A   1      32.635  29.347  25.970  1.00  0.00     0.287 C 
ATOM      9  N   UNL A   1      33.050  26.962  25.558  1.00  0.00    -0.185 NA
ATOM     10  C   UNL A   1      33.828  27.176  24.327  1.00  0.00     0.164 C 
ATOM     11  C   UNL A   1      33.248  28.069  26.527  1.00  0.00     0.178 C 
ATOM     12  C   UNL A   1      33.647  28.598  23.761  1.00  0.00     0.278 C 
ATOM     13  N   UNL A   1      33.253  29.703  24.651  1.00  0.00    -0.334 N 
ATOM     14  H   UNL A   1      32.582  30.278  24.144  1.00  0.00     0.347 HD
ATOM     15  H   UNL A   1      34.131  30.163  24.893  1.00  0.00     0.347 HD
BRANCH   9  16
ATOM     16  S   UNL A   1      31.564  26.143  25.510  1.00  0.00     0.253 S 
ATOM     17  O   UNL A   1      30.740  26.842  24.540  1.00  0.00    -0.206 OA
ATOM     18  O   UNL A   1      31.133  25.961  26.876  1.00  0.00    -0.206 OA
BRANCH  16  19
ATOM     19  C   UNL A   1      31.684  24.470  24.871  1.00  0.00     0.135 A 
ATOM     20  C   UNL A   1      32.393  22.094  24.732  1.00  0.00     0.055 A 
ATOM     21  C   UNL A   1      31.708  22.500  23.612  1.00  0.00     0.023 A 
ATOM     22  S   UNL A   1      32.475  23.327  25.905  1.00  0.00    -0.121 S 
ATOM     23  C   UNL A   1      31.300  23.849  23.699  1.00  0.00     0.034 A 
BRANCH  20  24
ATOM     24  C   UNL A   1      32.992  20.727  24.790  1.00  0.00     0.091 A 
ATOM     25  C   UNL A   1      32.185  17.180  24.977  1.00  0.00     0.079 C 
ATOM     26  C   UNL A   1      32.824  18.521  24.919  1.00  0.00     0.090 A 
ATOM     27  N   UNL A   1      32.153  19.644  25.009  1.00  0.00    -0.241 NA
ATOM     28  S   UNL A   1      34.520  18.701  24.716  1.00  0.00    -0.127 S 
ATOM     29  C   UNL A   1      34.321  20.409  24.626  1.00  0.00     0.096 A 
ENDBRANCH  20  24
ENDBRANCH  16  19
ENDBRANCH   9  16
ENDBRANCH   5   8
ENDBRANCH   3   4
ENDBRANCH   2   3
ENDBRANCH   1   2
BRANCH   1  30
ATOM     30  C   UNL A   1      35.167  34.484  28.791  1.00  0.00     0.002 C 
BRANCH  30  31
ATOM     31  C   UNL A   1      34.028  35.505  28.865  1.00  0.00     0.021 C 
BRANCH  31  32
ATOM     32  C   UNL A   1      32.804  35.015  29.630  1.00  0.00     0.116 C 
BRANCH  32  33
ATOM     33  N   UNL A   1      32.454  35.920  30.712  1.00  0.00    -0.352 N 
ATOM     34  C   UNL A   1      32.931  35.950  31.996  1.00  0.00     0.251 C 
ATOM     35  H   UNL A   1      31.782  36.606  30.491  1.00  0.00     0.163 HD
ATOM     36  O   UNL A   1      32.372  36.627  32.852  1.00  0.00    -0.269 OA
BRANCH  34  37
ATOM     37  C   UNL A   1      34.126  35.156  32.347  1.00  0.00     0.039 A 
ATOM     38  C   UNL A   1      33.955  33.861  32.841  1.00  0.00     0.014 A 
ATOM     39  C   UNL A   1      35.406  35.702  32.219  1.00  0.00     0.014 A 
ATOM     40  C   UNL A   1      35.073  33.098  33.178  1.00  0.00     0.010 A 
ATOM     41  C   UNL A   1      36.523  34.919  32.497  1.00  0.00     0.010 A 
ATOM     42  C   UNL A   1      36.365  33.618  32.995  1.00  0.00    -0.014 A 
BRANCH  42  43
ATOM     43  C   UNL A   1      37.564  32.826  33.359  1.00  0.00     0.031 A 
ATOM     44  C   UNL A   1      38.281  33.104  34.650  1.00  0.00     0.074 A 
ATOM     45  C   UNL A   1      38.033  31.895  32.508  1.00  0.00     0.049 A 
ATOM     46  N   UNL A   1      39.374  32.561  35.125  1.00  0.00    -0.248 NA
ATOM     47  C   UNL A   1      37.709  34.152  35.510  1.00  0.00     0.031 C 
ATOM     48  C   UNL A   1      37.450  31.570  31.205  1.00  0.00     0.029 A 
ATOM     49  N   UNL A   1      39.115  31.057  32.607  1.00  0.00    -0.354 N 
ATOM     50  C   UNL A   1      39.627  33.212  36.325  1.00  0.00     0.074 A 
ATOM     51  C   UNL A   1      38.605  34.223  36.483  1.00  0.00     0.031 C 
ATOM     52  C   UNL A   1      38.168  30.590  30.635  1.00  0.00     0.029 A 
ATOM     53  C   UNL A   1      39.276  30.237  31.519  1.00  0.00     0.049 A 
ATOM     54  H   UNL A   1      39.717  31.046  33.386  1.00  0.00     0.167 HD
ATOM     55  C   UNL A   1      40.611  32.972  37.224  1.00  0.00     0.037 A 
ATOM     56  C   UNL A   1      40.214  29.305  31.266  1.00  0.00     0.037 A 
ATOM     57  C   UNL A   1      41.605  31.942  37.079  1.00  0.00     0.049 A 
ATOM     58  C   UNL A   1      41.282  29.042  32.291  1.00  0.00     0.074 A 
ATOM     59  C   UNL A   1      42.606  31.577  37.961  1.00  0.00     0.029 A 
ATOM     60  N   UNL A   1      41.717  31.108  35.976  1.00  0.00    -0.354 N 
ATOM     61  N   UNL A   1      41.476  29.620  33.453  1.00  0.00    -0.248 NA
ATOM     62  C   UNL A   1      42.257  27.989  31.976  1.00  0.00     0.031 C 
ATOM     63  C   UNL A   1      43.348  30.543  37.376  1.00  0.00     0.029 A 
ATOM     64  C   UNL A   1      42.782  30.237  36.150  1.00  0.00     0.049 A 
ATOM     65  H   UNL A   1      41.128  31.130  35.188  1.00  0.00     0.167 HD
ATOM     66  C   UNL A   1      42.573  28.986  34.016  1.00  0.00     0.074 A 
ATOM     67  C   UNL A   1      42.996  27.969  33.076  1.00  0.00     0.031 C 
ATOM     68  C   UNL A   1      43.180  29.226  35.205  1.00  0.00     0.037 A 
BRANCH  55  69
ATOM     69  C   UNL A   1      40.653  33.837  38.450  1.00  0.00     0.064 A 
ATOM     70  C   UNL A   1      39.912  33.519  39.599  1.00  0.00     0.173 A 
ATOM     71  C   UNL A   1      41.462  34.982  38.487  1.00  0.00     0.173 A 
ATOM     72  F   UNL A   1      39.112  32.441  39.609  1.00  0.00    -0.203 F 
ATOM     73  C   UNL A   1      39.957  34.332  40.729  1.00  0.00     0.198 A 
ATOM     74  C   UNL A   1      41.526  35.777  39.628  1.00  0.00     0.198 A 
ATOM     75  F   UNL A   1      42.192  35.329  37.417  1.00  0.00    -0.203 F 
ATOM     76  F   UNL A   1      39.202  34.036  41.795  1.00  0.00    -0.200 F 
ATOM     77  C   UNL A   1      40.768  35.457  40.745  1.00  0.00     0.200 A 
ATOM     78  F   UNL A   1      42.318  36.858  39.645  1.00  0.00    -0.200 F 
ATOM     79  F   UNL A   1      40.813  36.237  41.833  1.00  0.00    -0.200 F 
ENDBRANCH  55  69
BRANCH  56  80
ATOM     80  C   UNL A   1      40.162  28.526  30.002  1.00  0.00     0.064 A 
ATOM     81  C   UNL A   1      39.490  27.298  29.944  1.00  0.00     0.173 A 
ATOM     82  C   UNL A   1      40.781  28.990  28.832  1.00  0.00     0.173 A 
ATOM     83  F   UNL A   1      38.902  26.806  31.043  1.00  0.00    -0.203 F 
ATOM     84  C   UNL A   1      39.455  26.553  28.767  1.00  0.00     0.198 A 
ATOM     85  C   UNL A   1      40.723  28.256  27.649  1.00  0.00     0.198 A 
ATOM     86  F   UNL A   1      41.431  30.163  28.836  1.00  0.00    -0.203 F 
ATOM     87  F   UNL A   1      38.841  25.362  28.751  1.00  0.00    -0.200 F 
ATOM     88  C   UNL A   1      40.066  27.034  27.621  1.00  0.00     0.200 A 
ATOM     89  F   UNL A   1      41.303  28.730  26.540  1.00  0.00    -0.200 F 
ATOM     90  F   UNL A   1      40.029  26.319  26.488  1.00  0.00    -0.200 F 
ENDBRANCH  56  80
BRANCH  68  91
ATOM     91  C   UNL A   1      44.344  28.352  35.567  1.00  0.00     0.064 A 
ATOM     92  C   UNL A   1      45.658  28.701  35.224  1.00  0.00     0.173 A 
ATOM     93  C   UNL A   1      44.143  27.167  36.291  1.00  0.00     0.173 A 
ATOM     94  F   UNL A   1      45.898  29.816  34.519  1.00  0.00    -0.203 F 
ATOM     95  C   UNL A   1      46.728  27.882  35.572  1.00  0.00     0.198 A 
ATOM     96  C   UNL A   1      45.218  26.365  36.660  1.00  0.00     0.198 A 
ATOM     97  F   UNL A   1      42.905  26.794  36.647  1.00  0.00    -0.203 F 
ATOM     98  F   UNL A   1      47.972  28.209  35.194  1.00  0.00    -0.200 F 
ATOM     99  C   UNL A   1      46.509  26.718  36.295  1.00  0.00     0.200 A 
ATOM    100  F   UNL A   1      45.006  25.247  37.369  1.00  0.00    -0.200 F 
ATOM    101  F   UNL A   1      47.540  25.932  36.632  1.00  0.00    -0.200 F 
ENDBRANCH  68  91
ENDBRANCH  42  43
ENDBRANCH  34  37
ENDBRANCH  32  33
ENDBRANCH  31  32
ENDBRANCH  30  31
ENDBRANCH   1  30
TORSDOF 16
ENDMDL
