MODEL 1
REMARK VINA RESULT:     -11.9      0.000      0.000
REMARK SMILES C[C@H](Oc1ccnc2c(F)cc(F)cc12)C(=O)NCCCCCCNC(=O)c1ccc(-c2c3nc(c(-c4c(F)c(F)c(F)c(F)c4F)c4ccc([nH]4)c(-c4c(F)c(F)c(F)c(F)c4F)c4nc(c(-c5c(F)c(F)c(F)c(F)c5F)c5ccc2[nH]5)C=C4)C=C3)cc1
REMARK SMILES IDX 21 1 20 2 19 3 18 4 16 5 17 6 2 8 1 9 3 10 4 11 5 12 15 13
REMARK SMILES IDX 6 14 8 15 14 16 7 17 9 18 12 19 10 20 11 21 13 22 22 23
REMARK SMILES IDX 23 24 24 25 25 26 26 27 27 29 28 30 29 31 90 32 30 33 89 34
REMARK SMILES IDX 31 35 32 36 33 37 83 38 34 39 88 40 82 41 84 42 35 43 87 44
REMARK SMILES IDX 81 45 80 46 36 48 68 49 48 50 67 51 49 52 52 53 66 54 85 55
REMARK SMILES IDX 50 56 51 57 65 59 86 60 53 61 37 62 38 63 46 64 39 65 40 66
REMARK SMILES IDX 44 67 47 68 41 69 42 70 45 71 43 72 69 73 70 74 78 75 71 76
REMARK SMILES IDX 72 77 76 78 79 79 73 80 74 81 77 82 75 83 54 84 55 85 63 86
REMARK SMILES IDX 56 87 57 88 61 89 64 90 58 91 59 92 62 93 60 94
REMARK H PARENT 18 7 25 28 84 47 52 58
REMARK Flexibility Score: inf
ROOT
ATOM      1  C   UNL A   1      31.665  29.435  27.247  1.00  0.00     0.002 C 
ENDROOT
BRANCH   1   2
ATOM      2  C   UNL A   1      32.405  28.129  26.935  1.00  0.00     0.021 C 
BRANCH   2   3
ATOM      3  C   UNL A   1      33.656  28.263  26.066  1.00  0.00     0.116 C 
BRANCH   3   4
ATOM      4  N   UNL A   1      34.048  27.013  25.449  1.00  0.00    -0.353 N 
ATOM      5  C   UNL A   1      33.883  26.553  24.182  1.00  0.00     0.260 C 
ATOM      6  O   UNL A   1      34.260  25.400  23.944  1.00  0.00    -0.271 OA
ATOM      7  H   UNL A   1      34.515  26.390  26.051  1.00  0.00     0.163 HD
BRANCH   5   8
ATOM      8  C   UNL A   1      33.281  27.422  23.050  1.00  0.00     0.258 C 
ATOM      9  C   UNL A   1      34.372  28.398  22.594  1.00  0.00     0.064 C 
BRANCH   8  10
ATOM     10  O   UNL A   1      32.106  28.193  23.233  1.00  0.00    -0.480 OA
BRANCH  10  11
ATOM     11  C   UNL A   1      30.871  27.602  23.294  1.00  0.00     0.131 A 
ATOM     12  C   UNL A   1      30.633  26.300  23.715  1.00  0.00     0.067 A 
ATOM     13  C   UNL A   1      29.779  28.453  23.001  1.00  0.00     0.048 A 
ATOM     14  C   UNL A   1      29.325  25.936  23.970  1.00  0.00     0.115 A 
ATOM     15  C   UNL A   1      28.480  27.990  23.302  1.00  0.00     0.110 A 
ATOM     16  C   UNL A   1      29.943  29.740  22.438  1.00  0.00     0.053 A 
ATOM     17  N   UNL A   1      28.269  26.756  23.803  1.00  0.00    -0.253 NA
ATOM     18  C   UNL A   1      27.410  28.863  23.078  1.00  0.00     0.152 A 
ATOM     19  C   UNL A   1      28.843  30.551  22.193  1.00  0.00     0.127 A 
ATOM     20  F   UNL A   1      26.163  28.485  23.407  1.00  0.00    -0.204 F 
ATOM     21  C   UNL A   1      27.572  30.130  22.525  1.00  0.00     0.080 A 
ATOM     22  F   UNL A   1      29.020  31.753  21.632  1.00  0.00    -0.207 F 
ENDBRANCH  10  11
ENDBRANCH   8  10
ENDBRANCH   5   8
ENDBRANCH   3   4
ENDBRANCH   2   3
ENDBRANCH   1   2
BRANCH   1  23
ATOM     23  C   UNL A   1      31.481  30.381  26.060  1.00  0.00     0.002 C 
BRANCH  23  24
ATOM     24  C   UNL A   1      31.346  31.858  26.430  1.00  0.00     0.021 C 
BRANCH  24  25
ATOM     25  C   UNL A   1      32.607  32.488  27.010  1.00  0.00     0.116 C 
BRANCH  25  26
ATOM     26  N   UNL A   1      32.390  33.858  27.440  1.00  0.00    -0.352 N 
ATOM     27  C   UNL A   1      33.035  34.539  28.444  1.00  0.00     0.251 C 
ATOM     28  H   UNL A   1      31.696  34.359  26.953  1.00  0.00     0.163 HD
ATOM     29  O   UNL A   1      32.655  35.638  28.819  1.00  0.00    -0.269 OA
BRANCH  27  30
ATOM     30  C   UNL A   1      34.199  33.897  29.084  1.00  0.00     0.039 A 
ATOM     31  C   UNL A   1      35.478  34.372  28.795  1.00  0.00     0.014 A 
ATOM     32  C   UNL A   1      34.006  32.862  30.006  1.00  0.00     0.014 A 
ATOM     33  C   UNL A   1      36.575  33.832  29.467  1.00  0.00     0.010 A 
ATOM     34  C   UNL A   1      35.096  32.361  30.711  1.00  0.00     0.010 A 
ATOM     35  C   UNL A   1      36.388  32.835  30.439  1.00  0.00    -0.014 A 
BRANCH  35  36
ATOM     36  C   UNL A   1      37.548  32.233  31.136  1.00  0.00     0.031 A 
ATOM     37  C   UNL A   1      38.323  31.139  30.463  1.00  0.00     0.074 A 
ATOM     38  C   UNL A   1      37.883  32.648  32.371  1.00  0.00     0.049 A 
ATOM     39  N   UNL A   1      39.361  30.473  30.898  1.00  0.00    -0.248 NA
ATOM     40  C   UNL A   1      37.860  30.727  29.128  1.00  0.00     0.031 C 
ATOM     41  C   UNL A   1      37.187  33.685  33.133  1.00  0.00     0.029 A 
ATOM     42  N   UNL A   1      38.898  32.246  33.202  1.00  0.00    -0.354 N 
ATOM     43  C   UNL A   1      39.677  29.573  29.891  1.00  0.00     0.074 A 
ATOM     44  C   UNL A   1      38.687  29.732  28.848  1.00  0.00     0.031 C 
ATOM     45  C   UNL A   1      37.808  33.851  34.313  1.00  0.00     0.029 A 
ATOM     46  C   UNL A   1      38.931  32.920  34.398  1.00  0.00     0.049 A 
ATOM     47  H   UNL A   1      39.541  31.540  32.965  1.00  0.00     0.167 HD
ATOM     48  C   UNL A   1      40.719  28.713  29.828  1.00  0.00     0.037 A 
ATOM     49  C   UNL A   1      39.776  32.800  35.439  1.00  0.00     0.037 A 
ATOM     50  C   UNL A   1      41.711  28.567  30.858  1.00  0.00     0.049 A 
ATOM     51  C   UNL A   1      40.903  31.806  35.362  1.00  0.00     0.074 A 
ATOM     52  C   UNL A   1      42.830  27.755  30.868  1.00  0.00     0.029 A 
ATOM     53  N   UNL A   1      41.697  29.251  32.065  1.00  0.00    -0.354 N 
ATOM     54  N   UNL A   1      41.229  31.002  34.380  1.00  0.00    -0.248 NA
ATOM     55  C   UNL A   1      41.781  31.702  36.537  1.00  0.00     0.031 C 
ATOM     56  C   UNL A   1      43.475  27.920  32.098  1.00  0.00     0.029 A 
ATOM     57  C   UNL A   1      42.778  28.863  32.837  1.00  0.00     0.049 A 
ATOM     58  H   UNL A   1      41.019  29.914  32.331  1.00  0.00     0.167 HD
ATOM     59  C   UNL A   1      42.359  30.315  34.806  1.00  0.00     0.074 A 
ATOM     60  C   UNL A   1      42.669  30.804  36.132  1.00  0.00     0.031 C 
ATOM     61  C   UNL A   1      43.073  29.366  34.154  1.00  0.00     0.037 A 
BRANCH  48  62
ATOM     62  C   UNL A   1      40.850  27.878  28.591  1.00  0.00     0.064 A 
ATOM     63  C   UNL A   1      40.178  26.652  28.468  1.00  0.00     0.173 A 
ATOM     64  C   UNL A   1      41.618  28.320  27.505  1.00  0.00     0.173 A 
ATOM     65  F   UNL A   1      39.443  26.181  29.486  1.00  0.00    -0.203 F 
ATOM     66  C   UNL A   1      40.286  25.890  27.308  1.00  0.00     0.198 A 
ATOM     67  C   UNL A   1      41.704  27.567  26.337  1.00  0.00     0.198 A 
ATOM     68  F   UNL A   1      42.277  29.487  27.573  1.00  0.00    -0.203 F 
ATOM     69  F   UNL A   1      39.666  24.705  27.227  1.00  0.00    -0.200 F 
ATOM     70  C   UNL A   1      41.042  26.352  26.242  1.00  0.00     0.200 A 
ATOM     71  F   UNL A   1      42.428  28.018  25.303  1.00  0.00    -0.200 F 
ATOM     72  F   UNL A   1      41.138  25.621  25.121  1.00  0.00    -0.200 F 
ENDBRANCH  48  62
BRANCH  49  73
ATOM     73  C   UNL A   1      39.612  33.674  36.628  1.00  0.00     0.064 A 
ATOM     74  C   UNL A   1      40.223  34.935  36.679  1.00  0.00     0.173 A 
ATOM     75  C   UNL A   1      38.838  33.278  37.728  1.00  0.00     0.173 A 
ATOM     76  F   UNL A   1      40.989  35.348  35.660  1.00  0.00    -0.203 F 
ATOM     77  C   UNL A   1      40.072  35.764  37.789  1.00  0.00     0.198 A 
ATOM     78  C   UNL A   1      38.671  34.115  38.829  1.00  0.00     0.198 A 
ATOM     79  F   UNL A   1      38.231  32.082  37.726  1.00  0.00    -0.203 F 
ATOM     80  F   UNL A   1      40.691  36.951  37.825  1.00  0.00    -0.200 F 
ATOM     81  C   UNL A   1      39.292  35.356  38.861  1.00  0.00     0.200 A 
ATOM     82  F   UNL A   1      37.907  33.723  39.858  1.00  0.00    -0.200 F 
ATOM     83  F   UNL A   1      39.142  36.155  39.925  1.00  0.00    -0.200 F 
ENDBRANCH  49  73
BRANCH  61  84
ATOM     84  C   UNL A   1      44.269  28.794  34.854  1.00  0.00     0.064 A 
ATOM     85  C   UNL A   1      45.523  29.415  34.777  1.00  0.00     0.173 A 
ATOM     86  C   UNL A   1      44.138  27.669  35.680  1.00  0.00     0.173 A 
ATOM     87  F   UNL A   1      45.698  30.486  33.989  1.00  0.00    -0.203 F 
ATOM     88  C   UNL A   1      46.607  28.924  35.499  1.00  0.00     0.198 A 
ATOM     89  C   UNL A   1      45.217  27.195  36.420  1.00  0.00     0.198 A 
ATOM     90  F   UNL A   1      42.955  27.045  35.792  1.00  0.00    -0.203 F 
ATOM     91  F   UNL A   1      47.803  29.518  35.394  1.00  0.00    -0.200 F 
ATOM     92  C   UNL A   1      46.451  27.822  36.327  1.00  0.00     0.200 A 
ATOM     93  F   UNL A   1      45.062  26.138  37.229  1.00  0.00    -0.200 F 
ATOM     94  F   UNL A   1      47.492  27.364  37.037  1.00  0.00    -0.200 F 
ENDBRANCH  61  84
ENDBRANCH  35  36
ENDBRANCH  27  30
ENDBRANCH  25  26
ENDBRANCH  24  25
ENDBRANCH  23  24
ENDBRANCH   1  23
TORSDOF 15
ENDMDL
MODEL 2
REMARK VINA RESULT:     -11.9      2.145      3.723
REMARK SMILES C[C@H](Oc1ccnc2c(F)cc(F)cc12)C(=O)NCCCCCCNC(=O)c1ccc(-c2c3nc(c(-c4c(F)c(F)c(F)c(F)c4F)c4ccc([nH]4)c(-c4c(F)c(F)c(F)c(F)c4F)c4nc(c(-c5c(F)c(F)c(F)c(F)c5F)c5ccc2[nH]5)C=C4)C=C3)cc1
REMARK SMILES IDX 21 1 20 2 19 3 18 4 16 5 17 6 2 8 1 9 3 10 4 11 5 12 15 13
REMARK SMILES IDX 6 14 8 15 14 16 7 17 9 18 12 19 10 20 11 21 13 22 22 23
REMARK SMILES IDX 23 24 24 25 25 26 26 27 27 29 28 30 29 31 90 32 30 33 89 34
REMARK SMILES IDX 31 35 32 36 33 37 83 38 34 39 88 40 82 41 84 42 35 43 87 44
REMARK SMILES IDX 81 45 80 46 36 48 68 49 48 50 67 51 49 52 52 53 66 54 85 55
REMARK SMILES IDX 50 56 51 57 65 59 86 60 53 61 37 62 38 63 46 64 39 65 40 66
REMARK SMILES IDX 44 67 47 68 41 69 42 70 45 71 43 72 69 73 70 74 78 75 71 76
REMARK SMILES IDX 72 77 76 78 79 79 73 80 74 81 77 82 75 83 54 84 55 85 63 86
REMARK SMILES IDX 56 87 57 88 61 89 64 90 58 91 59 92 62 93 60 94
REMARK H PARENT 18 7 25 28 84 47 52 58
REMARK Flexibility Score: inf
ROOT
ATOM      1  C   UNL A   1      32.323  29.988  27.213  1.00  0.00     0.002 C 
ENDROOT
BRANCH   1   2
ATOM      2  C   UNL A   1      32.003  28.489  27.217  1.00  0.00     0.021 C 
BRANCH   2   3
ATOM      3  C   UNL A   1      32.773  27.641  26.204  1.00  0.00     0.116 C 
BRANCH   3   4
ATOM      4  N   UNL A   1      31.903  26.877  25.334  1.00  0.00    -0.353 N 
ATOM      5  C   UNL A   1      32.151  26.243  24.159  1.00  0.00     0.260 C 
ATOM      6  O   UNL A   1      31.190  25.718  23.585  1.00  0.00    -0.271 OA
ATOM      7  H   UNL A   1      30.973  26.805  25.648  1.00  0.00     0.163 HD
BRANCH   5   8
ATOM      8  C   UNL A   1      33.572  26.133  23.552  1.00  0.00     0.258 C 
ATOM      9  C   UNL A   1      33.650  27.129  22.391  1.00  0.00     0.064 C 
BRANCH   8  10
ATOM     10  O   UNL A   1      34.092  24.908  23.065  1.00  0.00    -0.480 OA
BRANCH  10  11
ATOM     11  C   UNL A   1      34.504  23.921  23.921  1.00  0.00     0.131 A 
ATOM     12  C   UNL A   1      35.461  24.078  24.915  1.00  0.00     0.067 A 
ATOM     13  C   UNL A   1      33.796  22.698  23.818  1.00  0.00     0.048 A 
ATOM     14  C   UNL A   1      35.579  23.075  25.859  1.00  0.00     0.115 A 
ATOM     15  C   UNL A   1      33.982  21.739  24.837  1.00  0.00     0.110 A 
ATOM     16  C   UNL A   1      32.911  22.416  22.753  1.00  0.00     0.053 A 
ATOM     17  N   UNL A   1      34.845  21.945  25.852  1.00  0.00    -0.253 NA
ATOM     18  C   UNL A   1      33.226  20.564  24.769  1.00  0.00     0.152 A 
ATOM     19  C   UNL A   1      32.217  21.214  22.708  1.00  0.00     0.127 A 
ATOM     20  F   UNL A   1      33.327  19.650  25.749  1.00  0.00    -0.204 F 
ATOM     21  C   UNL A   1      32.353  20.287  23.721  1.00  0.00     0.080 A 
ATOM     22  F   UNL A   1      31.406  20.956  21.675  1.00  0.00    -0.207 F 
ENDBRANCH  10  11
ENDBRANCH   8  10
ENDBRANCH   5   8
ENDBRANCH   3   4
ENDBRANCH   2   3
ENDBRANCH   1   2
BRANCH   1  23
ATOM     23  C   UNL A   1      31.572  30.814  26.169  1.00  0.00     0.002 C 
BRANCH  23  24
ATOM     24  C   UNL A   1      31.402  32.292  26.518  1.00  0.00     0.021 C 
BRANCH  24  25
ATOM     25  C   UNL A   1      32.569  32.904  27.284  1.00  0.00     0.116 C 
BRANCH  25  26
ATOM     26  N   UNL A   1      32.334  34.296  27.625  1.00  0.00    -0.352 N 
ATOM     27  C   UNL A   1      32.930  35.032  28.621  1.00  0.00     0.251 C 
ATOM     28  H   UNL A   1      31.667  34.769  27.077  1.00  0.00     0.163 HD
ATOM     29  O   UNL A   1      32.533  36.151  28.915  1.00  0.00    -0.269 OA
BRANCH  27  30
ATOM     30  C   UNL A   1      34.059  34.428  29.353  1.00  0.00     0.039 A 
ATOM     31  C   UNL A   1      33.802  33.715  30.524  1.00  0.00     0.014 A 
ATOM     32  C   UNL A   1      35.357  34.531  28.843  1.00  0.00     0.014 A 
ATOM     33  C   UNL A   1      34.852  33.063  31.170  1.00  0.00     0.010 A 
ATOM     34  C   UNL A   1      36.393  33.837  29.460  1.00  0.00     0.010 A 
ATOM     35  C   UNL A   1      36.149  33.108  30.634  1.00  0.00    -0.014 A 
BRANCH  35  36
ATOM     36  C   UNL A   1      37.278  32.446  31.328  1.00  0.00     0.031 A 
ATOM     37  C   UNL A   1      37.993  31.312  30.653  1.00  0.00     0.074 A 
ATOM     38  C   UNL A   1      37.638  32.843  32.562  1.00  0.00     0.049 A 
ATOM     39  N   UNL A   1      38.996  30.593  31.085  1.00  0.00    -0.248 NA
ATOM     40  C   UNL A   1      37.505  30.925  29.319  1.00  0.00     0.031 C 
ATOM     41  C   UNL A   1      37.000  33.915  33.325  1.00  0.00     0.029 A 
ATOM     42  N   UNL A   1      38.633  32.388  33.390  1.00  0.00    -0.354 N 
ATOM     43  C   UNL A   1      39.261  29.677  30.078  1.00  0.00     0.074 A 
ATOM     44  C   UNL A   1      38.278  29.888  29.038  1.00  0.00     0.031 C 
ATOM     45  C   UNL A   1      37.632  34.048  34.504  1.00  0.00     0.029 A 
ATOM     46  C   UNL A   1      38.705  33.060  34.586  1.00  0.00     0.049 A 
ATOM     47  H   UNL A   1      39.238  31.649  33.151  1.00  0.00     0.167 HD
ATOM     48  C   UNL A   1      40.256  28.764  30.012  1.00  0.00     0.037 A 
ATOM     49  C   UNL A   1      39.546  32.896  35.624  1.00  0.00     0.037 A 
ATOM     50  C   UNL A   1      41.242  28.566  31.038  1.00  0.00     0.049 A 
ATOM     51  C   UNL A   1      40.618  31.844  35.544  1.00  0.00     0.074 A 
ATOM     52  C   UNL A   1      42.317  27.697  31.046  1.00  0.00     0.029 A 
ATOM     53  N   UNL A   1      41.267  29.251  32.246  1.00  0.00    -0.354 N 
ATOM     54  N   UNL A   1      40.899  31.024  34.561  1.00  0.00    -0.248 NA
ATOM     55  C   UNL A   1      41.494  31.695  36.716  1.00  0.00     0.031 C 
ATOM     56  C   UNL A   1      42.974  27.828  32.273  1.00  0.00     0.029 A 
ATOM     57  C   UNL A   1      42.330  28.806  33.015  1.00  0.00     0.049 A 
ATOM     58  H   UNL A   1      40.627  29.948  32.513  1.00  0.00     0.167 HD
ATOM     59  C   UNL A   1      41.992  30.279  34.984  1.00  0.00     0.074 A 
ATOM     60  C   UNL A   1      42.331  30.752  36.310  1.00  0.00     0.031 C 
ATOM     61  C   UNL A   1      42.654  29.294  34.331  1.00  0.00     0.037 A 
BRANCH  48  62
ATOM     62  C   UNL A   1      40.340  27.923  28.775  1.00  0.00     0.064 A 
ATOM     63  C   UNL A   1      41.109  28.325  27.673  1.00  0.00     0.173 A 
ATOM     64  C   UNL A   1      39.682  26.687  28.704  1.00  0.00     0.173 A 
ATOM     65  F   UNL A   1      41.745  29.506  27.689  1.00  0.00    -0.203 F 
ATOM     66  C   UNL A   1      41.201  27.529  26.535  1.00  0.00     0.198 A 
ATOM     67  C   UNL A   1      39.795  25.882  27.573  1.00  0.00     0.198 A 
ATOM     68  F   UNL A   1      38.936  26.256  29.732  1.00  0.00    -0.203 F 
ATOM     69  F   UNL A   1      41.910  27.951  25.479  1.00  0.00    -0.200 F 
ATOM     70  C   UNL A   1      40.550  26.305  26.489  1.00  0.00     0.200 A 
ATOM     71  F   UNL A   1      39.174  24.694  27.532  1.00  0.00    -0.200 F 
ATOM     72  F   UNL A   1      40.647  25.535  25.396  1.00  0.00    -0.200 F 
ENDBRANCH  48  62
BRANCH  49  73
ATOM     73  C   UNL A   1      39.431  33.777  36.814  1.00  0.00     0.064 A 
ATOM     74  C   UNL A   1      38.661  33.389  37.919  1.00  0.00     0.173 A 
ATOM     75  C   UNL A   1      40.093  35.011  36.879  1.00  0.00     0.173 A 
ATOM     76  F   UNL A   1      37.993  32.227  37.894  1.00  0.00    -0.203 F 
ATOM     77  C   UNL A   1      38.549  34.208  39.041  1.00  0.00     0.198 A 
ATOM     78  C   UNL A   1      39.998  35.820  38.009  1.00  0.00     0.198 A 
ATOM     79  F   UNL A   1      40.844  35.425  35.847  1.00  0.00    -0.203 F 
ATOM     80  F   UNL A   1      37.782  33.828  40.072  1.00  0.00    -0.200 F 
ATOM     81  C   UNL A   1      39.222  35.420  39.088  1.00  0.00     0.200 A 
ATOM     82  F   UNL A   1      40.658  36.985  38.056  1.00  0.00    -0.200 F 
ATOM     83  F   UNL A   1      39.121  36.203  40.170  1.00  0.00    -0.200 F 
ENDBRANCH  49  73
BRANCH  61  84
ATOM     84  C   UNL A   1      43.820  28.660  35.027  1.00  0.00     0.064 A 
ATOM     85  C   UNL A   1      45.107  29.206  34.934  1.00  0.00     0.173 A 
ATOM     86  C   UNL A   1      43.631  27.552  35.866  1.00  0.00     0.173 A 
ATOM     87  F   UNL A   1      45.339  30.257  34.134  1.00  0.00    -0.203 F 
ATOM     88  C   UNL A   1      46.167  28.660  35.653  1.00  0.00     0.198 A 
ATOM     89  C   UNL A   1      44.687  27.024  36.602  1.00  0.00     0.198 A 
ATOM     90  F   UNL A   1      42.414  27.000  35.994  1.00  0.00    -0.203 F 
ATOM     91  F   UNL A   1      47.395  29.182  35.532  1.00  0.00    -0.200 F 
ATOM     92  C   UNL A   1      45.955  27.577  36.493  1.00  0.00     0.200 A 
ATOM     93  F   UNL A   1      44.477  25.986  37.423  1.00  0.00    -0.200 F 
ATOM     94  F   UNL A   1      46.973  27.066  37.200  1.00  0.00    -0.200 F 
ENDBRANCH  61  84
ENDBRANCH  35  36
ENDBRANCH  27  30
ENDBRANCH  25  26
ENDBRANCH  24  25
ENDBRANCH  23  24
ENDBRANCH   1  23
TORSDOF 15
ENDMDL
MODEL 3
REMARK VINA RESULT:     -11.9      5.502     10.691
REMARK SMILES C[C@H](Oc1ccnc2c(F)cc(F)cc12)C(=O)NCCCCCCNC(=O)c1ccc(-c2c3nc(c(-c4c(F)c(F)c(F)c(F)c4F)c4ccc([nH]4)c(-c4c(F)c(F)c(F)c(F)c4F)c4nc(c(-c5c(F)c(F)c(F)c(F)c5F)c5ccc2[nH]5)C=C4)C=C3)cc1
REMARK SMILES IDX 21 1 20 2 19 3 18 4 16 5 17 6 2 8 1 9 3 10 4 11 5 12 15 13
REMARK SMILES IDX 6 14 8 15 14 16 7 17 9 18 12 19 10 20 11 21 13 22 22 23
REMARK SMILES IDX 23 24 24 25 25 26 26 27 27 29 28 30 29 31 90 32 30 33 89 34
REMARK SMILES IDX 31 35 32 36 33 37 83 38 34 39 88 40 82 41 84 42 35 43 87 44
REMARK SMILES IDX 81 45 80 46 36 48 68 49 48 50 67 51 49 52 52 53 66 54 85 55
REMARK SMILES IDX 50 56 51 57 65 59 86 60 53 61 37 62 38 63 46 64 39 65 40 66
REMARK SMILES IDX 44 67 47 68 41 69 42 70 45 71 43 72 69 73 70 74 78 75 71 76
REMARK SMILES IDX 72 77 76 78 79 79 73 80 74 81 77 82 75 83 54 84 55 85 63 86
REMARK SMILES IDX 56 87 57 88 61 89 64 90 58 91 59 92 62 93 60 94
REMARK H PARENT 18 7 25 28 84 47 52 58
REMARK Flexibility Score: inf
ROOT
ATOM      1  C   UNL A   1      37.339  22.291  25.298  1.00  0.00     0.002 C 
ENDROOT
BRANCH   1   2
ATOM      2  C   UNL A   1      36.366  23.424  24.949  1.00  0.00     0.021 C 
BRANCH   2   3
ATOM      3  C   UNL A   1      34.950  22.993  24.568  1.00  0.00     0.116 C 
BRANCH   3   4
ATOM      4  N   UNL A   1      34.596  23.362  23.213  1.00  0.00    -0.353 N 
ATOM      5  C   UNL A   1      33.532  23.015  22.444  1.00  0.00     0.260 C 
ATOM      6  O   UNL A   1      33.518  23.426  21.278  1.00  0.00    -0.271 OA
ATOM      7  H   UNL A   1      35.236  23.967  22.775  1.00  0.00     0.163 HD
BRANCH   5   8
ATOM      8  C   UNL A   1      32.352  22.169  22.983  1.00  0.00     0.258 C 
ATOM      9  C   UNL A   1      32.001  21.136  21.907  1.00  0.00     0.064 C 
BRANCH   8  10
ATOM     10  O   UNL A   1      31.127  22.755  23.389  1.00  0.00    -0.480 OA
BRANCH  10  11
ATOM     11  C   UNL A   1      30.984  23.312  24.633  1.00  0.00     0.131 A 
ATOM     12  C   UNL A   1      31.043  22.610  25.830  1.00  0.00     0.067 A 
ATOM     13  C   UNL A   1      30.878  24.724  24.654  1.00  0.00     0.048 A 
ATOM     14  C   UNL A   1      31.142  23.340  26.999  1.00  0.00     0.115 A 
ATOM     15  C   UNL A   1      30.997  25.377  25.899  1.00  0.00     0.110 A 
ATOM     16  C   UNL A   1      30.675  25.492  23.485  1.00  0.00     0.053 A 
ATOM     17  N   UNL A   1      31.153  24.687  27.047  1.00  0.00    -0.253 NA
ATOM     18  C   UNL A   1      30.965  26.776  25.905  1.00  0.00     0.152 A 
ATOM     19  C   UNL A   1      30.605  26.877  23.550  1.00  0.00     0.127 A 
ATOM     20  F   UNL A   1      31.135  27.440  27.061  1.00  0.00    -0.204 F 
ATOM     21  C   UNL A   1      30.767  27.532  24.754  1.00  0.00     0.080 A 
ATOM     22  F   UNL A   1      30.382  27.581  22.434  1.00  0.00    -0.207 F 
ENDBRANCH  10  11
ENDBRANCH   8  10
ENDBRANCH   5   8
ENDBRANCH   3   4
ENDBRANCH   2   3
ENDBRANCH   1   2
BRANCH   1  23
ATOM     23  C   UNL A   1      36.940  20.908  24.784  1.00  0.00     0.002 C 
BRANCH  23  24
ATOM     24  C   UNL A   1      38.016  19.832  24.933  1.00  0.00     0.021 C 
BRANCH  24  25
ATOM     25  C   UNL A   1      39.185  20.220  25.832  1.00  0.00     0.116 C 
BRANCH  25  26
ATOM     26  N   UNL A   1      40.172  19.160  25.939  1.00  0.00    -0.352 N 
ATOM     27  C   UNL A   1      41.530  19.287  26.108  1.00  0.00     0.251 C 
ATOM     28  H   UNL A   1      39.826  18.240  25.882  1.00  0.00     0.163 HD
ATOM     29  O   UNL A   1      42.278  18.323  26.024  1.00  0.00    -0.269 OA
BRANCH  27  30
ATOM     30  C   UNL A   1      42.076  20.631  26.375  1.00  0.00     0.039 A 
ATOM     31  C   UNL A   1      42.337  21.481  25.301  1.00  0.00     0.014 A 
ATOM     32  C   UNL A   1      42.275  21.053  27.694  1.00  0.00     0.014 A 
ATOM     33  C   UNL A   1      42.765  22.785  25.551  1.00  0.00     0.010 A 
ATOM     34  C   UNL A   1      42.652  22.369  27.942  1.00  0.00     0.010 A 
ATOM     35  C   UNL A   1      42.910  23.240  26.872  1.00  0.00    -0.014 A 
BRANCH  35  36
ATOM     36  C   UNL A   1      43.393  24.612  27.150  1.00  0.00     0.031 A 
ATOM     37  C   UNL A   1      42.439  25.631  27.701  1.00  0.00     0.074 A 
ATOM     38  C   UNL A   1      44.670  24.945  26.885  1.00  0.00     0.049 A 
ATOM     39  N   UNL A   1      42.653  26.885  28.005  1.00  0.00    -0.248 NA
ATOM     40  C   UNL A   1      41.055  25.184  27.924  1.00  0.00     0.031 C 
ATOM     41  C   UNL A   1      45.680  24.046  26.326  1.00  0.00     0.029 A 
ATOM     42  N   UNL A   1      45.336  26.133  27.054  1.00  0.00    -0.354 N 
ATOM     43  C   UNL A   1      41.437  27.372  28.461  1.00  0.00     0.074 A 
ATOM     44  C   UNL A   1      40.473  26.300  28.337  1.00  0.00     0.031 C 
ATOM     45  C   UNL A   1      46.843  24.710  26.215  1.00  0.00     0.029 A 
ATOM     46  C   UNL A   1      46.656  26.083  26.677  1.00  0.00     0.049 A 
ATOM     47  H   UNL A   1      44.908  26.944  27.411  1.00  0.00     0.167 HD
ATOM     48  C   UNL A   1      41.157  28.593  28.968  1.00  0.00     0.037 A 
ATOM     49  C   UNL A   1      47.603  27.039  26.707  1.00  0.00     0.037 A 
ATOM     50  C   UNL A   1      42.119  29.652  29.106  1.00  0.00     0.049 A 
ATOM     51  C   UNL A   1      47.255  28.404  27.237  1.00  0.00     0.074 A 
ATOM     52  C   UNL A   1      41.944  30.911  29.648  1.00  0.00     0.029 A 
ATOM     53  N   UNL A   1      43.441  29.571  28.690  1.00  0.00    -0.354 N 
ATOM     54  N   UNL A   1      46.117  28.837  27.722  1.00  0.00    -0.248 NA
ATOM     55  C   UNL A   1      48.324  29.415  27.225  1.00  0.00     0.031 C 
ATOM     56  C   UNL A   1      43.150  31.608  29.530  1.00  0.00     0.029 A 
ATOM     57  C   UNL A   1      44.087  30.769  28.947  1.00  0.00     0.049 A 
ATOM     58  H   UNL A   1      43.856  28.781  28.277  1.00  0.00     0.167 HD
ATOM     59  C   UNL A   1      46.336  30.157  28.093  1.00  0.00     0.074 A 
ATOM     60  C   UNL A   1      47.719  30.452  27.787  1.00  0.00     0.031 C 
ATOM     61  C   UNL A   1      45.467  31.042  28.639  1.00  0.00     0.037 A 
BRANCH  48  62
ATOM     62  C   UNL A   1      39.755  28.843  29.432  1.00  0.00     0.064 A 
ATOM     63  C   UNL A   1      38.780  29.350  28.559  1.00  0.00     0.173 A 
ATOM     64  C   UNL A   1      39.369  28.536  30.744  1.00  0.00     0.173 A 
ATOM     65  F   UNL A   1      39.106  29.673  27.299  1.00  0.00    -0.203 F 
ATOM     66  C   UNL A   1      37.473  29.560  28.990  1.00  0.00     0.198 A 
ATOM     67  C   UNL A   1      38.054  28.724  31.165  1.00  0.00     0.198 A 
ATOM     68  F   UNL A   1      40.263  28.045  31.616  1.00  0.00    -0.203 F 
ATOM     69  F   UNL A   1      36.568  30.081  28.151  1.00  0.00    -0.200 F 
ATOM     70  C   UNL A   1      37.110  29.240  30.289  1.00  0.00     0.200 A 
ATOM     71  F   UNL A   1      37.701  28.405  32.418  1.00  0.00    -0.200 F 
ATOM     72  F   UNL A   1      35.848  29.433  30.700  1.00  0.00    -0.200 F 
ENDBRANCH  48  62
BRANCH  49  73
ATOM     73  C   UNL A   1      48.983  26.726  26.258  1.00  0.00     0.064 A 
ATOM     74  C   UNL A   1      49.368  26.945  24.928  1.00  0.00     0.173 A 
ATOM     75  C   UNL A   1      49.944  26.217  27.142  1.00  0.00     0.173 A 
ATOM     76  F   UNL A   1      48.478  27.411  24.042  1.00  0.00    -0.203 F 
ATOM     77  C   UNL A   1      50.662  26.657  24.497  1.00  0.00     0.198 A 
ATOM     78  C   UNL A   1      51.243  25.948  26.715  1.00  0.00     0.198 A 
ATOM     79  F   UNL A   1      49.625  25.993  28.425  1.00  0.00    -0.203 F 
ATOM     80  F   UNL A   1      50.996  26.847  23.214  1.00  0.00    -0.200 F 
ATOM     81  C   UNL A   1      51.600  26.164  25.392  1.00  0.00     0.200 A 
ATOM     82  F   UNL A   1      52.150  25.483  27.585  1.00  0.00    -0.200 F 
ATOM     83  F   UNL A   1      52.845  25.894  24.979  1.00  0.00    -0.200 F 
ENDBRANCH  49  73
BRANCH  61  84
ATOM     84  C   UNL A   1      45.981  32.415  28.954  1.00  0.00     0.064 A 
ATOM     85  C   UNL A   1      46.616  32.692  30.171  1.00  0.00     0.173 A 
ATOM     86  C   UNL A   1      45.916  33.435  27.994  1.00  0.00     0.173 A 
ATOM     87  F   UNL A   1      46.691  31.751  31.124  1.00  0.00    -0.203 F 
ATOM     88  C   UNL A   1      47.165  33.947  30.419  1.00  0.00     0.198 A 
ATOM     89  C   UNL A   1      46.486  34.681  28.236  1.00  0.00     0.198 A 
ATOM     90  F   UNL A   1      45.324  33.214  26.810  1.00  0.00    -0.203 F 
ATOM     91  F   UNL A   1      47.748  34.199  31.599  1.00  0.00    -0.200 F 
ATOM     92  C   UNL A   1      47.109  34.936  29.449  1.00  0.00     0.200 A 
ATOM     93  F   UNL A   1      46.443  35.631  27.292  1.00  0.00    -0.200 F 
ATOM     94  F   UNL A   1      47.655  36.138  29.683  1.00  0.00    -0.200 F 
ENDBRANCH  61  84
ENDBRANCH  35  36
ENDBRANCH  27  30
ENDBRANCH  25  26
ENDBRANCH  24  25
ENDBRANCH  23  24
ENDBRANCH   1  23
TORSDOF 15
ENDMDL
