MODEL 1
REMARK VINA RESULT:     -12.2      0.000      0.000
REMARK SMILES O=C(NCCCCCCNC(=O)c1c(F)cccc1NC(=O)c1ccc(Cl)nc1)c1ccc(-c2c3nc(c(-c4c(F)c(F)c(F)c(F)c4F)c4ccc([nH]4)c(-c4c(F)c(F)c(F)c(F)c4F)c4nc(c(-c5c(F)c(F)c(F)c(F)c5F)c5ccc2[nH]5)C=C4)C=C3)cc1
REMARK SMILES IDX 6 1 5 2 4 3 3 4 1 5 2 6 30 8 31 9 92 10 32 11 91 12 33 13
REMARK SMILES IDX 34 14 35 15 85 16 36 17 90 18 84 19 86 20 37 21 89 22 83 23
REMARK SMILES IDX 82 24 38 26 70 27 50 28 69 29 51 30 54 31 68 32 87 33 52 34
REMARK SMILES IDX 53 35 67 37 88 38 55 39 39 40 40 41 48 42 41 43 42 44 46 45
REMARK SMILES IDX 49 46 43 47 44 48 47 49 45 50 71 51 72 52 80 53 73 54 74 55
REMARK SMILES IDX 78 56 81 57 75 58 76 59 79 60 77 61 56 62 57 63 65 64 58 65
REMARK SMILES IDX 59 66 63 67 66 68 60 69 61 70 64 71 62 72 7 73 8 74 9 75
REMARK SMILES IDX 10 76 11 77 12 79 13 80 14 81 19 82 15 83 16 84 18 85 17 86
REMARK SMILES IDX 20 87 21 88 22 90 23 91 24 92 29 93 25 94 28 95 26 96 27 97
REMARK H PARENT 3 7 86 25 54 36 10 78 20 89
REMARK Flexibility Score: inf
ROOT
ATOM      1  C   UNL A   1      36.965  20.344  24.563  1.00  0.00     0.002 C 
ENDROOT
BRANCH   1   2
ATOM      2  C   UNL A   1      38.039  19.336  24.976  1.00  0.00     0.021 C 
BRANCH   2   3
ATOM      3  C   UNL A   1      39.207  19.919  25.761  1.00  0.00     0.116 C 
BRANCH   3   4
ATOM      4  N   UNL A   1      40.337  19.011  25.845  1.00  0.00    -0.352 N 
ATOM      5  O   UNL A   1      42.508  18.409  25.953  1.00  0.00    -0.269 OA
ATOM      6  C   UNL A   1      41.666  19.291  26.059  1.00  0.00     0.251 C 
ATOM      7  H   UNL A   1      40.120  18.058  25.731  1.00  0.00     0.163 HD
BRANCH   6   8
ATOM      8  C   UNL A   1      42.083  20.669  26.401  1.00  0.00     0.039 A 
ATOM      9  C   UNL A   1      42.293  21.048  27.729  1.00  0.00     0.014 A 
ATOM     10  C   UNL A   1      42.287  21.590  25.368  1.00  0.00     0.014 A 
ATOM     11  C   UNL A   1      42.582  22.374  28.033  1.00  0.00     0.010 A 
ATOM     12  C   UNL A   1      42.656  22.905  25.671  1.00  0.00     0.010 A 
ATOM     13  C   UNL A   1      42.783  23.312  27.007  1.00  0.00    -0.014 A 
BRANCH  13  14
ATOM     14  C   UNL A   1      43.201  24.693  27.357  1.00  0.00     0.031 A 
ATOM     15  C   UNL A   1      44.597  25.177  27.090  1.00  0.00     0.074 A 
ATOM     16  C   UNL A   1      42.289  25.522  27.898  1.00  0.00     0.049 A 
ATOM     17  N   UNL A   1      45.116  26.357  27.319  1.00  0.00    -0.248 NA
ATOM     18  C   UNL A   1      45.536  24.215  26.493  1.00  0.00     0.031 C 
ATOM     19  C   UNL A   1      40.905  25.157  28.209  1.00  0.00     0.029 A 
ATOM     20  N   UNL A   1      42.375  26.840  28.266  1.00  0.00    -0.354 N 
ATOM     21  C   UNL A   1      46.440  26.278  26.907  1.00  0.00     0.074 A 
ATOM     22  C   UNL A   1      46.655  24.927  26.436  1.00  0.00     0.031 C 
ATOM     23  C   UNL A   1      40.259  26.236  28.670  1.00  0.00     0.029 A 
ATOM     24  C   UNL A   1      41.197  27.353  28.749  1.00  0.00     0.049 A 
ATOM     25  H   UNL A   1      43.203  27.369  28.190  1.00  0.00     0.167 HD
ATOM     26  C   UNL A   1      47.381  27.252  26.915  1.00  0.00     0.037 A 
ATOM     27  C   UNL A   1      40.901  28.579  29.216  1.00  0.00     0.037 A 
ATOM     28  C   UNL A   1      47.155  28.599  27.372  1.00  0.00     0.049 A 
ATOM     29  C   UNL A   1      41.974  29.628  29.243  1.00  0.00     0.074 A 
ATOM     30  C   UNL A   1      48.040  29.664  27.388  1.00  0.00     0.029 A 
ATOM     31  N   UNL A   1      45.958  29.067  27.898  1.00  0.00    -0.354 N 
ATOM     32  N   UNL A   1      43.214  29.546  28.830  1.00  0.00    -0.248 NA
ATOM     33  C   UNL A   1      41.610  30.934  29.806  1.00  0.00     0.031 C 
ATOM     34  C   UNL A   1      47.395  30.761  27.965  1.00  0.00     0.029 A 
ATOM     35  C   UNL A   1      46.092  30.398  28.263  1.00  0.00     0.049 A 
ATOM     36  H   UNL A   1      45.138  28.532  27.997  1.00  0.00     0.167 HD
ATOM     37  C   UNL A   1      43.779  30.790  29.075  1.00  0.00     0.074 A 
ATOM     38  C   UNL A   1      42.739  31.615  29.654  1.00  0.00     0.031 C 
ATOM     39  C   UNL A   1      45.048  31.205  28.843  1.00  0.00     0.037 A 
BRANCH  26  40
ATOM     40  C   UNL A   1      48.756  26.907  26.419  1.00  0.00     0.064 A 
ATOM     41  C   UNL A   1      49.085  27.074  25.064  1.00  0.00     0.173 A 
ATOM     42  C   UNL A   1      49.718  26.333  27.262  1.00  0.00     0.173 A 
ATOM     43  F   UNL A   1      48.198  27.611  24.214  1.00  0.00    -0.203 F 
ATOM     44  C   UNL A   1      50.321  26.664  24.572  1.00  0.00     0.198 A 
ATOM     45  C   UNL A   1      50.963  25.947  26.770  1.00  0.00     0.198 A 
ATOM     46  F   UNL A   1      49.456  26.161  28.566  1.00  0.00    -0.203 F 
ATOM     47  F   UNL A   1      50.601  26.804  23.267  1.00  0.00    -0.200 F 
ATOM     48  C   UNL A   1      51.259  26.104  25.424  1.00  0.00     0.200 A 
ATOM     49  F   UNL A   1      51.876  25.424  27.600  1.00  0.00    -0.200 F 
ATOM     50  F   UNL A   1      52.451  25.716  24.950  1.00  0.00    -0.200 F 
ENDBRANCH  26  40
BRANCH  27  51
ATOM     51  C   UNL A   1      39.522  28.866  29.683  1.00  0.00     0.064 A 
ATOM     52  C   UNL A   1      38.577  29.465  28.837  1.00  0.00     0.173 A 
ATOM     53  C   UNL A   1      39.141  28.601  31.004  1.00  0.00     0.173 A 
ATOM     54  F   UNL A   1      38.896  29.744  27.564  1.00  0.00    -0.203 F 
ATOM     55  C   UNL A   1      37.312  29.813  29.304  1.00  0.00     0.198 A 
ATOM     56  C   UNL A   1      37.866  28.924  31.463  1.00  0.00     0.198 A 
ATOM     57  F   UNL A   1      40.005  28.014  31.845  1.00  0.00    -0.203 F 
ATOM     58  F   UNL A   1      36.443  30.426  28.487  1.00  0.00    -0.200 F 
ATOM     59  C   UNL A   1      36.957  29.541  30.615  1.00  0.00     0.200 A 
ATOM     60  F   UNL A   1      37.519  28.641  32.725  1.00  0.00    -0.200 F 
ATOM     61  F   UNL A   1      35.738  29.872  31.063  1.00  0.00    -0.200 F 
ENDBRANCH  27  51
BRANCH  39  62
ATOM     62  C   UNL A   1      45.387  32.620  29.206  1.00  0.00     0.064 A 
ATOM     63  C   UNL A   1      45.205  33.655  28.277  1.00  0.00     0.173 A 
ATOM     64  C   UNL A   1      45.957  32.939  30.446  1.00  0.00     0.173 A 
ATOM     65  F   UNL A   1      44.670  33.399  27.074  1.00  0.00    -0.203 F 
ATOM     66  C   UNL A   1      45.595  34.958  28.572  1.00  0.00     0.198 A 
ATOM     67  C   UNL A   1      46.322  34.248  30.748  1.00  0.00     0.198 A 
ATOM     68  F   UNL A   1      46.135  31.985  31.372  1.00  0.00    -0.203 F 
ATOM     69  F   UNL A   1      45.441  35.926  27.659  1.00  0.00    -0.200 F 
ATOM     70  C   UNL A   1      46.150  35.254  29.809  1.00  0.00     0.200 A 
ATOM     71  F   UNL A   1      46.835  34.537  31.952  1.00  0.00    -0.200 F 
ATOM     72  F   UNL A   1      46.516  36.511  30.096  1.00  0.00    -0.200 F 
ENDBRANCH  39  62
ENDBRANCH  13  14
ENDBRANCH   6   8
ENDBRANCH   3   4
ENDBRANCH   2   3
ENDBRANCH   1   2
BRANCH   1  73
ATOM     73  C   UNL A   1      35.644  20.259  25.334  1.00  0.00     0.002 C 
BRANCH  73  74
ATOM     74  C   UNL A   1      34.466  19.653  24.567  1.00  0.00     0.021 C 
BRANCH  74  75
ATOM     75  C   UNL A   1      33.085  20.053  25.078  1.00  0.00     0.116 C 
BRANCH  75  76
ATOM     76  N   UNL A   1      32.310  20.782  24.086  1.00  0.00    -0.352 N 
ATOM     77  C   UNL A   1      32.395  22.112  23.747  1.00  0.00     0.256 C 
ATOM     78  H   UNL A   1      31.637  20.257  23.596  1.00  0.00     0.163 HD
ATOM     79  O   UNL A   1      31.585  22.621  22.981  1.00  0.00    -0.269 OA
BRANCH  77  80
ATOM     80  C   UNL A   1      33.408  22.956  24.404  1.00  0.00     0.099 A 
ATOM     81  C   UNL A   1      34.595  23.231  23.720  1.00  0.00     0.138 A 
ATOM     82  C   UNL A   1      33.217  23.409  25.723  1.00  0.00     0.057 A 
ATOM     83  F   UNL A   1      34.751  22.863  22.440  1.00  0.00    -0.206 F 
ATOM     84  C   UNL A   1      35.660  23.843  24.364  1.00  0.00     0.040 A 
ATOM     85  C   UNL A   1      34.340  23.919  26.387  1.00  0.00     0.027 A 
ATOM     86  C   UNL A   1      35.547  24.148  25.715  1.00  0.00     0.005 A 
BRANCH  82  87
ATOM     87  N   UNL A   1      31.932  23.312  26.316  1.00  0.00    -0.321 N 
ATOM     88  C   UNL A   1      30.898  24.210  26.465  1.00  0.00     0.257 C 
ATOM     89  H   UNL A   1      31.741  22.424  26.696  1.00  0.00     0.170 HD
ATOM     90  O   UNL A   1      29.928  23.939  27.170  1.00  0.00    -0.269 OA
BRANCH  88  91
ATOM     91  C   UNL A   1      30.896  25.501  25.770  1.00  0.00     0.058 A 
ATOM     92  C   UNL A   1      31.517  26.637  26.295  1.00  0.00     0.018 A 
ATOM     93  C   UNL A   1      30.211  25.608  24.567  1.00  0.00     0.126 A 
ATOM     94  C   UNL A   1      31.342  27.858  25.647  1.00  0.00     0.042 A 
ATOM     95  N   UNL A   1      30.024  26.783  23.921  1.00  0.00    -0.244 NA
ATOM     96  C   UNL A   1      30.583  27.875  24.485  1.00  0.00     0.129 A 
ATOM     97  Cl  UNL A   1      30.237  29.350  23.684  1.00  0.00    -0.062 Cl
ENDBRANCH  88  91
ENDBRANCH  82  87
ENDBRANCH  77  80
ENDBRANCH  75  76
ENDBRANCH  74  75
ENDBRANCH  73  74
ENDBRANCH   1  73
TORSDOF 15
ENDMDL
MODEL 2
REMARK VINA RESULT:     -12.2      5.126     10.690
REMARK SMILES O=C(NCCCCCCNC(=O)c1c(F)cccc1NC(=O)c1ccc(Cl)nc1)c1ccc(-c2c3nc(c(-c4c(F)c(F)c(F)c(F)c4F)c4ccc([nH]4)c(-c4c(F)c(F)c(F)c(F)c4F)c4nc(c(-c5c(F)c(F)c(F)c(F)c5F)c5ccc2[nH]5)C=C4)C=C3)cc1
REMARK SMILES IDX 6 1 5 2 4 3 3 4 1 5 2 6 30 8 31 9 92 10 32 11 91 12 33 13
REMARK SMILES IDX 34 14 35 15 85 16 36 17 90 18 84 19 86 20 37 21 89 22 83 23
REMARK SMILES IDX 82 24 38 26 70 27 50 28 69 29 51 30 54 31 68 32 87 33 52 34
REMARK SMILES IDX 53 35 67 37 88 38 55 39 39 40 40 41 48 42 41 43 42 44 46 45
REMARK SMILES IDX 49 46 43 47 44 48 47 49 45 50 71 51 72 52 80 53 73 54 74 55
REMARK SMILES IDX 78 56 81 57 75 58 76 59 79 60 77 61 56 62 57 63 65 64 58 65
REMARK SMILES IDX 59 66 63 67 66 68 60 69 61 70 64 71 62 72 7 73 8 74 9 75
REMARK SMILES IDX 10 76 11 77 12 79 13 80 14 81 19 82 15 83 16 84 18 85 17 86
REMARK SMILES IDX 20 87 21 88 22 90 23 91 24 92 29 93 25 94 28 95 26 96 27 97
REMARK H PARENT 3 7 86 25 54 36 10 78 20 89
REMARK Flexibility Score: inf
ROOT
ATOM      1  C   UNL A   1      30.983  31.000  25.437  1.00  0.00     0.002 C 
ENDROOT
BRANCH   1   2
ATOM      2  C   UNL A   1      31.195  31.729  26.764  1.00  0.00     0.021 C 
BRANCH   2   3
ATOM      3  C   UNL A   1      32.503  32.502  26.877  1.00  0.00     0.116 C 
BRANCH   3   4
ATOM      4  N   UNL A   1      32.317  33.852  27.382  1.00  0.00    -0.352 N 
ATOM      5  O   UNL A   1      32.605  35.601  28.777  1.00  0.00    -0.269 OA
ATOM      6  C   UNL A   1      32.994  34.510  28.380  1.00  0.00     0.251 C 
ATOM      7  H   UNL A   1      31.602  34.369  26.945  1.00  0.00     0.163 HD
BRANCH   6   8
ATOM      8  C   UNL A   1      34.188  33.887  28.994  1.00  0.00     0.039 A 
ATOM      9  C   UNL A   1      34.060  32.860  29.933  1.00  0.00     0.014 A 
ATOM     10  C   UNL A   1      35.458  34.327  28.605  1.00  0.00     0.014 A 
ATOM     11  C   UNL A   1      35.190  32.362  30.573  1.00  0.00     0.010 A 
ATOM     12  C   UNL A   1      36.598  33.769  29.192  1.00  0.00     0.010 A 
ATOM     13  C   UNL A   1      36.471  32.799  30.197  1.00  0.00    -0.014 A 
BRANCH  13  14
ATOM     14  C   UNL A   1      37.664  32.170  30.817  1.00  0.00     0.031 A 
ATOM     15  C   UNL A   1      38.121  32.551  32.196  1.00  0.00     0.074 A 
ATOM     16  C   UNL A   1      38.323  31.221  30.125  1.00  0.00     0.049 A 
ATOM     17  N   UNL A   1      39.130  32.084  32.886  1.00  0.00    -0.248 NA
ATOM     18  C   UNL A   1      37.350  33.592  32.892  1.00  0.00     0.031 C 
ATOM     19  C   UNL A   1      37.974  30.777  28.773  1.00  0.00     0.029 A 
ATOM     20  N   UNL A   1      39.404  30.447  30.460  1.00  0.00    -0.354 N 
ATOM     21  C   UNL A   1      39.125  32.778  34.089  1.00  0.00     0.074 A 
ATOM     22  C   UNL A   1      38.026  33.718  34.027  1.00  0.00     0.031 C 
ATOM     23  C   UNL A   1      38.789  29.776  28.416  1.00  0.00     0.029 A 
ATOM     24  C   UNL A   1      39.758  29.549  29.483  1.00  0.00     0.049 A 
ATOM     25  H   UNL A   1      39.880  30.527  31.318  1.00  0.00     0.167 HD
ATOM     26  C   UNL A   1      39.957  32.633  35.147  1.00  0.00     0.037 A 
ATOM     27  C   UNL A   1      40.759  28.652  29.442  1.00  0.00     0.037 A 
ATOM     28  C   UNL A   1      41.040  31.684  35.206  1.00  0.00     0.049 A 
ATOM     29  C   UNL A   1      41.686  28.536  30.616  1.00  0.00     0.074 A 
ATOM     30  C   UNL A   1      41.917  31.442  36.249  1.00  0.00     0.029 A 
ATOM     31  N   UNL A   1      41.397  30.824  34.177  1.00  0.00    -0.354 N 
ATOM     32  N   UNL A   1      41.655  29.183  31.754  1.00  0.00    -0.248 NA
ATOM     33  C   UNL A   1      42.789  27.574  30.498  1.00  0.00     0.031 C 
ATOM     34  C   UNL A   1      42.832  30.469  35.836  1.00  0.00     0.029 A 
ATOM     35  C   UNL A   1      42.496  30.067  34.554  1.00  0.00     0.049 A 
ATOM     36  H   UNL A   1      40.937  30.760  33.309  1.00  0.00     0.167 HD
ATOM     37  C   UNL A   1      42.726  28.702  32.494  1.00  0.00     0.074 A 
ATOM     38  C   UNL A   1      43.376  27.694  31.682  1.00  0.00     0.031 C 
ATOM     39  C   UNL A   1      43.134  29.070  33.732  1.00  0.00     0.037 A 
BRANCH  26  40
ATOM     40  C   UNL A   1      39.744  33.520  36.339  1.00  0.00     0.064 A 
ATOM     41  C   UNL A   1      38.873  33.130  37.369  1.00  0.00     0.173 A 
ATOM     42  C   UNL A   1      40.331  34.790  36.423  1.00  0.00     0.173 A 
ATOM     43  F   UNL A   1      38.278  31.928  37.332  1.00  0.00    -0.203 F 
ATOM     44  C   UNL A   1      38.588  33.986  38.429  1.00  0.00     0.198 A 
ATOM     45  C   UNL A   1      40.063  35.634  37.499  1.00  0.00     0.198 A 
ATOM     46  F   UNL A   1      41.179  35.207  35.470  1.00  0.00    -0.203 F 
ATOM     47  F   UNL A   1      37.727  33.604  39.385  1.00  0.00    -0.200 F 
ATOM     48  C   UNL A   1      39.185  35.235  38.495  1.00  0.00     0.200 A 
ATOM     49  F   UNL A   1      40.657  36.833  37.571  1.00  0.00    -0.200 F 
ATOM     50  F   UNL A   1      38.914  36.055  39.520  1.00  0.00    -0.200 F 
ENDBRANCH  26  40
BRANCH  27  51
ATOM     51  C   UNL A   1      40.915  27.792  28.241  1.00  0.00     0.064 A 
ATOM     52  C   UNL A   1      40.355  26.508  28.188  1.00  0.00     0.173 A 
ATOM     53  C   UNL A   1      41.678  28.219  27.147  1.00  0.00     0.173 A 
ATOM     54  F   UNL A   1      39.622  26.051  29.214  1.00  0.00    -0.203 F 
ATOM     55  C   UNL A   1      40.577  25.671  27.096  1.00  0.00     0.198 A 
ATOM     56  C   UNL A   1      41.876  27.392  26.044  1.00  0.00     0.198 A 
ATOM     57  F   UNL A   1      42.218  29.446  27.145  1.00  0.00    -0.203 F 
ATOM     58  F   UNL A   1      40.069  24.430  27.091  1.00  0.00    -0.200 F 
ATOM     59  C   UNL A   1      41.336  26.114  26.025  1.00  0.00     0.200 A 
ATOM     60  F   UNL A   1      42.593  27.831  25.000  1.00  0.00    -0.200 F 
ATOM     61  F   UNL A   1      41.546  25.311  24.973  1.00  0.00    -0.200 F 
ENDBRANCH  27  51
BRANCH  39  62
ATOM     62  C   UNL A   1      44.337  28.374  34.297  1.00  0.00     0.064 A 
ATOM     63  C   UNL A   1      44.190  27.204  35.056  1.00  0.00     0.173 A 
ATOM     64  C   UNL A   1      45.625  28.903  34.145  1.00  0.00     0.173 A 
ATOM     65  F   UNL A   1      42.976  26.662  35.236  1.00  0.00    -0.203 F 
ATOM     66  C   UNL A   1      45.289  26.597  35.655  1.00  0.00     0.198 A 
ATOM     67  C   UNL A   1      46.727  28.279  34.724  1.00  0.00     0.198 A 
ATOM     68  F   UNL A   1      45.818  30.012  33.414  1.00  0.00    -0.203 F 
ATOM     69  F   UNL A   1      45.121  25.497  36.403  1.00  0.00    -0.200 F 
ATOM     70  C   UNL A   1      46.557  27.133  35.486  1.00  0.00     0.200 A 
ATOM     71  F   UNL A   1      47.955  28.784  34.539  1.00  0.00    -0.200 F 
ATOM     72  F   UNL A   1      47.617  26.542  36.055  1.00  0.00    -0.200 F 
ENDBRANCH  39  62
ENDBRANCH  13  14
ENDBRANCH   6   8
ENDBRANCH   3   4
ENDBRANCH   2   3
ENDBRANCH   1   2
BRANCH   1  73
ATOM     73  C   UNL A   1      29.792  31.474  24.600  1.00  0.00     0.002 C 
BRANCH  73  74
ATOM     74  C   UNL A   1      29.289  30.490  23.541  1.00  0.00     0.021 C 
BRANCH  74  75
ATOM     75  C   UNL A   1      30.283  29.404  23.141  1.00  0.00     0.116 C 
BRANCH  75  76
ATOM     76  N   UNL A   1      29.763  28.062  23.350  1.00  0.00    -0.352 N 
ATOM     77  C   UNL A   1      30.346  27.018  24.029  1.00  0.00     0.256 C 
ATOM     78  H   UNL A   1      28.881  27.877  22.953  1.00  0.00     0.163 HD
ATOM     79  O   UNL A   1      29.847  25.898  24.012  1.00  0.00    -0.269 OA
BRANCH  77  80
ATOM     80  C   UNL A   1      31.646  27.228  24.689  1.00  0.00     0.099 A 
ATOM     81  C   UNL A   1      31.666  27.454  26.068  1.00  0.00     0.138 A 
ATOM     82  C   UNL A   1      32.832  27.280  23.934  1.00  0.00     0.057 A 
ATOM     83  F   UNL A   1      30.549  27.335  26.800  1.00  0.00    -0.206 F 
ATOM     84  C   UNL A   1      32.831  27.859  26.704  1.00  0.00     0.040 A 
ATOM     85  C   UNL A   1      33.967  27.799  24.571  1.00  0.00     0.027 A 
ATOM     86  C   UNL A   1      33.974  28.074  25.944  1.00  0.00     0.005 A 
BRANCH  82  87
ATOM     87  N   UNL A   1      32.824  26.834  22.588  1.00  0.00    -0.321 N 
ATOM     88  C   UNL A   1      33.145  25.632  21.996  1.00  0.00     0.257 C 
ATOM     89  H   UNL A   1      32.529  27.522  21.948  1.00  0.00     0.170 HD
ATOM     90  O   UNL A   1      33.215  25.533  20.773  1.00  0.00    -0.269 OA
BRANCH  88  91
ATOM     91  C   UNL A   1      33.382  24.423  22.792  1.00  0.00     0.058 A 
ATOM     92  C   UNL A   1      34.589  24.185  23.454  1.00  0.00     0.018 A 
ATOM     93  C   UNL A   1      32.385  23.459  22.849  1.00  0.00     0.126 A 
ATOM     94  C   UNL A   1      34.788  22.949  24.063  1.00  0.00     0.042 A 
ATOM     95  N   UNL A   1      32.556  22.248  23.432  1.00  0.00    -0.244 NA
ATOM     96  C   UNL A   1      33.755  22.023  24.010  1.00  0.00     0.129 A 
ATOM     97  Cl  UNL A   1      33.957  20.445  24.647  1.00  0.00    -0.062 Cl
ENDBRANCH  88  91
ENDBRANCH  82  87
ENDBRANCH  77  80
ENDBRANCH  75  76
ENDBRANCH  74  75
ENDBRANCH  73  74
ENDBRANCH   1  73
TORSDOF 15
ENDMDL
MODEL 3
REMARK VINA RESULT:     -12.1      5.247     10.686
REMARK SMILES O=C(NCCCCCCNC(=O)c1c(F)cccc1NC(=O)c1ccc(Cl)nc1)c1ccc(-c2c3nc(c(-c4c(F)c(F)c(F)c(F)c4F)c4ccc([nH]4)c(-c4c(F)c(F)c(F)c(F)c4F)c4nc(c(-c5c(F)c(F)c(F)c(F)c5F)c5ccc2[nH]5)C=C4)C=C3)cc1
REMARK SMILES IDX 6 1 5 2 4 3 3 4 1 5 2 6 30 8 31 9 92 10 32 11 91 12 33 13
REMARK SMILES IDX 34 14 35 15 85 16 36 17 90 18 84 19 86 20 37 21 89 22 83 23
REMARK SMILES IDX 82 24 38 26 70 27 50 28 69 29 51 30 54 31 68 32 87 33 52 34
REMARK SMILES IDX 53 35 67 37 88 38 55 39 39 40 40 41 48 42 41 43 42 44 46 45
REMARK SMILES IDX 49 46 43 47 44 48 47 49 45 50 71 51 72 52 80 53 73 54 74 55
REMARK SMILES IDX 78 56 81 57 75 58 76 59 79 60 77 61 56 62 57 63 65 64 58 65
REMARK SMILES IDX 59 66 63 67 66 68 60 69 61 70 64 71 62 72 7 73 8 74 9 75
REMARK SMILES IDX 10 76 11 77 12 79 13 80 14 81 19 82 15 83 16 84 18 85 17 86
REMARK SMILES IDX 20 87 21 88 22 90 23 91 24 92 29 93 25 94 28 95 26 96 27 97
REMARK H PARENT 3 7 86 25 54 36 10 78 20 89
REMARK Flexibility Score: inf
ROOT
ATOM      1  C   UNL A   1      31.442  30.828  25.932  1.00  0.00     0.002 C 
ENDROOT
BRANCH   1   2
ATOM      2  C   UNL A   1      31.379  32.026  26.881  1.00  0.00     0.021 C 
BRANCH   2   3
ATOM      3  C   UNL A   1      32.669  32.828  26.997  1.00  0.00     0.116 C 
BRANCH   3   4
ATOM      4  N   UNL A   1      32.466  34.138  27.590  1.00  0.00    -0.352 N 
ATOM      5  O   UNL A   1      32.699  35.779  29.120  1.00  0.00    -0.269 OA
ATOM      6  C   UNL A   1      33.102  34.718  28.662  1.00  0.00     0.251 C 
ATOM      7  H   UNL A   1      31.771  34.690  27.163  1.00  0.00     0.163 HD
BRANCH   6   8
ATOM      8  C   UNL A   1      34.267  34.046  29.279  1.00  0.00     0.039 A 
ATOM      9  C   UNL A   1      34.094  33.016  30.207  1.00  0.00     0.014 A 
ATOM     10  C   UNL A   1      35.555  34.441  28.902  1.00  0.00     0.014 A 
ATOM     11  C   UNL A   1      35.199  32.471  30.850  1.00  0.00     0.010 A 
ATOM     12  C   UNL A   1      36.669  33.835  29.492  1.00  0.00     0.010 A 
ATOM     13  C   UNL A   1      36.499  32.863  30.488  1.00  0.00    -0.014 A 
BRANCH  13  14
ATOM     14  C   UNL A   1      37.663  32.183  31.110  1.00  0.00     0.031 A 
ATOM     15  C   UNL A   1      38.112  32.522  32.502  1.00  0.00     0.074 A 
ATOM     16  C   UNL A   1      38.301  31.228  30.407  1.00  0.00     0.049 A 
ATOM     17  N   UNL A   1      39.097  32.009  33.196  1.00  0.00    -0.248 NA
ATOM     18  C   UNL A   1      37.364  33.572  33.210  1.00  0.00     0.031 C 
ATOM     19  C   UNL A   1      37.957  30.823  29.042  1.00  0.00     0.029 A 
ATOM     20  N   UNL A   1      39.352  30.414  30.740  1.00  0.00    -0.354 N 
ATOM     21  C   UNL A   1      39.096  32.679  34.412  1.00  0.00     0.074 A 
ATOM     22  C   UNL A   1      38.028  33.653  34.355  1.00  0.00     0.031 C 
ATOM     23  C   UNL A   1      38.745  29.805  28.674  1.00  0.00     0.029 A 
ATOM     24  C   UNL A   1      39.692  29.526  29.750  1.00  0.00     0.049 A 
ATOM     25  H   UNL A   1      39.819  30.461  31.606  1.00  0.00     0.167 HD
ATOM     26  C   UNL A   1      39.909  32.485  35.478  1.00  0.00     0.037 A 
ATOM     27  C   UNL A   1      40.664  28.598  29.703  1.00  0.00     0.037 A 
ATOM     28  C   UNL A   1      40.960  31.502  35.532  1.00  0.00     0.049 A 
ATOM     29  C   UNL A   1      41.571  28.429  30.887  1.00  0.00     0.074 A 
ATOM     30  C   UNL A   1      41.815  31.211  36.581  1.00  0.00     0.029 A 
ATOM     31  N   UNL A   1      41.304  30.652  34.490  1.00  0.00    -0.354 N 
ATOM     32  N   UNL A   1      41.545  29.053  32.037  1.00  0.00    -0.248 NA
ATOM     33  C   UNL A   1      42.645  27.435  30.763  1.00  0.00     0.031 C 
ATOM     34  C   UNL A   1      42.705  30.218  36.160  1.00  0.00     0.029 A 
ATOM     35  C   UNL A   1      42.374  29.854  34.866  1.00  0.00     0.049 A 
ATOM     36  H   UNL A   1      40.855  30.621  33.615  1.00  0.00     0.167 HD
ATOM     37  C   UNL A   1      42.590  28.524  32.781  1.00  0.00     0.074 A 
ATOM     38  C   UNL A   1      43.220  27.513  31.957  1.00  0.00     0.031 C 
ATOM     39  C   UNL A   1      42.992  28.853  34.032  1.00  0.00     0.037 A 
BRANCH  26  40
ATOM     40  C   UNL A   1      39.707  33.355  36.686  1.00  0.00     0.064 A 
ATOM     41  C   UNL A   1      38.798  32.979  37.687  1.00  0.00     0.173 A 
ATOM     42  C   UNL A   1      40.345  34.596  36.811  1.00  0.00     0.173 A 
ATOM     43  F   UNL A   1      38.154  31.805  37.611  1.00  0.00    -0.203 F 
ATOM     44  C   UNL A   1      38.526  33.823  38.761  1.00  0.00     0.198 A 
ATOM     45  C   UNL A   1      40.089  35.427  37.900  1.00  0.00     0.198 A 
ATOM     46  F   UNL A   1      41.230  34.997  35.886  1.00  0.00    -0.203 F 
ATOM     47  F   UNL A   1      37.629  33.457  39.689  1.00  0.00    -0.200 F 
ATOM     48  C   UNL A   1      39.173  35.044  38.868  1.00  0.00     0.200 A 
ATOM     49  F   UNL A   1      40.731  36.598  38.012  1.00  0.00    -0.200 F 
ATOM     50  F   UNL A   1      38.915  35.852  39.905  1.00  0.00    -0.200 F 
ENDBRANCH  26  40
BRANCH  27  51
ATOM     51  C   UNL A   1      40.810  27.759  28.487  1.00  0.00     0.064 A 
ATOM     52  C   UNL A   1      41.603  28.174  27.407  1.00  0.00     0.173 A 
ATOM     53  C   UNL A   1      40.112  26.551  28.359  1.00  0.00     0.173 A 
ATOM     54  F   UNL A   1      42.286  29.327  27.479  1.00  0.00    -0.203 F 
ATOM     55  C   UNL A   1      41.668  27.427  26.233  1.00  0.00     0.198 A 
ATOM     56  C   UNL A   1      40.200  25.791  27.195  1.00  0.00     0.198 A 
ATOM     57  F   UNL A   1      39.356  26.105  29.372  1.00  0.00    -0.203 F 
ATOM     58  F   UNL A   1      42.397  27.870  25.198  1.00  0.00    -0.200 F 
ATOM     59  C   UNL A   1      40.968  26.236  26.129  1.00  0.00     0.200 A 
ATOM     60  F   UNL A   1      39.538  24.629  27.105  1.00  0.00    -0.200 F 
ATOM     61  F   UNL A   1      41.034  25.515  25.001  1.00  0.00    -0.200 F 
ENDBRANCH  27  51
BRANCH  39  62
ATOM     62  C   UNL A   1      44.164  28.109  34.598  1.00  0.00     0.064 A 
ATOM     63  C   UNL A   1      45.469  28.592  34.417  1.00  0.00     0.173 A 
ATOM     64  C   UNL A   1      44.001  26.883  35.258  1.00  0.00     0.173 A 
ATOM     65  F   UNL A   1      45.677  29.757  33.786  1.00  0.00    -0.203 F 
ATOM     66  C   UNL A   1      46.569  27.866  34.864  1.00  0.00     0.198 A 
ATOM     67  C   UNL A   1      45.102  26.172  35.727  1.00  0.00     0.198 A 
ATOM     68  F   UNL A   1      42.771  26.388  35.468  1.00  0.00    -0.203 F 
ATOM     69  F   UNL A   1      47.807  28.331  34.653  1.00  0.00    -0.200 F 
ATOM     70  C   UNL A   1      46.385  26.659  35.522  1.00  0.00     0.200 A 
ATOM     71  F   UNL A   1      44.922  25.018  36.384  1.00  0.00    -0.200 F 
ATOM     72  F   UNL A   1      47.444  25.966  35.961  1.00  0.00    -0.200 F 
ENDBRANCH  39  62
ENDBRANCH  13  14
ENDBRANCH   6   8
ENDBRANCH   3   4
ENDBRANCH   2   3
ENDBRANCH   1   2
BRANCH   1  73
ATOM     73  C   UNL A   1      32.158  29.588  26.475  1.00  0.00     0.002 C 
BRANCH  73  74
ATOM     74  C   UNL A   1      33.492  29.246  25.806  1.00  0.00     0.021 C 
BRANCH  74  75
ATOM     75  C   UNL A   1      33.580  27.842  25.215  1.00  0.00     0.116 C 
BRANCH  75  76
ATOM     76  N   UNL A   1      34.027  27.844  23.831  1.00  0.00    -0.352 N 
ATOM     77  C   UNL A   1      33.314  27.512  22.704  1.00  0.00     0.256 C 
ATOM     78  H   UNL A   1      34.962  28.116  23.682  1.00  0.00     0.163 HD
ATOM     79  O   UNL A   1      33.863  27.433  21.610  1.00  0.00    -0.269 OA
BRANCH  77  80
ATOM     80  C   UNL A   1      31.896  27.136  22.837  1.00  0.00     0.099 A 
ATOM     81  C   UNL A   1      30.970  28.130  23.167  1.00  0.00     0.138 A 
ATOM     82  C   UNL A   1      31.496  25.793  22.713  1.00  0.00     0.057 A 
ATOM     83  F   UNL A   1      31.334  29.420  23.215  1.00  0.00    -0.206 F 
ATOM     84  C   UNL A   1      29.665  27.800  23.505  1.00  0.00     0.040 A 
ATOM     85  C   UNL A   1      30.211  25.470  23.168  1.00  0.00     0.027 A 
ATOM     86  C   UNL A   1      29.298  26.461  23.548  1.00  0.00     0.005 A 
BRANCH  82  87
ATOM     87  N   UNL A   1      32.396  24.844  22.166  1.00  0.00    -0.321 N 
ATOM     88  C   UNL A   1      33.276  23.949  22.736  1.00  0.00     0.257 C 
ATOM     89  H   UNL A   1      32.392  24.819  21.182  1.00  0.00     0.170 HD
ATOM     90  O   UNL A   1      34.082  23.333  22.043  1.00  0.00    -0.269 OA
BRANCH  88  91
ATOM     91  C   UNL A   1      33.263  23.671  24.176  1.00  0.00     0.058 A 
ATOM     92  C   UNL A   1      34.195  24.229  25.056  1.00  0.00     0.018 A 
ATOM     93  C   UNL A   1      32.319  22.784  24.674  1.00  0.00     0.126 A 
ATOM     94  C   UNL A   1      34.208  23.799  26.381  1.00  0.00     0.042 A 
ATOM     95  N   UNL A   1      32.313  22.348  25.956  1.00  0.00    -0.244 NA
ATOM     96  C   UNL A   1      33.264  22.857  26.769  1.00  0.00     0.129 A 
ATOM     97  Cl  UNL A   1      33.277  22.203  28.353  1.00  0.00    -0.062 Cl
ENDBRANCH  88  91
ENDBRANCH  82  87
ENDBRANCH  77  80
ENDBRANCH  75  76
ENDBRANCH  74  75
ENDBRANCH  73  74
ENDBRANCH   1  73
TORSDOF 15
ENDMDL
