MODEL 1
REMARK VINA RESULT:     -12.9      0.000      0.000
REMARK SMILES Cc1c(CC(=O)NCCCCCCNC(=O)c2ccc(-c3c4nc(c(-c5c(F)c(F)c(F)c(F)c5F)c5ccc([nH]5)c(-c5c(F)c(F)c(F)c(F)c5F)c5nc(c(-c6c(F)c(F)c(F)c(F)c6F)c6ccc3[nH]6)C=C5)C=C4)cc2)cc(-c2ccc(S(C)(=O)=O)cc2)n1-c1ccccc1
REMARK SMILES IDX 10 1 9 2 8 3 7 4 5 5 6 6 4 8 3 9 1 10 2 11 92 12 80 13 81 14
REMARK SMILES IDX 93 15 94 16 98 17 95 18 97 19 96 20 82 21 83 22 91 23 84 24
REMARK SMILES IDX 90 25 85 26 86 27 87 28 88 29 89 30 11 31 12 32 13 33 14 34
REMARK SMILES IDX 15 35 16 37 17 38 18 39 79 40 19 41 78 42 20 43 21 44 22 45
REMARK SMILES IDX 72 46 23 47 77 48 71 49 73 50 24 51 76 52 70 53 69 54 25 56
REMARK SMILES IDX 57 57 37 58 56 59 38 60 41 61 55 62 74 63 39 64 40 65 54 67
REMARK SMILES IDX 75 68 42 69 26 70 27 71 35 72 28 73 29 74 33 75 36 76 30 77
REMARK SMILES IDX 31 78 34 79 32 80 58 81 59 82 67 83 60 84 61 85 65 86 68 87
REMARK SMILES IDX 62 88 63 89 66 90 64 91 43 92 44 93 52 94 45 95 46 96 50 97
REMARK SMILES IDX 53 98 47 99 48 100 51 101 49 102
REMARK H PARENT 7 7 14 36 73 55 41 66
REMARK Flexibility Score: inf
ROOT
ATOM      1  C   UNL A   1      31.329  28.496  26.097  1.00  0.00     0.002 C 
ENDROOT
BRANCH   1   2
ATOM      2  C   UNL A   1      31.477  29.383  24.855  1.00  0.00     0.021 C 
BRANCH   2   3
ATOM      3  C   UNL A   1      30.281  29.355  23.903  1.00  0.00     0.116 C 
BRANCH   3   4
ATOM      4  N   UNL A   1      30.599  28.676  22.659  1.00  0.00    -0.356 N 
ATOM      5  C   UNL A   1      30.701  27.337  22.403  1.00  0.00     0.224 C 
ATOM      6  O   UNL A   1      31.044  26.986  21.271  1.00  0.00    -0.275 OA
ATOM      7  H   UNL A   1      30.766  29.267  21.889  1.00  0.00     0.163 HD
BRANCH   5   8
ATOM      8  C   UNL A   1      30.341  26.313  23.465  1.00  0.00     0.137 C 
BRANCH   8   9
ATOM      9  C   UNL A   1      31.359  25.229  23.619  1.00  0.00    -0.017 A 
ATOM     10  C   UNL A   1      33.555  26.576  23.881  1.00  0.00     0.065 C 
ATOM     11  C   UNL A   1      32.726  25.337  23.849  1.00  0.00     0.024 A 
ATOM     12  N   UNL A   1      33.254  24.055  23.992  1.00  0.00    -0.314 N 
ATOM     13  C   UNL A   1      31.066  23.853  23.524  1.00  0.00     0.033 A 
ATOM     14  C   UNL A   1      32.215  23.148  23.799  1.00  0.00     0.053 A 
BRANCH  12  15
ATOM     15  C   UNL A   1      34.604  23.712  24.312  1.00  0.00     0.046 A 
ATOM     16  C   UNL A   1      35.096  23.920  25.610  1.00  0.00     0.026 A 
ATOM     17  C   UNL A   1      35.463  23.247  23.311  1.00  0.00     0.026 A 
ATOM     18  C   UNL A   1      36.439  23.671  25.898  1.00  0.00     0.002 A 
ATOM     19  C   UNL A   1      36.809  23.011  23.605  1.00  0.00     0.002 A 
ATOM     20  C   UNL A   1      37.296  23.223  24.894  1.00  0.00     0.000 A 
ENDBRANCH  12  15
BRANCH  14  21
ATOM     21  C   UNL A   1      32.305  21.709  23.958  1.00  0.00    -0.001 A 
ATOM     22  C   UNL A   1      32.416  21.139  25.232  1.00  0.00     0.011 A 
ATOM     23  C   UNL A   1      32.281  20.906  22.810  1.00  0.00     0.011 A 
ATOM     24  C   UNL A   1      32.594  19.772  25.350  1.00  0.00     0.021 A 
ATOM     25  C   UNL A   1      32.458  19.541  22.920  1.00  0.00     0.021 A 
ATOM     26  C   UNL A   1      32.652  19.001  24.184  1.00  0.00     0.067 A 
BRANCH  26  27
ATOM     27  S   UNL A   1      33.047  17.297  24.312  1.00  0.00     0.175 S 
ATOM     28  C   UNL A   1      34.823  17.361  24.528  1.00  0.00     0.163 C 
ATOM     29  O   UNL A   1      32.360  16.869  25.511  1.00  0.00    -0.224 OA
ATOM     30  O   UNL A   1      32.787  16.665  23.037  1.00  0.00    -0.224 OA
ENDBRANCH  26  27
ENDBRANCH  14  21
ENDBRANCH   8   9
ENDBRANCH   5   8
ENDBRANCH   3   4
ENDBRANCH   2   3
ENDBRANCH   1   2
BRANCH   1  31
ATOM     31  C   UNL A   1      32.248  28.825  27.281  1.00  0.00     0.002 C 
BRANCH  31  32
ATOM     32  C   UNL A   1      33.763  28.610  27.092  1.00  0.00     0.021 C 
BRANCH  32  33
ATOM     33  C   UNL A   1      34.648  29.859  26.906  1.00  0.00     0.116 C 
BRANCH  33  34
ATOM     34  N   UNL A   1      34.164  31.037  27.599  1.00  0.00    -0.352 N 
ATOM     35  C   UNL A   1      34.790  31.774  28.585  1.00  0.00     0.251 C 
ATOM     36  H   UNL A   1      33.271  31.353  27.331  1.00  0.00     0.163 HD
ATOM     37  O   UNL A   1      34.320  32.868  28.894  1.00  0.00    -0.269 OA
BRANCH  35  38
ATOM     38  C   UNL A   1      35.988  31.275  29.334  1.00  0.00     0.039 A 
ATOM     39  C   UNL A   1      37.255  31.636  28.898  1.00  0.00     0.014 A 
ATOM     40  C   UNL A   1      35.893  30.210  30.252  1.00  0.00     0.014 A 
ATOM     41  C   UNL A   1      38.393  30.935  29.369  1.00  0.00     0.010 A 
ATOM     42  C   UNL A   1      37.045  29.468  30.688  1.00  0.00     0.010 A 
ATOM     43  C   UNL A   1      38.328  29.781  30.219  1.00  0.00    -0.014 A 
BRANCH  43  44
ATOM     44  C   UNL A   1      39.521  28.789  30.080  1.00  0.00     0.031 A 
ATOM     45  C   UNL A   1      40.243  28.894  31.372  1.00  0.00     0.074 A 
ATOM     46  C   UNL A   1      40.152  28.005  29.138  1.00  0.00     0.049 A 
ATOM     47  N   UNL A   1      40.670  30.054  31.798  1.00  0.00    -0.248 NA
ATOM     48  C   UNL A   1      40.260  27.821  32.360  1.00  0.00     0.031 C 
ATOM     49  C   UNL A   1      39.908  27.989  27.702  1.00  0.00     0.029 A 
ATOM     50  N   UNL A   1      41.136  26.996  29.226  1.00  0.00    -0.354 N 
ATOM     51  C   UNL A   1      41.334  29.776  32.964  1.00  0.00     0.074 A 
ATOM     52  C   UNL A   1      40.829  28.475  33.377  1.00  0.00     0.031 C 
ATOM     53  C   UNL A   1      40.458  26.906  27.097  1.00  0.00     0.029 A 
ATOM     54  C   UNL A   1      41.292  26.197  28.054  1.00  0.00     0.049 A 
ATOM     55  H   UNL A   1      41.675  26.855  30.039  1.00  0.00     0.167 HD
ATOM     56  C   UNL A   1      42.613  30.244  33.036  1.00  0.00     0.037 A 
ATOM     57  C   UNL A   1      42.111  25.119  27.795  1.00  0.00     0.037 A 
ATOM     58  C   UNL A   1      43.589  29.195  32.948  1.00  0.00     0.049 A 
ATOM     59  C   UNL A   1      43.261  25.258  28.692  1.00  0.00     0.074 A 
ATOM     60  C   UNL A   1      43.734  27.972  33.568  1.00  0.00     0.029 A 
ATOM     61  N   UNL A   1      44.354  29.146  31.804  1.00  0.00    -0.354 N 
ATOM     62  N   UNL A   1      44.221  26.093  28.435  1.00  0.00    -0.248 NA
ATOM     63  C   UNL A   1      43.439  24.437  29.882  1.00  0.00     0.031 C 
ATOM     64  C   UNL A   1      44.208  27.093  32.565  1.00  0.00     0.029 A 
ATOM     65  C   UNL A   1      44.578  27.834  31.451  1.00  0.00     0.049 A 
ATOM     66  H   UNL A   1      44.689  29.931  31.313  1.00  0.00     0.167 HD
ATOM     67  C   UNL A   1      44.795  26.275  29.649  1.00  0.00     0.074 A 
ATOM     68  C   UNL A   1      44.505  25.061  30.387  1.00  0.00     0.031 C 
ATOM     69  C   UNL A   1      44.924  27.555  30.075  1.00  0.00     0.037 A 
BRANCH  56  70
ATOM     70  C   UNL A   1      42.783  31.622  32.464  1.00  0.00     0.064 A 
ATOM     71  C   UNL A   1      42.956  32.701  33.336  1.00  0.00     0.173 A 
ATOM     72  C   UNL A   1      42.617  31.911  31.095  1.00  0.00     0.173 A 
ATOM     73  F   UNL A   1      43.168  32.483  34.642  1.00  0.00    -0.203 F 
ATOM     74  C   UNL A   1      42.907  34.014  32.867  1.00  0.00     0.198 A 
ATOM     75  C   UNL A   1      42.516  33.221  30.638  1.00  0.00     0.198 A 
ATOM     76  F   UNL A   1      42.551  30.919  30.190  1.00  0.00    -0.203 F 
ATOM     77  F   UNL A   1      43.098  35.033  33.717  1.00  0.00    -0.200 F 
ATOM     78  C   UNL A   1      42.655  34.273  31.526  1.00  0.00     0.200 A 
ATOM     79  F   UNL A   1      42.285  33.460  29.338  1.00  0.00    -0.200 F 
ATOM     80  F   UNL A   1      42.568  35.536  31.087  1.00  0.00    -0.200 F 
ENDBRANCH  56  70
BRANCH  57  81
ATOM     81  C   UNL A   1      42.337  24.030  26.762  1.00  0.00     0.064 A 
ATOM     82  C   UNL A   1      43.125  24.282  25.598  1.00  0.00     0.173 A 
ATOM     83  C   UNL A   1      42.159  22.675  27.066  1.00  0.00     0.173 A 
ATOM     84  F   UNL A   1      43.334  25.527  25.151  1.00  0.00    -0.203 F 
ATOM     85  C   UNL A   1      43.791  23.278  24.890  1.00  0.00     0.198 A 
ATOM     86  C   UNL A   1      42.800  21.659  26.325  1.00  0.00     0.198 A 
ATOM     87  F   UNL A   1      41.447  22.317  28.142  1.00  0.00    -0.203 F 
ATOM     88  F   UNL A   1      44.626  23.602  23.891  1.00  0.00    -0.200 F 
ATOM     89  C   UNL A   1      43.644  21.963  25.266  1.00  0.00     0.200 A 
ATOM     90  F   UNL A   1      42.654  20.375  26.684  1.00  0.00    -0.200 F 
ATOM     91  F   UNL A   1      44.334  21.002  24.635  1.00  0.00    -0.200 F 
ENDBRANCH  57  81
BRANCH  69  92
ATOM     92  C   UNL A   1      45.238  28.615  29.019  1.00  0.00     0.064 A 
ATOM     93  C   UNL A   1      44.314  29.331  28.215  1.00  0.00     0.173 A 
ATOM     94  C   UNL A   1      46.591  28.886  28.766  1.00  0.00     0.173 A 
ATOM     95  F   UNL A   1      42.992  29.296  28.434  1.00  0.00    -0.203 F 
ATOM     96  C   UNL A   1      44.727  30.158  27.166  1.00  0.00     0.198 A 
ATOM     97  C   UNL A   1      47.001  29.763  27.761  1.00  0.00     0.198 A 
ATOM     98  F   UNL A   1      47.539  28.309  29.520  1.00  0.00    -0.203 F 
ATOM     99  F   UNL A   1      43.817  30.755  26.379  1.00  0.00    -0.200 F 
ATOM    100  C   UNL A   1      46.072  30.374  26.940  1.00  0.00     0.200 A 
ATOM    101  F   UNL A   1      48.306  30.017  27.596  1.00  0.00    -0.200 F 
ATOM    102  F   UNL A   1      46.471  31.186  25.951  1.00  0.00    -0.200 F 
ENDBRANCH  69  92
ENDBRANCH  43  44
ENDBRANCH  35  38
ENDBRANCH  33  34
ENDBRANCH  32  33
ENDBRANCH  31  32
ENDBRANCH   1  31
TORSDOF 17
ENDMDL
MODEL 2
REMARK VINA RESULT:     -12.2      3.689      9.148
REMARK SMILES Cc1c(CC(=O)NCCCCCCNC(=O)c2ccc(-c3c4nc(c(-c5c(F)c(F)c(F)c(F)c5F)c5ccc([nH]5)c(-c5c(F)c(F)c(F)c(F)c5F)c5nc(c(-c6c(F)c(F)c(F)c(F)c6F)c6ccc3[nH]6)C=C5)C=C4)cc2)cc(-c2ccc(S(C)(=O)=O)cc2)n1-c1ccccc1
REMARK SMILES IDX 10 1 9 2 8 3 7 4 5 5 6 6 4 8 3 9 1 10 2 11 92 12 80 13 81 14
REMARK SMILES IDX 93 15 94 16 98 17 95 18 97 19 96 20 82 21 83 22 91 23 84 24
REMARK SMILES IDX 90 25 85 26 86 27 87 28 88 29 89 30 11 31 12 32 13 33 14 34
REMARK SMILES IDX 15 35 16 37 17 38 18 39 79 40 19 41 78 42 20 43 21 44 22 45
REMARK SMILES IDX 72 46 23 47 77 48 71 49 73 50 24 51 76 52 70 53 69 54 25 56
REMARK SMILES IDX 57 57 37 58 56 59 38 60 41 61 55 62 74 63 39 64 40 65 54 67
REMARK SMILES IDX 75 68 42 69 26 70 27 71 35 72 28 73 29 74 33 75 36 76 30 77
REMARK SMILES IDX 31 78 34 79 32 80 58 81 59 82 67 83 60 84 61 85 65 86 68 87
REMARK SMILES IDX 62 88 63 89 66 90 64 91 43 92 44 93 52 94 45 95 46 96 50 97
REMARK SMILES IDX 53 98 47 99 48 100 51 101 49 102
REMARK H PARENT 7 7 14 36 73 55 41 66
REMARK Flexibility Score: inf
ROOT
ATOM      1  C   UNL A   1      36.119  19.693  24.626  1.00  0.00     0.002 C 
ENDROOT
BRANCH   1   2
ATOM      2  C   UNL A   1      34.801  20.383  24.999  1.00  0.00     0.021 C 
BRANCH   2   3
ATOM      3  C   UNL A   1      33.542  19.583  24.659  1.00  0.00     0.116 C 
BRANCH   3   4
ATOM      4  N   UNL A   1      32.357  20.162  25.266  1.00  0.00    -0.356 N 
ATOM      5  C   UNL A   1      31.799  21.397  25.078  1.00  0.00     0.224 C 
ATOM      6  O   UNL A   1      30.812  21.698  25.753  1.00  0.00    -0.275 OA
ATOM      7  H   UNL A   1      31.887  19.581  25.908  1.00  0.00     0.163 HD
BRANCH   5   8
ATOM      8  C   UNL A   1      32.345  22.342  24.021  1.00  0.00     0.137 C 
BRANCH   8   9
ATOM      9  C   UNL A   1      32.065  23.782  24.307  1.00  0.00    -0.017 A 
ATOM     10  C   UNL A   1      33.482  24.202  26.434  1.00  0.00     0.065 C 
ATOM     11  C   UNL A   1      32.589  24.595  25.306  1.00  0.00     0.024 A 
ATOM     12  N   UNL A   1      32.088  25.885  25.136  1.00  0.00    -0.314 N 
ATOM     13  C   UNL A   1      31.154  24.569  23.573  1.00  0.00     0.033 A 
ATOM     14  C   UNL A   1      31.212  25.856  24.054  1.00  0.00     0.053 A 
BRANCH  12  15
ATOM     15  C   UNL A   1      32.426  27.046  25.898  1.00  0.00     0.046 A 
ATOM     16  C   UNL A   1      31.526  27.555  26.846  1.00  0.00     0.026 A 
ATOM     17  C   UNL A   1      33.621  27.727  25.641  1.00  0.00     0.026 A 
ATOM     18  C   UNL A   1      31.817  28.740  27.523  1.00  0.00     0.002 A 
ATOM     19  C   UNL A   1      33.900  28.919  26.315  1.00  0.00     0.002 A 
ATOM     20  C   UNL A   1      33.001  29.425  27.253  1.00  0.00     0.000 A 
ENDBRANCH  12  15
BRANCH  14  21
ATOM     21  C   UNL A   1      30.546  27.006  23.472  1.00  0.00    -0.001 A 
ATOM     22  C   UNL A   1      31.285  28.001  22.820  1.00  0.00     0.011 A 
ATOM     23  C   UNL A   1      29.153  27.099  23.580  1.00  0.00     0.011 A 
ATOM     24  C   UNL A   1      30.637  29.132  22.355  1.00  0.00     0.021 A 
ATOM     25  C   UNL A   1      28.499  28.225  23.117  1.00  0.00     0.021 A 
ATOM     26  C   UNL A   1      29.256  29.239  22.550  1.00  0.00     0.067 A 
BRANCH  26  27
ATOM     27  S   UNL A   1      28.453  30.739  22.120  1.00  0.00     0.175 S 
ATOM     28  C   UNL A   1      27.334  30.949  23.502  1.00  0.00     0.163 C 
ATOM     29  O   UNL A   1      29.519  31.718  22.118  1.00  0.00    -0.224 OA
ATOM     30  O   UNL A   1      27.648  30.511  20.940  1.00  0.00    -0.224 OA
ENDBRANCH  26  27
ENDBRANCH  14  21
ENDBRANCH   8   9
ENDBRANCH   5   8
ENDBRANCH   3   4
ENDBRANCH   2   3
ENDBRANCH   1   2
BRANCH   1  31
ATOM     31  C   UNL A   1      37.406  20.396  25.077  1.00  0.00     0.002 C 
BRANCH  31  32
ATOM     32  C   UNL A   1      37.429  21.938  25.039  1.00  0.00     0.021 C 
BRANCH  32  33
ATOM     33  C   UNL A   1      38.250  22.671  26.118  1.00  0.00     0.116 C 
BRANCH  33  34
ATOM     34  N   UNL A   1      39.672  22.731  25.842  1.00  0.00    -0.352 N 
ATOM     35  C   UNL A   1      40.664  23.365  26.565  1.00  0.00     0.251 C 
ATOM     36  H   UNL A   1      39.970  22.259  25.031  1.00  0.00     0.163 HD
ATOM     37  O   UNL A   1      41.839  23.119  26.298  1.00  0.00    -0.269 OA
BRANCH  35  38
ATOM     38  C   UNL A   1      40.370  24.381  27.627  1.00  0.00     0.039 A 
ATOM     39  C   UNL A   1      39.114  24.969  27.668  1.00  0.00     0.014 A 
ATOM     40  C   UNL A   1      41.400  24.989  28.371  1.00  0.00     0.014 A 
ATOM     41  C   UNL A   1      38.907  26.144  28.433  1.00  0.00     0.010 A 
ATOM     42  C   UNL A   1      41.200  26.210  29.103  1.00  0.00     0.010 A 
ATOM     43  C   UNL A   1      39.953  26.850  29.115  1.00  0.00    -0.014 A 
BRANCH  43  44
ATOM     44  C   UNL A   1      39.709  28.377  29.302  1.00  0.00     0.031 A 
ATOM     45  C   UNL A   1      41.057  28.986  29.191  1.00  0.00     0.074 A 
ATOM     46  C   UNL A   1      38.713  29.262  29.658  1.00  0.00     0.049 A 
ATOM     47  N   UNL A   1      42.028  28.588  29.970  1.00  0.00    -0.248 NA
ATOM     48  C   UNL A   1      41.464  29.811  28.058  1.00  0.00     0.031 C 
ATOM     49  C   UNL A   1      37.397  28.936  30.190  1.00  0.00     0.029 A 
ATOM     50  N   UNL A   1      38.606  30.669  29.596  1.00  0.00    -0.354 N 
ATOM     51  C   UNL A   1      43.089  29.392  29.646  1.00  0.00     0.074 A 
ATOM     52  C   UNL A   1      42.768  29.915  28.326  1.00  0.00     0.031 C 
ATOM     53  C   UNL A   1      36.547  29.993  30.148  1.00  0.00     0.029 A 
ATOM     54  C   UNL A   1      37.285  31.184  29.760  1.00  0.00     0.049 A 
ATOM     55  H   UNL A   1      39.387  31.251  29.449  1.00  0.00     0.167 HD
ATOM     56  C   UNL A   1      43.671  30.046  30.692  1.00  0.00     0.037 A 
ATOM     57  C   UNL A   1      36.806  32.476  29.721  1.00  0.00     0.037 A 
ATOM     58  C   UNL A   1      43.392  31.454  30.684  1.00  0.00     0.049 A 
ATOM     59  C   UNL A   1      37.932  33.338  30.085  1.00  0.00     0.074 A 
ATOM     60  C   UNL A   1      43.446  32.433  29.714  1.00  0.00     0.029 A 
ATOM     61  N   UNL A   1      42.567  31.933  31.678  1.00  0.00    -0.354 N 
ATOM     62  N   UNL A   1      38.304  33.479  31.320  1.00  0.00    -0.248 NA
ATOM     63  C   UNL A   1      38.662  34.139  29.112  1.00  0.00     0.031 C 
ATOM     64  C   UNL A   1      42.318  33.256  29.944  1.00  0.00     0.029 A 
ATOM     65  C   UNL A   1      41.757  32.925  31.170  1.00  0.00     0.049 A 
ATOM     66  H   UNL A   1      42.558  31.614  32.609  1.00  0.00     0.167 HD
ATOM     67  C   UNL A   1      39.581  33.917  31.203  1.00  0.00     0.074 A 
ATOM     68  C   UNL A   1      39.634  34.579  29.914  1.00  0.00     0.031 C 
ATOM     69  C   UNL A   1      40.528  33.218  31.873  1.00  0.00     0.037 A 
BRANCH  56  70
ATOM     70  C   UNL A   1      43.804  29.205  31.929  1.00  0.00     0.064 A 
ATOM     71  C   UNL A   1      42.704  29.076  32.781  1.00  0.00     0.173 A 
ATOM     72  C   UNL A   1      45.032  28.667  32.363  1.00  0.00     0.173 A 
ATOM     73  F   UNL A   1      41.500  29.526  32.398  1.00  0.00    -0.203 F 
ATOM     74  C   UNL A   1      42.838  28.485  34.038  1.00  0.00     0.198 A 
ATOM     75  C   UNL A   1      45.175  28.125  33.636  1.00  0.00     0.198 A 
ATOM     76  F   UNL A   1      46.102  28.663  31.551  1.00  0.00    -0.203 F 
ATOM     77  F   UNL A   1      41.765  28.351  34.829  1.00  0.00    -0.200 F 
ATOM     78  C   UNL A   1      44.078  28.041  34.477  1.00  0.00     0.200 A 
ATOM     79  F   UNL A   1      46.375  27.687  34.046  1.00  0.00    -0.200 F 
ATOM     80  F   UNL A   1      44.212  27.511  35.700  1.00  0.00    -0.200 F 
ENDBRANCH  56  70
BRANCH  57  81
ATOM     81  C   UNL A   1      35.500  33.249  29.681  1.00  0.00     0.064 A 
ATOM     82  C   UNL A   1      34.799  33.557  30.886  1.00  0.00     0.173 A 
ATOM     83  C   UNL A   1      35.137  34.030  28.577  1.00  0.00     0.173 A 
ATOM     84  F   UNL A   1      34.998  32.857  32.010  1.00  0.00    -0.203 F 
ATOM     85  C   UNL A   1      33.922  34.639  31.009  1.00  0.00     0.198 A 
ATOM     86  C   UNL A   1      34.220  35.097  28.693  1.00  0.00     0.198 A 
ATOM     87  F   UNL A   1      35.736  33.838  27.395  1.00  0.00    -0.203 F 
ATOM     88  F   UNL A   1      33.408  34.953  32.208  1.00  0.00    -0.200 F 
ATOM     89  C   UNL A   1      33.647  35.424  29.914  1.00  0.00     0.200 A 
ATOM     90  F   UNL A   1      33.944  35.861  27.626  1.00  0.00    -0.200 F 
ATOM     91  F   UNL A   1      32.862  36.504  30.041  1.00  0.00    -0.200 F 
ENDBRANCH  57  81
BRANCH  69  92
ATOM     92  C   UNL A   1      40.141  32.642  33.235  1.00  0.00     0.064 A 
ATOM     93  C   UNL A   1      39.367  31.481  33.491  1.00  0.00     0.173 A 
ATOM     94  C   UNL A   1      40.542  33.360  34.372  1.00  0.00     0.173 A 
ATOM     95  F   UNL A   1      39.035  30.611  32.527  1.00  0.00    -0.203 F 
ATOM     96  C   UNL A   1      38.937  31.143  34.778  1.00  0.00     0.198 A 
ATOM     97  C   UNL A   1      40.167  32.983  35.662  1.00  0.00     0.198 A 
ATOM     98  F   UNL A   1      41.333  34.435  34.237  1.00  0.00    -0.203 F 
ATOM     99  F   UNL A   1      38.140  30.079  34.965  1.00  0.00    -0.200 F 
ATOM    100  C   UNL A   1      39.339  31.895  35.864  1.00  0.00     0.200 A 
ATOM    101  F   UNL A   1      40.618  33.681  36.712  1.00  0.00    -0.200 F 
ATOM    102  F   UNL A   1      38.949  31.560  37.102  1.00  0.00    -0.200 F 
ENDBRANCH  69  92
ENDBRANCH  43  44
ENDBRANCH  35  38
ENDBRANCH  33  34
ENDBRANCH  32  33
ENDBRANCH  31  32
ENDBRANCH   1  31
TORSDOF 17
ENDMDL
MODEL 3
REMARK VINA RESULT:     -11.0      7.198     13.978
REMARK SMILES Cc1c(CC(=O)NCCCCCCNC(=O)c2ccc(-c3c4nc(c(-c5c(F)c(F)c(F)c(F)c5F)c5ccc([nH]5)c(-c5c(F)c(F)c(F)c(F)c5F)c5nc(c(-c6c(F)c(F)c(F)c(F)c6F)c6ccc3[nH]6)C=C5)C=C4)cc2)cc(-c2ccc(S(C)(=O)=O)cc2)n1-c1ccccc1
REMARK SMILES IDX 10 1 9 2 8 3 7 4 5 5 6 6 4 8 3 9 1 10 2 11 92 12 80 13 81 14
REMARK SMILES IDX 93 15 94 16 98 17 95 18 97 19 96 20 82 21 83 22 91 23 84 24
REMARK SMILES IDX 90 25 85 26 86 27 87 28 88 29 89 30 11 31 12 32 13 33 14 34
REMARK SMILES IDX 15 35 16 37 17 38 18 39 79 40 19 41 78 42 20 43 21 44 22 45
REMARK SMILES IDX 72 46 23 47 77 48 71 49 73 50 24 51 76 52 70 53 69 54 25 56
REMARK SMILES IDX 57 57 37 58 56 59 38 60 41 61 55 62 74 63 39 64 40 65 54 67
REMARK SMILES IDX 75 68 42 69 26 70 27 71 35 72 28 73 29 74 33 75 36 76 30 77
REMARK SMILES IDX 31 78 34 79 32 80 58 81 59 82 67 83 60 84 61 85 65 86 68 87
REMARK SMILES IDX 62 88 63 89 66 90 64 91 43 92 44 93 52 94 45 95 46 96 50 97
REMARK SMILES IDX 53 98 47 99 48 100 51 101 49 102
REMARK H PARENT 7 7 14 36 73 55 41 66
REMARK Flexibility Score: inf
ROOT
ATOM      1  C   UNL A   1      48.914  20.931  35.145  1.00  0.00     0.002 C 
ENDROOT
BRANCH   1   2
ATOM      2  C   UNL A   1      50.195  20.335  34.550  1.00  0.00     0.021 C 
BRANCH   2   3
ATOM      3  C   UNL A   1      51.123  19.670  35.568  1.00  0.00     0.116 C 
BRANCH   3   4
ATOM      4  N   UNL A   1      52.195  18.935  34.920  1.00  0.00    -0.356 N 
ATOM      5  C   UNL A   1      53.519  19.258  34.799  1.00  0.00     0.224 C 
ATOM      6  O   UNL A   1      54.244  18.502  34.147  1.00  0.00    -0.275 OA
ATOM      7  H   UNL A   1      51.930  18.082  34.506  1.00  0.00     0.163 HD
BRANCH   5   8
ATOM      8  C   UNL A   1      54.088  20.479  35.501  1.00  0.00     0.137 C 
BRANCH   8   9
ATOM      9  C   UNL A   1      53.489  21.768  35.037  1.00  0.00    -0.017 A 
ATOM     10  C   UNL A   1      53.682  21.561  32.461  1.00  0.00     0.065 C 
ATOM     11  C   UNL A   1      53.266  22.211  33.738  1.00  0.00     0.024 A 
ATOM     12  N   UNL A   1      52.620  23.445  33.796  1.00  0.00    -0.314 N 
ATOM     13  C   UNL A   1      53.058  22.794  35.901  1.00  0.00     0.033 A 
ATOM     14  C   UNL A   1      52.488  23.787  35.140  1.00  0.00     0.053 A 
BRANCH  12  15
ATOM     15  C   UNL A   1      52.141  24.218  32.694  1.00  0.00     0.046 A 
ATOM     16  C   UNL A   1      52.975  25.166  32.081  1.00  0.00     0.026 A 
ATOM     17  C   UNL A   1      50.812  24.090  32.275  1.00  0.00     0.026 A 
ATOM     18  C   UNL A   1      52.478  25.985  31.066  1.00  0.00     0.002 A 
ATOM     19  C   UNL A   1      50.319  24.921  31.265  1.00  0.00     0.002 A 
ATOM     20  C   UNL A   1      51.148  25.866  30.663  1.00  0.00     0.000 A 
ENDBRANCH  12  15
BRANCH  14  21
ATOM     21  C   UNL A   1      51.784  24.947  35.653  1.00  0.00    -0.001 A 
ATOM     22  C   UNL A   1      50.482  24.824  36.156  1.00  0.00     0.011 A 
ATOM     23  C   UNL A   1      52.433  26.188  35.634  1.00  0.00     0.011 A 
ATOM     24  C   UNL A   1      49.799  25.960  36.554  1.00  0.00     0.021 A 
ATOM     25  C   UNL A   1      51.758  27.326  36.030  1.00  0.00     0.021 A 
ATOM     26  C   UNL A   1      50.440  27.198  36.445  1.00  0.00     0.067 A 
BRANCH  26  27
ATOM     27  S   UNL A   1      49.527  28.658  36.784  1.00  0.00     0.175 S 
ATOM     28  C   UNL A   1      50.785  29.700  37.516  1.00  0.00     0.163 C 
ATOM     29  O   UNL A   1      49.116  29.123  35.477  1.00  0.00    -0.224 OA
ATOM     30  O   UNL A   1      48.552  28.366  37.813  1.00  0.00    -0.224 OA
ENDBRANCH  26  27
ENDBRANCH  14  21
ENDBRANCH   8   9
ENDBRANCH   5   8
ENDBRANCH   3   4
ENDBRANCH   2   3
ENDBRANCH   1   2
BRANCH   1  31
ATOM     31  C   UNL A   1      47.618  20.674  34.363  1.00  0.00     0.002 C 
BRANCH  31  32
ATOM     32  C   UNL A   1      46.406  20.130  35.146  1.00  0.00     0.021 C 
BRANCH  32  33
ATOM     33  C   UNL A   1      45.283  21.121  35.509  1.00  0.00     0.116 C 
BRANCH  33  34
ATOM     34  N   UNL A   1      45.540  21.897  36.707  1.00  0.00    -0.352 N 
ATOM     35  C   UNL A   1      45.608  23.269  36.846  1.00  0.00     0.251 C 
ATOM     36  H   UNL A   1      45.686  21.375  37.530  1.00  0.00     0.163 HD
ATOM     37  O   UNL A   1      45.613  23.749  37.979  1.00  0.00    -0.269 OA
BRANCH  35  38
ATOM     38  C   UNL A   1      45.728  24.199  35.677  1.00  0.00     0.039 A 
ATOM     39  C   UNL A   1      44.575  24.618  35.028  1.00  0.00     0.014 A 
ATOM     40  C   UNL A   1      46.958  24.403  35.021  1.00  0.00     0.014 A 
ATOM     41  C   UNL A   1      44.663  25.219  33.747  1.00  0.00     0.010 A 
ATOM     42  C   UNL A   1      47.039  24.965  33.700  1.00  0.00     0.010 A 
ATOM     43  C   UNL A   1      45.884  25.346  33.004  1.00  0.00    -0.014 A 
BRANCH  43  44
ATOM     44  C   UNL A   1      45.716  25.379  31.456  1.00  0.00     0.031 A 
ATOM     45  C   UNL A   1      46.300  26.680  31.046  1.00  0.00     0.074 A 
ATOM     46  C   UNL A   1      45.104  24.684  30.434  1.00  0.00     0.049 A 
ATOM     47  N   UNL A   1      45.862  27.795  31.570  1.00  0.00    -0.248 NA
ATOM     48  C   UNL A   1      47.550  26.789  30.300  1.00  0.00     0.031 C 
ATOM     49  C   UNL A   1      44.150  23.591  30.564  1.00  0.00     0.029 A 
ATOM     50  N   UNL A   1      45.208  24.747  29.028  1.00  0.00    -0.354 N 
ATOM     51  C   UNL A   1      46.564  28.782  30.929  1.00  0.00     0.074 A 
ATOM     52  C   UNL A   1      47.733  28.109  30.380  1.00  0.00     0.031 C 
ATOM     53  C   UNL A   1      43.971  22.922  29.397  1.00  0.00     0.029 A 
ATOM     54  C   UNL A   1      44.648  23.636  28.327  1.00  0.00     0.049 A 
ATOM     55  H   UNL A   1      45.637  25.503  28.564  1.00  0.00     0.167 HD
ATOM     56  C   UNL A   1      45.808  29.760  30.353  1.00  0.00     0.037 A 
ATOM     57  C   UNL A   1      44.602  23.345  26.981  1.00  0.00     0.037 A 
ATOM     58  C   UNL A   1      45.805  29.680  28.920  1.00  0.00     0.049 A 
ATOM     59  C   UNL A   1      44.680  24.630  26.284  1.00  0.00     0.074 A 
ATOM     60  C   UNL A   1      46.793  29.535  27.969  1.00  0.00     0.029 A 
ATOM     61  N   UNL A   1      44.624  29.306  28.317  1.00  0.00    -0.354 N 
ATOM     62  N   UNL A   1      43.646  25.409  26.184  1.00  0.00    -0.248 NA
ATOM     63  C   UNL A   1      45.884  25.090  25.606  1.00  0.00     0.031 C 
ATOM     64  C   UNL A   1      46.253  28.665  26.991  1.00  0.00     0.029 A 
ATOM     65  C   UNL A   1      44.894  28.509  27.225  1.00  0.00     0.049 A 
ATOM     66  H   UNL A   1      43.726  29.567  28.621  1.00  0.00     0.167 HD
ATOM     67  C   UNL A   1      44.203  26.618  25.933  1.00  0.00     0.074 A 
ATOM     68  C   UNL A   1      45.474  26.323  25.300  1.00  0.00     0.031 C 
ATOM     69  C   UNL A   1      43.843  27.635  26.752  1.00  0.00     0.037 A 
BRANCH  56  70
ATOM     70  C   UNL A   1      44.637  30.188  31.190  1.00  0.00     0.064 A 
ATOM     71  C   UNL A   1      44.740  31.353  31.955  1.00  0.00     0.173 A 
ATOM     72  C   UNL A   1      43.491  29.387  31.372  1.00  0.00     0.173 A 
ATOM     73  F   UNL A   1      45.784  32.177  31.786  1.00  0.00    -0.203 F 
ATOM     74  C   UNL A   1      43.768  31.675  32.902  1.00  0.00     0.198 A 
ATOM     75  C   UNL A   1      42.550  29.683  32.353  1.00  0.00     0.198 A 
ATOM     76  F   UNL A   1      43.279  28.310  30.597  1.00  0.00    -0.203 F 
ATOM     77  F   UNL A   1      43.874  32.809  33.607  1.00  0.00    -0.200 F 
ATOM     78  C   UNL A   1      42.693  30.825  33.123  1.00  0.00     0.200 A 
ATOM     79  F   UNL A   1      41.509  28.861  32.550  1.00  0.00    -0.200 F 
ATOM     80  F   UNL A   1      41.782  31.116  34.062  1.00  0.00    -0.200 F 
ENDBRANCH  56  70
BRANCH  57  81
ATOM     81  C   UNL A   1      44.254  22.213  26.031  1.00  0.00     0.064 A 
ATOM     82  C   UNL A   1      45.279  21.520  25.318  1.00  0.00     0.173 A 
ATOM     83  C   UNL A   1      43.033  21.534  26.108  1.00  0.00     0.173 A 
ATOM     84  F   UNL A   1      46.483  22.069  25.113  1.00  0.00    -0.203 F 
ATOM     85  C   UNL A   1      45.137  20.210  24.850  1.00  0.00     0.198 A 
ATOM     86  C   UNL A   1      42.878  20.226  25.598  1.00  0.00     0.198 A 
ATOM     87  F   UNL A   1      42.001  22.081  26.761  1.00  0.00    -0.203 F 
ATOM     88  F   UNL A   1      46.188  19.573  24.313  1.00  0.00    -0.200 F 
ATOM     89  C   UNL A   1      43.939  19.554  25.008  1.00  0.00     0.200 A 
ATOM     90  F   UNL A   1      41.710  19.584  25.744  1.00  0.00    -0.200 F 
ATOM     91  F   UNL A   1      43.818  18.274  24.624  1.00  0.00    -0.200 F 
ENDBRANCH  57  81
BRANCH  69  92
ATOM     92  C   UNL A   1      42.399  27.653  27.253  1.00  0.00     0.064 A 
ATOM     93  C   UNL A   1      41.815  26.811  28.233  1.00  0.00     0.173 A 
ATOM     94  C   UNL A   1      41.522  28.566  26.646  1.00  0.00     0.173 A 
ATOM     95  F   UNL A   1      42.545  25.993  29.005  1.00  0.00    -0.203 F 
ATOM     96  C   UNL A   1      40.441  26.810  28.490  1.00  0.00     0.198 A 
ATOM     97  C   UNL A   1      40.162  28.609  26.952  1.00  0.00     0.198 A 
ATOM     98  F   UNL A   1      41.993  29.451  25.755  1.00  0.00    -0.203 F 
ATOM     99  F   UNL A   1      39.920  25.940  29.371  1.00  0.00    -0.200 F 
ATOM    100  C   UNL A   1      39.614  27.711  27.850  1.00  0.00     0.200 A 
ATOM    101  F   UNL A   1      39.382  29.532  26.374  1.00  0.00    -0.200 F 
ATOM    102  F   UNL A   1      38.300  27.730  28.112  1.00  0.00    -0.200 F 
ENDBRANCH  69  92
ENDBRANCH  43  44
ENDBRANCH  35  38
ENDBRANCH  33  34
ENDBRANCH  32  33
ENDBRANCH  31  32
ENDBRANCH   1  31
TORSDOF 17
ENDMDL
