MODEL 1
REMARK VINA RESULT:     -12.7      0.000      0.000
REMARK SMILES Cc1c(Cc2ccccc2)c(=O)oc2c(C)c(O[C@H](C)C(=O)NCCCCCCNC(=O)c3ccc(-c4c5nc(c(-c6c(F)c(F)c(F)c(F)c6F)c6ccc([nH]6)c(-c6c(F)c(F)c(F)c(F)c6F)c6nc(c(-c7c(F)c(F)c(F)c(F)c7F)c7ccc4[nH]7)C=C6)C=C5)cc3)ccc12
REMARK SMILES IDX 25 1 24 2 23 3 21 4 22 5 19 7 20 8 18 9 17 10 1 11 2 12 3 13
REMARK SMILES IDX 98 14 11 15 14 16 97 17 12 18 13 19 15 20 96 21 16 22 4 23
REMARK SMILES IDX 5 24 6 25 10 26 7 27 9 28 8 29 26 30 27 31 28 32 29 33 30 34
REMARK SMILES IDX 31 35 32 37 33 38 34 39 95 40 35 41 94 42 36 43 37 44 38 45
REMARK SMILES IDX 88 46 39 47 93 48 87 49 89 50 40 51 92 52 86 53 85 54 41 56
REMARK SMILES IDX 73 57 53 58 72 59 54 60 57 61 71 62 90 63 55 64 56 65 70 67
REMARK SMILES IDX 91 68 58 69 42 70 43 71 51 72 44 73 45 74 49 75 52 76 46 77
REMARK SMILES IDX 47 78 50 79 48 80 74 81 75 82 83 83 76 84 77 85 81 86 84 87
REMARK SMILES IDX 78 88 79 89 82 90 80 91 59 92 60 93 68 94 61 95 62 96 66 97
REMARK SMILES IDX 69 98 63 99 64 100 67 101 65 102
REMARK H PARENT 23 6 30 36 89 55 57 66
REMARK Flexibility Score: inf
ROOT
ATOM      1  C   UNL A   1      34.831  32.684  29.371  1.00  0.00     0.021 C 
ENDROOT
BRANCH   1   2
ATOM      2  C   UNL A   1      34.950  31.754  28.159  1.00  0.00     0.116 C 
BRANCH   2   3
ATOM      3  N   UNL A   1      34.005  30.626  28.055  1.00  0.00    -0.353 N 
ATOM      4  C   UNL A   1      33.600  30.122  26.818  1.00  0.00     0.260 C 
ATOM      5  O   UNL A   1      34.395  29.367  26.244  1.00  0.00    -0.271 OA
ATOM      6  H   UNL A   1      33.651  30.218  28.879  1.00  0.00     0.163 HD
BRANCH   4   7
ATOM      7  C   UNL A   1      32.070  30.257  26.256  1.00  0.00     0.258 C 
ATOM      8  C   UNL A   1      31.459  31.645  26.482  1.00  0.00     0.064 C 
BRANCH   7   9
ATOM      9  O   UNL A   1      31.401  29.712  25.101  1.00  0.00    -0.480 OA
BRANCH   9  10
ATOM     10  C   UNL A   1      31.153  28.385  25.066  1.00  0.00     0.127 A 
ATOM     11  C   UNL A   1      30.590  23.178  24.984  1.00  0.00     0.046 C 
ATOM     12  C   UNL A   1      31.463  24.220  24.368  1.00  0.00    -0.029 A 
ATOM     13  C   UNL A   1      32.314  24.045  23.327  1.00  0.00     0.046 A 
ATOM     14  C   UNL A   1      31.239  25.595  24.821  1.00  0.00     0.021 A 
ATOM     15  C   UNL A   1      32.984  25.236  22.737  1.00  0.00     0.340 A 
ATOM     16  C   UNL A   1      31.077  26.472  23.771  1.00  0.00     0.145 A 
ATOM     17  C   UNL A   1      31.279  26.155  26.090  1.00  0.00     0.016 A 
ATOM     18  O   UNL A   1      33.988  25.183  22.041  1.00  0.00    -0.246 OA
ATOM     19  O   UNL A   1      32.258  26.402  22.891  1.00  0.00    -0.422 OA
ATOM     20  C   UNL A   1      30.646  27.773  23.960  1.00  0.00     0.035 A 
ATOM     21  C   UNL A   1      31.351  27.569  26.193  1.00  0.00     0.047 A 
ATOM     22  C   UNL A   1      29.351  28.258  23.361  1.00  0.00     0.052 C 
BRANCH  13  23
ATOM     23  C   UNL A   1      32.609  22.777  22.567  1.00  0.00     0.079 C 
BRANCH  23  24
ATOM     24  C   UNL A   1      33.112  21.657  23.441  1.00  0.00    -0.043 A 
ATOM     25  C   UNL A   1      32.438  20.429  23.495  1.00  0.00     0.004 A 
ATOM     26  C   UNL A   1      34.262  21.831  24.222  1.00  0.00     0.004 A 
ATOM     27  C   UNL A   1      32.920  19.396  24.301  1.00  0.00     0.000 A 
ATOM     28  C   UNL A   1      34.750  20.797  25.016  1.00  0.00     0.000 A 
ATOM     29  C   UNL A   1      34.080  19.579  25.054  1.00  0.00     0.000 A 
ENDBRANCH  23  24
ENDBRANCH  13  23
ENDBRANCH   9  10
ENDBRANCH   7   9
ENDBRANCH   4   7
ENDBRANCH   2   3
ENDBRANCH   1   2
BRANCH   1  30
ATOM     30  C   UNL A   1      35.259  34.142  29.082  1.00  0.00     0.002 C 
BRANCH  30  31
ATOM     31  C   UNL A   1      34.368  34.991  28.162  1.00  0.00     0.002 C 
BRANCH  31  32
ATOM     32  C   UNL A   1      33.140  35.637  28.804  1.00  0.00     0.021 C 
BRANCH  32  33
ATOM     33  C   UNL A   1      33.457  36.579  29.960  1.00  0.00     0.116 C 
BRANCH  33  34
ATOM     34  N   UNL A   1      32.510  36.414  31.060  1.00  0.00    -0.352 N 
ATOM     35  C   UNL A   1      32.535  35.520  32.097  1.00  0.00     0.251 C 
ATOM     36  H   UNL A   1      31.745  37.033  31.055  1.00  0.00     0.163 HD
ATOM     37  O   UNL A   1      31.517  35.275  32.748  1.00  0.00    -0.269 OA
BRANCH  35  38
ATOM     38  C   UNL A   1      33.807  34.868  32.450  1.00  0.00     0.039 A 
ATOM     39  C   UNL A   1      35.006  35.580  32.381  1.00  0.00     0.014 A 
ATOM     40  C   UNL A   1      33.795  33.524  32.831  1.00  0.00     0.014 A 
ATOM     41  C   UNL A   1      36.196  34.946  32.739  1.00  0.00     0.010 A 
ATOM     42  C   UNL A   1      34.959  32.926  33.278  1.00  0.00     0.010 A 
ATOM     43  C   UNL A   1      36.174  33.620  33.200  1.00  0.00    -0.014 A 
BRANCH  43  44
ATOM     44  C   UNL A   1      37.418  32.887  33.511  1.00  0.00     0.031 A 
ATOM     45  C   UNL A   1      38.138  33.198  34.794  1.00  0.00     0.074 A 
ATOM     46  C   UNL A   1      37.918  32.005  32.629  1.00  0.00     0.049 A 
ATOM     47  N   UNL A   1      39.272  32.729  35.241  1.00  0.00    -0.248 NA
ATOM     48  C   UNL A   1      37.512  34.199  35.678  1.00  0.00     0.031 C 
ATOM     49  C   UNL A   1      37.316  31.667  31.339  1.00  0.00     0.029 A 
ATOM     50  N   UNL A   1      39.051  31.237  32.681  1.00  0.00    -0.354 N 
ATOM     51  C   UNL A   1      39.490  33.375  36.449  1.00  0.00     0.074 A 
ATOM     52  C   UNL A   1      38.423  34.331  36.629  1.00  0.00     0.031 C 
ATOM     53  C   UNL A   1      38.070  30.732  30.737  1.00  0.00     0.029 A 
ATOM     54  C   UNL A   1      39.223  30.434  31.581  1.00  0.00     0.049 A 
ATOM     55  H   UNL A   1      39.683  31.258  33.437  1.00  0.00     0.167 HD
ATOM     56  C   UNL A   1      40.472  33.155  37.352  1.00  0.00     0.037 A 
ATOM     57  C   UNL A   1      40.201  29.552  31.300  1.00  0.00     0.037 A 
ATOM     58  C   UNL A   1      41.511  32.179  37.174  1.00  0.00     0.049 A 
ATOM     59  C   UNL A   1      41.303  29.349  32.306  1.00  0.00     0.074 A 
ATOM     60  C   UNL A   1      42.530  31.838  38.041  1.00  0.00     0.029 A 
ATOM     61  N   UNL A   1      41.655  31.385  36.045  1.00  0.00    -0.354 N 
ATOM     62  N   UNL A   1      41.467  29.914  33.480  1.00  0.00    -0.248 NA
ATOM     63  C   UNL A   1      42.353  28.384  31.956  1.00  0.00     0.031 C 
ATOM     64  C   UNL A   1      43.324  30.874  37.415  1.00  0.00     0.029 A 
ATOM     65  C   UNL A   1      42.766  30.571  36.182  1.00  0.00     0.049 A 
ATOM     66  H   UNL A   1      41.057  31.398  35.262  1.00  0.00     0.167 HD
ATOM     67  C   UNL A   1      42.618  29.357  34.017  1.00  0.00     0.074 A 
ATOM     68  C   UNL A   1      43.105  28.396  33.048  1.00  0.00     0.031 C 
ATOM     69  C   UNL A   1      43.221  29.616  35.204  1.00  0.00     0.037 A 
BRANCH  56  70
ATOM     70  C   UNL A   1      40.452  33.960  38.618  1.00  0.00     0.064 A 
ATOM     71  C   UNL A   1      41.162  35.165  38.730  1.00  0.00     0.173 A 
ATOM     72  C   UNL A   1      39.676  33.551  39.713  1.00  0.00     0.173 A 
ATOM     73  F   UNL A   1      41.932  35.592  37.718  1.00  0.00    -0.203 F 
ATOM     74  C   UNL A   1      41.113  35.921  39.899  1.00  0.00     0.198 A 
ATOM     75  C   UNL A   1      39.604  34.325  40.868  1.00  0.00     0.198 A 
ATOM     76  F   UNL A   1      38.979  32.406  39.659  1.00  0.00    -0.203 F 
ATOM     77  F   UNL A   1      41.836  37.044  39.998  1.00  0.00    -0.200 F 
ATOM     78  C   UNL A   1      40.325  35.507  40.962  1.00  0.00     0.200 A 
ATOM     79  F   UNL A   1      38.832  33.931  41.890  1.00  0.00    -0.200 F 
ATOM     80  F   UNL A   1      40.265  36.244  42.079  1.00  0.00    -0.200 F 
ENDBRANCH  56  70
BRANCH  57  81
ATOM     81  C   UNL A   1      40.148  28.766  30.040  1.00  0.00     0.064 A 
ATOM     82  C   UNL A   1      40.742  29.253  28.867  1.00  0.00     0.173 A 
ATOM     83  C   UNL A   1      39.532  27.507  29.984  1.00  0.00     0.173 A 
ATOM     84  F   UNL A   1      41.331  30.458  28.866  1.00  0.00    -0.203 F 
ATOM     85  C   UNL A   1      40.711  28.517  27.684  1.00  0.00     0.198 A 
ATOM     86  C   UNL A   1      39.526  26.760  28.807  1.00  0.00     0.198 A 
ATOM     87  F   UNL A   1      38.957  26.990  31.079  1.00  0.00    -0.203 F 
ATOM     88  F   UNL A   1      41.258  29.022  26.570  1.00  0.00    -0.200 F 
ATOM     89  C   UNL A   1      40.110  27.268  27.657  1.00  0.00     0.200 A 
ATOM     90  F   UNL A   1      38.962  25.544  28.791  1.00  0.00    -0.200 F 
ATOM     91  F   UNL A   1      40.094  26.555  26.523  1.00  0.00    -0.200 F 
ENDBRANCH  57  81
BRANCH  69  92
ATOM     92  C   UNL A   1      44.465  28.847  35.537  1.00  0.00     0.064 A 
ATOM     93  C   UNL A   1      44.403  27.598  36.170  1.00  0.00     0.173 A 
ATOM     94  C   UNL A   1      45.721  29.313  35.117  1.00  0.00     0.173 A 
ATOM     95  F   UNL A   1      43.227  27.115  36.597  1.00  0.00    -0.203 F 
ATOM     96  C   UNL A   1      45.556  26.847  36.381  1.00  0.00     0.198 A 
ATOM     97  C   UNL A   1      46.866  28.546  35.300  1.00  0.00     0.198 A 
ATOM     98  F   UNL A   1      45.829  30.497  34.495  1.00  0.00    -0.203 F 
ATOM     99  F   UNL A   1      45.478  25.670  37.015  1.00  0.00    -0.200 F 
ATOM    100  C   UNL A   1      46.783  27.315  35.935  1.00  0.00     0.200 A 
ATOM    101  F   UNL A   1      48.047  28.989  34.848  1.00  0.00    -0.200 F 
ATOM    102  F   UNL A   1      47.888  26.578  36.114  1.00  0.00    -0.200 F 
ENDBRANCH  69  92
ENDBRANCH  43  44
ENDBRANCH  35  38
ENDBRANCH  33  34
ENDBRANCH  32  33
ENDBRANCH  31  32
ENDBRANCH  30  31
ENDBRANCH   1  30
TORSDOF 17
ENDMDL
MODEL 2
REMARK VINA RESULT:     -12.6      0.412      7.035
REMARK SMILES Cc1c(Cc2ccccc2)c(=O)oc2c(C)c(O[C@H](C)C(=O)NCCCCCCNC(=O)c3ccc(-c4c5nc(c(-c6c(F)c(F)c(F)c(F)c6F)c6ccc([nH]6)c(-c6c(F)c(F)c(F)c(F)c6F)c6nc(c(-c7c(F)c(F)c(F)c(F)c7F)c7ccc4[nH]7)C=C6)C=C5)cc3)ccc12
REMARK SMILES IDX 25 1 24 2 23 3 21 4 22 5 19 7 20 8 18 9 17 10 1 11 2 12 3 13
REMARK SMILES IDX 98 14 11 15 14 16 97 17 12 18 13 19 15 20 96 21 16 22 4 23
REMARK SMILES IDX 5 24 6 25 10 26 7 27 9 28 8 29 26 30 27 31 28 32 29 33 30 34
REMARK SMILES IDX 31 35 32 37 33 38 34 39 95 40 35 41 94 42 36 43 37 44 38 45
REMARK SMILES IDX 88 46 39 47 93 48 87 49 89 50 40 51 92 52 86 53 85 54 41 56
REMARK SMILES IDX 73 57 53 58 72 59 54 60 57 61 71 62 90 63 55 64 56 65 70 67
REMARK SMILES IDX 91 68 58 69 42 70 43 71 51 72 44 73 45 74 49 75 52 76 46 77
REMARK SMILES IDX 47 78 50 79 48 80 74 81 75 82 83 83 76 84 77 85 81 86 84 87
REMARK SMILES IDX 78 88 79 89 82 90 80 91 59 92 60 93 68 94 61 95 62 96 66 97
REMARK SMILES IDX 69 98 63 99 64 100 67 101 65 102
REMARK H PARENT 23 6 30 36 89 55 57 66
REMARK Flexibility Score: inf
ROOT
ATOM      1  C   UNL A   1      34.838  32.588  29.374  1.00  0.00     0.021 C 
ENDROOT
BRANCH   1   2
ATOM      2  C   UNL A   1      34.952  31.661  28.159  1.00  0.00     0.116 C 
BRANCH   2   3
ATOM      3  N   UNL A   1      33.992  30.547  28.045  1.00  0.00    -0.353 N 
ATOM      4  C   UNL A   1      33.591  30.050  26.804  1.00  0.00     0.260 C 
ATOM      5  O   UNL A   1      34.380  29.285  26.235  1.00  0.00    -0.271 OA
ATOM      6  H   UNL A   1      33.625  30.142  28.864  1.00  0.00     0.163 HD
BRANCH   4   7
ATOM      7  C   UNL A   1      32.068  30.207  26.229  1.00  0.00     0.258 C 
ATOM      8  C   UNL A   1      31.485  31.612  26.424  1.00  0.00     0.064 C 
BRANCH   7   9
ATOM      9  O   UNL A   1      31.394  29.655  25.080  1.00  0.00    -0.480 OA
BRANCH   9  10
ATOM     10  C   UNL A   1      31.153  28.326  25.051  1.00  0.00     0.127 A 
ATOM     11  C   UNL A   1      30.616  23.116  24.994  1.00  0.00     0.046 C 
ATOM     12  C   UNL A   1      31.486  24.159  24.375  1.00  0.00    -0.029 A 
ATOM     13  C   UNL A   1      32.341  23.983  23.338  1.00  0.00     0.046 A 
ATOM     14  C   UNL A   1      31.253  25.535  24.821  1.00  0.00     0.021 A 
ATOM     15  C   UNL A   1      33.007  25.174  22.745  1.00  0.00     0.340 A 
ATOM     16  C   UNL A   1      31.091  26.406  23.765  1.00  0.00     0.145 A 
ATOM     17  C   UNL A   1      31.287  26.103  26.086  1.00  0.00     0.016 A 
ATOM     18  O   UNL A   1      34.013  25.122  22.051  1.00  0.00    -0.246 OA
ATOM     19  O   UNL A   1      32.274  26.338  22.890  1.00  0.00    -0.422 OA
ATOM     20  C   UNL A   1      30.652  27.706  23.947  1.00  0.00     0.035 A 
ATOM     21  C   UNL A   1      31.351  27.517  26.183  1.00  0.00     0.047 A 
ATOM     22  C   UNL A   1      29.357  28.182  23.341  1.00  0.00     0.052 C 
BRANCH  13  23
ATOM     23  C   UNL A   1      32.644  22.712  22.586  1.00  0.00     0.079 C 
BRANCH  23  24
ATOM     24  C   UNL A   1      33.096  21.582  23.475  1.00  0.00    -0.043 A 
ATOM     25  C   UNL A   1      34.221  21.721  24.298  1.00  0.00     0.004 A 
ATOM     26  C   UNL A   1      32.398  20.368  23.485  1.00  0.00     0.004 A 
ATOM     27  C   UNL A   1      34.624  20.670  25.124  1.00  0.00     0.000 A 
ATOM     28  C   UNL A   1      32.791  19.324  24.317  1.00  0.00     0.000 A 
ATOM     29  C   UNL A   1      33.904  19.476  25.138  1.00  0.00     0.000 A 
ENDBRANCH  23  24
ENDBRANCH  13  23
ENDBRANCH   9  10
ENDBRANCH   7   9
ENDBRANCH   4   7
ENDBRANCH   2   3
ENDBRANCH   1   2
BRANCH   1  30
ATOM     30  C   UNL A   1      35.445  33.992  29.146  1.00  0.00     0.002 C 
BRANCH  30  31
ATOM     31  C   UNL A   1      34.634  35.009  28.328  1.00  0.00     0.002 C 
BRANCH  31  32
ATOM     32  C   UNL A   1      33.326  35.499  28.949  1.00  0.00     0.021 C 
BRANCH  32  33
ATOM     33  C   UNL A   1      33.499  36.580  30.009  1.00  0.00     0.116 C 
BRANCH  33  34
ATOM     34  N   UNL A   1      32.514  36.443  31.079  1.00  0.00    -0.352 N 
ATOM     35  C   UNL A   1      32.479  35.546  32.114  1.00  0.00     0.251 C 
ATOM     36  H   UNL A   1      31.770  37.087  31.054  1.00  0.00     0.163 HD
ATOM     37  O   UNL A   1      31.434  35.333  32.732  1.00  0.00    -0.269 OA
BRANCH  35  38
ATOM     38  C   UNL A   1      33.718  34.853  32.503  1.00  0.00     0.039 A 
ATOM     39  C   UNL A   1      33.686  33.507  32.871  1.00  0.00     0.014 A 
ATOM     40  C   UNL A   1      34.918  35.570  32.518  1.00  0.00     0.014 A 
ATOM     41  C   UNL A   1      34.876  32.866  33.216  1.00  0.00     0.010 A 
ATOM     42  C   UNL A   1      36.108  34.910  32.765  1.00  0.00     0.010 A 
ATOM     43  C   UNL A   1      36.092  33.564  33.153  1.00  0.00    -0.014 A 
BRANCH  43  44
ATOM     44  C   UNL A   1      37.363  32.947  33.587  1.00  0.00     0.031 A 
ATOM     45  C   UNL A   1      38.017  31.934  32.690  1.00  0.00     0.074 A 
ATOM     46  C   UNL A   1      37.881  33.250  34.790  1.00  0.00     0.049 A 
ATOM     47  N   UNL A   1      39.094  31.223  32.892  1.00  0.00    -0.248 NA
ATOM     48  C   UNL A   1      37.351  31.661  31.403  1.00  0.00     0.031 C 
ATOM     49  C   UNL A   1      37.297  34.188  35.749  1.00  0.00     0.029 A 
ATOM     50  N   UNL A   1      39.013  32.795  35.412  1.00  0.00    -0.354 N 
ATOM     51  C   UNL A   1      39.230  30.424  31.766  1.00  0.00     0.074 A 
ATOM     52  C   UNL A   1      38.084  30.670  30.921  1.00  0.00     0.031 C 
ATOM     53  C   UNL A   1      38.096  34.264  36.827  1.00  0.00     0.029 A 
ATOM     54  C   UNL A   1      39.225  33.356  36.647  1.00  0.00     0.049 A 
ATOM     55  H   UNL A   1      39.619  32.130  35.012  1.00  0.00     0.167 HD
ATOM     56  C   UNL A   1      40.246  29.593  31.445  1.00  0.00     0.037 A 
ATOM     57  C   UNL A   1      40.226  33.158  37.525  1.00  0.00     0.037 A 
ATOM     58  C   UNL A   1      41.393  29.381  32.282  1.00  0.00     0.049 A 
ATOM     59  C   UNL A   1      41.330  32.200  37.159  1.00  0.00     0.074 A 
ATOM     60  C   UNL A   1      42.505  28.598  32.038  1.00  0.00     0.029 A 
ATOM     61  N   UNL A   1      41.573  29.964  33.529  1.00  0.00    -0.354 N 
ATOM     62  N   UNL A   1      41.488  31.500  36.061  1.00  0.00    -0.248 NA
ATOM     63  C   UNL A   1      42.399  32.009  38.149  1.00  0.00     0.031 C 
ATOM     64  C   UNL A   1      43.334  28.665  33.160  1.00  0.00     0.029 A 
ATOM     65  C   UNL A   1      42.767  29.535  34.080  1.00  0.00     0.049 A 
ATOM     66  H   UNL A   1      40.944  30.589  33.958  1.00  0.00     0.167 HD
ATOM     67  C   UNL A   1      42.680  30.807  36.214  1.00  0.00     0.074 A 
ATOM     68  C   UNL A   1      43.215  31.184  37.508  1.00  0.00     0.031 C 
ATOM     69  C   UNL A   1      43.280  29.936  35.365  1.00  0.00     0.037 A 
BRANCH  56  70
ATOM     70  C   UNL A   1      40.175  28.878  30.127  1.00  0.00     0.064 A 
ATOM     71  C   UNL A   1      40.785  29.404  28.977  1.00  0.00     0.173 A 
ATOM     72  C   UNL A   1      39.536  27.634  30.021  1.00  0.00     0.173 A 
ATOM     73  F   UNL A   1      41.394  30.599  29.020  1.00  0.00    -0.203 F 
ATOM     74  C   UNL A   1      40.740  28.719  27.765  1.00  0.00     0.198 A 
ATOM     75  C   UNL A   1      39.522  26.938  28.816  1.00  0.00     0.198 A 
ATOM     76  F   UNL A   1      38.936  27.088  31.090  1.00  0.00    -0.203 F 
ATOM     77  F   UNL A   1      41.290  29.263  26.671  1.00  0.00    -0.200 F 
ATOM     78  C   UNL A   1      40.119  27.482  27.688  1.00  0.00     0.200 A 
ATOM     79  F   UNL A   1      38.933  25.736  28.745  1.00  0.00    -0.200 F 
ATOM     80  F   UNL A   1      40.092  26.817  26.526  1.00  0.00    -0.200 F 
ENDBRANCH  56  70
BRANCH  57  81
ATOM     81  C   UNL A   1      40.252  33.918  38.801  1.00  0.00     0.064 A 
ATOM     82  C   UNL A   1      40.955  35.127  38.901  1.00  0.00     0.173 A 
ATOM     83  C   UNL A   1      39.559  33.473  39.937  1.00  0.00     0.173 A 
ATOM     84  F   UNL A   1      41.644  35.588  37.847  1.00  0.00    -0.203 F 
ATOM     85  C   UNL A   1      40.973  35.856  40.088  1.00  0.00     0.198 A 
ATOM     86  C   UNL A   1      39.555  34.216  41.116  1.00  0.00     0.198 A 
ATOM     87  F   UNL A   1      38.864  32.328  39.895  1.00  0.00    -0.203 F 
ATOM     88  F   UNL A   1      41.679  36.992  40.164  1.00  0.00    -0.200 F 
ATOM     89  C   UNL A   1      40.267  35.404  41.193  1.00  0.00     0.200 A 
ATOM     90  F   UNL A   1      38.855  33.786  42.175  1.00  0.00    -0.200 F 
ATOM     91  F   UNL A   1      40.273  36.111  42.330  1.00  0.00    -0.200 F 
ENDBRANCH  57  81
BRANCH  69  92
ATOM     92  C   UNL A   1      44.587  29.337  35.790  1.00  0.00     0.064 A 
ATOM     93  C   UNL A   1      45.806  29.974  35.516  1.00  0.00     0.173 A 
ATOM     94  C   UNL A   1      44.612  28.172  36.574  1.00  0.00     0.173 A 
ATOM     95  F   UNL A   1      45.833  31.083  34.764  1.00  0.00    -0.203 F 
ATOM     96  C   UNL A   1      47.004  29.461  36.004  1.00  0.00     0.198 A 
ATOM     97  C   UNL A   1      45.808  27.682  37.087  1.00  0.00     0.198 A 
ATOM     98  F   UNL A   1      43.471  27.534  36.874  1.00  0.00    -0.203 F 
ATOM     99  F   UNL A   1      48.160  30.069  35.706  1.00  0.00    -0.200 F 
ATOM    100  C   UNL A   1      47.003  28.324  36.799  1.00  0.00     0.200 A 
ATOM    101  F   UNL A   1      45.803  26.597  37.874  1.00  0.00    -0.200 F 
ATOM    102  F   UNL A   1      48.155  27.849  37.291  1.00  0.00    -0.200 F 
ENDBRANCH  69  92
ENDBRANCH  43  44
ENDBRANCH  35  38
ENDBRANCH  33  34
ENDBRANCH  32  33
ENDBRANCH  31  32
ENDBRANCH  30  31
ENDBRANCH   1  30
TORSDOF 17
ENDMDL
MODEL 3
REMARK VINA RESULT:     -12.3      6.058     10.422
REMARK SMILES Cc1c(Cc2ccccc2)c(=O)oc2c(C)c(O[C@H](C)C(=O)NCCCCCCNC(=O)c3ccc(-c4c5nc(c(-c6c(F)c(F)c(F)c(F)c6F)c6ccc([nH]6)c(-c6c(F)c(F)c(F)c(F)c6F)c6nc(c(-c7c(F)c(F)c(F)c(F)c7F)c7ccc4[nH]7)C=C6)C=C5)cc3)ccc12
REMARK SMILES IDX 25 1 24 2 23 3 21 4 22 5 19 7 20 8 18 9 17 10 1 11 2 12 3 13
REMARK SMILES IDX 98 14 11 15 14 16 97 17 12 18 13 19 15 20 96 21 16 22 4 23
REMARK SMILES IDX 5 24 6 25 10 26 7 27 9 28 8 29 26 30 27 31 28 32 29 33 30 34
REMARK SMILES IDX 31 35 32 37 33 38 34 39 95 40 35 41 94 42 36 43 37 44 38 45
REMARK SMILES IDX 88 46 39 47 93 48 87 49 89 50 40 51 92 52 86 53 85 54 41 56
REMARK SMILES IDX 73 57 53 58 72 59 54 60 57 61 71 62 90 63 55 64 56 65 70 67
REMARK SMILES IDX 91 68 58 69 42 70 43 71 51 72 44 73 45 74 49 75 52 76 46 77
REMARK SMILES IDX 47 78 50 79 48 80 74 81 75 82 83 83 76 84 77 85 81 86 84 87
REMARK SMILES IDX 78 88 79 89 82 90 80 91 59 92 60 93 68 94 61 95 62 96 66 97
REMARK SMILES IDX 69 98 63 99 64 100 67 101 65 102
REMARK H PARENT 23 6 30 36 89 55 57 66
REMARK Flexibility Score: inf
ROOT
ATOM      1  C   UNL A   1      35.601  22.510  23.338  1.00  0.00     0.021 C 
ENDROOT
BRANCH   1   2
ATOM      2  C   UNL A   1      35.358  24.023  23.326  1.00  0.00     0.116 C 
BRANCH   2   3
ATOM      3  N   UNL A   1      33.971  24.502  23.172  1.00  0.00    -0.353 N 
ATOM      4  C   UNL A   1      33.652  25.859  23.246  1.00  0.00     0.260 C 
ATOM      5  O   UNL A   1      33.883  26.535  22.235  1.00  0.00    -0.271 OA
ATOM      6  H   UNL A   1      33.252  23.848  23.012  1.00  0.00     0.163 HD
BRANCH   4   7
ATOM      7  C   UNL A   1      32.765  26.503  24.459  1.00  0.00     0.258 C 
ATOM      8  C   UNL A   1      31.600  27.370  23.966  1.00  0.00     0.064 C 
BRANCH   7   9
ATOM      9  O   UNL A   1      32.367  26.004  25.752  1.00  0.00    -0.480 OA
BRANCH   9  10
ATOM     10  C   UNL A   1      32.420  24.672  25.973  1.00  0.00     0.127 A 
ATOM     11  C   UNL A   1      32.907  19.488  26.539  1.00  0.00     0.046 C 
ATOM     12  C   UNL A   1      32.752  20.484  25.439  1.00  0.00    -0.029 A 
ATOM     13  C   UNL A   1      32.453  20.215  24.145  1.00  0.00     0.046 A 
ATOM     14  C   UNL A   1      32.747  21.893  25.845  1.00  0.00     0.021 A 
ATOM     15  C   UNL A   1      32.175  21.348  23.220  1.00  0.00     0.340 A 
ATOM     16  C   UNL A   1      31.671  22.582  25.330  1.00  0.00     0.145 A 
ATOM     17  C   UNL A   1      33.683  22.644  26.542  1.00  0.00     0.016 A 
ATOM     18  O   UNL A   1      32.218  21.262  22.000  1.00  0.00    -0.246 OA
ATOM     19  O   UNL A   1      31.675  22.466  23.861  1.00  0.00    -0.422 OA
ATOM     20  C   UNL A   1      31.349  23.861  25.750  1.00  0.00     0.035 A 
ATOM     21  C   UNL A   1      33.567  24.058  26.501  1.00  0.00     0.047 A 
ATOM     22  C   UNL A   1      30.035  24.148  26.429  1.00  0.00     0.052 C 
BRANCH  13  23
ATOM     23  C   UNL A   1      32.237  18.870  23.499  1.00  0.00     0.079 C 
BRANCH  23  24
ATOM     24  C   UNL A   1      33.032  17.762  24.140  1.00  0.00    -0.043 A 
ATOM     25  C   UNL A   1      34.427  17.716  24.019  1.00  0.00     0.004 A 
ATOM     26  C   UNL A   1      32.382  16.753  24.863  1.00  0.00     0.004 A 
ATOM     27  C   UNL A   1      35.153  16.689  24.626  1.00  0.00     0.000 A 
ATOM     28  C   UNL A   1      33.107  15.736  25.479  1.00  0.00     0.000 A 
ATOM     29  C   UNL A   1      34.493  15.705  25.361  1.00  0.00     0.000 A 
ENDBRANCH  23  24
ENDBRANCH  13  23
ENDBRANCH   9  10
ENDBRANCH   7   9
ENDBRANCH   4   7
ENDBRANCH   2   3
ENDBRANCH   1   2
BRANCH   1  30
ATOM     30  C   UNL A   1      36.613  22.050  24.412  1.00  0.00     0.002 C 
BRANCH  30  31
ATOM     31  C   UNL A   1      36.455  20.639  25.001  1.00  0.00     0.002 C 
BRANCH  31  32
ATOM     32  C   UNL A   1      37.700  19.752  24.996  1.00  0.00     0.021 C 
BRANCH  32  33
ATOM     33  C   UNL A   1      38.890  20.333  25.751  1.00  0.00     0.116 C 
BRANCH  33  34
ATOM     34  N   UNL A   1      39.917  19.322  25.991  1.00  0.00    -0.352 N 
ATOM     35  C   UNL A   1      41.273  19.476  26.104  1.00  0.00     0.251 C 
ATOM     36  H   UNL A   1      39.587  18.399  26.085  1.00  0.00     0.163 HD
ATOM     37  O   UNL A   1      42.032  18.514  25.970  1.00  0.00    -0.269 OA
BRANCH  35  38
ATOM     38  C   UNL A   1      41.819  20.806  26.417  1.00  0.00     0.039 A 
ATOM     39  C   UNL A   1      42.121  21.152  27.736  1.00  0.00     0.014 A 
ATOM     40  C   UNL A   1      42.008  21.720  25.377  1.00  0.00     0.014 A 
ATOM     41  C   UNL A   1      42.656  22.412  28.004  1.00  0.00     0.010 A 
ATOM     42  C   UNL A   1      42.629  22.930  25.631  1.00  0.00     0.010 A 
ATOM     43  C   UNL A   1      42.922  23.300  26.951  1.00  0.00    -0.014 A 
BRANCH  43  44
ATOM     44  C   UNL A   1      43.413  24.672  27.199  1.00  0.00     0.031 A 
ATOM     45  C   UNL A   1      42.453  25.695  27.737  1.00  0.00     0.074 A 
ATOM     46  C   UNL A   1      44.678  25.000  26.887  1.00  0.00     0.049 A 
ATOM     47  N   UNL A   1      42.643  26.967  27.970  1.00  0.00    -0.248 NA
ATOM     48  C   UNL A   1      41.082  25.233  28.022  1.00  0.00     0.031 C 
ATOM     49  C   UNL A   1      45.672  24.088  26.320  1.00  0.00     0.029 A 
ATOM     50  N   UNL A   1      45.343  26.192  26.999  1.00  0.00    -0.354 N 
ATOM     51  C   UNL A   1      41.424  27.448  28.424  1.00  0.00     0.074 A 
ATOM     52  C   UNL A   1      40.476  26.361  28.354  1.00  0.00     0.031 C 
ATOM     53  C   UNL A   1      46.832  24.748  26.165  1.00  0.00     0.029 A 
ATOM     54  C   UNL A   1      46.651  26.134  26.588  1.00  0.00     0.049 A 
ATOM     55  H   UNL A   1      44.922  27.014  27.342  1.00  0.00     0.167 HD
ATOM     56  C   UNL A   1      41.134  28.679  28.901  1.00  0.00     0.037 A 
ATOM     57  C   UNL A   1      47.593  27.095  26.568  1.00  0.00     0.037 A 
ATOM     58  C   UNL A   1      42.095  29.743  28.992  1.00  0.00     0.049 A 
ATOM     59  C   UNL A   1      47.237  28.469  27.073  1.00  0.00     0.074 A 
ATOM     60  C   UNL A   1      41.927  31.015  29.500  1.00  0.00     0.029 A 
ATOM     61  N   UNL A   1      43.412  29.648  28.563  1.00  0.00    -0.354 N 
ATOM     62  N   UNL A   1      46.100  28.900  27.566  1.00  0.00    -0.248 NA
ATOM     63  C   UNL A   1      48.293  29.489  27.026  1.00  0.00     0.031 C 
ATOM     64  C   UNL A   1      43.126  31.710  29.332  1.00  0.00     0.029 A 
ATOM     65  C   UNL A   1      44.061  30.852  28.772  1.00  0.00     0.049 A 
ATOM     66  H   UNL A   1      43.823  28.844  28.169  1.00  0.00     0.167 HD
ATOM     67  C   UNL A   1      46.308  30.227  27.911  1.00  0.00     0.074 A 
ATOM     68  C   UNL A   1      47.688  30.528  27.585  1.00  0.00     0.031 C 
ATOM     69  C   UNL A   1      45.439  31.119  28.447  1.00  0.00     0.037 A 
BRANCH  56  70
ATOM     70  C   UNL A   1      39.736  28.930  29.385  1.00  0.00     0.064 A 
ATOM     71  C   UNL A   1      39.372  28.697  30.720  1.00  0.00     0.173 A 
ATOM     72  C   UNL A   1      38.764  29.456  28.522  1.00  0.00     0.173 A 
ATOM     73  F   UNL A   1      40.260  28.179  31.583  1.00  0.00    -0.203 F 
ATOM     74  C   UNL A   1      38.080  28.961  31.168  1.00  0.00     0.198 A 
ATOM     75  C   UNL A   1      37.483  29.750  28.981  1.00  0.00     0.198 A 
ATOM     76  F   UNL A   1      39.058  29.696  27.235  1.00  0.00    -0.203 F 
ATOM     77  F   UNL A   1      37.745  28.687  32.436  1.00  0.00    -0.200 F 
ATOM     78  C   UNL A   1      37.141  29.498  30.302  1.00  0.00     0.200 A 
ATOM     79  F   UNL A   1      36.578  30.280  28.147  1.00  0.00    -0.200 F 
ATOM     80  F   UNL A   1      35.903  29.768  30.739  1.00  0.00    -0.200 F 
ENDBRANCH  56  70
BRANCH  57  81
ATOM     81  C   UNL A   1      48.967  26.774  26.102  1.00  0.00     0.064 A 
ATOM     82  C   UNL A   1      49.338  26.986  24.766  1.00  0.00     0.173 A 
ATOM     83  C   UNL A   1      49.944  26.277  26.978  1.00  0.00     0.173 A 
ATOM     84  F   UNL A   1      48.437  27.447  23.887  1.00  0.00    -0.203 F 
ATOM     85  C   UNL A   1      50.628  26.703  24.322  1.00  0.00     0.198 A 
ATOM     86  C   UNL A   1      51.242  26.020  26.539  1.00  0.00     0.198 A 
ATOM     87  F   UNL A   1      49.646  26.064  28.267  1.00  0.00    -0.203 F 
ATOM     88  F   UNL A   1      50.946  26.884  23.033  1.00  0.00    -0.200 F 
ATOM     89  C   UNL A   1      51.581  26.227  25.210  1.00  0.00     0.200 A 
ATOM     90  F   UNL A   1      52.165  25.580  27.405  1.00  0.00    -0.200 F 
ATOM     91  F   UNL A   1      52.826  25.968  24.786  1.00  0.00    -0.200 F 
ENDBRANCH  57  81
BRANCH  69  92
ATOM     92  C   UNL A   1      45.946  32.502  28.731  1.00  0.00     0.064 A 
ATOM     93  C   UNL A   1      45.795  33.540  27.801  1.00  0.00     0.173 A 
ATOM     94  C   UNL A   1      46.487  32.815  29.988  1.00  0.00     0.173 A 
ATOM     95  F   UNL A   1      45.293  33.288  26.584  1.00  0.00    -0.203 F 
ATOM     96  C   UNL A   1      46.176  34.841  28.117  1.00  0.00     0.198 A 
ATOM     97  C   UNL A   1      46.835  34.122  30.312  1.00  0.00     0.198 A 
ATOM     98  F   UNL A   1      46.639  31.858  30.916  1.00  0.00    -0.203 F 
ATOM     99  F   UNL A   1      46.051  35.813  27.203  1.00  0.00    -0.200 F 
ATOM    100  C   UNL A   1      46.683  35.133  29.375  1.00  0.00     0.200 A 
ATOM    101  F   UNL A   1      47.303  34.406  31.535  1.00  0.00    -0.200 F 
ATOM    102  F   UNL A   1      47.023  36.391  29.685  1.00  0.00    -0.200 F 
ENDBRANCH  69  92
ENDBRANCH  43  44
ENDBRANCH  35  38
ENDBRANCH  33  34
ENDBRANCH  32  33
ENDBRANCH  31  32
ENDBRANCH  30  31
ENDBRANCH   1  30
TORSDOF 17
ENDMDL
