MODEL 1
REMARK VINA RESULT:     -12.5      0.000      0.000
REMARK SMILES O=C(NCCCCCCNC(=O)[C@@H]1[C@H](C(=O)Nc2ccccc2OC(F)F)[C@@H]2C=C[C@H]1C2)c1ccc(-c2c3nc(c(-c4c(F)c(F)c(F)c(F)c4F)c4ccc([nH]4)c(-c4c(F)c(F)c(F)c(F)c4F)c4nc(c(-c5c(F)c(F)c(F)c(F)c5F)c5ccc2[nH]5)C=C4)C=C3)cc1
REMARK SMILES IDX 7 1 6 2 5 3 4 4 3 5 1 6 2 7 33 9 34 10 95 11 35 12 94 13
REMARK SMILES IDX 36 14 37 15 38 16 88 17 39 18 93 19 87 20 89 21 40 22 92 23
REMARK SMILES IDX 86 24 85 25 41 27 73 28 53 29 72 30 54 31 57 32 71 33 90 34
REMARK SMILES IDX 55 35 56 36 70 38 91 39 58 40 42 41 43 42 51 43 44 44 45 45
REMARK SMILES IDX 49 46 52 47 46 48 47 49 50 50 48 51 74 52 75 53 83 54 76 55
REMARK SMILES IDX 77 56 81 57 84 58 78 59 79 60 82 61 80 62 59 63 60 64 68 65
REMARK SMILES IDX 61 66 62 67 66 68 69 69 63 70 64 71 67 72 65 73 8 74 9 75
REMARK SMILES IDX 10 76 11 77 12 79 13 80 14 81 31 82 28 83 30 84 32 85 29 86
REMARK SMILES IDX 15 87 16 88 17 89 18 91 19 92 23 93 20 94 22 95 21 96 24 97
REMARK SMILES IDX 25 98 26 99 27 100
REMARK H PARENT 3 8 89 26 57 37 10 78 17 90
REMARK Flexibility Score: inf
ROOT
ATOM      1  C   UNL A   1      32.231  29.614  26.865  1.00  0.00     0.002 C 
ENDROOT
BRANCH   1   2
ATOM      2  C   UNL A   1      31.642  30.765  26.043  1.00  0.00     0.002 C 
BRANCH   2   3
ATOM      3  C   UNL A   1      31.374  32.077  26.776  1.00  0.00     0.021 C 
BRANCH   3   4
ATOM      4  C   UNL A   1      32.620  32.876  27.125  1.00  0.00     0.116 C 
BRANCH   4   5
ATOM      5  N   UNL A   1      32.340  34.215  27.615  1.00  0.00    -0.352 N 
ATOM      6  O   UNL A   1      32.570  36.008  28.978  1.00  0.00    -0.269 OA
ATOM      7  C   UNL A   1      32.980  34.908  28.617  1.00  0.00     0.251 C 
ATOM      8  H   UNL A   1      31.598  34.687  27.175  1.00  0.00     0.163 HD
BRANCH   7   9
ATOM      9  C   UNL A   1      34.153  34.301  29.286  1.00  0.00     0.039 A 
ATOM     10  C   UNL A   1      35.445  34.624  28.872  1.00  0.00     0.014 A 
ATOM     11  C   UNL A   1      33.958  33.379  30.320  1.00  0.00     0.014 A 
ATOM     12  C   UNL A   1      36.526  33.913  29.373  1.00  0.00     0.010 A 
ATOM     13  C   UNL A   1      35.059  32.742  30.902  1.00  0.00     0.010 A 
ATOM     14  C   UNL A   1      36.351  32.985  30.414  1.00  0.00    -0.014 A 
BRANCH  14  15
ATOM     15  C   UNL A   1      37.560  32.371  31.020  1.00  0.00     0.031 A 
ATOM     16  C   UNL A   1      38.032  32.742  32.397  1.00  0.00     0.074 A 
ATOM     17  C   UNL A   1      38.194  31.410  30.319  1.00  0.00     0.049 A 
ATOM     18  N   UNL A   1      39.030  32.245  33.085  1.00  0.00    -0.248 NA
ATOM     19  C   UNL A   1      37.300  33.810  33.094  1.00  0.00     0.031 C 
ATOM     20  C   UNL A   1      37.835  30.988  28.962  1.00  0.00     0.029 A 
ATOM     21  N   UNL A   1      39.243  30.593  30.651  1.00  0.00    -0.354 N 
ATOM     22  C   UNL A   1      39.052  32.941  34.286  1.00  0.00     0.074 A 
ATOM     23  C   UNL A   1      37.985  33.918  34.224  1.00  0.00     0.031 C 
ATOM     24  C   UNL A   1      38.603  29.951  28.604  1.00  0.00     0.029 A 
ATOM     25  C   UNL A   1      39.558  29.684  29.670  1.00  0.00     0.049 A 
ATOM     26  H   UNL A   1      39.723  30.651  31.508  1.00  0.00     0.167 HD
ATOM     27  C   UNL A   1      39.883  32.769  35.344  1.00  0.00     0.037 A 
ATOM     28  C   UNL A   1      40.524  28.750  29.624  1.00  0.00     0.037 A 
ATOM     29  C   UNL A   1      40.941  31.789  35.394  1.00  0.00     0.049 A 
ATOM     30  C   UNL A   1      41.434  28.595  30.806  1.00  0.00     0.074 A 
ATOM     31  C   UNL A   1      41.831  31.531  36.422  1.00  0.00     0.029 A 
ATOM     32  N   UNL A   1      41.252  30.906  34.370  1.00  0.00    -0.354 N 
ATOM     33  N   UNL A   1      41.427  29.245  31.945  1.00  0.00    -0.248 NA
ATOM     34  C   UNL A   1      42.488  27.579  30.699  1.00  0.00     0.031 C 
ATOM     35  C   UNL A   1      42.706  30.522  36.005  1.00  0.00     0.029 A 
ATOM     36  C   UNL A   1      42.329  30.114  34.736  1.00  0.00     0.049 A 
ATOM     37  H   UNL A   1      40.777  30.850  33.509  1.00  0.00     0.167 HD
ATOM     38  C   UNL A   1      42.469  28.715  32.690  1.00  0.00     0.074 A 
ATOM     39  C   UNL A   1      43.058  27.661  31.890  1.00  0.00     0.031 C 
ATOM     40  C   UNL A   1      42.908  29.076  33.921  1.00  0.00     0.037 A 
BRANCH  27  41
ATOM     41  C   UNL A   1      39.693  33.658  36.540  1.00  0.00     0.064 A 
ATOM     42  C   UNL A   1      40.278  34.931  36.609  1.00  0.00     0.173 A 
ATOM     43  C   UNL A   1      38.856  33.264  37.596  1.00  0.00     0.173 A 
ATOM     44  F   UNL A   1      41.095  35.353  35.632  1.00  0.00    -0.203 F 
ATOM     45  C   UNL A   1      40.041  35.772  37.694  1.00  0.00     0.198 A 
ATOM     46  C   UNL A   1      38.602  34.117  38.668  1.00  0.00     0.198 A 
ATOM     47  F   UNL A   1      38.266  32.060  37.580  1.00  0.00    -0.203 F 
ATOM     48  F   UNL A   1      40.636  36.972  37.752  1.00  0.00    -0.200 F 
ATOM     49  C   UNL A   1      39.197  35.369  38.718  1.00  0.00     0.200 A 
ATOM     50  F   UNL A   1      37.773  33.732  39.648  1.00  0.00    -0.200 F 
ATOM     51  F   UNL A   1      38.958  36.186  39.753  1.00  0.00    -0.200 F 
ENDBRANCH  27  41
BRANCH  28  52
ATOM     52  C   UNL A   1      40.689  27.913  28.407  1.00  0.00     0.064 A 
ATOM     53  C   UNL A   1      41.461  28.348  27.322  1.00  0.00     0.173 A 
ATOM     54  C   UNL A   1      40.072  26.655  28.305  1.00  0.00     0.173 A 
ATOM     55  F   UNL A   1      42.058  29.547  27.363  1.00  0.00    -0.203 F 
ATOM     56  C   UNL A   1      41.587  27.570  26.173  1.00  0.00     0.198 A 
ATOM     57  C   UNL A   1      40.231  25.864  27.173  1.00  0.00     0.198 A 
ATOM     58  F   UNL A   1      39.329  26.187  29.320  1.00  0.00    -0.203 F 
ATOM     59  F   UNL A   1      42.287  28.034  25.128  1.00  0.00    -0.200 F 
ATOM     60  C   UNL A   1      40.978  26.327  26.101  1.00  0.00     0.200 A 
ATOM     61  F   UNL A   1      39.659  24.653  27.119  1.00  0.00    -0.200 F 
ATOM     62  F   UNL A   1      41.105  25.577  24.998  1.00  0.00    -0.200 F 
ENDBRANCH  28  52
BRANCH  40  63
ATOM     63  C   UNL A   1      44.075  28.308  34.470  1.00  0.00     0.064 A 
ATOM     64  C   UNL A   1      43.893  27.129  35.210  1.00  0.00     0.173 A 
ATOM     65  C   UNL A   1      45.386  28.759  34.263  1.00  0.00     0.173 A 
ATOM     66  F   UNL A   1      42.656  26.666  35.451  1.00  0.00    -0.203 F 
ATOM     67  C   UNL A   1      44.980  26.453  35.757  1.00  0.00     0.198 A 
ATOM     68  C   UNL A   1      46.472  28.062  34.783  1.00  0.00     0.198 A 
ATOM     69  F   UNL A   1      45.613  29.878  33.559  1.00  0.00    -0.203 F 
ATOM     70  F   UNL A   1      44.778  25.368  36.517  1.00  0.00    -0.200 F 
ATOM     71  C   UNL A   1      46.268  26.918  35.540  1.00  0.00     0.200 A 
ATOM     72  F   UNL A   1      47.718  28.506  34.564  1.00  0.00    -0.200 F 
ATOM     73  F   UNL A   1      47.314  26.270  36.071  1.00  0.00    -0.200 F 
ENDBRANCH  40  63
ENDBRANCH  14  15
ENDBRANCH   7   9
ENDBRANCH   4   5
ENDBRANCH   3   4
ENDBRANCH   2   3
ENDBRANCH   1   2
BRANCH   1  74
ATOM     74  C   UNL A   1      31.790  28.178  26.536  1.00  0.00     0.021 C 
BRANCH  74  75
ATOM     75  C   UNL A   1      32.880  27.104  26.461  1.00  0.00     0.116 C 
BRANCH  75  76
ATOM     76  N   UNL A   1      32.343  25.772  26.287  1.00  0.00    -0.356 N 
ATOM     77  C   UNL A   1      32.947  24.564  26.123  1.00  0.00     0.224 C 
ATOM     78  H   UNL A   1      31.359  25.732  26.286  1.00  0.00     0.163 HD
ATOM     79  O   UNL A   1      32.197  23.584  26.210  1.00  0.00    -0.275 OA
BRANCH  77  80
ATOM     80  C   UNL A   1      34.387  24.359  25.688  1.00  0.00     0.098 C 
ATOM     81  C   UNL A   1      34.805  24.343  24.176  1.00  0.00     0.099 C 
ATOM     82  C   UNL A   1      35.398  23.383  26.330  1.00  0.00     0.025 C 
ATOM     83  C   UNL A   1      36.082  23.448  24.189  1.00  0.00     0.025 C 
ATOM     84  C   UNL A   1      35.276  21.989  25.772  1.00  0.00    -0.027 C 
ATOM     85  C   UNL A   1      36.674  23.797  25.561  1.00  0.00     0.017 C 
ATOM     86  C   UNL A   1      35.722  22.022  24.508  1.00  0.00    -0.027 C 
BRANCH  81  87
ATOM     87  C   UNL A   1      33.988  24.193  22.876  1.00  0.00     0.229 C 
ATOM     88  O   UNL A   1      34.105  23.123  22.252  1.00  0.00    -0.274 OA
ATOM     89  N   UNL A   1      32.948  24.969  22.460  1.00  0.00    -0.323 N 
ATOM     90  H   UNL A   1      32.335  24.496  21.851  1.00  0.00     0.170 HD
BRANCH  89  91
ATOM     91  C   UNL A   1      32.560  26.287  22.706  1.00  0.00     0.084 A 
ATOM     92  C   UNL A   1      33.544  27.282  22.597  1.00  0.00     0.030 A 
ATOM     93  C   UNL A   1      31.280  26.663  23.088  1.00  0.00     0.149 A 
ATOM     94  C   UNL A   1      33.200  28.637  22.653  1.00  0.00     0.002 A 
ATOM     95  C   UNL A   1      30.926  28.015  23.071  1.00  0.00     0.049 A 
ATOM     96  C   UNL A   1      31.874  29.004  22.835  1.00  0.00     0.004 A 
BRANCH  93  97
ATOM     97  O   UNL A   1      30.325  25.810  23.545  1.00  0.00    -0.433 OA
BRANCH  97  98
ATOM     98  C   UNL A   1      29.309  26.392  24.376  1.00  0.00     0.542 C 
ATOM     99  F   UNL A   1      28.096  26.285  23.796  1.00  0.00    -0.167 F 
ATOM    100  F   UNL A   1      29.254  25.768  25.577  1.00  0.00    -0.167 F 
ENDBRANCH  97  98
ENDBRANCH  93  97
ENDBRANCH  89  91
ENDBRANCH  81  87
ENDBRANCH  77  80
ENDBRANCH  75  76
ENDBRANCH  74  75
ENDBRANCH   1  74
TORSDOF 17
ENDMDL
MODEL 2
REMARK VINA RESULT:     -12.3      5.055     10.311
REMARK SMILES O=C(NCCCCCCNC(=O)[C@@H]1[C@H](C(=O)Nc2ccccc2OC(F)F)[C@@H]2C=C[C@H]1C2)c1ccc(-c2c3nc(c(-c4c(F)c(F)c(F)c(F)c4F)c4ccc([nH]4)c(-c4c(F)c(F)c(F)c(F)c4F)c4nc(c(-c5c(F)c(F)c(F)c(F)c5F)c5ccc2[nH]5)C=C4)C=C3)cc1
REMARK SMILES IDX 7 1 6 2 5 3 4 4 3 5 1 6 2 7 33 9 34 10 95 11 35 12 94 13
REMARK SMILES IDX 36 14 37 15 38 16 88 17 39 18 93 19 87 20 89 21 40 22 92 23
REMARK SMILES IDX 86 24 85 25 41 27 73 28 53 29 72 30 54 31 57 32 71 33 90 34
REMARK SMILES IDX 55 35 56 36 70 38 91 39 58 40 42 41 43 42 51 43 44 44 45 45
REMARK SMILES IDX 49 46 52 47 46 48 47 49 50 50 48 51 74 52 75 53 83 54 76 55
REMARK SMILES IDX 77 56 81 57 84 58 78 59 79 60 82 61 80 62 59 63 60 64 68 65
REMARK SMILES IDX 61 66 62 67 66 68 69 69 63 70 64 71 67 72 65 73 8 74 9 75
REMARK SMILES IDX 10 76 11 77 12 79 13 80 14 81 31 82 28 83 30 84 32 85 29 86
REMARK SMILES IDX 15 87 16 88 17 89 18 91 19 92 23 93 20 94 22 95 21 96 24 97
REMARK SMILES IDX 25 98 26 99 27 100
REMARK H PARENT 3 8 89 26 57 37 10 78 17 90
REMARK Flexibility Score: inf
ROOT
ATOM      1  C   UNL A   1      37.126  21.886  25.290  1.00  0.00     0.002 C 
ENDROOT
BRANCH   1   2
ATOM      2  C   UNL A   1      36.898  20.482  24.721  1.00  0.00     0.002 C 
BRANCH   2   3
ATOM      3  C   UNL A   1      37.969  19.433  25.008  1.00  0.00     0.021 C 
BRANCH   3   4
ATOM      4  C   UNL A   1      39.179  19.952  25.770  1.00  0.00     0.116 C 
BRANCH   4   5
ATOM      5  N   UNL A   1      40.310  19.039  25.766  1.00  0.00    -0.352 N 
ATOM      6  O   UNL A   1      42.488  18.444  25.936  1.00  0.00    -0.269 OA
ATOM      7  C   UNL A   1      41.626  19.309  26.067  1.00  0.00     0.251 C 
ATOM      8  H   UNL A   1      40.110  18.108  25.518  1.00  0.00     0.163 HD
BRANCH   7   9
ATOM      9  C   UNL A   1      42.003  20.667  26.518  1.00  0.00     0.039 A 
ATOM     10  C   UNL A   1      42.272  21.669  25.587  1.00  0.00     0.014 A 
ATOM     11  C   UNL A   1      42.116  20.934  27.887  1.00  0.00     0.014 A 
ATOM     12  C   UNL A   1      42.805  22.878  26.010  1.00  0.00     0.010 A 
ATOM     13  C   UNL A   1      42.549  22.192  28.318  1.00  0.00     0.010 A 
ATOM     14  C   UNL A   1      42.923  23.166  27.381  1.00  0.00    -0.014 A 
BRANCH  14  15
ATOM     15  C   UNL A   1      43.349  24.532  27.779  1.00  0.00     0.031 A 
ATOM     16  C   UNL A   1      44.793  24.944  27.774  1.00  0.00     0.074 A 
ATOM     17  C   UNL A   1      42.387  25.426  28.085  1.00  0.00     0.049 A 
ATOM     18  N   UNL A   1      45.313  26.120  28.033  1.00  0.00    -0.248 NA
ATOM     19  C   UNL A   1      45.786  23.912  27.445  1.00  0.00     0.031 C 
ATOM     20  C   UNL A   1      40.953  25.124  28.145  1.00  0.00     0.029 A 
ATOM     21  N   UNL A   1      42.455  26.764  28.370  1.00  0.00    -0.354 N 
ATOM     22  C   UNL A   1      46.687  25.967  27.907  1.00  0.00     0.074 A 
ATOM     23  C   UNL A   1      46.927  24.578  27.578  1.00  0.00     0.031 C 
ATOM     24  C   UNL A   1      40.274  26.255  28.381  1.00  0.00     0.029 A 
ATOM     25  C   UNL A   1      41.224  27.343  28.566  1.00  0.00     0.049 A 
ATOM     26  H   UNL A   1      43.301  27.262  28.428  1.00  0.00     0.167 HD
ATOM     27  C   UNL A   1      47.655  26.907  28.044  1.00  0.00     0.037 A 
ATOM     28  C   UNL A   1      40.895  28.608  28.881  1.00  0.00     0.037 A 
ATOM     29  C   UNL A   1      47.402  28.290  28.371  1.00  0.00     0.049 A 
ATOM     30  C   UNL A   1      41.991  29.620  29.039  1.00  0.00     0.074 A 
ATOM     31  C   UNL A   1      48.313  29.321  28.525  1.00  0.00     0.029 A 
ATOM     32  N   UNL A   1      46.145  28.835  28.593  1.00  0.00    -0.354 N 
ATOM     33  N   UNL A   1      43.286  29.466  28.893  1.00  0.00    -0.248 NA
ATOM     34  C   UNL A   1      41.585  30.981  29.407  1.00  0.00     0.031 C 
ATOM     35  C   UNL A   1      47.612  30.478  28.882  1.00  0.00     0.029 A 
ATOM     36  C   UNL A   1      46.259  30.183  28.899  1.00  0.00     0.049 A 
ATOM     37  H   UNL A   1      45.297  28.337  28.541  1.00  0.00     0.167 HD
ATOM     38  C   UNL A   1      43.846  30.708  29.147  1.00  0.00     0.074 A 
ATOM     39  C   UNL A   1      42.747  31.613  29.413  1.00  0.00     0.031 C 
ATOM     40  C   UNL A   1      45.154  31.066  29.171  1.00  0.00     0.037 A 
BRANCH  27  41
ATOM     41  C   UNL A   1      49.082  26.482  27.850  1.00  0.00     0.064 A 
ATOM     42  C   UNL A   1      49.643  26.353  26.570  1.00  0.00     0.173 A 
ATOM     43  C   UNL A   1      49.922  26.274  28.956  1.00  0.00     0.173 A 
ATOM     44  F   UNL A   1      48.882  26.530  25.479  1.00  0.00    -0.203 F 
ATOM     45  C   UNL A   1      50.985  26.021  26.405  1.00  0.00     0.198 A 
ATOM     46  C   UNL A   1      51.270  25.967  28.787  1.00  0.00     0.198 A 
ATOM     47  F   UNL A   1      49.440  26.389  30.202  1.00  0.00    -0.203 F 
ATOM     48  F   UNL A   1      51.490  25.873  25.172  1.00  0.00    -0.200 F 
ATOM     49  C   UNL A   1      51.800  25.837  27.512  1.00  0.00     0.200 A 
ATOM     50  F   UNL A   1      52.059  25.804  29.858  1.00  0.00    -0.200 F 
ATOM     51  F   UNL A   1      53.095  25.534  27.351  1.00  0.00    -0.200 F 
ENDBRANCH  27  41
BRANCH  28  52
ATOM     52  C   UNL A   1      39.470  28.974  29.090  1.00  0.00     0.064 A 
ATOM     53  C   UNL A   1      38.668  29.414  28.029  1.00  0.00     0.173 A 
ATOM     54  C   UNL A   1      38.881  28.893  30.362  1.00  0.00     0.173 A 
ATOM     55  F   UNL A   1      39.185  29.524  26.798  1.00  0.00    -0.203 F 
ATOM     56  C   UNL A   1      37.340  29.784  28.238  1.00  0.00     0.198 A 
ATOM     57  C   UNL A   1      37.546  29.226  30.561  1.00  0.00     0.198 A 
ATOM     58  F   UNL A   1      39.604  28.469  31.410  1.00  0.00    -0.203 F 
ATOM     59  F   UNL A   1      36.610  30.253  27.217  1.00  0.00    -0.200 F 
ATOM     60  C   UNL A   1      36.779  29.683  29.502  1.00  0.00     0.200 A 
ATOM     61  F   UNL A   1      37.002  29.104  31.780  1.00  0.00    -0.200 F 
ATOM     62  F   UNL A   1      35.501  30.033  29.700  1.00  0.00    -0.200 F 
ENDBRANCH  28  52
BRANCH  40  63
ATOM     63  C   UNL A   1      45.451  32.502  29.484  1.00  0.00     0.064 A 
ATOM     64  C   UNL A   1      45.514  33.475  28.473  1.00  0.00     0.173 A 
ATOM     65  C   UNL A   1      45.685  32.910  30.805  1.00  0.00     0.173 A 
ATOM     66  F   UNL A   1      45.316  33.131  27.191  1.00  0.00    -0.203 F 
ATOM     67  C   UNL A   1      45.841  34.795  28.770  1.00  0.00     0.198 A 
ATOM     68  C   UNL A   1      45.979  34.238  31.102  1.00  0.00     0.198 A 
ATOM     69  F   UNL A   1      45.632  32.020  31.807  1.00  0.00    -0.203 F 
ATOM     70  F   UNL A   1      45.962  35.692  27.782  1.00  0.00    -0.200 F 
ATOM     71  C   UNL A   1      46.069  35.176  30.084  1.00  0.00     0.200 A 
ATOM     72  F   UNL A   1      46.188  34.607  32.373  1.00  0.00    -0.200 F 
ATOM     73  F   UNL A   1      46.389  36.446  30.369  1.00  0.00    -0.200 F 
ENDBRANCH  40  63
ENDBRANCH  14  15
ENDBRANCH   7   9
ENDBRANCH   4   5
ENDBRANCH   3   4
ENDBRANCH   2   3
ENDBRANCH   1   2
BRANCH   1  74
ATOM     74  C   UNL A   1      36.669  23.096  24.459  1.00  0.00     0.021 C 
BRANCH  74  75
ATOM     75  C   UNL A   1      35.717  24.094  25.128  1.00  0.00     0.116 C 
BRANCH  75  76
ATOM     76  N   UNL A   1      34.678  24.561  24.236  1.00  0.00    -0.356 N 
ATOM     77  C   UNL A   1      33.938  25.702  24.224  1.00  0.00     0.224 C 
ATOM     78  H   UNL A   1      34.466  23.937  23.504  1.00  0.00     0.163 HD
ATOM     79  O   UNL A   1      33.273  25.887  23.197  1.00  0.00    -0.275 OA
BRANCH  77  80
ATOM     80  C   UNL A   1      33.751  26.635  25.407  1.00  0.00     0.098 C 
ATOM     81  C   UNL A   1      32.607  26.423  26.460  1.00  0.00     0.099 C 
ATOM     82  C   UNL A   1      33.911  28.171  25.384  1.00  0.00     0.025 C 
ATOM     83  C   UNL A   1      32.360  27.872  26.983  1.00  0.00     0.025 C 
ATOM     84  C   UNL A   1      32.655  28.869  24.934  1.00  0.00    -0.027 C 
ATOM     85  C   UNL A   1      33.773  28.463  26.896  1.00  0.00     0.017 C 
ATOM     86  C   UNL A   1      31.743  28.723  25.906  1.00  0.00    -0.027 C 
BRANCH  81  87
ATOM     87  C   UNL A   1      31.321  25.572  26.437  1.00  0.00     0.229 C 
ATOM     88  O   UNL A   1      30.237  26.179  26.512  1.00  0.00    -0.274 OA
ATOM     89  N   UNL A   1      31.202  24.264  26.074  1.00  0.00    -0.323 N 
ATOM     90  H   UNL A   1      30.301  24.035  25.752  1.00  0.00     0.170 HD
BRANCH  89  91
ATOM     91  C   UNL A   1      32.078  23.178  26.058  1.00  0.00     0.084 A 
ATOM     92  C   UNL A   1      32.801  22.912  27.231  1.00  0.00     0.030 A 
ATOM     93  C   UNL A   1      32.304  22.376  24.948  1.00  0.00     0.149 A 
ATOM     94  C   UNL A   1      33.559  21.743  27.354  1.00  0.00     0.002 A 
ATOM     95  C   UNL A   1      33.001  21.175  25.096  1.00  0.00     0.049 A 
ATOM     96  C   UNL A   1      33.614  20.843  26.299  1.00  0.00     0.004 A 
BRANCH  93  97
ATOM     97  O   UNL A   1      31.942  22.693  23.675  1.00  0.00    -0.433 OA
BRANCH  97  98
ATOM     98  C   UNL A   1      32.672  22.032  22.632  1.00  0.00     0.542 C 
ATOM     99  F   UNL A   1      31.862  21.217  21.924  1.00  0.00    -0.167 F 
ATOM    100  F   UNL A   1      33.210  22.933  21.775  1.00  0.00    -0.167 F 
ENDBRANCH  97  98
ENDBRANCH  93  97
ENDBRANCH  89  91
ENDBRANCH  81  87
ENDBRANCH  77  80
ENDBRANCH  75  76
ENDBRANCH  74  75
ENDBRANCH   1  74
TORSDOF 17
ENDMDL
MODEL 3
REMARK VINA RESULT:     -12.2      1.043      1.801
REMARK SMILES O=C(NCCCCCCNC(=O)[C@@H]1[C@H](C(=O)Nc2ccccc2OC(F)F)[C@@H]2C=C[C@H]1C2)c1ccc(-c2c3nc(c(-c4c(F)c(F)c(F)c(F)c4F)c4ccc([nH]4)c(-c4c(F)c(F)c(F)c(F)c4F)c4nc(c(-c5c(F)c(F)c(F)c(F)c5F)c5ccc2[nH]5)C=C4)C=C3)cc1
REMARK SMILES IDX 7 1 6 2 5 3 4 4 3 5 1 6 2 7 33 9 34 10 95 11 35 12 94 13
REMARK SMILES IDX 36 14 37 15 38 16 88 17 39 18 93 19 87 20 89 21 40 22 92 23
REMARK SMILES IDX 86 24 85 25 41 27 73 28 53 29 72 30 54 31 57 32 71 33 90 34
REMARK SMILES IDX 55 35 56 36 70 38 91 39 58 40 42 41 43 42 51 43 44 44 45 45
REMARK SMILES IDX 49 46 52 47 46 48 47 49 50 50 48 51 74 52 75 53 83 54 76 55
REMARK SMILES IDX 77 56 81 57 84 58 78 59 79 60 82 61 80 62 59 63 60 64 68 65
REMARK SMILES IDX 61 66 62 67 66 68 69 69 63 70 64 71 67 72 65 73 8 74 9 75
REMARK SMILES IDX 10 76 11 77 12 79 13 80 14 81 31 82 28 83 30 84 32 85 29 86
REMARK SMILES IDX 15 87 16 88 17 89 18 91 19 92 23 93 20 94 22 95 21 96 24 97
REMARK SMILES IDX 25 98 26 99 27 100
REMARK H PARENT 3 8 89 26 57 37 10 78 17 90
REMARK Flexibility Score: inf
ROOT
ATOM      1  C   UNL A   1      32.220  29.740  27.029  1.00  0.00     0.002 C 
ENDROOT
BRANCH   1   2
ATOM      2  C   UNL A   1      31.424  30.644  26.083  1.00  0.00     0.002 C 
BRANCH   2   3
ATOM      3  C   UNL A   1      31.263  32.107  26.489  1.00  0.00     0.021 C 
BRANCH   3   4
ATOM      4  C   UNL A   1      32.512  32.743  27.079  1.00  0.00     0.116 C 
BRANCH   4   5
ATOM      5  N   UNL A   1      32.292  34.072  27.626  1.00  0.00    -0.352 N 
ATOM      6  O   UNL A   1      32.649  35.820  29.019  1.00  0.00    -0.269 OA
ATOM      7  C   UNL A   1      33.013  34.725  28.599  1.00  0.00     0.251 C 
ATOM      8  H   UNL A   1      31.529  34.569  27.252  1.00  0.00     0.163 HD
BRANCH   7   9
ATOM      9  C   UNL A   1      34.218  34.079  29.166  1.00  0.00     0.039 A 
ATOM     10  C   UNL A   1      34.092  33.039  30.087  1.00  0.00     0.014 A 
ATOM     11  C   UNL A   1      35.487  34.535  28.793  1.00  0.00     0.014 A 
ATOM     12  C   UNL A   1      35.216  32.569  30.752  1.00  0.00     0.010 A 
ATOM     13  C   UNL A   1      36.628  33.983  29.385  1.00  0.00     0.010 A 
ATOM     14  C   UNL A   1      36.499  33.013  30.389  1.00  0.00    -0.014 A 
BRANCH  14  15
ATOM     15  C   UNL A   1      37.674  32.360  31.021  1.00  0.00     0.031 A 
ATOM     16  C   UNL A   1      38.114  32.701  32.417  1.00  0.00     0.074 A 
ATOM     17  C   UNL A   1      38.306  31.394  30.325  1.00  0.00     0.049 A 
ATOM     18  N   UNL A   1      39.079  32.169  33.126  1.00  0.00    -0.248 NA
ATOM     19  C   UNL A   1      37.387  33.776  33.107  1.00  0.00     0.031 C 
ATOM     20  C   UNL A   1      37.977  31.000  28.952  1.00  0.00     0.029 A 
ATOM     21  N   UNL A   1      39.324  30.547  30.676  1.00  0.00    -0.354 N 
ATOM     22  C   UNL A   1      39.082  32.848  34.338  1.00  0.00     0.074 A 
ATOM     23  C   UNL A   1      38.041  33.852  34.259  1.00  0.00     0.031 C 
ATOM     24  C   UNL A   1      38.730  29.949  28.601  1.00  0.00     0.029 A 
ATOM     25  C   UNL A   1      39.646  29.644  29.691  1.00  0.00     0.049 A 
ATOM     26  H   UNL A   1      39.780  30.581  31.547  1.00  0.00     0.167 HD
ATOM     27  C   UNL A   1      39.876  32.640  35.417  1.00  0.00     0.037 A 
ATOM     28  C   UNL A   1      40.590  28.687  29.660  1.00  0.00     0.037 A 
ATOM     29  C   UNL A   1      40.908  31.634  35.484  1.00  0.00     0.049 A 
ATOM     30  C   UNL A   1      41.460  28.493  30.866  1.00  0.00     0.074 A 
ATOM     31  C   UNL A   1      41.761  31.340  36.534  1.00  0.00     0.029 A 
ATOM     32  N   UNL A   1      41.228  30.757  34.456  1.00  0.00    -0.354 N 
ATOM     33  N   UNL A   1      41.435  29.127  32.014  1.00  0.00    -0.248 NA
ATOM     34  C   UNL A   1      42.492  27.453  30.775  1.00  0.00     0.031 C 
ATOM     35  C   UNL A   1      42.623  30.315  36.127  1.00  0.00     0.029 A 
ATOM     36  C   UNL A   1      42.275  29.934  34.843  1.00  0.00     0.049 A 
ATOM     37  H   UNL A   1      40.778  30.725  33.581  1.00  0.00     0.167 HD
ATOM     38  C   UNL A   1      42.441  28.561  32.782  1.00  0.00     0.074 A 
ATOM     39  C   UNL A   1      43.029  27.504  31.984  1.00  0.00     0.031 C 
ATOM     40  C   UNL A   1      42.852  28.894  34.030  1.00  0.00     0.037 A 
BRANCH  27  41
ATOM     41  C   UNL A   1      39.672  33.516  36.620  1.00  0.00     0.064 A 
ATOM     42  C   UNL A   1      40.279  34.778  36.721  1.00  0.00     0.173 A 
ATOM     43  C   UNL A   1      38.801  33.125  37.649  1.00  0.00     0.173 A 
ATOM     44  F   UNL A   1      41.129  35.196  35.771  1.00  0.00    -0.203 F 
ATOM     45  C   UNL A   1      40.031  35.608  37.812  1.00  0.00     0.198 A 
ATOM     46  C   UNL A   1      38.535  33.969  38.725  1.00  0.00     0.198 A 
ATOM     47  F   UNL A   1      38.189  31.933  37.601  1.00  0.00    -0.203 F 
ATOM     48  F   UNL A   1      40.647  36.795  37.901  1.00  0.00    -0.200 F 
ATOM     49  C   UNL A   1      39.153  35.208  38.808  1.00  0.00     0.200 A 
ATOM     50  F   UNL A   1      37.675  33.586  39.679  1.00  0.00    -0.200 F 
ATOM     51  F   UNL A   1      38.902  36.015  39.848  1.00  0.00    -0.200 F 
ENDBRANCH  27  41
BRANCH  28  52
ATOM     52  C   UNL A   1      40.771  27.863  28.437  1.00  0.00     0.064 A 
ATOM     53  C   UNL A   1      41.599  28.286  27.389  1.00  0.00     0.173 A 
ATOM     54  C   UNL A   1      40.112  26.631  28.290  1.00  0.00     0.173 A 
ATOM     55  F   UNL A   1      42.238  29.461  27.472  1.00  0.00    -0.203 F 
ATOM     56  C   UNL A   1      41.741  27.522  26.232  1.00  0.00     0.198 A 
ATOM     57  C   UNL A   1      40.285  25.852  27.151  1.00  0.00     0.198 A 
ATOM     58  F   UNL A   1      39.314  26.176  29.268  1.00  0.00    -0.203 F 
ATOM     59  F   UNL A   1      42.497  27.975  25.222  1.00  0.00    -0.200 F 
ATOM     60  C   UNL A   1      41.090  26.303  26.117  1.00  0.00     0.200 A 
ATOM     61  F   UNL A   1      39.671  24.664  27.055  1.00  0.00    -0.200 F 
ATOM     62  F   UNL A   1      41.232  25.566  25.007  1.00  0.00    -0.200 F 
ENDBRANCH  28  52
BRANCH  40  63
ATOM     63  C   UNL A   1      43.983  28.090  34.602  1.00  0.00     0.064 A 
ATOM     64  C   UNL A   1      45.320  28.487  34.439  1.00  0.00     0.173 A 
ATOM     65  C   UNL A   1      43.729  26.907  35.311  1.00  0.00     0.173 A 
ATOM     66  F   UNL A   1      45.615  29.601  33.752  1.00  0.00    -0.203 F 
ATOM     67  C   UNL A   1      46.362  27.706  34.931  1.00  0.00     0.198 A 
ATOM     68  C   UNL A   1      44.773  26.147  35.830  1.00  0.00     0.198 A 
ATOM     69  F   UNL A   1      42.469  26.488  35.498  1.00  0.00    -0.203 F 
ATOM     70  F   UNL A   1      47.632  28.069  34.704  1.00  0.00    -0.200 F 
ATOM     71  C   UNL A   1      46.087  26.539  35.628  1.00  0.00     0.200 A 
ATOM     72  F   UNL A   1      44.506  25.025  36.514  1.00  0.00    -0.200 F 
ATOM     73  F   UNL A   1      47.092  25.785  36.096  1.00  0.00    -0.200 F 
ENDBRANCH  40  63
ENDBRANCH  14  15
ENDBRANCH   7   9
ENDBRANCH   4   5
ENDBRANCH   3   4
ENDBRANCH   2   3
ENDBRANCH   1   2
BRANCH   1  74
ATOM     74  C   UNL A   1      31.778  28.277  27.188  1.00  0.00     0.021 C 
BRANCH  74  75
ATOM     75  C   UNL A   1      32.679  27.196  26.579  1.00  0.00     0.116 C 
BRANCH  75  76
ATOM     76  N   UNL A   1      32.010  25.921  26.441  1.00  0.00    -0.356 N 
ATOM     77  C   UNL A   1      32.480  24.675  26.164  1.00  0.00     0.224 C 
ATOM     78  H   UNL A   1      31.035  25.962  26.571  1.00  0.00     0.163 HD
ATOM     79  O   UNL A   1      31.665  23.758  26.323  1.00  0.00    -0.275 OA
BRANCH  77  80
ATOM     80  C   UNL A   1      33.827  24.369  25.535  1.00  0.00     0.098 C 
ATOM     81  C   UNL A   1      33.977  24.050  24.005  1.00  0.00     0.099 C 
ATOM     82  C   UNL A   1      34.954  23.525  26.170  1.00  0.00     0.025 C 
ATOM     83  C   UNL A   1      35.256  23.158  23.972  1.00  0.00     0.025 C 
ATOM     84  C   UNL A   1      34.768  22.050  25.926  1.00  0.00    -0.027 C 
ATOM     85  C   UNL A   1      36.069  23.762  25.125  1.00  0.00     0.017 C 
ATOM     86  C   UNL A   1      34.987  21.827  24.622  1.00  0.00    -0.027 C 
BRANCH  81  87
ATOM     87  C   UNL A   1      32.951  23.659  22.923  1.00  0.00     0.229 C 
ATOM     88  O   UNL A   1      33.129  22.575  22.338  1.00  0.00    -0.274 OA
ATOM     89  N   UNL A   1      31.726  24.213  22.707  1.00  0.00    -0.323 N 
ATOM     90  H   UNL A   1      31.097  23.595  22.268  1.00  0.00     0.170 HD
BRANCH  89  91
ATOM     91  C   UNL A   1      31.165  25.464  22.971  1.00  0.00     0.084 A 
ATOM     92  C   UNL A   1      29.903  25.490  23.582  1.00  0.00     0.030 A 
ATOM     93  C   UNL A   1      31.760  26.670  22.631  1.00  0.00     0.149 A 
ATOM     94  C   UNL A   1      29.355  26.693  24.040  1.00  0.00     0.002 A 
ATOM     95  C   UNL A   1      31.248  27.861  23.153  1.00  0.00     0.049 A 
ATOM     96  C   UNL A   1      30.059  27.878  23.873  1.00  0.00     0.004 A 
BRANCH  93  97
ATOM     97  O   UNL A   1      32.799  26.807  21.765  1.00  0.00    -0.433 OA
BRANCH  97  98
ATOM     98  C   UNL A   1      34.024  27.303  22.325  1.00  0.00     0.542 C 
ATOM     99  F   UNL A   1      34.244  28.577  21.941  1.00  0.00    -0.167 F 
ATOM    100  F   UNL A   1      33.979  27.276  23.679  1.00  0.00    -0.167 F 
ENDBRANCH  97  98
ENDBRANCH  93  97
ENDBRANCH  89  91
ENDBRANCH  81  87
ENDBRANCH  77  80
ENDBRANCH  75  76
ENDBRANCH  74  75
ENDBRANCH   1  74
TORSDOF 17
ENDMDL
