MODEL 1
REMARK VINA RESULT:     -12.3      0.000      0.000
REMARK SMILES COc1ccc([C@H]2CC(c3ccc(S(C)(=O)=O)cc3)=NN2c2ccc(C(=O)NCCCCCCNC(=O)c3ccc(-c4c5nc(c(-c6c(F)c(F)c(F)c(F)c6F)c6ccc([nH]6)c(-c6c(F)c(F)c(F)c(F)c6F)c6nc(c(-c7c(F)c(F)c(F)c(F)c7F)c7ccc4[nH]7)C=C6)C=C5)cc3)cc2)cc1OC
REMARK SMILES IDX 31 1 30 2 29 3 28 4 26 5 27 6 25 8 22 9 23 10 102 11 24 12
REMARK SMILES IDX 101 13 21 14 7 15 8 16 9 17 20 18 6 19 3 20 4 21 104 22 5 23
REMARK SMILES IDX 103 24 2 25 1 26 105 27 106 28 10 29 11 30 19 31 12 32 18 33
REMARK SMILES IDX 13 34 14 35 15 36 16 37 17 38 32 39 33 40 34 41 35 42 36 43
REMARK SMILES IDX 37 45 38 46 39 47 100 48 40 49 99 50 41 51 42 52 43 53 93 54
REMARK SMILES IDX 44 55 98 56 92 57 94 58 45 59 97 60 91 61 90 62 46 64 78 65
REMARK SMILES IDX 58 66 77 67 59 68 62 69 76 70 95 71 60 72 61 73 75 75 96 76
REMARK SMILES IDX 63 77 47 78 48 79 56 80 49 81 50 82 54 83 57 84 51 85 52 86
REMARK SMILES IDX 55 87 53 88 79 89 80 90 88 91 81 92 82 93 86 94 89 95 83 96
REMARK SMILES IDX 84 97 87 98 85 99 64 100 65 101 73 102 66 103 67 104 71 105
REMARK SMILES IDX 74 106 68 107 69 108 72 109 70 110
REMARK H PARENT 28 7 35 44 94 63 62 74
REMARK Flexibility Score: inf
ROOT
ATOM      1  C   UNL A   1      41.318  25.436  28.005  1.00  0.00     0.002 C 
ENDROOT
BRANCH   1   2
ATOM      2  C   UNL A   1      39.789  25.442  28.156  1.00  0.00     0.021 C 
BRANCH   2   3
ATOM      3  C   UNL A   1      39.058  25.108  26.853  1.00  0.00     0.116 C 
BRANCH   3   4
ATOM      4  N   UNL A   1      39.284  23.720  26.510  1.00  0.00    -0.352 N 
ATOM      5  C   UNL A   1      38.513  22.791  25.863  1.00  0.00     0.251 C 
ATOM      6  O   UNL A   1      38.971  21.652  25.759  1.00  0.00    -0.269 OA
ATOM      7  H   UNL A   1      40.161  23.377  26.797  1.00  0.00     0.163 HD
BRANCH   5   8
ATOM      8  C   UNL A   1      37.202  23.109  25.234  1.00  0.00     0.039 A 
ATOM      9  C   UNL A   1      34.606  23.654  24.257  1.00  0.00     0.060 A 
ATOM     10  C   UNL A   1      34.921  23.844  25.607  1.00  0.00     0.029 A 
ATOM     11  C   UNL A   1      35.622  23.249  23.392  1.00  0.00     0.029 A 
ATOM     12  C   UNL A   1      36.193  23.553  26.097  1.00  0.00     0.016 A 
ATOM     13  C   UNL A   1      36.920  23.023  23.869  1.00  0.00     0.016 A 
BRANCH   9  14
ATOM     14  N   UNL A   1      33.316  23.895  23.825  1.00  0.00    -0.257 N 
ATOM     15  C   UNL A   1      32.536  23.042  22.924  1.00  0.00     0.144 C 
ATOM     16  C   UNL A   1      31.196  23.797  22.867  1.00  0.00     0.091 C 
ATOM     17  C   UNL A   1      31.661  25.136  23.375  1.00  0.00     0.071 C 
ATOM     18  N   UNL A   1      32.826  25.153  23.938  1.00  0.00    -0.176 NA
BRANCH  15  19
ATOM     19  C   UNL A   1      32.440  21.614  23.433  1.00  0.00    -0.019 A 
ATOM     20  C   UNL A   1      32.571  18.939  24.328  1.00  0.00     0.160 A 
ATOM     21  C   UNL A   1      32.231  19.232  23.000  1.00  0.00     0.051 A 
ATOM     22  C   UNL A   1      32.824  19.978  25.229  1.00  0.00     0.161 A 
ATOM     23  C   UNL A   1      32.161  20.557  22.556  1.00  0.00     0.010 A 
ATOM     24  C   UNL A   1      32.736  21.302  24.772  1.00  0.00     0.056 A 
BRANCH  20  25
ATOM     25  O   UNL A   1      32.779  17.631  24.676  1.00  0.00    -0.493 OA
ATOM     26  C   UNL A   1      33.550  16.925  23.706  1.00  0.00     0.278 C 
ENDBRANCH  20  25
BRANCH  22  27
ATOM     27  O   UNL A   1      33.190  19.903  26.545  1.00  0.00    -0.493 OA
ATOM     28  C   UNL A   1      33.531  21.098  27.229  1.00  0.00     0.278 C 
ENDBRANCH  22  27
ENDBRANCH  15  19
BRANCH  17  29
ATOM     29  C   UNL A   1      30.866  26.360  23.233  1.00  0.00    -0.002 A 
ATOM     30  C   UNL A   1      29.539  26.328  23.679  1.00  0.00     0.011 A 
ATOM     31  C   UNL A   1      31.383  27.490  22.598  1.00  0.00     0.011 A 
ATOM     32  C   UNL A   1      28.718  27.438  23.500  1.00  0.00     0.021 A 
ATOM     33  C   UNL A   1      30.552  28.595  22.392  1.00  0.00     0.021 A 
ATOM     34  C   UNL A   1      29.224  28.559  22.838  1.00  0.00     0.067 A 
BRANCH  34  35
ATOM     35  S   UNL A   1      28.153  29.954  22.574  1.00  0.00     0.175 S 
ATOM     36  C   UNL A   1      28.934  31.281  23.459  1.00  0.00     0.163 C 
ATOM     37  O   UNL A   1      28.209  30.255  21.154  1.00  0.00    -0.224 OA
ATOM     38  O   UNL A   1      26.893  29.672  23.228  1.00  0.00    -0.224 OA
ENDBRANCH  34  35
ENDBRANCH  17  29
ENDBRANCH   9  14
ENDBRANCH   5   8
ENDBRANCH   3   4
ENDBRANCH   2   3
ENDBRANCH   1   2
BRANCH   1  39
ATOM     39  C   UNL A   1      42.009  24.179  28.547  1.00  0.00     0.002 C 
BRANCH  39  40
ATOM     40  C   UNL A   1      42.458  23.180  27.478  1.00  0.00     0.021 C 
BRANCH  40  41
ATOM     41  C   UNL A   1      43.946  22.849  27.517  1.00  0.00     0.116 C 
BRANCH  41  42
ATOM     42  N   UNL A   1      44.550  22.929  26.196  1.00  0.00    -0.352 N 
ATOM     43  C   UNL A   1      44.777  24.034  25.416  1.00  0.00     0.251 C 
ATOM     44  H   UNL A   1      44.834  22.070  25.808  1.00  0.00     0.163 HD
ATOM     45  O   UNL A   1      45.095  23.910  24.239  1.00  0.00    -0.269 OA
BRANCH  43  46
ATOM     46  C   UNL A   1      44.628  25.383  25.999  1.00  0.00     0.039 A 
ATOM     47  C   UNL A   1      45.292  25.684  27.191  1.00  0.00     0.014 A 
ATOM     48  C   UNL A   1      43.818  26.340  25.380  1.00  0.00     0.014 A 
ATOM     49  C   UNL A   1      45.181  26.963  27.740  1.00  0.00     0.010 A 
ATOM     50  C   UNL A   1      43.760  27.631  25.893  1.00  0.00     0.010 A 
ATOM     51  C   UNL A   1      44.432  27.952  27.083  1.00  0.00    -0.014 A 
BRANCH  51  52
ATOM     52  C   UNL A   1      44.319  29.324  27.632  1.00  0.00     0.031 A 
ATOM     53  C   UNL A   1      45.447  30.299  27.452  1.00  0.00     0.074 A 
ATOM     54  C   UNL A   1      43.235  29.668  28.352  1.00  0.00     0.049 A 
ATOM     55  N   UNL A   1      45.575  31.515  27.919  1.00  0.00    -0.248 NA
ATOM     56  C   UNL A   1      46.599  29.833  26.665  1.00  0.00     0.031 C 
ATOM     57  C   UNL A   1      42.093  28.796  28.628  1.00  0.00     0.029 A 
ATOM     58  N   UNL A   1      42.922  30.841  28.990  1.00  0.00    -0.354 N 
ATOM     59  C   UNL A   1      46.828  31.948  27.505  1.00  0.00     0.074 A 
ATOM     60  C   UNL A   1      47.440  30.849  26.789  1.00  0.00     0.031 C 
ATOM     61  C   UNL A   1      41.191  29.473  29.356  1.00  0.00     0.029 A 
ATOM     62  C   UNL A   1      41.707  30.812  29.627  1.00  0.00     0.049 A 
ATOM     63  H   UNL A   1      43.513  31.628  28.992  1.00  0.00     0.167 HD
ATOM     64  C   UNL A   1      47.407  33.158  27.690  1.00  0.00     0.037 A 
ATOM     65  C   UNL A   1      41.081  31.760  30.350  1.00  0.00     0.037 A 
ATOM     66  C   UNL A   1      46.779  34.259  28.371  1.00  0.00     0.049 A 
ATOM     67  C   UNL A   1      41.745  33.096  30.541  1.00  0.00     0.074 A 
ATOM     68  C   UNL A   1      47.246  35.551  28.540  1.00  0.00     0.029 A 
ATOM     69  N   UNL A   1      45.544  34.195  29.000  1.00  0.00    -0.354 N 
ATOM     70  N   UNL A   1      42.899  33.519  30.089  1.00  0.00    -0.248 NA
ATOM     71  C   UNL A   1      41.014  34.087  31.344  1.00  0.00     0.031 C 
ATOM     72  C   UNL A   1      46.313  36.255  29.309  1.00  0.00     0.029 A 
ATOM     73  C   UNL A   1      45.243  35.416  29.579  1.00  0.00     0.049 A 
ATOM     74  H   UNL A   1      44.965  33.398  29.027  1.00  0.00     0.167 HD
ATOM     75  C   UNL A   1      43.023  34.831  30.523  1.00  0.00     0.074 A 
ATOM     76  C   UNL A   1      41.820  35.137  31.271  1.00  0.00     0.031 C 
ATOM     77  C   UNL A   1      44.038  35.705  30.316  1.00  0.00     0.037 A 
BRANCH  64  78
ATOM     78  C   UNL A   1      48.796  33.346  27.151  1.00  0.00     0.064 A 
ATOM     79  C   UNL A   1      49.035  34.029  25.948  1.00  0.00     0.173 A 
ATOM     80  C   UNL A   1      49.902  32.843  27.850  1.00  0.00     0.173 A 
ATOM     81  F   UNL A   1      48.010  34.518  25.234  1.00  0.00    -0.203 F 
ATOM     82  C   UNL A   1      50.327  34.163  25.445  1.00  0.00     0.198 A 
ATOM     83  C   UNL A   1      51.195  33.006  27.360  1.00  0.00     0.198 A 
ATOM     84  F   UNL A   1      49.731  32.188  29.009  1.00  0.00    -0.203 F 
ATOM     85  F   UNL A   1      50.525  34.765  24.264  1.00  0.00    -0.200 F 
ATOM     86  C   UNL A   1      51.406  33.656  26.154  1.00  0.00     0.200 A 
ATOM     87  F   UNL A   1      52.239  32.525  28.051  1.00  0.00    -0.200 F 
ATOM     88  F   UNL A   1      52.648  33.784  25.667  1.00  0.00    -0.200 F 
ENDBRANCH  64  78
BRANCH  65  89
ATOM     89  C   UNL A   1      39.729  31.492  30.903  1.00  0.00     0.064 A 
ATOM     90  C   UNL A   1      39.582  30.850  32.140  1.00  0.00     0.173 A 
ATOM     91  C   UNL A   1      38.567  31.887  30.226  1.00  0.00     0.173 A 
ATOM     92  F   UNL A   1      40.666  30.438  32.813  1.00  0.00    -0.203 F 
ATOM     93  C   UNL A   1      38.321  30.604  32.676  1.00  0.00     0.198 A 
ATOM     94  C   UNL A   1      37.306  31.661  30.774  1.00  0.00     0.198 A 
ATOM     95  F   UNL A   1      38.657  32.509  29.042  1.00  0.00    -0.203 F 
ATOM     96  F   UNL A   1      38.206  29.962  33.847  1.00  0.00    -0.200 F 
ATOM     97  C   UNL A   1      37.183  31.016  31.996  1.00  0.00     0.200 A 
ATOM     98  F   UNL A   1      36.211  32.071  30.121  1.00  0.00    -0.200 F 
ATOM     99  F   UNL A   1      35.970  30.788  32.517  1.00  0.00    -0.200 F 
ENDBRANCH  65  89
BRANCH  77 100
ATOM    100  C   UNL A   1      43.880  37.087  30.878  1.00  0.00     0.064 A 
ATOM    101  C   UNL A   1      43.499  38.169  30.071  1.00  0.00     0.173 A 
ATOM    102  C   UNL A   1      44.070  37.320  32.248  1.00  0.00     0.173 A 
ATOM    103  F   UNL A   1      43.321  37.998  28.753  1.00  0.00    -0.203 F 
ATOM    104  C   UNL A   1      43.335  39.441  30.613  1.00  0.00     0.198 A 
ATOM    105  C   UNL A   1      43.879  38.588  32.791  1.00  0.00     0.198 A 
ATOM    106  F   UNL A   1      44.430  36.317  33.062  1.00  0.00    -0.203 F 
ATOM    107  F   UNL A   1      43.013  40.470  29.818  1.00  0.00    -0.200 F 
ATOM    108  C   UNL A   1      43.518  39.647  31.973  1.00  0.00     0.200 A 
ATOM    109  F   UNL A   1      44.046  38.783  34.107  1.00  0.00    -0.200 F 
ATOM    110  F   UNL A   1      43.353  40.871  32.494  1.00  0.00    -0.200 F 
ENDBRANCH  77 100
ENDBRANCH  51  52
ENDBRANCH  43  46
ENDBRANCH  41  42
ENDBRANCH  40  41
ENDBRANCH  39  40
ENDBRANCH   1  39
TORSDOF 19
ENDMDL
MODEL 2
REMARK VINA RESULT:     -12.0      3.204      6.109
REMARK SMILES COc1ccc([C@H]2CC(c3ccc(S(C)(=O)=O)cc3)=NN2c2ccc(C(=O)NCCCCCCNC(=O)c3ccc(-c4c5nc(c(-c6c(F)c(F)c(F)c(F)c6F)c6ccc([nH]6)c(-c6c(F)c(F)c(F)c(F)c6F)c6nc(c(-c7c(F)c(F)c(F)c(F)c7F)c7ccc4[nH]7)C=C6)C=C5)cc3)cc2)cc1OC
REMARK SMILES IDX 31 1 30 2 29 3 28 4 26 5 27 6 25 8 22 9 23 10 102 11 24 12
REMARK SMILES IDX 101 13 21 14 7 15 8 16 9 17 20 18 6 19 3 20 4 21 104 22 5 23
REMARK SMILES IDX 103 24 2 25 1 26 105 27 106 28 10 29 11 30 19 31 12 32 18 33
REMARK SMILES IDX 13 34 14 35 15 36 16 37 17 38 32 39 33 40 34 41 35 42 36 43
REMARK SMILES IDX 37 45 38 46 39 47 100 48 40 49 99 50 41 51 42 52 43 53 93 54
REMARK SMILES IDX 44 55 98 56 92 57 94 58 45 59 97 60 91 61 90 62 46 64 78 65
REMARK SMILES IDX 58 66 77 67 59 68 62 69 76 70 95 71 60 72 61 73 75 75 96 76
REMARK SMILES IDX 63 77 47 78 48 79 56 80 49 81 50 82 54 83 57 84 51 85 52 86
REMARK SMILES IDX 55 87 53 88 79 89 80 90 88 91 81 92 82 93 86 94 89 95 83 96
REMARK SMILES IDX 84 97 87 98 85 99 64 100 65 101 73 102 66 103 67 104 71 105
REMARK SMILES IDX 74 106 68 107 69 108 72 109 70 110
REMARK H PARENT 28 7 35 44 94 63 62 74
REMARK Flexibility Score: inf
ROOT
ATOM      1  C   UNL A   1      41.776  25.923  27.115  1.00  0.00     0.002 C 
ENDROOT
BRANCH   1   2
ATOM      2  C   UNL A   1      40.247  25.893  27.258  1.00  0.00     0.021 C 
BRANCH   2   3
ATOM      3  C   UNL A   1      39.546  25.259  26.054  1.00  0.00     0.116 C 
BRANCH   3   4
ATOM      4  N   UNL A   1      39.550  23.818  26.192  1.00  0.00    -0.352 N 
ATOM      5  C   UNL A   1      38.604  22.862  25.935  1.00  0.00     0.251 C 
ATOM      6  O   UNL A   1      38.893  21.696  26.202  1.00  0.00    -0.269 OA
ATOM      7  H   UNL A   1      40.397  23.454  26.537  1.00  0.00     0.163 HD
BRANCH   5   8
ATOM      8  C   UNL A   1      37.291  23.160  25.298  1.00  0.00     0.039 A 
ATOM      9  C   UNL A   1      34.694  23.678  24.310  1.00  0.00     0.060 A 
ATOM     10  C   UNL A   1      35.020  23.938  25.645  1.00  0.00     0.029 A 
ATOM     11  C   UNL A   1      35.699  23.214  23.461  1.00  0.00     0.029 A 
ATOM     12  C   UNL A   1      36.293  23.661  26.142  1.00  0.00     0.016 A 
ATOM     13  C   UNL A   1      36.998  23.000  23.942  1.00  0.00     0.016 A 
BRANCH   9  14
ATOM     14  N   UNL A   1      33.404  23.908  23.874  1.00  0.00    -0.257 N 
ATOM     15  C   UNL A   1      32.629  23.044  22.980  1.00  0.00     0.144 C 
ATOM     16  C   UNL A   1      31.286  23.791  22.913  1.00  0.00     0.091 C 
ATOM     17  C   UNL A   1      31.743  25.137  23.410  1.00  0.00     0.071 C 
ATOM     18  N   UNL A   1      32.908  25.165  23.974  1.00  0.00    -0.176 NA
BRANCH  15  19
ATOM     19  C   UNL A   1      32.539  21.620  23.501  1.00  0.00    -0.019 A 
ATOM     20  C   UNL A   1      32.678  18.950  24.410  1.00  0.00     0.160 A 
ATOM     21  C   UNL A   1      32.292  19.237  23.093  1.00  0.00     0.051 A 
ATOM     22  C   UNL A   1      32.975  19.993  25.293  1.00  0.00     0.161 A 
ATOM     23  C   UNL A   1      32.217  20.560  22.643  1.00  0.00     0.010 A 
ATOM     24  C   UNL A   1      32.882  21.314  24.830  1.00  0.00     0.056 A 
BRANCH  20  25
ATOM     25  O   UNL A   1      32.888  17.642  24.759  1.00  0.00    -0.493 OA
ATOM     26  C   UNL A   1      33.482  16.885  23.706  1.00  0.00     0.278 C 
ENDBRANCH  20  25
BRANCH  22  27
ATOM     27  O   UNL A   1      33.389  19.922  26.595  1.00  0.00    -0.493 OA
ATOM     28  C   UNL A   1      33.572  21.129  27.320  1.00  0.00     0.278 C 
ENDBRANCH  22  27
ENDBRANCH  15  19
BRANCH  17  29
ATOM     29  C   UNL A   1      30.943  26.356  23.255  1.00  0.00    -0.002 A 
ATOM     30  C   UNL A   1      29.630  26.337  23.741  1.00  0.00     0.011 A 
ATOM     31  C   UNL A   1      31.439  27.468  22.572  1.00  0.00     0.011 A 
ATOM     32  C   UNL A   1      28.802  27.440  23.553  1.00  0.00     0.021 A 
ATOM     33  C   UNL A   1      30.601  28.566  22.358  1.00  0.00     0.021 A 
ATOM     34  C   UNL A   1      29.286  28.542  22.844  1.00  0.00     0.067 A 
BRANCH  34  35
ATOM     35  S   UNL A   1      28.207  29.928  22.571  1.00  0.00     0.175 S 
ATOM     36  C   UNL A   1      29.013  31.282  23.388  1.00  0.00     0.163 C 
ATOM     37  O   UNL A   1      28.217  30.184  21.140  1.00  0.00    -0.224 OA
ATOM     38  O   UNL A   1      26.968  29.667  23.273  1.00  0.00    -0.224 OA
ENDBRANCH  34  35
ENDBRANCH  17  29
ENDBRANCH   9  14
ENDBRANCH   5   8
ENDBRANCH   3   4
ENDBRANCH   2   3
ENDBRANCH   1   2
BRANCH   1  39
ATOM     39  C   UNL A   1      42.545  25.514  28.376  1.00  0.00     0.002 C 
BRANCH  39  40
ATOM     40  C   UNL A   1      42.485  24.021  28.711  1.00  0.00     0.021 C 
BRANCH  40  41
ATOM     41  C   UNL A   1      43.839  23.320  28.692  1.00  0.00     0.116 C 
BRANCH  41  42
ATOM     42  N   UNL A   1      44.026  22.546  27.476  1.00  0.00    -0.352 N 
ATOM     43  C   UNL A   1      44.616  22.920  26.296  1.00  0.00     0.251 C 
ATOM     44  H   UNL A   1      43.681  21.624  27.503  1.00  0.00     0.163 HD
ATOM     45  O   UNL A   1      44.501  22.224  25.294  1.00  0.00    -0.269 OA
BRANCH  43  46
ATOM     46  C   UNL A   1      45.389  24.178  26.232  1.00  0.00     0.039 A 
ATOM     47  C   UNL A   1      45.233  25.015  25.124  1.00  0.00     0.014 A 
ATOM     48  C   UNL A   1      46.279  24.519  27.255  1.00  0.00     0.014 A 
ATOM     49  C   UNL A   1      45.937  26.219  25.064  1.00  0.00     0.010 A 
ATOM     50  C   UNL A   1      46.931  25.746  27.224  1.00  0.00     0.010 A 
ATOM     51  C   UNL A   1      46.774  26.603  26.123  1.00  0.00    -0.014 A 
BRANCH  51  52
ATOM     52  C   UNL A   1      47.513  27.888  26.093  1.00  0.00     0.031 A 
ATOM     53  C   UNL A   1      48.990  27.897  25.822  1.00  0.00     0.074 A 
ATOM     54  C   UNL A   1      46.870  29.034  26.381  1.00  0.00     0.049 A 
ATOM     55  N   UNL A   1      49.828  28.902  25.827  1.00  0.00    -0.248 NA
ATOM     56  C   UNL A   1      49.613  26.596  25.533  1.00  0.00     0.031 C 
ATOM     57  C   UNL A   1      45.446  29.149  26.698  1.00  0.00     0.029 A 
ATOM     58  N   UNL A   1      47.334  30.323  26.460  1.00  0.00    -0.354 N 
ATOM     59  C   UNL A   1      51.077  28.353  25.570  1.00  0.00     0.074 A 
ATOM     60  C   UNL A   1      50.895  26.921  25.458  1.00  0.00     0.031 C 
ATOM     61  C   UNL A   1      45.147  30.440  26.911  1.00  0.00     0.029 A 
ATOM     62  C   UNL A   1      46.363  31.238  26.780  1.00  0.00     0.049 A 
ATOM     63  H   UNL A   1      48.274  30.568  26.303  1.00  0.00     0.167 HD
ATOM     64  C   UNL A   1      52.265  28.987  25.422  1.00  0.00     0.037 A 
ATOM     65  C   UNL A   1      46.446  32.571  26.949  1.00  0.00     0.037 A 
ATOM     66  C   UNL A   1      52.434  30.414  25.497  1.00  0.00     0.049 A 
ATOM     67  C   UNL A   1      47.775  33.252  26.779  1.00  0.00     0.074 A 
ATOM     68  C   UNL A   1      53.578  31.162  25.281  1.00  0.00     0.029 A 
ATOM     69  N   UNL A   1      51.425  31.311  25.818  1.00  0.00    -0.354 N 
ATOM     70  N   UNL A   1      48.938  32.733  26.470  1.00  0.00    -0.248 NA
ATOM     71  C   UNL A   1      47.802  34.708  26.983  1.00  0.00     0.031 C 
ATOM     72  C   UNL A   1      53.271  32.507  25.513  1.00  0.00     0.029 A 
ATOM     73  C   UNL A   1      51.925  32.602  25.830  1.00  0.00     0.049 A 
ATOM     74  H   UNL A   1      50.490  31.064  26.008  1.00  0.00     0.167 HD
ATOM     75  C   UNL A   1      49.827  33.796  26.410  1.00  0.00     0.074 A 
ATOM     76  C   UNL A   1      49.067  34.993  26.710  1.00  0.00     0.031 C 
ATOM     77  C   UNL A   1      51.153  33.783  26.126  1.00  0.00     0.037 A 
BRANCH  64  78
ATOM     78  C   UNL A   1      53.474  28.133  25.170  1.00  0.00     0.064 A 
ATOM     79  C   UNL A   1      54.159  27.496  26.218  1.00  0.00     0.173 A 
ATOM     80  C   UNL A   1      53.952  27.946  23.866  1.00  0.00     0.173 A 
ATOM     81  F   UNL A   1      53.751  27.654  27.485  1.00  0.00    -0.203 F 
ATOM     82  C   UNL A   1      55.300  26.737  25.970  1.00  0.00     0.198 A 
ATOM     83  C   UNL A   1      55.075  27.161  23.619  1.00  0.00     0.198 A 
ATOM     84  F   UNL A   1      53.332  28.527  22.827  1.00  0.00    -0.203 F 
ATOM     85  F   UNL A   1      55.972  26.189  26.992  1.00  0.00    -0.200 F 
ATOM     86  C   UNL A   1      55.754  26.566  24.671  1.00  0.00     0.200 A 
ATOM     87  F   UNL A   1      55.507  26.987  22.361  1.00  0.00    -0.200 F 
ATOM     88  F   UNL A   1      56.854  25.837  24.435  1.00  0.00    -0.200 F 
ENDBRANCH  64  78
BRANCH  65  89
ATOM     89  C   UNL A   1      45.219  33.352  27.251  1.00  0.00     0.064 A 
ATOM     90  C   UNL A   1      44.785  33.510  28.574  1.00  0.00     0.173 A 
ATOM     91  C   UNL A   1      44.475  33.971  26.237  1.00  0.00     0.173 A 
ATOM     92  F   UNL A   1      45.455  32.920  29.574  1.00  0.00    -0.203 F 
ATOM     93  C   UNL A   1      43.644  34.251  28.872  1.00  0.00     0.198 A 
ATOM     94  C   UNL A   1      43.347  34.732  26.538  1.00  0.00     0.198 A 
ATOM     95  F   UNL A   1      44.854  33.853  24.957  1.00  0.00    -0.203 F 
ATOM     96  F   UNL A   1      43.232  34.362  30.142  1.00  0.00    -0.200 F 
ATOM     97  C   UNL A   1      42.929  34.867  27.854  1.00  0.00     0.200 A 
ATOM     98  F   UNL A   1      42.666  35.336  25.555  1.00  0.00    -0.200 F 
ATOM     99  F   UNL A   1      41.837  35.588  28.142  1.00  0.00    -0.200 F 
ENDBRANCH  65  89
BRANCH  77 100
ATOM    100  C   UNL A   1      51.861  35.105  26.094  1.00  0.00     0.064 A 
ATOM    101  C   UNL A   1      52.392  35.682  27.258  1.00  0.00     0.173 A 
ATOM    102  C   UNL A   1      52.047  35.779  24.879  1.00  0.00     0.173 A 
ATOM    103  F   UNL A   1      52.226  35.082  28.446  1.00  0.00    -0.203 F 
ATOM    104  C   UNL A   1      53.066  36.900  27.207  1.00  0.00     0.198 A 
ATOM    105  C   UNL A   1      52.745  36.984  24.828  1.00  0.00     0.198 A 
ATOM    106  F   UNL A   1      51.562  35.266  23.739  1.00  0.00    -0.203 F 
ATOM    107  F   UNL A   1      53.528  37.455  28.335  1.00  0.00    -0.200 F 
ATOM    108  C   UNL A   1      53.247  37.545  25.992  1.00  0.00     0.200 A 
ATOM    109  F   UNL A   1      52.928  37.600  23.653  1.00  0.00    -0.200 F 
ATOM    110  F   UNL A   1      53.902  38.713  25.945  1.00  0.00    -0.200 F 
ENDBRANCH  77 100
ENDBRANCH  51  52
ENDBRANCH  43  46
ENDBRANCH  41  42
ENDBRANCH  40  41
ENDBRANCH  39  40
ENDBRANCH   1  39
TORSDOF 19
ENDMDL
MODEL 3
REMARK VINA RESULT:     -11.9      3.315      8.667
REMARK SMILES COc1ccc([C@H]2CC(c3ccc(S(C)(=O)=O)cc3)=NN2c2ccc(C(=O)NCCCCCCNC(=O)c3ccc(-c4c5nc(c(-c6c(F)c(F)c(F)c(F)c6F)c6ccc([nH]6)c(-c6c(F)c(F)c(F)c(F)c6F)c6nc(c(-c7c(F)c(F)c(F)c(F)c7F)c7ccc4[nH]7)C=C6)C=C5)cc3)cc2)cc1OC
REMARK SMILES IDX 31 1 30 2 29 3 28 4 26 5 27 6 25 8 22 9 23 10 102 11 24 12
REMARK SMILES IDX 101 13 21 14 7 15 8 16 9 17 20 18 6 19 3 20 4 21 104 22 5 23
REMARK SMILES IDX 103 24 2 25 1 26 105 27 106 28 10 29 11 30 19 31 12 32 18 33
REMARK SMILES IDX 13 34 14 35 15 36 16 37 17 38 32 39 33 40 34 41 35 42 36 43
REMARK SMILES IDX 37 45 38 46 39 47 100 48 40 49 99 50 41 51 42 52 43 53 93 54
REMARK SMILES IDX 44 55 98 56 92 57 94 58 45 59 97 60 91 61 90 62 46 64 78 65
REMARK SMILES IDX 58 66 77 67 59 68 62 69 76 70 95 71 60 72 61 73 75 75 96 76
REMARK SMILES IDX 63 77 47 78 48 79 56 80 49 81 50 82 54 83 57 84 51 85 52 86
REMARK SMILES IDX 55 87 53 88 79 89 80 90 88 91 81 92 82 93 86 94 89 95 83 96
REMARK SMILES IDX 84 97 87 98 85 99 64 100 65 101 73 102 66 103 67 104 71 105
REMARK SMILES IDX 74 106 68 107 69 108 72 109 70 110
REMARK H PARENT 28 7 35 44 94 63 62 74
REMARK Flexibility Score: inf
ROOT
ATOM      1  C   UNL A   1      41.587  26.115  27.272  1.00  0.00     0.002 C 
ENDROOT
BRANCH   1   2
ATOM      2  C   UNL A   1      40.254  25.478  27.693  1.00  0.00     0.021 C 
BRANCH   2   3
ATOM      3  C   UNL A   1      39.390  25.057  26.501  1.00  0.00     0.116 C 
BRANCH   3   4
ATOM      4  N   UNL A   1      39.425  23.616  26.361  1.00  0.00    -0.352 N 
ATOM      5  C   UNL A   1      38.514  22.712  25.883  1.00  0.00     0.251 C 
ATOM      6  O   UNL A   1      38.821  21.521  25.934  1.00  0.00    -0.269 OA
ATOM      7  H   UNL A   1      40.266  23.207  26.668  1.00  0.00     0.163 HD
BRANCH   5   8
ATOM      8  C   UNL A   1      37.222  23.105  25.255  1.00  0.00     0.039 A 
ATOM      9  C   UNL A   1      34.662  23.809  24.283  1.00  0.00     0.060 A 
ATOM     10  C   UNL A   1      35.010  24.030  25.620  1.00  0.00     0.029 A 
ATOM     11  C   UNL A   1      35.632  23.290  23.425  1.00  0.00     0.029 A 
ATOM     12  C   UNL A   1      36.263  23.662  26.108  1.00  0.00     0.016 A 
ATOM     13  C   UNL A   1      36.916  22.984  23.897  1.00  0.00     0.016 A 
BRANCH   9  14
ATOM     14  N   UNL A   1      33.390  24.131  23.855  1.00  0.00    -0.257 N 
ATOM     15  C   UNL A   1      32.601  23.392  22.866  1.00  0.00     0.144 C 
ATOM     16  C   UNL A   1      31.286  24.192  22.857  1.00  0.00     0.091 C 
ATOM     17  C   UNL A   1      31.782  25.462  23.497  1.00  0.00     0.071 C 
ATOM     18  N   UNL A   1      32.937  25.389  24.077  1.00  0.00    -0.176 NA
BRANCH  15  19
ATOM     19  C   UNL A   1      32.451  21.927  23.236  1.00  0.00    -0.019 A 
ATOM     20  C   UNL A   1      32.479  19.175  23.870  1.00  0.00     0.160 A 
ATOM     21  C   UNL A   1      32.139  19.607  22.581  1.00  0.00     0.051 A 
ATOM     22  C   UNL A   1      32.785  20.112  24.862  1.00  0.00     0.161 A 
ATOM     23  C   UNL A   1      32.119  20.971  22.266  1.00  0.00     0.010 A 
ATOM     24  C   UNL A   1      32.747  21.475  24.535  1.00  0.00     0.056 A 
BRANCH  20  25
ATOM     25  O   UNL A   1      32.636  17.832  24.088  1.00  0.00    -0.493 OA
ATOM     26  C   UNL A   1      33.844  17.325  23.524  1.00  0.00     0.278 C 
ENDBRANCH  20  25
BRANCH  22  27
ATOM     27  O   UNL A   1      33.161  19.895  26.159  1.00  0.00    -0.493 OA
ATOM     28  C   UNL A   1      33.584  21.001  26.942  1.00  0.00     0.278 C 
ENDBRANCH  22  27
ENDBRANCH  15  19
BRANCH  17  29
ATOM     29  C   UNL A   1      31.029  26.719  23.456  1.00  0.00    -0.002 A 
ATOM     30  C   UNL A   1      29.642  26.651  23.636  1.00  0.00     0.011 A 
ATOM     31  C   UNL A   1      31.656  27.932  23.165  1.00  0.00     0.011 A 
ATOM     32  C   UNL A   1      28.869  27.805  23.533  1.00  0.00     0.021 A 
ATOM     33  C   UNL A   1      30.880  29.086  23.034  1.00  0.00     0.021 A 
ATOM     34  C   UNL A   1      29.491  29.014  23.212  1.00  0.00     0.067 A 
BRANCH  34  35
ATOM     35  S   UNL A   1      28.490  30.473  23.038  1.00  0.00     0.175 S 
ATOM     36  C   UNL A   1      28.628  30.899  21.320  1.00  0.00     0.163 C 
ATOM     37  O   UNL A   1      27.119  30.068  23.300  1.00  0.00    -0.224 OA
ATOM     38  O   UNL A   1      29.115  31.530  23.804  1.00  0.00    -0.224 OA
ENDBRANCH  34  35
ENDBRANCH  17  29
ENDBRANCH   9  14
ENDBRANCH   5   8
ENDBRANCH   3   4
ENDBRANCH   2   3
ENDBRANCH   1   2
BRANCH   1  39
ATOM     39  C   UNL A   1      42.794  25.691  28.117  1.00  0.00     0.002 C 
BRANCH  39  40
ATOM     40  C   UNL A   1      42.681  24.300  28.748  1.00  0.00     0.021 C 
BRANCH  40  41
ATOM     41  C   UNL A   1      44.000  23.539  28.822  1.00  0.00     0.116 C 
BRANCH  41  42
ATOM     42  N   UNL A   1      44.208  22.707  27.648  1.00  0.00    -0.352 N 
ATOM     43  C   UNL A   1      44.863  23.008  26.482  1.00  0.00     0.251 C 
ATOM     44  H   UNL A   1      43.823  21.802  27.696  1.00  0.00     0.163 HD
ATOM     45  O   UNL A   1      44.763  22.275  25.504  1.00  0.00    -0.269 OA
BRANCH  43  46
ATOM     46  C   UNL A   1      45.690  24.229  26.403  1.00  0.00     0.039 A 
ATOM     47  C   UNL A   1      45.515  25.098  25.322  1.00  0.00     0.014 A 
ATOM     48  C   UNL A   1      46.648  24.505  27.383  1.00  0.00     0.014 A 
ATOM     49  C   UNL A   1      46.271  26.269  25.248  1.00  0.00     0.010 A 
ATOM     50  C   UNL A   1      47.355  25.702  27.342  1.00  0.00     0.010 A 
ATOM     51  C   UNL A   1      47.180  26.590  26.269  1.00  0.00    -0.014 A 
BRANCH  51  52
ATOM     52  C   UNL A   1      47.977  27.840  26.226  1.00  0.00     0.031 A 
ATOM     53  C   UNL A   1      47.322  29.157  26.528  1.00  0.00     0.074 A 
ATOM     54  C   UNL A   1      49.267  27.796  25.846  1.00  0.00     0.049 A 
ATOM     55  N   UNL A   1      47.823  30.365  26.472  1.00  0.00    -0.248 NA
ATOM     56  C   UNL A   1      45.905  29.112  26.920  1.00  0.00     0.031 C 
ATOM     57  C   UNL A   1      50.003  26.582  25.491  1.00  0.00     0.029 A 
ATOM     58  N   UNL A   1      50.186  28.802  25.687  1.00  0.00    -0.354 N 
ATOM     59  C   UNL A   1      46.779  31.221  26.793  1.00  0.00     0.074 A 
ATOM     60  C   UNL A   1      45.606  30.400  27.000  1.00  0.00     0.031 C 
ATOM     61  C   UNL A   1      51.267  26.911  25.182  1.00  0.00     0.029 A 
ATOM     62  C   UNL A   1      51.421  28.359  25.284  1.00  0.00     0.049 A 
ATOM     63  H   UNL A   1      49.980  29.751  25.847  1.00  0.00     0.167 HD
ATOM     64  C   UNL A   1      46.801  32.569  26.923  1.00  0.00     0.037 A 
ATOM     65  C   UNL A   1      52.549  29.047  25.025  1.00  0.00     0.037 A 
ATOM     66  C   UNL A   1      47.980  33.378  26.753  1.00  0.00     0.049 A 
ATOM     67  C   UNL A   1      52.549  30.543  25.176  1.00  0.00     0.074 A 
ATOM     68  C   UNL A   1      48.128  34.741  26.942  1.00  0.00     0.029 A 
ATOM     69  N   UNL A   1      49.216  32.893  26.349  1.00  0.00    -0.354 N 
ATOM     70  N   UNL A   1      51.576  31.338  25.546  1.00  0.00    -0.248 NA
ATOM     71  C   UNL A   1      53.809  31.237  24.873  1.00  0.00     0.031 C 
ATOM     72  C   UNL A   1      49.442  35.087  26.611  1.00  0.00     0.029 A 
ATOM     73  C   UNL A   1      50.125  33.934  26.259  1.00  0.00     0.049 A 
ATOM     74  H   UNL A   1      49.416  31.949  26.156  1.00  0.00     0.167 HD
ATOM     75  C   UNL A   1      52.109  32.618  25.552  1.00  0.00     0.074 A 
ATOM     76  C   UNL A   1      53.496  32.494  25.153  1.00  0.00     0.031 C 
ATOM     77  C   UNL A   1      51.505  33.791  25.865  1.00  0.00     0.037 A 
BRANCH  64  78
ATOM     78  C   UNL A   1      45.506  33.251  27.259  1.00  0.00     0.064 A 
ATOM     79  C   UNL A   1      45.048  33.355  28.582  1.00  0.00     0.173 A 
ATOM     80  C   UNL A   1      44.716  33.812  26.245  1.00  0.00     0.173 A 
ATOM     81  F   UNL A   1      45.760  32.823  29.587  1.00  0.00    -0.203 F 
ATOM     82  C   UNL A   1      43.827  33.959  28.871  1.00  0.00     0.198 A 
ATOM     83  C   UNL A   1      43.511  34.443  26.542  1.00  0.00     0.198 A 
ATOM     84  F   UNL A   1      45.110  33.746  24.964  1.00  0.00    -0.203 F 
ATOM     85  F   UNL A   1      43.381  33.992  30.135  1.00  0.00    -0.200 F 
ATOM     86  C   UNL A   1      43.062  34.506  27.852  1.00  0.00     0.200 A 
ATOM     87  F   UNL A   1      42.778  34.981  25.557  1.00  0.00    -0.200 F 
ATOM     88  F   UNL A   1      41.886  35.086  28.133  1.00  0.00    -0.200 F 
ENDBRANCH  64  78
BRANCH  65  89
ATOM     89  C   UNL A   1      53.785  28.317  24.644  1.00  0.00     0.064 A 
ATOM     90  C   UNL A   1      54.071  28.061  23.296  1.00  0.00     0.173 A 
ATOM     91  C   UNL A   1      54.708  27.884  25.605  1.00  0.00     0.173 A 
ATOM     92  F   UNL A   1      53.207  28.440  22.344  1.00  0.00    -0.203 F 
ATOM     93  C   UNL A   1      55.233  27.389  22.924  1.00  0.00     0.198 A 
ATOM     94  C   UNL A   1      55.881  27.232  25.230  1.00  0.00     0.198 A 
ATOM     95  F   UNL A   1      54.480  28.110  26.906  1.00  0.00    -0.203 F 
ATOM     96  F   UNL A   1      55.470  27.130  21.630  1.00  0.00    -0.200 F 
ATOM     97  C   UNL A   1      56.141  26.981  23.890  1.00  0.00     0.200 A 
ATOM     98  F   UNL A   1      56.762  26.850  26.165  1.00  0.00    -0.200 F 
ATOM     99  F   UNL A   1      57.263  26.343  23.532  1.00  0.00    -0.200 F 
ENDBRANCH  65  89
BRANCH  77 100
ATOM    100  C   UNL A   1      52.348  35.031  25.820  1.00  0.00     0.064 A 
ATOM    101  C   UNL A   1      53.072  35.468  26.940  1.00  0.00     0.173 A 
ATOM    102  C   UNL A   1      52.467  35.765  24.631  1.00  0.00     0.173 A 
ATOM    103  F   UNL A   1      52.978  34.808  28.104  1.00  0.00    -0.203 F 
ATOM    104  C   UNL A   1      53.868  36.609  26.875  1.00  0.00     0.198 A 
ATOM    105  C   UNL A   1      53.284  36.890  24.563  1.00  0.00     0.198 A 
ATOM    106  F   UNL A   1      51.799  35.385  23.532  1.00  0.00    -0.203 F 
ATOM    107  F   UNL A   1      54.517  37.033  27.968  1.00  0.00    -0.200 F 
ATOM    108  C   UNL A   1      53.979  37.314  25.685  1.00  0.00     0.200 A 
ATOM    109  F   UNL A   1      53.399  37.563  23.410  1.00  0.00    -0.200 F 
ATOM    110  F   UNL A   1      54.751  38.407  25.624  1.00  0.00    -0.200 F 
ENDBRANCH  77 100
ENDBRANCH  51  52
ENDBRANCH  43  46
ENDBRANCH  41  42
ENDBRANCH  40  41
ENDBRANCH  39  40
ENDBRANCH   1  39
TORSDOF 19
ENDMDL
