MODEL 1
REMARK VINA RESULT:     -12.0      0.000      0.000
REMARK SMILES CNc1nccc(-c2cc(C(=O)NCCCCCCNC(=O)c3ccc(-c4c5nc(c(-c6c(F)c(F)c(F)c(F)c6F)c6ccc([nH]6)c(-c6c(F)c(F)c(F)c(F)c6F)c6nc(c(-c7c(F)c(F)c(F)c(F)c7F)c7ccc4[nH]7)C=C6)C=C5)cc3)ccn2)n1
REMARK SMILES IDX 16 1 15 2 14 3 13 4 11 5 12 6 10 8 8 9 9 10 88 11 87 12
REMARK SMILES IDX 86 13 7 14 3 15 4 16 89 17 5 18 6 19 2 20 1 21 17 23 18 24
REMARK SMILES IDX 19 25 20 26 21 27 22 29 23 30 24 31 85 32 25 33 84 34 26 35
REMARK SMILES IDX 27 36 28 37 78 38 29 39 83 40 77 41 79 42 30 43 82 44 76 45
REMARK SMILES IDX 75 46 31 48 63 49 43 50 62 51 44 52 47 53 61 54 80 55 45 56
REMARK SMILES IDX 46 57 60 59 81 60 48 61 32 62 33 63 41 64 34 65 35 66 39 67
REMARK SMILES IDX 42 68 36 69 37 70 40 71 38 72 64 73 65 74 73 75 66 76 67 77
REMARK SMILES IDX 71 78 74 79 68 80 69 81 72 82 70 83 49 84 50 85 58 86 51 87
REMARK SMILES IDX 52 88 56 89 59 90 53 91 54 92 57 93 55 94
REMARK H PARENT 13 7 2 22 20 28 79 47 47 58
REMARK Flexibility Score: inf
ROOT
ATOM      1  C   UNL A   1      32.629  30.086  26.046  1.00  0.00     0.002 C 
ENDROOT
BRANCH   1   2
ATOM      2  C   UNL A   1      32.946  28.784  26.796  1.00  0.00     0.021 C 
BRANCH   2   3
ATOM      3  C   UNL A   1      33.962  27.904  26.066  1.00  0.00     0.116 C 
BRANCH   3   4
ATOM      4  N   UNL A   1      33.564  26.511  26.155  1.00  0.00    -0.352 N 
ATOM      5  C   UNL A   1      32.658  25.746  25.469  1.00  0.00     0.251 C 
ATOM      6  O   UNL A   1      32.537  24.568  25.810  1.00  0.00    -0.269 OA
ATOM      7  H   UNL A   1      34.045  26.012  26.854  1.00  0.00     0.163 HD
BRANCH   5   8
ATOM      8  C   UNL A   1      31.887  26.232  24.294  1.00  0.00     0.043 A 
ATOM      9  C   UNL A   1      30.249  27.586  23.187  1.00  0.00     0.090 A 
ATOM     10  C   UNL A   1      30.753  27.036  24.363  1.00  0.00     0.044 A 
ATOM     11  N   UNL A   1      30.746  27.274  21.964  1.00  0.00    -0.255 NA
ATOM     12  C   UNL A   1      31.759  26.386  21.912  1.00  0.00     0.112 A 
ATOM     13  C   UNL A   1      32.371  25.866  23.034  1.00  0.00     0.034 A 
BRANCH   9  14
ATOM     14  C   UNL A   1      29.284  28.689  23.236  1.00  0.00     0.094 A 
ATOM     15  C   UNL A   1      28.878  30.936  23.453  1.00  0.00     0.222 A 
ATOM     16  N   UNL A   1      27.559  30.774  23.281  1.00  0.00    -0.222 NA
ATOM     17  N   UNL A   1      29.770  29.937  23.415  1.00  0.00    -0.211 NA
ATOM     18  C   UNL A   1      27.115  29.526  23.071  1.00  0.00     0.117 A 
ATOM     19  C   UNL A   1      27.939  28.434  23.041  1.00  0.00     0.051 A 
BRANCH  15  20
ATOM     20  N   UNL A   1      29.288  32.226  23.627  1.00  0.00    -0.357 N 
ATOM     21  C   UNL A   1      28.734  33.307  22.872  1.00  0.00     0.143 C 
ATOM     22  H   UNL A   1      29.986  32.418  24.294  1.00  0.00     0.163 HD
ENDBRANCH  15  20
ENDBRANCH   9  14
ENDBRANCH   5   8
ENDBRANCH   3   4
ENDBRANCH   2   3
ENDBRANCH   1   2
BRANCH   1  23
ATOM     23  C   UNL A   1      31.326  30.774  26.472  1.00  0.00     0.002 C 
BRANCH  23  24
ATOM     24  C   UNL A   1      31.387  32.303  26.533  1.00  0.00     0.021 C 
BRANCH  24  25
ATOM     25  C   UNL A   1      32.626  32.860  27.229  1.00  0.00     0.116 C 
BRANCH  25  26
ATOM     26  N   UNL A   1      32.445  34.248  27.624  1.00  0.00    -0.352 N 
ATOM     27  C   UNL A   1      33.041  34.951  28.640  1.00  0.00     0.251 C 
ATOM     28  H   UNL A   1      31.799  34.757  27.084  1.00  0.00     0.163 HD
ATOM     29  O   UNL A   1      32.604  36.051  28.965  1.00  0.00    -0.269 OA
BRANCH  27  30
ATOM     30  C   UNL A   1      34.203  34.383  29.357  1.00  0.00     0.039 A 
ATOM     31  C   UNL A   1      33.982  33.669  30.537  1.00  0.00     0.014 A 
ATOM     32  C   UNL A   1      35.505  34.581  28.889  1.00  0.00     0.014 A 
ATOM     33  C   UNL A   1      35.062  33.107  31.220  1.00  0.00     0.010 A 
ATOM     34  C   UNL A   1      36.576  33.967  29.535  1.00  0.00     0.010 A 
ATOM     35  C   UNL A   1      36.365  33.226  30.708  1.00  0.00    -0.014 A 
BRANCH  35  36
ATOM     36  C   UNL A   1      37.513  32.576  31.387  1.00  0.00     0.031 A 
ATOM     37  C   UNL A   1      38.237  31.432  30.733  1.00  0.00     0.074 A 
ATOM     38  C   UNL A   1      37.869  32.983  32.621  1.00  0.00     0.049 A 
ATOM     39  N   UNL A   1      39.230  30.712  31.189  1.00  0.00    -0.248 NA
ATOM     40  C   UNL A   1      37.765  31.028  29.398  1.00  0.00     0.031 C 
ATOM     41  C   UNL A   1      37.211  34.047  33.381  1.00  0.00     0.029 A 
ATOM     42  N   UNL A   1      38.865  32.544  33.457  1.00  0.00    -0.354 N 
ATOM     43  C   UNL A   1      39.494  29.766  30.207  1.00  0.00     0.074 A 
ATOM     44  C   UNL A   1      38.525  29.971  29.151  1.00  0.00     0.031 C 
ATOM     45  C   UNL A   1      37.833  34.192  34.562  1.00  0.00     0.029 A 
ATOM     46  C   UNL A   1      38.910  33.211  34.656  1.00  0.00     0.049 A 
ATOM     47  H   UNL A   1      39.487  31.818  33.220  1.00  0.00     0.167 HD
ATOM     48  C   UNL A   1      40.469  28.826  30.180  1.00  0.00     0.037 A 
ATOM     49  C   UNL A   1      39.727  33.047  35.714  1.00  0.00     0.037 A 
ATOM     50  C   UNL A   1      41.447  28.642  31.220  1.00  0.00     0.049 A 
ATOM     51  C   UNL A   1      40.805  32.001  35.653  1.00  0.00     0.074 A 
ATOM     52  C   UNL A   1      42.516  27.763  31.254  1.00  0.00     0.029 A 
ATOM     53  N   UNL A   1      41.474  29.352  32.411  1.00  0.00    -0.354 N 
ATOM     54  N   UNL A   1      41.091  31.162  34.688  1.00  0.00    -0.248 NA
ATOM     55  C   UNL A   1      41.681  31.885  36.829  1.00  0.00     0.031 C 
ATOM     56  C   UNL A   1      43.164  27.909  32.485  1.00  0.00     0.029 A 
ATOM     57  C   UNL A   1      42.528  28.913  33.198  1.00  0.00     0.049 A 
ATOM     58  H   UNL A   1      40.840  30.060  32.662  1.00  0.00     0.167 HD
ATOM     59  C   UNL A   1      42.190  30.436  35.127  1.00  0.00     0.074 A 
ATOM     60  C   UNL A   1      42.533  30.948  36.437  1.00  0.00     0.031 C 
ATOM     61  C   UNL A   1      42.855  29.434  34.501  1.00  0.00     0.037 A 
BRANCH  48  62
ATOM     62  C   UNL A   1      40.534  27.925  28.980  1.00  0.00     0.064 A 
ATOM     63  C   UNL A   1      41.360  28.218  27.884  1.00  0.00     0.173 A 
ATOM     64  C   UNL A   1      39.797  26.731  28.946  1.00  0.00     0.173 A 
ATOM     65  F   UNL A   1      42.076  29.353  27.864  1.00  0.00    -0.203 F 
ATOM     66  C   UNL A   1      41.427  27.362  26.789  1.00  0.00     0.198 A 
ATOM     67  C   UNL A   1      39.889  25.863  27.861  1.00  0.00     0.198 A 
ATOM     68  F   UNL A   1      38.996  26.400  29.970  1.00  0.00    -0.203 F 
ATOM     69  F   UNL A   1      42.190  27.685  25.735  1.00  0.00    -0.200 F 
ATOM     70  C   UNL A   1      40.698  26.182  26.780  1.00  0.00     0.200 A 
ATOM     71  F   UNL A   1      39.194  24.717  27.860  1.00  0.00    -0.200 F 
ATOM     72  F   UNL A   1      40.772  25.354  25.729  1.00  0.00    -0.200 F 
ENDBRANCH  48  62
BRANCH  49  73
ATOM     73  C   UNL A   1      39.571  33.912  36.912  1.00  0.00     0.064 A 
ATOM     74  C   UNL A   1      38.807  33.490  38.009  1.00  0.00     0.173 A 
ATOM     75  C   UNL A   1      40.175  35.175  36.985  1.00  0.00     0.173 A 
ATOM     76  F   UNL A   1      38.193  32.297  37.977  1.00  0.00    -0.203 F 
ATOM     77  C   UNL A   1      38.635  34.307  39.123  1.00  0.00     0.198 A 
ATOM     78  C   UNL A   1      40.025  35.980  38.111  1.00  0.00     0.198 A 
ATOM     79  F   UNL A   1      40.922  35.623  35.965  1.00  0.00    -0.203 F 
ATOM     80  F   UNL A   1      37.861  33.898  40.138  1.00  0.00    -0.200 F 
ATOM     81  C   UNL A   1      39.248  35.549  39.176  1.00  0.00     0.200 A 
ATOM     82  F   UNL A   1      40.632  37.174  38.165  1.00  0.00    -0.200 F 
ATOM     83  F   UNL A   1      39.084  36.335  40.249  1.00  0.00    -0.200 F 
ENDBRANCH  49  73
BRANCH  61  84
ATOM     84  C   UNL A   1      44.034  28.843  35.218  1.00  0.00     0.064 A 
ATOM     85  C   UNL A   1      45.327  29.364  35.057  1.00  0.00     0.173 A 
ATOM     86  C   UNL A   1      43.864  27.761  36.094  1.00  0.00     0.173 A 
ATOM     87  F   UNL A   1      45.542  30.388  34.218  1.00  0.00    -0.203 F 
ATOM     88  C   UNL A   1      46.411  28.804  35.727  1.00  0.00     0.198 A 
ATOM     89  C   UNL A   1      44.945  27.223  36.785  1.00  0.00     0.198 A 
ATOM     90  F   UNL A   1      42.646  27.231  36.287  1.00  0.00    -0.203 F 
ATOM     91  F   UNL A   1      47.644  29.285  35.521  1.00  0.00    -0.200 F 
ATOM     92  C   UNL A   1      46.218  27.738  36.595  1.00  0.00     0.200 A 
ATOM     93  F   UNL A   1      44.757  26.202  37.632  1.00  0.00    -0.200 F 
ATOM     94  F   UNL A   1      47.263  27.203  37.241  1.00  0.00    -0.200 F 
ENDBRANCH  61  84
ENDBRANCH  35  36
ENDBRANCH  27  30
ENDBRANCH  25  26
ENDBRANCH  24  25
ENDBRANCH  23  24
ENDBRANCH   1  23
TORSDOF 15
ENDMDL
MODEL 2
REMARK VINA RESULT:     -12.0      6.167     11.615
REMARK SMILES CNc1nccc(-c2cc(C(=O)NCCCCCCNC(=O)c3ccc(-c4c5nc(c(-c6c(F)c(F)c(F)c(F)c6F)c6ccc([nH]6)c(-c6c(F)c(F)c(F)c(F)c6F)c6nc(c(-c7c(F)c(F)c(F)c(F)c7F)c7ccc4[nH]7)C=C6)C=C5)cc3)ccn2)n1
REMARK SMILES IDX 16 1 15 2 14 3 13 4 11 5 12 6 10 8 8 9 9 10 88 11 87 12
REMARK SMILES IDX 86 13 7 14 3 15 4 16 89 17 5 18 6 19 2 20 1 21 17 23 18 24
REMARK SMILES IDX 19 25 20 26 21 27 22 29 23 30 24 31 85 32 25 33 84 34 26 35
REMARK SMILES IDX 27 36 28 37 78 38 29 39 83 40 77 41 79 42 30 43 82 44 76 45
REMARK SMILES IDX 75 46 31 48 63 49 43 50 62 51 44 52 47 53 61 54 80 55 45 56
REMARK SMILES IDX 46 57 60 59 81 60 48 61 32 62 33 63 41 64 34 65 35 66 39 67
REMARK SMILES IDX 42 68 36 69 37 70 40 71 38 72 64 73 65 74 73 75 66 76 67 77
REMARK SMILES IDX 71 78 74 79 68 80 69 81 72 82 70 83 49 84 50 85 58 86 51 87
REMARK SMILES IDX 52 88 56 89 59 90 53 91 54 92 57 93 55 94
REMARK H PARENT 13 7 2 22 20 28 79 47 47 58
REMARK Flexibility Score: inf
ROOT
ATOM      1  C   UNL A   1      36.966  21.906  25.548  1.00  0.00     0.002 C 
ENDROOT
BRANCH   1   2
ATOM      2  C   UNL A   1      36.658  23.201  24.781  1.00  0.00     0.021 C 
BRANCH   2   3
ATOM      3  C   UNL A   1      35.755  24.159  25.560  1.00  0.00     0.116 C 
BRANCH   3   4
ATOM      4  N   UNL A   1      34.870  24.858  24.647  1.00  0.00    -0.352 N 
ATOM      5  C   UNL A   1      33.673  24.534  24.066  1.00  0.00     0.251 C 
ATOM      6  O   UNL A   1      33.173  25.359  23.298  1.00  0.00    -0.269 OA
ATOM      7  H   UNL A   1      35.198  25.750  24.391  1.00  0.00     0.163 HD
BRANCH   5   8
ATOM      8  C   UNL A   1      32.911  23.295  24.375  1.00  0.00     0.043 A 
ATOM      9  C   UNL A   1      32.462  20.944  24.263  1.00  0.00     0.090 A 
ATOM     10  C   UNL A   1      33.094  22.070  23.740  1.00  0.00     0.044 A 
ATOM     11  N   UNL A   1      31.582  21.013  25.292  1.00  0.00    -0.255 NA
ATOM     12  C   UNL A   1      31.317  22.231  25.804  1.00  0.00     0.112 A 
ATOM     13  C   UNL A   1      31.967  23.381  25.402  1.00  0.00     0.034 A 
BRANCH   9  14
ATOM     14  C   UNL A   1      32.878  19.599  23.851  1.00  0.00     0.094 A 
ATOM     15  C   UNL A   1      34.235  17.778  24.171  1.00  0.00     0.222 A 
ATOM     16  N   UNL A   1      33.655  17.096  23.174  1.00  0.00    -0.222 NA
ATOM     17  N   UNL A   1      33.868  19.008  24.554  1.00  0.00    -0.211 NA
ATOM     18  C   UNL A   1      32.652  17.700  22.519  1.00  0.00     0.117 A 
ATOM     19  C   UNL A   1      32.219  18.964  22.815  1.00  0.00     0.051 A 
BRANCH  15  20
ATOM     20  N   UNL A   1      35.225  17.112  24.832  1.00  0.00    -0.357 N 
ATOM     21  C   UNL A   1      35.043  15.785  25.335  1.00  0.00     0.143 C 
ATOM     22  H   UNL A   1      36.093  17.557  24.966  1.00  0.00     0.163 HD
ENDBRANCH  15  20
ENDBRANCH   9  14
ENDBRANCH   5   8
ENDBRANCH   3   4
ENDBRANCH   2   3
ENDBRANCH   1   2
BRANCH   1  23
ATOM     23  C   UNL A   1      36.866  20.624  24.713  1.00  0.00     0.002 C 
BRANCH  23  24
ATOM     24  C   UNL A   1      37.979  19.600  24.957  1.00  0.00     0.021 C 
BRANCH  24  25
ATOM     25  C   UNL A   1      39.144  20.120  25.795  1.00  0.00     0.116 C 
BRANCH  25  26
ATOM     26  N   UNL A   1      40.199  19.128  25.927  1.00  0.00    -0.352 N 
ATOM     27  C   UNL A   1      41.550  19.305  26.093  1.00  0.00     0.251 C 
ATOM     28  H   UNL A   1      39.901  18.190  25.891  1.00  0.00     0.163 HD
ATOM     29  O   UNL A   1      42.314  18.354  25.964  1.00  0.00    -0.269 OA
BRANCH  27  30
ATOM     30  C   UNL A   1      42.090  20.643  26.414  1.00  0.00     0.039 A 
ATOM     31  C   UNL A   1      42.420  21.505  25.366  1.00  0.00     0.014 A 
ATOM     32  C   UNL A   1      42.304  21.035  27.739  1.00  0.00     0.014 A 
ATOM     33  C   UNL A   1      42.914  22.780  25.646  1.00  0.00     0.010 A 
ATOM     34  C   UNL A   1      42.736  22.329  28.019  1.00  0.00     0.010 A 
ATOM     35  C   UNL A   1      43.048  23.213  26.975  1.00  0.00    -0.014 A 
BRANCH  35  36
ATOM     36  C   UNL A   1      43.506  24.590  27.286  1.00  0.00     0.031 A 
ATOM     37  C   UNL A   1      42.546  25.607  27.837  1.00  0.00     0.074 A 
ATOM     38  C   UNL A   1      44.780  24.940  27.019  1.00  0.00     0.049 A 
ATOM     39  N   UNL A   1      42.750  26.867  28.126  1.00  0.00    -0.248 NA
ATOM     40  C   UNL A   1      41.165  25.153  28.069  1.00  0.00     0.031 C 
ATOM     41  C   UNL A   1      45.792  24.057  26.436  1.00  0.00     0.029 A 
ATOM     42  N   UNL A   1      45.437  26.131  27.194  1.00  0.00    -0.354 N 
ATOM     43  C   UNL A   1      41.527  27.358  28.563  1.00  0.00     0.074 A 
ATOM     44  C   UNL A   1      40.573  26.275  28.454  1.00  0.00     0.031 C 
ATOM     45  C   UNL A   1      46.947  24.731  26.320  1.00  0.00     0.029 A 
ATOM     46  C   UNL A   1      46.749  26.100  26.789  1.00  0.00     0.049 A 
ATOM     47  H   UNL A   1      45.010  26.932  27.572  1.00  0.00     0.167 HD
ATOM     48  C   UNL A   1      41.233  28.595  29.032  1.00  0.00     0.037 A 
ATOM     49  C   UNL A   1      47.686  27.067  26.792  1.00  0.00     0.037 A 
ATOM     50  C   UNL A   1      42.190  29.662  29.164  1.00  0.00     0.049 A 
ATOM     51  C   UNL A   1      47.332  28.428  27.325  1.00  0.00     0.074 A 
ATOM     52  C   UNL A   1      42.004  30.928  29.691  1.00  0.00     0.029 A 
ATOM     53  N   UNL A   1      43.515  29.586  28.762  1.00  0.00    -0.354 N 
ATOM     54  N   UNL A   1      46.192  28.859  27.804  1.00  0.00    -0.248 NA
ATOM     55  C   UNL A   1      48.403  29.436  27.325  1.00  0.00     0.031 C 
ATOM     56  C   UNL A   1      43.205  31.634  29.568  1.00  0.00     0.029 A 
ATOM     57  C   UNL A   1      44.153  30.792  29.009  1.00  0.00     0.049 A 
ATOM     58  H   UNL A   1      43.940  28.794  28.361  1.00  0.00     0.167 HD
ATOM     59  C   UNL A   1      46.410  30.176  28.184  1.00  0.00     0.074 A 
ATOM     60  C   UNL A   1      47.798  30.468  27.898  1.00  0.00     0.031 C 
ATOM     61  C   UNL A   1      45.538  31.065  28.719  1.00  0.00     0.037 A 
BRANCH  48  62
ATOM     62  C   UNL A   1      39.814  28.862  29.447  1.00  0.00     0.064 A 
ATOM     63  C   UNL A   1      38.860  29.340  28.536  1.00  0.00     0.173 A 
ATOM     64  C   UNL A   1      39.393  28.591  30.758  1.00  0.00     0.173 A 
ATOM     65  F   UNL A   1      39.215  29.624  27.274  1.00  0.00    -0.203 F 
ATOM     66  C   UNL A   1      37.543  29.561  28.929  1.00  0.00     0.198 A 
ATOM     67  C   UNL A   1      38.068  28.787  31.140  1.00  0.00     0.198 A 
ATOM     68  F   UNL A   1      40.264  28.128  31.667  1.00  0.00    -0.203 F 
ATOM     69  F   UNL A   1      36.659  30.059  28.053  1.00  0.00    -0.200 F 
ATOM     70  C   UNL A   1      37.146  29.278  30.228  1.00  0.00     0.200 A 
ATOM     71  F   UNL A   1      37.683  28.501  32.392  1.00  0.00    -0.200 F 
ATOM     72  F   UNL A   1      35.875  29.481  30.601  1.00  0.00    -0.200 F 
ENDBRANCH  48  62
BRANCH  49  73
ATOM     73  C   UNL A   1      49.055  26.776  26.295  1.00  0.00     0.064 A 
ATOM     74  C   UNL A   1      49.405  27.028  24.961  1.00  0.00     0.173 A 
ATOM     75  C   UNL A   1      50.038  26.236  27.136  1.00  0.00     0.173 A 
ATOM     76  F   UNL A   1      48.492  27.526  24.113  1.00  0.00    -0.203 F 
ATOM     77  C   UNL A   1      50.679  26.732  24.483  1.00  0.00     0.198 A 
ATOM     78  C   UNL A   1      51.320  25.966  26.664  1.00  0.00     0.198 A 
ATOM     79  F   UNL A   1      49.756  25.982  28.423  1.00  0.00    -0.203 F 
ATOM     80  F   UNL A   1      50.972  26.939  23.191  1.00  0.00    -0.200 F 
ATOM     81  C   UNL A   1      51.637  26.205  25.335  1.00  0.00     0.200 A 
ATOM     82  F   UNL A   1      52.248  25.471  27.495  1.00  0.00    -0.200 F 
ATOM     83  F   UNL A   1      52.863  25.922  24.876  1.00  0.00    -0.200 F 
ENDBRANCH  49  73
BRANCH  61  84
ATOM     84  C   UNL A   1      46.069  32.429  29.051  1.00  0.00     0.064 A 
ATOM     85  C   UNL A   1      46.011  33.484  28.128  1.00  0.00     0.173 A 
ATOM     86  C   UNL A   1      46.616  32.691  30.315  1.00  0.00     0.173 A 
ATOM     87  F   UNL A   1      45.511  33.279  26.900  1.00  0.00    -0.203 F 
ATOM     88  C   UNL A   1      46.509  34.743  28.450  1.00  0.00     0.198 A 
ATOM     89  C   UNL A   1      47.086  33.958  30.644  1.00  0.00     0.198 A 
ATOM     90  F   UNL A   1      46.688  31.717  31.236  1.00  0.00    -0.203 F 
ATOM     91  F   UNL A   1      46.490  35.722  27.535  1.00  0.00    -0.200 F 
ATOM     92  C   UNL A   1      47.040  34.981  29.710  1.00  0.00     0.200 A 
ATOM     93  F   UNL A   1      47.588  34.190  31.865  1.00  0.00    -0.200 F 
ATOM     94  F   UNL A   1      47.515  36.196  30.017  1.00  0.00    -0.200 F 
ENDBRANCH  61  84
ENDBRANCH  35  36
ENDBRANCH  27  30
ENDBRANCH  25  26
ENDBRANCH  24  25
ENDBRANCH  23  24
ENDBRANCH   1  23
TORSDOF 15
ENDMDL
MODEL 3
REMARK VINA RESULT:     -12.0      1.948      7.712
REMARK SMILES CNc1nccc(-c2cc(C(=O)NCCCCCCNC(=O)c3ccc(-c4c5nc(c(-c6c(F)c(F)c(F)c(F)c6F)c6ccc([nH]6)c(-c6c(F)c(F)c(F)c(F)c6F)c6nc(c(-c7c(F)c(F)c(F)c(F)c7F)c7ccc4[nH]7)C=C6)C=C5)cc3)ccn2)n1
REMARK SMILES IDX 16 1 15 2 14 3 13 4 11 5 12 6 10 8 8 9 9 10 88 11 87 12
REMARK SMILES IDX 86 13 7 14 3 15 4 16 89 17 5 18 6 19 2 20 1 21 17 23 18 24
REMARK SMILES IDX 19 25 20 26 21 27 22 29 23 30 24 31 85 32 25 33 84 34 26 35
REMARK SMILES IDX 27 36 28 37 78 38 29 39 83 40 77 41 79 42 30 43 82 44 76 45
REMARK SMILES IDX 75 46 31 48 63 49 43 50 62 51 44 52 47 53 61 54 80 55 45 56
REMARK SMILES IDX 46 57 60 59 81 60 48 61 32 62 33 63 41 64 34 65 35 66 39 67
REMARK SMILES IDX 42 68 36 69 37 70 40 71 38 72 64 73 65 74 73 75 66 76 67 77
REMARK SMILES IDX 71 78 74 79 68 80 69 81 72 82 70 83 49 84 50 85 58 86 51 87
REMARK SMILES IDX 52 88 56 89 59 90 53 91 54 92 57 93 55 94
REMARK H PARENT 13 7 2 22 20 28 79 47 47 58
REMARK Flexibility Score: inf
ROOT
ATOM      1  C   UNL A   1      30.767  26.363  26.128  1.00  0.00     0.002 C 
ENDROOT
BRANCH   1   2
ATOM      2  C   UNL A   1      31.198  24.908  26.363  1.00  0.00     0.021 C 
BRANCH   2   3
ATOM      3  C   UNL A   1      32.641  24.634  25.933  1.00  0.00     0.116 C 
BRANCH   3   4
ATOM      4  N   UNL A   1      32.653  23.940  24.658  1.00  0.00    -0.352 N 
ATOM      5  C   UNL A   1      32.550  24.358  23.358  1.00  0.00     0.251 C 
ATOM      6  O   UNL A   1      32.575  23.494  22.480  1.00  0.00    -0.269 OA
ATOM      7  H   UNL A   1      32.757  22.964  24.746  1.00  0.00     0.163 HD
BRANCH   5   8
ATOM      8  C   UNL A   1      32.498  25.787  22.951  1.00  0.00     0.043 A 
ATOM      9  C   UNL A   1      31.401  27.855  22.440  1.00  0.00     0.090 A 
ATOM     10  C   UNL A   1      31.338  26.474  22.602  1.00  0.00     0.044 A 
ATOM     11  N   UNL A   1      32.568  28.544  22.490  1.00  0.00    -0.255 NA
ATOM     12  C   UNL A   1      33.699  27.839  22.695  1.00  0.00     0.112 A 
ATOM     13  C   UNL A   1      33.711  26.483  22.953  1.00  0.00     0.034 A 
BRANCH   9  14
ATOM     14  C   UNL A   1      30.173  28.657  22.408  1.00  0.00     0.094 A 
ATOM     15  C   UNL A   1      29.050  30.501  21.636  1.00  0.00     0.222 A 
ATOM     16  N   UNL A   1      27.920  30.151  22.266  1.00  0.00    -0.222 NA
ATOM     17  N   UNL A   1      30.180  29.782  21.661  1.00  0.00    -0.211 NA
ATOM     18  C   UNL A   1      27.939  29.009  22.971  1.00  0.00     0.117 A 
ATOM     19  C   UNL A   1      29.049  28.216  23.081  1.00  0.00     0.051 A 
BRANCH  15  20
ATOM     20  N   UNL A   1      28.974  31.649  20.902  1.00  0.00    -0.357 N 
ATOM     21  C   UNL A   1      27.754  32.385  20.767  1.00  0.00     0.143 C 
ATOM     22  H   UNL A   1      29.784  31.982  20.453  1.00  0.00     0.163 HD
ENDBRANCH  15  20
ENDBRANCH   9  14
ENDBRANCH   5   8
ENDBRANCH   3   4
ENDBRANCH   2   3
ENDBRANCH   1   2
BRANCH   1  23
ATOM     23  C   UNL A   1      31.761  27.418  26.628  1.00  0.00     0.002 C 
BRANCH  23  24
ATOM     24  C   UNL A   1      31.659  28.785  25.943  1.00  0.00     0.021 C 
BRANCH  24  25
ATOM     25  C   UNL A   1      32.958  29.587  25.934  1.00  0.00     0.116 C 
BRANCH  25  26
ATOM     26  N   UNL A   1      32.733  30.982  26.277  1.00  0.00    -0.352 N 
ATOM     27  C   UNL A   1      33.360  31.762  27.215  1.00  0.00     0.251 C 
ATOM     28  H   UNL A   1      32.026  31.433  25.761  1.00  0.00     0.163 HD
ATOM     29  O   UNL A   1      32.890  32.854  27.519  1.00  0.00    -0.269 OA
BRANCH  27  30
ATOM     30  C   UNL A   1      34.596  31.287  27.872  1.00  0.00     0.039 A 
ATOM     31  C   UNL A   1      35.673  32.168  27.997  1.00  0.00     0.014 A 
ATOM     32  C   UNL A   1      34.708  29.972  28.333  1.00  0.00     0.014 A 
ATOM     33  C   UNL A   1      36.843  31.748  28.632  1.00  0.00     0.010 A 
ATOM     34  C   UNL A   1      35.850  29.573  29.023  1.00  0.00     0.010 A 
ATOM     35  C   UNL A   1      36.931  30.456  29.176  1.00  0.00    -0.014 A 
BRANCH  35  36
ATOM     36  C   UNL A   1      38.142  30.019  29.913  1.00  0.00     0.031 A 
ATOM     37  C   UNL A   1      38.409  30.519  31.305  1.00  0.00     0.074 A 
ATOM     38  C   UNL A   1      39.032  29.211  29.304  1.00  0.00     0.049 A 
ATOM     39  N   UNL A   1      39.432  30.285  32.087  1.00  0.00    -0.248 NA
ATOM     40  C   UNL A   1      37.404  31.424  31.886  1.00  0.00     0.031 C 
ATOM     41  C   UNL A   1      38.910  28.701  27.937  1.00  0.00     0.029 A 
ATOM     42  N   UNL A   1      40.218  28.686  29.751  1.00  0.00    -0.354 N 
ATOM     43  C   UNL A   1      39.200  31.018  33.243  1.00  0.00     0.074 A 
ATOM     44  C   UNL A   1      37.965  31.744  33.043  1.00  0.00     0.031 C 
ATOM     45  C   UNL A   1      39.968  27.921  27.664  1.00  0.00     0.029 A 
ATOM     46  C   UNL A   1      40.857  27.901  28.822  1.00  0.00     0.049 A 
ATOM     47  H   UNL A   1      40.577  28.856  30.651  1.00  0.00     0.167 HD
ATOM     48  C   UNL A   1      39.942  31.064  34.377  1.00  0.00     0.037 A 
ATOM     49  C   UNL A   1      42.030  27.244  28.896  1.00  0.00     0.037 A 
ATOM     50  C   UNL A   1      41.156  30.319  34.583  1.00  0.00     0.049 A 
ATOM     51  C   UNL A   1      42.827  27.307  30.169  1.00  0.00     0.074 A 
ATOM     52  C   UNL A   1      41.942  30.246  35.720  1.00  0.00     0.029 A 
ATOM     53  N   UNL A   1      41.762  29.518  33.626  1.00  0.00    -0.354 N 
ATOM     54  N   UNL A   1      42.560  27.944  31.282  1.00  0.00    -0.248 NA
ATOM     55  C   UNL A   1      44.087  26.549  30.197  1.00  0.00     0.031 C 
ATOM     56  C   UNL A   1      43.047  29.436  35.438  1.00  0.00     0.029 A 
ATOM     57  C   UNL A   1      42.925  28.966  34.140  1.00  0.00     0.049 A 
ATOM     58  H   UNL A   1      41.418  29.366  32.717  1.00  0.00     0.167 HD
ATOM     59  C   UNL A   1      43.603  27.649  32.150  1.00  0.00     0.074 A 
ATOM     60  C   UNL A   1      44.496  26.757  31.441  1.00  0.00     0.031 C 
ATOM     61  C   UNL A   1      43.803  28.079  33.420  1.00  0.00     0.037 A 
BRANCH  48  62
ATOM     62  C   UNL A   1      39.454  31.945  35.491  1.00  0.00     0.064 A 
ATOM     63  C   UNL A   1      38.551  31.476  36.457  1.00  0.00     0.173 A 
ATOM     64  C   UNL A   1      39.932  33.257  35.622  1.00  0.00     0.173 A 
ATOM     65  F   UNL A   1      38.057  30.232  36.371  1.00  0.00    -0.203 F 
ATOM     66  C   UNL A   1      38.126  32.296  37.498  1.00  0.00     0.198 A 
ATOM     67  C   UNL A   1      39.526  34.067  36.681  1.00  0.00     0.198 A 
ATOM     68  F   UNL A   1      40.801  33.754  34.729  1.00  0.00    -0.203 F 
ATOM     69  F   UNL A   1      37.229  31.841  38.384  1.00  0.00    -0.200 F 
ATOM     70  C   UNL A   1      38.618  33.588  37.613  1.00  0.00     0.200 A 
ATOM     71  F   UNL A   1      40.013  35.310  36.797  1.00  0.00    -0.200 F 
ATOM     72  F   UNL A   1      38.215  34.373  38.622  1.00  0.00    -0.200 F 
ENDBRANCH  48  62
BRANCH  49  73
ATOM     73  C   UNL A   1      42.508  26.449  27.735  1.00  0.00     0.064 A 
ATOM     74  C   UNL A   1      42.068  25.133  27.535  1.00  0.00     0.173 A 
ATOM     75  C   UNL A   1      43.415  26.981  26.809  1.00  0.00     0.173 A 
ATOM     76  F   UNL A   1      41.215  24.573  28.406  1.00  0.00    -0.203 F 
ATOM     77  C   UNL A   1      42.534  24.373  26.465  1.00  0.00     0.198 A 
ATOM     78  C   UNL A   1      43.859  26.230  25.724  1.00  0.00     0.198 A 
ATOM     79  F   UNL A   1      43.862  28.238  26.952  1.00  0.00    -0.203 F 
ATOM     80  F   UNL A   1      42.132  23.102  26.323  1.00  0.00    -0.200 F 
ATOM     81  C   UNL A   1      43.425  24.924  25.557  1.00  0.00     0.200 A 
ATOM     82  F   UNL A   1      44.709  26.771  24.839  1.00  0.00    -0.200 F 
ATOM     83  F   UNL A   1      43.872  24.194  24.526  1.00  0.00    -0.200 F 
ENDBRANCH  49  73
BRANCH  61  84
ATOM     84  C   UNL A   1      45.024  27.570  34.130  1.00  0.00     0.064 A 
ATOM     85  C   UNL A   1      46.239  28.270  34.092  1.00  0.00     0.173 A 
ATOM     86  C   UNL A   1      44.969  26.385  34.878  1.00  0.00     0.173 A 
ATOM     87  F   UNL A   1      46.345  29.400  33.376  1.00  0.00    -0.203 F 
ATOM     88  C   UNL A   1      47.363  27.785  34.754  1.00  0.00     0.198 A 
ATOM     89  C   UNL A   1      46.087  25.920  35.563  1.00  0.00     0.198 A 
ATOM     90  F   UNL A   1      43.828  25.683  34.951  1.00  0.00    -0.203 F 
ATOM     91  F   UNL A   1      48.527  28.443  34.663  1.00  0.00    -0.200 F 
ATOM     92  C   UNL A   1      47.285  26.614  35.494  1.00  0.00     0.200 A 
ATOM     93  F   UNL A   1      46.007  24.795  36.287  1.00  0.00    -0.200 F 
ATOM     94  F   UNL A   1      48.368  26.152  36.133  1.00  0.00    -0.200 F 
ENDBRANCH  61  84
ENDBRANCH  35  36
ENDBRANCH  27  30
ENDBRANCH  25  26
ENDBRANCH  24  25
ENDBRANCH  23  24
ENDBRANCH   1  23
TORSDOF 15
ENDMDL
