MODEL 1
REMARK VINA RESULT:     -11.5      0.000      0.000
REMARK SMILES O=C(CCCN1C(=O)/C(=C\c2ccc(O)c(O)c2)SC1=S)NCCCCCCNC(=O)c1ccc(-c2c3nc(c(-c4c(F)c(F)c(F)c(F)c4F)c4ccc([nH]4)c(-c4c(F)c(F)c(F)c(F)c4F)c4nc(c(-c5c(F)c(F)c(F)c(F)c5F)c5ccc2[nH]5)C=C4)C=C3)cc1
REMARK SMILES IDX 24 1 23 2 22 3 1 4 2 5 3 7 4 8 5 9 6 10 7 11 20 12 8 13 9 14
REMARK SMILES IDX 19 15 21 16 10 17 11 18 12 19 18 20 13 21 16 22 14 23 17 24
REMARK SMILES IDX 15 26 25 28 26 29 27 30 28 31 29 32 30 33 31 35 32 36 33 37
REMARK SMILES IDX 94 38 34 39 93 40 35 41 36 42 37 43 87 44 38 45 92 46 86 47
REMARK SMILES IDX 88 48 39 49 91 50 85 51 84 52 40 54 72 55 52 56 71 57 53 58
REMARK SMILES IDX 56 59 70 60 89 61 54 62 55 63 69 65 90 66 57 67 41 68 42 69
REMARK SMILES IDX 50 70 43 71 44 72 48 73 51 74 45 75 46 76 49 77 47 78 73 79
REMARK SMILES IDX 74 80 82 81 75 82 76 83 80 84 83 85 77 86 78 87 81 88 79 89
REMARK SMILES IDX 58 90 59 91 67 92 60 93 61 94 65 95 68 96 62 97 63 98 66 99
REMARK SMILES IDX 64 100
REMARK H PARENT 22 6 17 25 15 27 29 34 88 53 56 64
REMARK Flexibility Score: inf
ROOT
ATOM      1  C   UNL A   1      41.256  21.933  26.296  1.00  0.00     0.021 C 
ENDROOT
BRANCH   1   2
ATOM      2  C   UNL A   1      39.818  21.408  26.280  1.00  0.00     0.116 C 
BRANCH   2   3
ATOM      3  N   UNL A   1      38.865  22.485  26.440  1.00  0.00    -0.356 N 
ATOM      4  O   UNL A   1      37.521  21.963  24.662  1.00  0.00    -0.275 OA
ATOM      5  C   UNL A   1      37.758  22.651  25.648  1.00  0.00     0.220 C 
ATOM      6  H   UNL A   1      39.021  23.137  27.161  1.00  0.00     0.163 HD
BRANCH   5   7
ATOM      7  C   UNL A   1      36.819  23.751  26.126  1.00  0.00     0.102 C 
BRANCH   7   8
ATOM      8  C   UNL A   1      35.562  23.903  25.261  1.00  0.00     0.032 C 
BRANCH   8   9
ATOM      9  C   UNL A   1      34.319  23.074  25.624  1.00  0.00     0.128 C 
BRANCH   9  10
ATOM     10  N   UNL A   1      33.540  22.488  24.514  1.00  0.00    -0.293 N 
ATOM     11  C   UNL A   1      33.597  21.103  24.371  1.00  0.00     0.266 C 
ATOM     12  C   UNL A   1      32.630  23.131  23.699  1.00  0.00     0.148 C 
ATOM     13  O   UNL A   1      34.367  20.365  24.967  1.00  0.00    -0.268 OA
ATOM     14  C   UNL A   1      32.543  20.630  23.426  1.00  0.00     0.081 C 
ATOM     15  S   UNL A   1      31.780  21.977  22.687  1.00  0.00    -0.054 SA
ATOM     16  S   UNL A   1      32.231  24.743  23.590  1.00  0.00    -0.052 S 
ATOM     17  C   UNL A   1      32.158  19.374  23.165  1.00  0.00     0.029 C 
BRANCH  17  18
ATOM     18  C   UNL A   1      32.758  18.176  23.743  1.00  0.00    -0.020 A 
ATOM     19  C   UNL A   1      33.856  17.542  23.140  1.00  0.00     0.012 A 
ATOM     20  C   UNL A   1      32.201  17.651  24.911  1.00  0.00     0.058 A 
ATOM     21  C   UNL A   1      34.368  16.358  23.676  1.00  0.00     0.051 A 
ATOM     22  C   UNL A   1      32.718  16.477  25.436  1.00  0.00     0.157 A 
ATOM     23  C   UNL A   1      33.784  15.828  24.820  1.00  0.00     0.157 A 
BRANCH  22  24
ATOM     24  O   UNL A   1      32.154  15.953  26.564  1.00  0.00    -0.504 OA
ATOM     25  H   UNL A   1      31.669  16.505  27.145  1.00  0.00     0.293 HD
ENDBRANCH  22  24
BRANCH  23  26
ATOM     26  O   UNL A   1      34.220  14.657  25.377  1.00  0.00    -0.504 OA
ATOM     27  H   UNL A   1      33.606  13.975  25.573  1.00  0.00     0.293 HD
ENDBRANCH  23  26
ENDBRANCH  17  18
ENDBRANCH   9  10
ENDBRANCH   8   9
ENDBRANCH   7   8
ENDBRANCH   5   7
ENDBRANCH   2   3
ENDBRANCH   1   2
BRANCH   1  28
ATOM     28  C   UNL A   1      42.188  21.261  27.317  1.00  0.00     0.002 C 
BRANCH  28  29
ATOM     29  C   UNL A   1      41.905  19.788  27.617  1.00  0.00     0.002 C 
BRANCH  29  30
ATOM     30  C   UNL A   1      42.743  18.789  26.824  1.00  0.00     0.021 C 
BRANCH  30  31
ATOM     31  C   UNL A   1      42.716  18.979  25.311  1.00  0.00     0.116 C 
BRANCH  31  32
ATOM     32  N   UNL A   1      43.989  18.670  24.679  1.00  0.00    -0.352 N 
ATOM     33  C   UNL A   1      45.036  19.508  24.380  1.00  0.00     0.251 C 
ATOM     34  H   UNL A   1      44.119  17.725  24.432  1.00  0.00     0.163 HD
ATOM     35  O   UNL A   1      45.979  19.106  23.703  1.00  0.00    -0.269 OA
BRANCH  33  36
ATOM     36  C   UNL A   1      45.013  20.911  24.849  1.00  0.00     0.039 A 
ATOM     37  C   UNL A   1      45.499  21.205  26.126  1.00  0.00     0.014 A 
ATOM     38  C   UNL A   1      44.530  21.934  24.030  1.00  0.00     0.014 A 
ATOM     39  C   UNL A   1      45.566  22.534  26.552  1.00  0.00     0.010 A 
ATOM     40  C   UNL A   1      44.671  23.262  24.423  1.00  0.00     0.010 A 
ATOM     41  C   UNL A   1      45.192  23.577  25.688  1.00  0.00    -0.014 A 
BRANCH  41  42
ATOM     42  C   UNL A   1      45.343  25.001  26.087  1.00  0.00     0.031 A 
ATOM     43  C   UNL A   1      46.689  25.668  26.012  1.00  0.00     0.074 A 
ATOM     44  C   UNL A   1      44.285  25.674  26.577  1.00  0.00     0.049 A 
ATOM     45  N   UNL A   1      47.036  26.878  26.376  1.00  0.00    -0.248 NA
ATOM     46  C   UNL A   1      47.799  24.861  25.483  1.00  0.00     0.031 C 
ATOM     47  C   UNL A   1      42.938  25.125  26.744  1.00  0.00     0.029 A 
ATOM     48  N   UNL A   1      44.177  26.964  27.038  1.00  0.00    -0.354 N 
ATOM     49  C   UNL A   1      48.400  26.970  26.132  1.00  0.00     0.074 A 
ATOM     50  C   UNL A   1      48.829  25.678  25.644  1.00  0.00     0.031 C 
ATOM     51  C   UNL A   1      42.134  26.078  27.246  1.00  0.00     0.029 A 
ATOM     52  C   UNL A   1      42.915  27.288  27.475  1.00  0.00     0.049 A 
ATOM     53  H   UNL A   1      44.932  27.595  27.052  1.00  0.00     0.167 HD
ATOM     54  C   UNL A   1      49.215  28.041  26.279  1.00  0.00     0.037 A 
ATOM     55  C   UNL A   1      42.445  28.432  28.010  1.00  0.00     0.037 A 
ATOM     56  C   UNL A   1      48.781  29.331  26.747  1.00  0.00     0.049 A 
ATOM     57  C   UNL A   1      43.377  29.601  28.180  1.00  0.00     0.074 A 
ATOM     58  C   UNL A   1      49.518  30.496  26.875  1.00  0.00     0.029 A 
ATOM     59  N   UNL A   1      47.493  29.626  27.173  1.00  0.00    -0.354 N 
ATOM     60  N   UNL A   1      44.648  29.699  27.877  1.00  0.00    -0.248 NA
ATOM     61  C   UNL A   1      42.804  30.823  28.763  1.00  0.00     0.031 C 
ATOM     62  C   UNL A   1      48.691  31.480  27.428  1.00  0.00     0.029 A 
ATOM     63  C   UNL A   1      47.421  30.946  27.588  1.00  0.00     0.049 A 
ATOM     64  H   UNL A   1      46.741  28.990  27.178  1.00  0.00     0.167 HD
ATOM     65  C   UNL A   1      45.019  30.998  28.200  1.00  0.00     0.074 A 
ATOM     66  C   UNL A   1      43.834  31.655  28.710  1.00  0.00     0.031 C 
ATOM     67  C   UNL A   1      46.233  31.592  28.085  1.00  0.00     0.037 A 
BRANCH  54  68
ATOM     68  C   UNL A   1      50.665  27.864  25.928  1.00  0.00     0.064 A 
ATOM     69  C   UNL A   1      51.631  27.583  26.908  1.00  0.00     0.173 A 
ATOM     70  C   UNL A   1      51.092  27.942  24.593  1.00  0.00     0.173 A 
ATOM     71  F   UNL A   1      51.280  27.508  28.201  1.00  0.00    -0.203 F 
ATOM     72  C   UNL A   1      52.972  27.422  26.569  1.00  0.00     0.198 A 
ATOM     73  C   UNL A   1      52.428  27.746  24.254  1.00  0.00     0.198 A 
ATOM     74  F   UNL A   1      50.211  28.201  23.616  1.00  0.00    -0.203 F 
ATOM     75  F   UNL A   1      53.883  27.210  27.528  1.00  0.00    -0.200 F 
ATOM     76  C   UNL A   1      53.368  27.495  25.242  1.00  0.00     0.200 A 
ATOM     77  F   UNL A   1      52.807  27.802  22.970  1.00  0.00    -0.200 F 
ATOM     78  F   UNL A   1      54.658  27.333  24.917  1.00  0.00    -0.200 F 
ENDBRANCH  54  68
BRANCH  55  79
ATOM     79  C   UNL A   1      41.014  28.535  28.405  1.00  0.00     0.064 A 
ATOM     80  C   UNL A   1      40.047  28.980  27.492  1.00  0.00     0.173 A 
ATOM     81  C   UNL A   1      40.586  28.205  29.699  1.00  0.00     0.173 A 
ATOM     82  F   UNL A   1      40.411  29.328  26.249  1.00  0.00    -0.203 F 
ATOM     83  C   UNL A   1      38.712  29.113  27.865  1.00  0.00     0.198 A 
ATOM     84  C   UNL A   1      39.245  28.309  30.061  1.00  0.00     0.198 A 
ATOM     85  F   UNL A   1      41.470  27.770  30.609  1.00  0.00    -0.203 F 
ATOM     86  F   UNL A   1      37.818  29.588  26.988  1.00  0.00    -0.200 F 
ATOM     87  C   UNL A   1      38.310  28.772  29.148  1.00  0.00     0.200 A 
ATOM     88  F   UNL A   1      38.859  27.963  31.298  1.00  0.00    -0.200 F 
ATOM     89  F   UNL A   1      37.025  28.897  29.506  1.00  0.00    -0.200 F 
ENDBRANCH  55  79
BRANCH  67  90
ATOM     90  C   UNL A   1      46.334  33.038  28.478  1.00  0.00     0.064 A 
ATOM     91  C   UNL A   1      46.621  33.429  29.794  1.00  0.00     0.173 A 
ATOM     92  C   UNL A   1      46.178  34.046  27.514  1.00  0.00     0.173 A 
ATOM     93  F   UNL A   1      46.764  32.505  30.756  1.00  0.00    -0.203 F 
ATOM     94  C   UNL A   1      46.722  34.775  30.135  1.00  0.00     0.198 A 
ATOM     95  C   UNL A   1      46.313  35.389  27.851  1.00  0.00     0.198 A 
ATOM     96  F   UNL A   1      45.908  33.727  26.238  1.00  0.00    -0.203 F 
ATOM     97  F   UNL A   1      46.945  35.126  31.409  1.00  0.00    -0.200 F 
ATOM     98  C   UNL A   1      46.575  35.753  29.163  1.00  0.00     0.200 A 
ATOM     99  F   UNL A   1      46.186  36.332  26.907  1.00  0.00    -0.200 F 
ATOM    100  F   UNL A   1      46.681  37.048  29.492  1.00  0.00    -0.200 F 
ENDBRANCH  67  90
ENDBRANCH  41  42
ENDBRANCH  33  36
ENDBRANCH  31  32
ENDBRANCH  30  31
ENDBRANCH  29  30
ENDBRANCH  28  29
ENDBRANCH   1  28
TORSDOF 19
ENDMDL
MODEL 2
REMARK VINA RESULT:     -11.2      2.254      4.175
REMARK SMILES O=C(CCCN1C(=O)/C(=C\c2ccc(O)c(O)c2)SC1=S)NCCCCCCNC(=O)c1ccc(-c2c3nc(c(-c4c(F)c(F)c(F)c(F)c4F)c4ccc([nH]4)c(-c4c(F)c(F)c(F)c(F)c4F)c4nc(c(-c5c(F)c(F)c(F)c(F)c5F)c5ccc2[nH]5)C=C4)C=C3)cc1
REMARK SMILES IDX 24 1 23 2 22 3 1 4 2 5 3 7 4 8 5 9 6 10 7 11 20 12 8 13 9 14
REMARK SMILES IDX 19 15 21 16 10 17 11 18 12 19 18 20 13 21 16 22 14 23 17 24
REMARK SMILES IDX 15 26 25 28 26 29 27 30 28 31 29 32 30 33 31 35 32 36 33 37
REMARK SMILES IDX 94 38 34 39 93 40 35 41 36 42 37 43 87 44 38 45 92 46 86 47
REMARK SMILES IDX 88 48 39 49 91 50 85 51 84 52 40 54 72 55 52 56 71 57 53 58
REMARK SMILES IDX 56 59 70 60 89 61 54 62 55 63 69 65 90 66 57 67 41 68 42 69
REMARK SMILES IDX 50 70 43 71 44 72 48 73 51 74 45 75 46 76 49 77 47 78 73 79
REMARK SMILES IDX 74 80 82 81 75 82 76 83 80 84 83 85 77 86 78 87 81 88 79 89
REMARK SMILES IDX 58 90 59 91 67 92 60 93 61 94 65 95 68 96 62 97 63 98 66 99
REMARK SMILES IDX 64 100
REMARK H PARENT 22 6 17 25 15 27 29 34 88 53 56 64
REMARK Flexibility Score: inf
ROOT
ATOM      1  C   UNL A   1      40.649  21.937  27.061  1.00  0.00     0.021 C 
ENDROOT
BRANCH   1   2
ATOM      2  C   UNL A   1      39.605  21.329  26.121  1.00  0.00     0.116 C 
BRANCH   2   3
ATOM      3  N   UNL A   1      38.639  22.321  25.698  1.00  0.00    -0.356 N 
ATOM      4  O   UNL A   1      37.057  20.876  24.891  1.00  0.00    -0.275 OA
ATOM      5  C   UNL A   1      37.415  22.017  25.160  1.00  0.00     0.220 C 
ATOM      6  H   UNL A   1      38.877  23.271  25.802  1.00  0.00     0.163 HD
BRANCH   5   7
ATOM      7  C   UNL A   1      36.514  23.228  24.960  1.00  0.00     0.102 C 
BRANCH   7   8
ATOM      8  C   UNL A   1      35.829  23.262  23.589  1.00  0.00     0.032 C 
BRANCH   8   9
ATOM      9  C   UNL A   1      34.329  22.928  23.511  1.00  0.00     0.128 C 
BRANCH   9  10
ATOM     10  N   UNL A   1      33.490  23.275  24.675  1.00  0.00    -0.293 N 
ATOM     11  C   UNL A   1      32.836  24.504  24.634  1.00  0.00     0.266 C 
ATOM     12  C   UNL A   1      33.143  22.454  25.730  1.00  0.00     0.148 C 
ATOM     13  O   UNL A   1      33.040  25.382  23.808  1.00  0.00    -0.268 OA
ATOM     14  C   UNL A   1      31.803  24.585  25.708  1.00  0.00     0.081 C 
ATOM     15  S   UNL A   1      31.937  23.226  26.745  1.00  0.00    -0.054 SA
ATOM     16  S   UNL A   1      33.652  20.917  26.114  1.00  0.00    -0.052 S 
ATOM     17  C   UNL A   1      30.855  25.515  25.887  1.00  0.00     0.029 C 
BRANCH  17  18
ATOM     18  C   UNL A   1      30.679  26.702  25.057  1.00  0.00    -0.020 A 
ATOM     19  C   UNL A   1      29.821  26.699  23.945  1.00  0.00     0.012 A 
ATOM     20  C   UNL A   1      31.405  27.851  25.377  1.00  0.00     0.058 A 
ATOM     21  C   UNL A   1      29.724  27.826  23.126  1.00  0.00     0.051 A 
ATOM     22  C   UNL A   1      31.299  28.966  24.561  1.00  0.00     0.157 A 
ATOM     23  C   UNL A   1      30.475  28.953  23.437  1.00  0.00     0.157 A 
BRANCH  22  24
ATOM     24  O   UNL A   1      32.029  30.079  24.862  1.00  0.00    -0.504 OA
ATOM     25  H   UNL A   1      31.844  30.891  24.432  1.00  0.00     0.293 HD
ENDBRANCH  22  24
BRANCH  23  26
ATOM     26  O   UNL A   1      30.447  30.077  22.661  1.00  0.00    -0.504 OA
ATOM     27  H   UNL A   1      29.861  30.778  22.873  1.00  0.00     0.293 HD
ENDBRANCH  23  26
ENDBRANCH  17  18
ENDBRANCH   9  10
ENDBRANCH   8   9
ENDBRANCH   7   8
ENDBRANCH   5   7
ENDBRANCH   2   3
ENDBRANCH   1   2
BRANCH   1  28
ATOM     28  C   UNL A   1      42.001  21.204  27.099  1.00  0.00     0.002 C 
BRANCH  28  29
ATOM     29  C   UNL A   1      41.979  19.783  27.665  1.00  0.00     0.002 C 
BRANCH  29  30
ATOM     30  C   UNL A   1      42.652  18.725  26.794  1.00  0.00     0.021 C 
BRANCH  30  31
ATOM     31  C   UNL A   1      42.653  19.025  25.298  1.00  0.00     0.116 C 
BRANCH  31  32
ATOM     32  N   UNL A   1      43.923  18.713  24.660  1.00  0.00    -0.352 N 
ATOM     33  C   UNL A   1      44.970  19.550  24.357  1.00  0.00     0.251 C 
ATOM     34  H   UNL A   1      44.050  17.769  24.412  1.00  0.00     0.163 HD
ATOM     35  O   UNL A   1      45.908  19.147  23.675  1.00  0.00    -0.269 OA
BRANCH  33  36
ATOM     36  C   UNL A   1      44.951  20.952  24.827  1.00  0.00     0.039 A 
ATOM     37  C   UNL A   1      45.379  21.236  26.127  1.00  0.00     0.014 A 
ATOM     38  C   UNL A   1      44.530  21.986  23.986  1.00  0.00     0.014 A 
ATOM     39  C   UNL A   1      45.452  22.563  26.557  1.00  0.00     0.010 A 
ATOM     40  C   UNL A   1      44.678  23.310  24.389  1.00  0.00     0.010 A 
ATOM     41  C   UNL A   1      45.141  23.614  25.678  1.00  0.00    -0.014 A 
BRANCH  41  42
ATOM     42  C   UNL A   1      45.301  25.034  26.086  1.00  0.00     0.031 A 
ATOM     43  C   UNL A   1      46.648  25.699  26.003  1.00  0.00     0.074 A 
ATOM     44  C   UNL A   1      44.250  25.706  26.593  1.00  0.00     0.049 A 
ATOM     45  N   UNL A   1      47.002  26.904  26.373  1.00  0.00    -0.248 NA
ATOM     46  C   UNL A   1      47.750  24.892  25.456  1.00  0.00     0.031 C 
ATOM     47  C   UNL A   1      42.903  25.161  26.770  1.00  0.00     0.029 A 
ATOM     48  N   UNL A   1      44.151  26.993  27.065  1.00  0.00    -0.354 N 
ATOM     49  C   UNL A   1      48.364  26.994  26.116  1.00  0.00     0.074 A 
ATOM     50  C   UNL A   1      48.785  25.704  25.613  1.00  0.00     0.031 C 
ATOM     51  C   UNL A   1      42.107  26.111  27.287  1.00  0.00     0.029 A 
ATOM     52  C   UNL A   1      42.895  27.318  27.518  1.00  0.00     0.049 A 
ATOM     53  H   UNL A   1      44.908  27.622  27.076  1.00  0.00     0.167 HD
ATOM     54  C   UNL A   1      49.184  28.062  26.262  1.00  0.00     0.037 A 
ATOM     55  C   UNL A   1      42.433  28.458  28.067  1.00  0.00     0.037 A 
ATOM     56  C   UNL A   1      48.758  29.349  26.745  1.00  0.00     0.049 A 
ATOM     57  C   UNL A   1      43.371  29.624  28.237  1.00  0.00     0.074 A 
ATOM     58  C   UNL A   1      49.500  30.511  26.875  1.00  0.00     0.029 A 
ATOM     59  N   UNL A   1      47.476  29.644  27.186  1.00  0.00    -0.354 N 
ATOM     60  N   UNL A   1      44.639  29.721  27.920  1.00  0.00    -0.248 NA
ATOM     61  C   UNL A   1      42.808  30.842  28.835  1.00  0.00     0.031 C 
ATOM     62  C   UNL A   1      48.682  31.492  27.444  1.00  0.00     0.029 A 
ATOM     63  C   UNL A   1      47.412  30.961  27.613  1.00  0.00     0.049 A 
ATOM     64  H   UNL A   1      46.722  29.010  27.194  1.00  0.00     0.167 HD
ATOM     65  C   UNL A   1      45.017  31.016  28.250  1.00  0.00     0.074 A 
ATOM     66  C   UNL A   1      43.840  31.672  28.777  1.00  0.00     0.031 C 
ATOM     67  C   UNL A   1      46.232  31.607  28.127  1.00  0.00     0.037 A 
BRANCH  54  68
ATOM     68  C   UNL A   1      50.630  27.883  25.895  1.00  0.00     0.064 A 
ATOM     69  C   UNL A   1      51.071  27.983  24.566  1.00  0.00     0.173 A 
ATOM     70  C   UNL A   1      51.593  27.642  26.887  1.00  0.00     0.173 A 
ATOM     71  F   UNL A   1      50.190  28.202  23.577  1.00  0.00    -0.203 F 
ATOM     72  C   UNL A   1      52.414  27.815  24.240  1.00  0.00     0.198 A 
ATOM     73  C   UNL A   1      52.941  27.509  26.562  1.00  0.00     0.198 A 
ATOM     74  F   UNL A   1      51.229  27.545  28.174  1.00  0.00    -0.203 F 
ATOM     75  F   UNL A   1      52.802  27.860  22.958  1.00  0.00    -0.200 F 
ATOM     76  C   UNL A   1      53.349  27.587  25.239  1.00  0.00     0.200 A 
ATOM     77  F   UNL A   1      53.845  27.303  27.529  1.00  0.00    -0.200 F 
ATOM     78  F   UNL A   1      54.642  27.432  24.925  1.00  0.00    -0.200 F 
ENDBRANCH  54  68
BRANCH  55  79
ATOM     79  C   UNL A   1      41.007  28.563  28.478  1.00  0.00     0.064 A 
ATOM     80  C   UNL A   1      40.028  28.994  27.571  1.00  0.00     0.173 A 
ATOM     81  C   UNL A   1      40.595  28.246  29.781  1.00  0.00     0.173 A 
ATOM     82  F   UNL A   1      40.376  29.329  26.320  1.00  0.00    -0.203 F 
ATOM     83  C   UNL A   1      38.697  29.128  27.959  1.00  0.00     0.198 A 
ATOM     84  C   UNL A   1      39.259  28.351  30.157  1.00  0.00     0.198 A 
ATOM     85  F   UNL A   1      41.491  27.824  30.685  1.00  0.00    -0.203 F 
ATOM     86  F   UNL A   1      37.792  29.592  27.087  1.00  0.00    -0.200 F 
ATOM     87  C   UNL A   1      38.312  28.801  29.250  1.00  0.00     0.200 A 
ATOM     88  F   UNL A   1      38.888  28.019  31.402  1.00  0.00    -0.200 F 
ATOM     89  F   UNL A   1      37.030  28.927  29.622  1.00  0.00    -0.200 F 
ENDBRANCH  55  79
BRANCH  67  90
ATOM     90  C   UNL A   1      46.341  33.050  28.530  1.00  0.00     0.064 A 
ATOM     91  C   UNL A   1      46.103  34.091  27.622  1.00  0.00     0.173 A 
ATOM     92  C   UNL A   1      46.651  33.392  29.855  1.00  0.00     0.173 A 
ATOM     93  F   UNL A   1      45.818  33.817  26.340  1.00  0.00    -0.203 F 
ATOM     94  C   UNL A   1      46.198  35.423  28.019  1.00  0.00     0.198 A 
ATOM     95  C   UNL A   1      46.712  34.723  30.257  1.00  0.00     0.198 A 
ATOM     96  F   UNL A   1      46.881  32.434  30.767  1.00  0.00    -0.203 F 
ATOM     97  F   UNL A   1      46.018  36.402  27.121  1.00  0.00    -0.200 F 
ATOM     98  C   UNL A   1      46.494  35.738  29.337  1.00  0.00     0.200 A 
ATOM     99  F   UNL A   1      46.983  35.025  31.534  1.00  0.00    -0.200 F 
ATOM    100  F   UNL A   1      46.577  37.019  29.718  1.00  0.00    -0.200 F 
ENDBRANCH  67  90
ENDBRANCH  41  42
ENDBRANCH  33  36
ENDBRANCH  31  32
ENDBRANCH  30  31
ENDBRANCH  29  30
ENDBRANCH  28  29
ENDBRANCH   1  28
TORSDOF 19
ENDMDL
MODEL 3
REMARK VINA RESULT:     -10.9      2.323      4.073
REMARK SMILES O=C(CCCN1C(=O)/C(=C\c2ccc(O)c(O)c2)SC1=S)NCCCCCCNC(=O)c1ccc(-c2c3nc(c(-c4c(F)c(F)c(F)c(F)c4F)c4ccc([nH]4)c(-c4c(F)c(F)c(F)c(F)c4F)c4nc(c(-c5c(F)c(F)c(F)c(F)c5F)c5ccc2[nH]5)C=C4)C=C3)cc1
REMARK SMILES IDX 24 1 23 2 22 3 1 4 2 5 3 7 4 8 5 9 6 10 7 11 20 12 8 13 9 14
REMARK SMILES IDX 19 15 21 16 10 17 11 18 12 19 18 20 13 21 16 22 14 23 17 24
REMARK SMILES IDX 15 26 25 28 26 29 27 30 28 31 29 32 30 33 31 35 32 36 33 37
REMARK SMILES IDX 94 38 34 39 93 40 35 41 36 42 37 43 87 44 38 45 92 46 86 47
REMARK SMILES IDX 88 48 39 49 91 50 85 51 84 52 40 54 72 55 52 56 71 57 53 58
REMARK SMILES IDX 56 59 70 60 89 61 54 62 55 63 69 65 90 66 57 67 41 68 42 69
REMARK SMILES IDX 50 70 43 71 44 72 48 73 51 74 45 75 46 76 49 77 47 78 73 79
REMARK SMILES IDX 74 80 82 81 75 82 76 83 80 84 83 85 77 86 78 87 81 88 79 89
REMARK SMILES IDX 58 90 59 91 67 92 60 93 61 94 65 95 68 96 62 97 63 98 66 99
REMARK SMILES IDX 64 100
REMARK H PARENT 22 6 17 25 15 27 29 34 88 53 56 64
REMARK Flexibility Score: inf
ROOT
ATOM      1  C   UNL A   1      40.634  21.946  27.054  1.00  0.00     0.021 C 
ENDROOT
BRANCH   1   2
ATOM      2  C   UNL A   1      39.591  21.347  26.107  1.00  0.00     0.116 C 
BRANCH   2   3
ATOM      3  N   UNL A   1      38.658  22.353  25.648  1.00  0.00    -0.356 N 
ATOM      4  O   UNL A   1      37.022  20.933  24.909  1.00  0.00    -0.275 OA
ATOM      5  C   UNL A   1      37.420  22.071  25.129  1.00  0.00     0.220 C 
ATOM      6  H   UNL A   1      38.929  23.298  25.712  1.00  0.00     0.163 HD
BRANCH   5   7
ATOM      7  C   UNL A   1      36.561  23.303  24.884  1.00  0.00     0.102 C 
BRANCH   7   8
ATOM      8  C   UNL A   1      35.844  23.290  23.529  1.00  0.00     0.032 C 
BRANCH   8   9
ATOM      9  C   UNL A   1      34.320  23.078  23.508  1.00  0.00     0.128 C 
BRANCH   9  10
ATOM     10  N   UNL A   1      33.563  23.440  24.723  1.00  0.00    -0.293 N 
ATOM     11  C   UNL A   1      32.980  24.705  24.746  1.00  0.00     0.266 C 
ATOM     12  C   UNL A   1      33.223  22.612  25.774  1.00  0.00     0.148 C 
ATOM     13  O   UNL A   1      33.192  25.592  23.932  1.00  0.00    -0.268 OA
ATOM     14  C   UNL A   1      32.009  24.815  25.874  1.00  0.00     0.081 C 
ATOM     15  S   UNL A   1      32.117  23.422  26.869  1.00  0.00    -0.054 SA
ATOM     16  S   UNL A   1      33.660  21.038  26.093  1.00  0.00    -0.052 S 
ATOM     17  C   UNL A   1      31.127  25.791  26.125  1.00  0.00     0.029 C 
BRANCH  17  18
ATOM     18  C   UNL A   1      30.978  27.009  25.334  1.00  0.00    -0.020 A 
ATOM     19  C   UNL A   1      31.669  28.186  25.663  1.00  0.00     0.012 A 
ATOM     20  C   UNL A   1      30.106  26.990  24.242  1.00  0.00     0.058 A 
ATOM     21  C   UNL A   1      31.454  29.357  24.932  1.00  0.00     0.051 A 
ATOM     22  C   UNL A   1      29.904  28.156  23.522  1.00  0.00     0.157 A 
ATOM     23  C   UNL A   1      30.561  29.334  23.868  1.00  0.00     0.157 A 
BRANCH  22  24
ATOM     24  O   UNL A   1      29.032  28.141  22.471  1.00  0.00    -0.504 OA
ATOM     25  H   UNL A   1      28.115  28.020  22.625  1.00  0.00     0.293 HD
ENDBRANCH  22  24
BRANCH  23  26
ATOM     26  O   UNL A   1      30.286  30.453  23.131  1.00  0.00    -0.504 OA
ATOM     27  H   UNL A   1      30.760  30.620  22.340  1.00  0.00     0.293 HD
ENDBRANCH  23  26
ENDBRANCH  17  18
ENDBRANCH   9  10
ENDBRANCH   8   9
ENDBRANCH   7   8
ENDBRANCH   5   7
ENDBRANCH   2   3
ENDBRANCH   1   2
BRANCH   1  28
ATOM     28  C   UNL A   1      41.978  21.202  27.104  1.00  0.00     0.002 C 
BRANCH  28  29
ATOM     29  C   UNL A   1      41.936  19.776  27.655  1.00  0.00     0.002 C 
BRANCH  29  30
ATOM     30  C   UNL A   1      42.507  18.703  26.731  1.00  0.00     0.021 C 
BRANCH  30  31
ATOM     31  C   UNL A   1      42.589  19.097  25.259  1.00  0.00     0.116 C 
BRANCH  31  32
ATOM     32  N   UNL A   1      43.868  18.757  24.654  1.00  0.00    -0.352 N 
ATOM     33  C   UNL A   1      44.940  19.570  24.374  1.00  0.00     0.251 C 
ATOM     34  H   UNL A   1      43.982  17.809  24.412  1.00  0.00     0.163 HD
ATOM     35  O   UNL A   1      45.886  19.145  23.717  1.00  0.00    -0.269 OA
BRANCH  33  36
ATOM     36  C   UNL A   1      44.938  20.974  24.839  1.00  0.00     0.039 A 
ATOM     37  C   UNL A   1      45.362  21.257  26.140  1.00  0.00     0.014 A 
ATOM     38  C   UNL A   1      44.537  22.011  23.992  1.00  0.00     0.014 A 
ATOM     39  C   UNL A   1      45.452  22.584  26.567  1.00  0.00     0.010 A 
ATOM     40  C   UNL A   1      44.702  23.335  24.391  1.00  0.00     0.010 A 
ATOM     41  C   UNL A   1      45.162  23.636  25.682  1.00  0.00    -0.014 A 
BRANCH  41  42
ATOM     42  C   UNL A   1      45.340  25.055  26.086  1.00  0.00     0.031 A 
ATOM     43  C   UNL A   1      46.696  25.701  26.006  1.00  0.00     0.074 A 
ATOM     44  C   UNL A   1      44.296  25.744  26.586  1.00  0.00     0.049 A 
ATOM     45  N   UNL A   1      47.066  26.902  26.373  1.00  0.00    -0.248 NA
ATOM     46  C   UNL A   1      47.789  24.877  25.466  1.00  0.00     0.031 C 
ATOM     47  C   UNL A   1      42.941  25.217  26.759  1.00  0.00     0.029 A 
ATOM     48  N   UNL A   1      44.213  27.033  27.053  1.00  0.00    -0.354 N 
ATOM     49  C   UNL A   1      48.429  26.972  26.121  1.00  0.00     0.074 A 
ATOM     50  C   UNL A   1      48.834  25.675  25.624  1.00  0.00     0.031 C 
ATOM     51  C   UNL A   1      42.157  26.181  27.270  1.00  0.00     0.029 A 
ATOM     52  C   UNL A   1      42.960  27.377  27.500  1.00  0.00     0.049 A 
ATOM     53  H   UNL A   1      44.978  27.652  27.066  1.00  0.00     0.167 HD
ATOM     54  C   UNL A   1      49.264  28.029  26.267  1.00  0.00     0.037 A 
ATOM     55  C   UNL A   1      42.512  28.526  28.043  1.00  0.00     0.037 A 
ATOM     56  C   UNL A   1      48.854  29.324  26.745  1.00  0.00     0.049 A 
ATOM     57  C   UNL A   1      43.465  29.678  28.213  1.00  0.00     0.074 A 
ATOM     58  C   UNL A   1      49.611  30.476  26.873  1.00  0.00     0.029 A 
ATOM     59  N   UNL A   1      47.574  29.638  27.179  1.00  0.00    -0.354 N 
ATOM     60  N   UNL A   1      44.735  29.757  27.902  1.00  0.00    -0.248 NA
ATOM     61  C   UNL A   1      42.917  30.907  28.806  1.00  0.00     0.031 C 
ATOM     62  C   UNL A   1      48.805  31.470  27.435  1.00  0.00     0.029 A 
ATOM     63  C   UNL A   1      47.527  30.958  27.602  1.00  0.00     0.049 A 
ATOM     64  H   UNL A   1      46.811  29.015  27.186  1.00  0.00     0.167 HD
ATOM     65  C   UNL A   1      45.131  31.047  28.229  1.00  0.00     0.074 A 
ATOM     66  C   UNL A   1      43.960  31.722  28.749  1.00  0.00     0.031 C 
ATOM     67  C   UNL A   1      46.353  31.621  28.109  1.00  0.00     0.037 A 
BRANCH  54  68
ATOM     68  C   UNL A   1      50.708  27.829  25.907  1.00  0.00     0.064 A 
ATOM     69  C   UNL A   1      51.660  27.441  26.863  1.00  0.00     0.173 A 
ATOM     70  C   UNL A   1      51.143  27.995  24.582  1.00  0.00     0.173 A 
ATOM     71  F   UNL A   1      51.300  27.279  28.146  1.00  0.00    -0.203 F 
ATOM     72  C   UNL A   1      52.996  27.260  26.515  1.00  0.00     0.198 A 
ATOM     73  C   UNL A   1      52.474  27.779  24.231  1.00  0.00     0.198 A 
ATOM     74  F   UNL A   1      50.276  28.358  23.626  1.00  0.00    -0.203 F 
ATOM     75  F   UNL A   1      53.895  26.943  27.457  1.00  0.00    -0.200 F 
ATOM     76  C   UNL A   1      53.400  27.421  25.199  1.00  0.00     0.200 A 
ATOM     77  F   UNL A   1      52.859  27.921  22.956  1.00  0.00    -0.200 F 
ATOM     78  F   UNL A   1      54.684  27.239  24.864  1.00  0.00    -0.200 F 
ENDBRANCH  54  68
BRANCH  55  79
ATOM     79  C   UNL A   1      41.086  28.651  28.448  1.00  0.00     0.064 A 
ATOM     80  C   UNL A   1      40.685  28.371  29.763  1.00  0.00     0.173 A 
ATOM     81  C   UNL A   1      40.096  29.040  27.534  1.00  0.00     0.173 A 
ATOM     82  F   UNL A   1      41.591  27.975  30.668  1.00  0.00    -0.203 F 
ATOM     83  C   UNL A   1      39.347  28.453  30.140  1.00  0.00     0.198 A 
ATOM     84  C   UNL A   1      38.763  29.152  27.921  1.00  0.00     0.198 A 
ATOM     85  F   UNL A   1      40.428  29.324  26.266  1.00  0.00    -0.203 F 
ATOM     86  F   UNL A   1      38.985  28.131  31.389  1.00  0.00    -0.200 F 
ATOM     87  C   UNL A   1      38.387  28.848  29.220  1.00  0.00     0.200 A 
ATOM     88  F   UNL A   1      37.842  29.549  27.033  1.00  0.00    -0.200 F 
ATOM     89  F   UNL A   1      37.100  28.930  29.585  1.00  0.00    -0.200 F 
ENDBRANCH  55  79
BRANCH  67  90
ATOM     90  C   UNL A   1      46.481  33.064  28.508  1.00  0.00     0.064 A 
ATOM     91  C   UNL A   1      46.851  33.442  29.806  1.00  0.00     0.173 A 
ATOM     92  C   UNL A   1      46.266  34.080  27.564  1.00  0.00     0.173 A 
ATOM     93  F   UNL A   1      47.054  32.509  30.749  1.00  0.00    -0.203 F 
ATOM     94  C   UNL A   1      46.976  34.785  30.153  1.00  0.00     0.198 A 
ATOM     95  C   UNL A   1      46.424  35.420  27.905  1.00  0.00     0.198 A 
ATOM     96  F   UNL A   1      45.916  33.773  26.305  1.00  0.00    -0.203 F 
ATOM     97  F   UNL A   1      47.279  35.124  31.413  1.00  0.00    -0.200 F 
ATOM     98  C   UNL A   1      46.769  35.772  29.200  1.00  0.00     0.200 A 
ATOM     99  F   UNL A   1      46.239  36.372  26.979  1.00  0.00    -0.200 F 
ATOM    100  F   UNL A   1      46.897  37.063  29.534  1.00  0.00    -0.200 F 
ENDBRANCH  67  90
ENDBRANCH  41  42
ENDBRANCH  33  36
ENDBRANCH  31  32
ENDBRANCH  30  31
ENDBRANCH  29  30
ENDBRANCH  28  29
ENDBRANCH   1  28
TORSDOF 19
ENDMDL
