MODEL 1
REMARK VINA RESULT:     -11.9      0.000      0.000
REMARK SMILES COC(=O)c1ccc([C@H]2CC(=O)Nc3c(C(=O)NCCCCCCNC(=O)c4ccc(-c5c6nc(c(-c7c(F)c(F)c(F)c(F)c7F)c7ccc([nH]7)c(-c7c(F)c(F)c(F)c(F)c7F)c7nc(c(-c8c(F)c(F)c(F)c(F)c8F)c8ccc5[nH]8)C=C7)C=C6)cc4)cn(-c4cc(OC)ccc4OC)c32)cc1
REMARK SMILES IDX 21 1 20 2 19 3 18 4 16 5 17 6 15 8 9 9 10 10 103 11 11 12
REMARK SMILES IDX 14 13 92 14 12 15 13 16 91 17 8 19 5 20 6 21 105 22 7 23
REMARK SMILES IDX 104 24 3 25 4 26 2 27 1 28 93 29 94 30 100 31 95 32 99 33
REMARK SMILES IDX 98 34 101 35 102 36 96 37 97 38 22 39 23 40 24 41 25 42
REMARK SMILES IDX 26 43 27 45 28 46 29 47 90 48 30 49 89 50 31 51 32 52 33 53
REMARK SMILES IDX 83 54 34 55 88 56 82 57 84 58 35 59 87 60 81 61 80 62 36 64
REMARK SMILES IDX 68 65 48 66 67 67 49 68 52 69 66 70 85 71 50 72 51 73 65 75
REMARK SMILES IDX 86 76 53 77 37 78 38 79 46 80 39 81 40 82 44 83 47 84 41 85
REMARK SMILES IDX 42 86 45 87 43 88 69 89 70 90 78 91 71 92 72 93 76 94 79 95
REMARK SMILES IDX 73 96 74 97 77 98 75 99 54 100 55 101 63 102 56 103 57 104
REMARK SMILES IDX 61 105 64 106 58 107 59 108 62 109 60 110
REMARK H PARENT 18 7 13 18 25 44 84 63 52 74
REMARK Flexibility Score: inf
ROOT
ATOM      1  C   UNL A   1      44.952  33.065  27.138  1.00  0.00     0.002 C 
ENDROOT
BRANCH   1   2
ATOM      2  C   UNL A   1      43.784  32.256  27.707  1.00  0.00     0.021 C 
BRANCH   2   3
ATOM      3  C   UNL A   1      43.937  30.747  27.479  1.00  0.00     0.116 C 
BRANCH   3   4
ATOM      4  N   UNL A   1      43.044  30.309  26.445  1.00  0.00    -0.352 N 
ATOM      5  C   UNL A   1      42.870  29.115  25.817  1.00  0.00     0.254 C 
ATOM      6  O   UNL A   1      41.934  29.084  25.012  1.00  0.00    -0.269 OA
ATOM      7  H   UNL A   1      42.435  31.015  26.125  1.00  0.00     0.163 HD
BRANCH   5   8
ATOM      8  C   UNL A   1      43.700  27.922  26.025  1.00  0.00     0.081 A 
ATOM      9  C   UNL A   1      46.150  25.091  25.660  1.00  0.00     0.078 C 
ATOM     10  C   UNL A   1      47.017  25.626  24.511  1.00  0.00     0.115 C 
ATOM     11  C   UNL A   1      45.032  26.051  26.012  1.00  0.00     0.055 A 
ATOM     12  C   UNL A   1      46.969  27.108  24.273  1.00  0.00     0.225 C 
ATOM     13  C   UNL A   1      44.887  27.325  25.491  1.00  0.00     0.076 A 
ATOM     14  N   UNL A   1      43.974  25.837  26.881  1.00  0.00    -0.314 N 
ATOM     15  O   UNL A   1      47.871  27.697  23.673  1.00  0.00    -0.275 OA
ATOM     16  N   UNL A   1      45.839  27.782  24.616  1.00  0.00    -0.324 N 
ATOM     17  C   UNL A   1      43.275  27.007  26.983  1.00  0.00     0.107 A 
ATOM     18  H   UNL A   1      45.693  28.665  24.206  1.00  0.00     0.170 HD
BRANCH   9  19
ATOM     19  C   UNL A   1      45.761  23.663  25.273  1.00  0.00    -0.038 A 
ATOM     20  C   UNL A   1      44.979  21.018  24.686  1.00  0.00     0.060 A 
ATOM     21  C   UNL A   1      45.654  21.305  25.877  1.00  0.00     0.016 A 
ATOM     22  C   UNL A   1      44.766  22.038  23.758  1.00  0.00     0.016 A 
ATOM     23  C   UNL A   1      46.028  22.618  26.174  1.00  0.00     0.005 A 
ATOM     24  C   UNL A   1      45.200  23.335  24.033  1.00  0.00     0.005 A 
BRANCH  20  25
ATOM     25  C   UNL A   1      44.484  19.632  24.473  1.00  0.00     0.337 C 
ATOM     26  O   UNL A   1      45.184  18.720  24.084  1.00  0.00    -0.246 OA
BRANCH  25  27
ATOM     27  O   UNL A   1      43.167  19.548  24.800  1.00  0.00    -0.465 OA
ATOM     28  C   UNL A   1      42.922  18.938  26.065  1.00  0.00     0.282 C 
ENDBRANCH  25  27
ENDBRANCH  20  25
ENDBRANCH   9  19
BRANCH  14  29
ATOM     29  C   UNL A   1      43.631  24.650  27.560  1.00  0.00     0.091 A 
ATOM     30  C   UNL A   1      42.513  23.956  27.057  1.00  0.00     0.077 A 
ATOM     31  C   UNL A   1      44.276  24.214  28.729  1.00  0.00     0.143 A 
ATOM     32  C   UNL A   1      41.975  22.869  27.741  1.00  0.00     0.121 A 
ATOM     33  C   UNL A   1      43.725  23.099  29.384  1.00  0.00     0.052 A 
ATOM     34  C   UNL A   1      42.584  22.443  28.913  1.00  0.00     0.050 A 
BRANCH  31  35
ATOM     35  O   UNL A   1      45.316  24.706  29.458  1.00  0.00    -0.495 OA
ATOM     36  C   UNL A   1      45.198  25.305  30.734  1.00  0.00     0.278 C 
ENDBRANCH  31  35
BRANCH  32  37
ATOM     37  O   UNL A   1      40.862  22.320  27.169  1.00  0.00    -0.497 OA
ATOM     38  C   UNL A   1      39.801  23.223  26.877  1.00  0.00     0.278 C 
ENDBRANCH  32  37
ENDBRANCH  14  29
ENDBRANCH   5   8
ENDBRANCH   3   4
ENDBRANCH   2   3
ENDBRANCH   1   2
BRANCH   1  39
ATOM     39  C   UNL A   1      44.575  33.987  25.966  1.00  0.00     0.002 C 
BRANCH  39  40
ATOM     40  C   UNL A   1      45.468  35.224  25.771  1.00  0.00     0.021 C 
BRANCH  40  41
ATOM     41  C   UNL A   1      46.395  35.479  26.949  1.00  0.00     0.116 C 
BRANCH  41  42
ATOM     42  N   UNL A   1      46.162  36.805  27.525  1.00  0.00    -0.352 N 
ATOM     43  C   UNL A   1      45.079  37.282  28.226  1.00  0.00     0.251 C 
ATOM     44  H   UNL A   1      46.891  37.453  27.389  1.00  0.00     0.163 HD
ATOM     45  O   UNL A   1      44.880  38.487  28.330  1.00  0.00    -0.269 OA
BRANCH  43  46
ATOM     46  C   UNL A   1      44.162  36.324  28.857  1.00  0.00     0.039 A 
ATOM     47  C   UNL A   1      44.576  35.519  29.920  1.00  0.00     0.014 A 
ATOM     48  C   UNL A   1      42.859  36.251  28.372  1.00  0.00     0.014 A 
ATOM     49  C   UNL A   1      43.641  34.694  30.534  1.00  0.00     0.010 A 
ATOM     50  C   UNL A   1      41.902  35.586  29.089  1.00  0.00     0.010 A 
ATOM     51  C   UNL A   1      42.298  34.752  30.124  1.00  0.00    -0.014 A 
BRANCH  51  52
ATOM     52  C   UNL A   1      41.260  34.046  30.860  1.00  0.00     0.031 A 
ATOM     53  C   UNL A   1      41.629  33.787  32.274  1.00  0.00     0.074 A 
ATOM     54  C   UNL A   1      40.018  33.836  30.373  1.00  0.00     0.049 A 
ATOM     55  N   UNL A   1      41.946  32.651  32.796  1.00  0.00    -0.248 NA
ATOM     56  C   UNL A   1      41.857  34.937  33.166  1.00  0.00     0.031 C 
ATOM     57  C   UNL A   1      39.450  34.327  29.111  1.00  0.00     0.029 A 
ATOM     58  N   UNL A   1      38.951  33.217  30.952  1.00  0.00    -0.354 N 
ATOM     59  C   UNL A   1      42.169  32.907  34.145  1.00  0.00     0.074 A 
ATOM     60  C   UNL A   1      42.327  34.331  34.260  1.00  0.00     0.031 C 
ATOM     61  C   UNL A   1      38.106  34.196  29.131  1.00  0.00     0.029 A 
ATOM     62  C   UNL A   1      37.733  33.457  30.322  1.00  0.00     0.049 A 
ATOM     63  H   UNL A   1      39.036  32.645  31.750  1.00  0.00     0.167 HD
ATOM     64  C   UNL A   1      41.860  31.956  35.070  1.00  0.00     0.037 A 
ATOM     65  C   UNL A   1      36.504  33.087  30.759  1.00  0.00     0.037 A 
ATOM     66  C   UNL A   1      41.688  30.672  34.427  1.00  0.00     0.049 A 
ATOM     67  C   UNL A   1      36.709  31.980  31.721  1.00  0.00     0.074 A 
ATOM     68  C   UNL A   1      42.476  29.812  33.690  1.00  0.00     0.029 A 
ATOM     69  N   UNL A   1      40.388  30.318  34.175  1.00  0.00    -0.354 N 
ATOM     70  N   UNL A   1      37.147  30.800  31.386  1.00  0.00    -0.248 NA
ATOM     71  C   UNL A   1      36.814  32.308  33.134  1.00  0.00     0.031 C 
ATOM     72  C   UNL A   1      41.596  29.211  32.737  1.00  0.00     0.029 A 
ATOM     73  C   UNL A   1      40.301  29.673  32.975  1.00  0.00     0.049 A 
ATOM     74  H   UNL A   1      39.627  30.502  34.772  1.00  0.00     0.167 HD
ATOM     75  C   UNL A   1      37.987  30.436  32.425  1.00  0.00     0.074 A 
ATOM     76  C   UNL A   1      37.620  31.320  33.529  1.00  0.00     0.031 C 
ATOM     77  C   UNL A   1      39.095  29.674  32.177  1.00  0.00     0.037 A 
BRANCH  64  78
ATOM     78  C   UNL A   1      41.194  32.251  36.406  1.00  0.00     0.064 A 
ATOM     79  C   UNL A   1      40.013  33.026  36.403  1.00  0.00     0.173 A 
ATOM     80  C   UNL A   1      41.827  32.131  37.663  1.00  0.00     0.173 A 
ATOM     81  F   UNL A   1      39.327  33.220  35.266  1.00  0.00    -0.203 F 
ATOM     82  C   UNL A   1      39.575  33.716  37.537  1.00  0.00     0.198 A 
ATOM     83  C   UNL A   1      41.357  32.780  38.804  1.00  0.00     0.198 A 
ATOM     84  F   UNL A   1      42.983  31.482  37.832  1.00  0.00    -0.203 F 
ATOM     85  F   UNL A   1      38.538  34.559  37.443  1.00  0.00    -0.200 F 
ATOM     86  C   UNL A   1      40.255  33.603  38.734  1.00  0.00     0.200 A 
ATOM     87  F   UNL A   1      42.045  32.672  39.951  1.00  0.00    -0.200 F 
ATOM     88  F   UNL A   1      39.885  34.321  39.802  1.00  0.00    -0.200 F 
ENDBRANCH  64  78
BRANCH  65  89
ATOM     89  C   UNL A   1      35.200  33.780  30.625  1.00  0.00     0.064 A 
ATOM     90  C   UNL A   1      34.832  34.807  31.514  1.00  0.00     0.173 A 
ATOM     91  C   UNL A   1      34.429  33.666  29.453  1.00  0.00     0.173 A 
ATOM     92  F   UNL A   1      35.537  35.012  32.636  1.00  0.00    -0.203 F 
ATOM     93  C   UNL A   1      33.787  35.692  31.226  1.00  0.00     0.198 A 
ATOM     94  C   UNL A   1      33.382  34.546  29.169  1.00  0.00     0.198 A 
ATOM     95  F   UNL A   1      34.739  32.763  28.512  1.00  0.00    -0.203 F 
ATOM     96  F   UNL A   1      33.516  36.703  32.062  1.00  0.00    -0.200 F 
ATOM     97  C   UNL A   1      33.073  35.570  30.046  1.00  0.00     0.200 A 
ATOM     98  F   UNL A   1      32.722  34.440  28.006  1.00  0.00    -0.200 F 
ATOM     99  F   UNL A   1      32.119  36.458  29.734  1.00  0.00    -0.200 F 
ENDBRANCH  65  89
BRANCH  77 100
ATOM    100  C   UNL A   1      39.127  28.910  30.883  1.00  0.00     0.064 A 
ATOM    101  C   UNL A   1      39.563  29.427  29.651  1.00  0.00     0.173 A 
ATOM    102  C   UNL A   1      38.780  27.552  30.925  1.00  0.00     0.173 A 
ATOM    103  F   UNL A   1      39.998  30.689  29.544  1.00  0.00    -0.203 F 
ATOM    104  C   UNL A   1      39.600  28.631  28.507  1.00  0.00     0.198 A 
ATOM    105  C   UNL A   1      38.856  26.750  29.791  1.00  0.00     0.198 A 
ATOM    106  F   UNL A   1      38.399  26.992  32.084  1.00  0.00    -0.203 F 
ATOM    107  F   UNL A   1      39.995  29.153  27.336  1.00  0.00    -0.200 F 
ATOM    108  C   UNL A   1      39.253  27.291  28.580  1.00  0.00     0.200 A 
ATOM    109  F   UNL A   1      38.562  25.445  29.879  1.00  0.00    -0.200 F 
ATOM    110  F   UNL A   1      39.320  26.517  27.487  1.00  0.00    -0.200 F 
ENDBRANCH  77 100
ENDBRANCH  51  52
ENDBRANCH  43  46
ENDBRANCH  41  42
ENDBRANCH  40  41
ENDBRANCH  39  40
ENDBRANCH   1  39
TORSDOF 19
ENDMDL
MODEL 2
REMARK VINA RESULT:     -10.7      4.622     12.947
REMARK SMILES COC(=O)c1ccc([C@H]2CC(=O)Nc3c(C(=O)NCCCCCCNC(=O)c4ccc(-c5c6nc(c(-c7c(F)c(F)c(F)c(F)c7F)c7ccc([nH]7)c(-c7c(F)c(F)c(F)c(F)c7F)c7nc(c(-c8c(F)c(F)c(F)c(F)c8F)c8ccc5[nH]8)C=C7)C=C6)cc4)cn(-c4cc(OC)ccc4OC)c32)cc1
REMARK SMILES IDX 21 1 20 2 19 3 18 4 16 5 17 6 15 8 9 9 10 10 103 11 11 12
REMARK SMILES IDX 14 13 92 14 12 15 13 16 91 17 8 19 5 20 6 21 105 22 7 23
REMARK SMILES IDX 104 24 3 25 4 26 2 27 1 28 93 29 94 30 100 31 95 32 99 33
REMARK SMILES IDX 98 34 101 35 102 36 96 37 97 38 22 39 23 40 24 41 25 42
REMARK SMILES IDX 26 43 27 45 28 46 29 47 90 48 30 49 89 50 31 51 32 52 33 53
REMARK SMILES IDX 83 54 34 55 88 56 82 57 84 58 35 59 87 60 81 61 80 62 36 64
REMARK SMILES IDX 68 65 48 66 67 67 49 68 52 69 66 70 85 71 50 72 51 73 65 75
REMARK SMILES IDX 86 76 53 77 37 78 38 79 46 80 39 81 40 82 44 83 47 84 41 85
REMARK SMILES IDX 42 86 45 87 43 88 69 89 70 90 78 91 71 92 72 93 76 94 79 95
REMARK SMILES IDX 73 96 74 97 77 98 75 99 54 100 55 101 63 102 56 103 57 104
REMARK SMILES IDX 61 105 64 106 58 107 59 108 62 109 60 110
REMARK H PARENT 18 7 13 18 25 44 84 63 52 74
REMARK Flexibility Score: inf
ROOT
ATOM      1  C   UNL A   1      46.434  28.195  35.243  1.00  0.00     0.002 C 
ENDROOT
BRANCH   1   2
ATOM      2  C   UNL A   1      45.132  28.794  34.708  1.00  0.00     0.021 C 
BRANCH   2   3
ATOM      3  C   UNL A   1      44.339  29.552  35.780  1.00  0.00     0.116 C 
BRANCH   3   4
ATOM      4  N   UNL A   1      43.175  28.804  36.158  1.00  0.00    -0.352 N 
ATOM      5  C   UNL A   1      41.842  29.023  35.998  1.00  0.00     0.254 C 
ATOM      6  O   UNL A   1      41.115  28.105  36.391  1.00  0.00    -0.269 OA
ATOM      7  H   UNL A   1      43.383  27.963  36.627  1.00  0.00     0.163 HD
BRANCH   5   8
ATOM      8  C   UNL A   1      41.247  30.235  35.423  1.00  0.00     0.081 A 
ATOM      9  C   UNL A   1      39.303  33.401  34.832  1.00  0.00     0.078 C 
ATOM     10  C   UNL A   1      38.995  33.807  36.280  1.00  0.00     0.115 C 
ATOM     11  C   UNL A   1      40.084  32.104  34.768  1.00  0.00     0.055 A 
ATOM     12  C   UNL A   1      39.873  33.210  37.342  1.00  0.00     0.225 C 
ATOM     13  C   UNL A   1      40.606  31.438  35.863  1.00  0.00     0.076 A 
ATOM     14  N   UNL A   1      40.401  31.361  33.642  1.00  0.00    -0.314 N 
ATOM     15  O   UNL A   1      39.989  33.729  38.454  1.00  0.00    -0.275 OA
ATOM     16  N   UNL A   1      40.444  31.999  37.103  1.00  0.00    -0.324 N 
ATOM     17  C   UNL A   1      41.210  30.333  34.036  1.00  0.00     0.107 A 
ATOM     18  H   UNL A   1      40.766  31.486  37.880  1.00  0.00     0.170 HD
BRANCH   9  19
ATOM     19  C   UNL A   1      37.973  33.464  34.079  1.00  0.00    -0.038 A 
ATOM     20  C   UNL A   1      35.596  33.595  32.568  1.00  0.00     0.060 A 
ATOM     21  C   UNL A   1      36.574  34.585  32.429  1.00  0.00     0.016 A 
ATOM     22  C   UNL A   1      35.773  32.586  33.516  1.00  0.00     0.016 A 
ATOM     23  C   UNL A   1      37.757  34.511  33.167  1.00  0.00     0.005 A 
ATOM     24  C   UNL A   1      36.930  32.555  34.295  1.00  0.00     0.005 A 
BRANCH  20  25
ATOM     25  C   UNL A   1      34.413  33.642  31.667  1.00  0.00     0.337 C 
ATOM     26  O   UNL A   1      34.253  32.889  30.729  1.00  0.00    -0.246 OA
BRANCH  25  27
ATOM     27  O   UNL A   1      33.554  34.616  32.069  1.00  0.00    -0.465 OA
ATOM     28  C   UNL A   1      33.367  35.654  31.111  1.00  0.00     0.282 C 
ENDBRANCH  25  27
ENDBRANCH  20  25
ENDBRANCH   9  19
BRANCH  14  29
ATOM     29  C   UNL A   1      39.988  31.577  32.312  1.00  0.00     0.091 A 
ATOM     30  C   UNL A   1      40.684  32.579  31.608  1.00  0.00     0.077 A 
ATOM     31  C   UNL A   1      38.889  30.926  31.727  1.00  0.00     0.143 A 
ATOM     32  C   UNL A   1      40.259  33.002  30.351  1.00  0.00     0.121 A 
ATOM     33  C   UNL A   1      38.499  31.356  30.447  1.00  0.00     0.052 A 
ATOM     34  C   UNL A   1      39.157  32.387  29.771  1.00  0.00     0.050 A 
BRANCH  31  35
ATOM     35  O   UNL A   1      38.016  29.983  32.180  1.00  0.00    -0.495 OA
ATOM     36  C   UNL A   1      38.360  28.649  32.496  1.00  0.00     0.278 C 
ENDBRANCH  31  35
BRANCH  32  37
ATOM     37  O   UNL A   1      40.994  34.015  29.803  1.00  0.00    -0.497 OA
ATOM     38  C   UNL A   1      42.400  33.951  30.016  1.00  0.00     0.278 C 
ENDBRANCH  32  37
ENDBRANCH  14  29
ENDBRANCH   5   8
ENDBRANCH   3   4
ENDBRANCH   2   3
ENDBRANCH   1   2
BRANCH   1  39
ATOM     39  C   UNL A   1      46.633  28.357  36.759  1.00  0.00     0.002 C 
BRANCH  39  40
ATOM     40  C   UNL A   1      46.426  27.088  37.603  1.00  0.00     0.021 C 
BRANCH  40  41
ATOM     41  C   UNL A   1      47.313  25.933  37.166  1.00  0.00     0.116 C 
BRANCH  41  42
ATOM     42  N   UNL A   1      46.594  24.660  37.236  1.00  0.00    -0.352 N 
ATOM     43  C   UNL A   1      45.734  24.085  36.330  1.00  0.00     0.251 C 
ATOM     44  H   UNL A   1      46.750  24.136  38.055  1.00  0.00     0.163 HD
ATOM     45  O   UNL A   1      44.950  23.208  36.676  1.00  0.00    -0.269 OA
BRANCH  43  46
ATOM     46  C   UNL A   1      45.768  24.535  34.932  1.00  0.00     0.039 A 
ATOM     47  C   UNL A   1      46.905  24.352  34.142  1.00  0.00     0.014 A 
ATOM     48  C   UNL A   1      44.626  25.137  34.410  1.00  0.00     0.014 A 
ATOM     49  C   UNL A   1      46.850  24.718  32.802  1.00  0.00     0.010 A 
ATOM     50  C   UNL A   1      44.510  25.321  33.060  1.00  0.00     0.010 A 
ATOM     51  C   UNL A   1      45.637  25.183  32.265  1.00  0.00    -0.014 A 
BRANCH  51  52
ATOM     52  C   UNL A   1      45.488  25.400  30.833  1.00  0.00     0.031 A 
ATOM     53  C   UNL A   1      46.492  26.344  30.283  1.00  0.00     0.074 A 
ATOM     54  C   UNL A   1      44.665  24.664  30.055  1.00  0.00     0.049 A 
ATOM     55  N   UNL A   1      46.281  27.555  29.889  1.00  0.00    -0.248 NA
ATOM     56  C   UNL A   1      47.916  25.980  30.353  1.00  0.00     0.031 C 
ATOM     57  C   UNL A   1      43.863  23.496  30.442  1.00  0.00     0.029 A 
ATOM     58  N   UNL A   1      44.442  24.740  28.713  1.00  0.00    -0.354 N 
ATOM     59  C   UNL A   1      47.508  28.016  29.424  1.00  0.00     0.074 A 
ATOM     60  C   UNL A   1      48.498  27.111  29.942  1.00  0.00     0.031 C 
ATOM     61  C   UNL A   1      43.442  22.843  29.337  1.00  0.00     0.029 A 
ATOM     62  C   UNL A   1      43.790  23.634  28.173  1.00  0.00     0.049 A 
ATOM     63  H   UNL A   1      44.718  25.513  28.169  1.00  0.00     0.167 HD
ATOM     64  C   UNL A   1      47.545  28.895  28.385  1.00  0.00     0.037 A 
ATOM     65  C   UNL A   1      43.568  23.381  26.859  1.00  0.00     0.037 A 
ATOM     66  C   UNL A   1      46.240  29.485  28.183  1.00  0.00     0.049 A 
ATOM     67  C   UNL A   1      43.676  24.677  26.152  1.00  0.00     0.074 A 
ATOM     68  C   UNL A   1      45.377  30.271  28.918  1.00  0.00     0.029 A 
ATOM     69  N   UNL A   1      45.492  28.914  27.187  1.00  0.00    -0.354 N 
ATOM     70  N   UNL A   1      42.827  25.655  26.296  1.00  0.00    -0.248 NA
ATOM     71  C   UNL A   1      44.963  25.045  25.584  1.00  0.00     0.031 C 
ATOM     72  C   UNL A   1      44.064  29.845  28.547  1.00  0.00     0.029 A 
ATOM     73  C   UNL A   1      44.178  28.870  27.554  1.00  0.00     0.049 A 
ATOM     74  H   UNL A   1      45.849  28.583  26.332  1.00  0.00     0.167 HD
ATOM     75  C   UNL A   1      43.611  26.797  26.282  1.00  0.00     0.074 A 
ATOM     76  C   UNL A   1      44.877  26.373  25.687  1.00  0.00     0.031 C 
ATOM     77  C   UNL A   1      43.259  27.880  27.037  1.00  0.00     0.037 A 
BRANCH  64  78
ATOM     78  C   UNL A   1      48.550  28.823  27.244  1.00  0.00     0.064 A 
ATOM     79  C   UNL A   1      48.716  27.587  26.581  1.00  0.00     0.173 A 
ATOM     80  C   UNL A   1      49.579  29.765  27.019  1.00  0.00     0.173 A 
ATOM     81  F   UNL A   1      47.808  26.609  26.724  1.00  0.00    -0.203 F 
ATOM     82  C   UNL A   1      49.871  27.282  25.855  1.00  0.00     0.198 A 
ATOM     83  C   UNL A   1      50.706  29.473  26.251  1.00  0.00     0.198 A 
ATOM     84  F   UNL A   1      49.609  30.960  27.614  1.00  0.00    -0.203 F 
ATOM     85  F   UNL A   1      50.047  26.044  25.376  1.00  0.00    -0.200 F 
ATOM     86  C   UNL A   1      50.872  28.222  25.702  1.00  0.00     0.200 A 
ATOM     87  F   UNL A   1      51.675  30.394  26.133  1.00  0.00    -0.200 F 
ATOM     88  F   UNL A   1      52.012  27.910  25.074  1.00  0.00    -0.200 F 
ENDBRANCH  64  78
BRANCH  65  89
ATOM     89  C   UNL A   1      43.541  22.089  26.133  1.00  0.00     0.064 A 
ATOM     90  C   UNL A   1      44.733  21.455  25.739  1.00  0.00     0.173 A 
ATOM     91  C   UNL A   1      42.372  21.305  26.081  1.00  0.00     0.173 A 
ATOM     92  F   UNL A   1      45.899  22.115  25.795  1.00  0.00    -0.203 F 
ATOM     93  C   UNL A   1      44.761  20.108  25.360  1.00  0.00     0.198 A 
ATOM     94  C   UNL A   1      42.400  19.962  25.697  1.00  0.00     0.198 A 
ATOM     95  F   UNL A   1      41.197  21.796  26.498  1.00  0.00    -0.203 F 
ATOM     96  F   UNL A   1      45.928  19.519  25.064  1.00  0.00    -0.200 F 
ATOM     97  C   UNL A   1      43.596  19.359  25.354  1.00  0.00     0.200 A 
ATOM     98  F   UNL A   1      41.272  19.238  25.730  1.00  0.00    -0.200 F 
ATOM     99  F   UNL A   1      43.631  18.051  25.061  1.00  0.00    -0.200 F 
ENDBRANCH  65  89
BRANCH  77 100
ATOM    100  C   UNL A   1      41.833  27.954  27.510  1.00  0.00     0.064 A 
ATOM    101  C   UNL A   1      41.341  27.363  28.686  1.00  0.00     0.173 A 
ATOM    102  C   UNL A   1      40.946  28.746  26.767  1.00  0.00     0.173 A 
ATOM    103  F   UNL A   1      42.145  26.665  29.499  1.00  0.00    -0.203 F 
ATOM    104  C   UNL A   1      40.010  27.520  29.070  1.00  0.00     0.198 A 
ATOM    105  C   UNL A   1      39.629  28.934  27.174  1.00  0.00     0.198 A 
ATOM    106  F   UNL A   1      41.371  29.372  25.658  1.00  0.00    -0.203 F 
ATOM    107  F   UNL A   1      39.556  26.925  30.183  1.00  0.00    -0.200 F 
ATOM    108  C   UNL A   1      39.158  28.310  28.317  1.00  0.00     0.200 A 
ATOM    109  F   UNL A   1      38.823  29.737  26.466  1.00  0.00    -0.200 F 
ATOM    110  F   UNL A   1      37.886  28.489  28.703  1.00  0.00    -0.200 F 
ENDBRANCH  77 100
ENDBRANCH  51  52
ENDBRANCH  43  46
ENDBRANCH  41  42
ENDBRANCH  40  41
ENDBRANCH  39  40
ENDBRANCH   1  39
TORSDOF 19
ENDMDL
MODEL 3
REMARK VINA RESULT:     -10.6      5.058     13.148
REMARK SMILES COC(=O)c1ccc([C@H]2CC(=O)Nc3c(C(=O)NCCCCCCNC(=O)c4ccc(-c5c6nc(c(-c7c(F)c(F)c(F)c(F)c7F)c7ccc([nH]7)c(-c7c(F)c(F)c(F)c(F)c7F)c7nc(c(-c8c(F)c(F)c(F)c(F)c8F)c8ccc5[nH]8)C=C7)C=C6)cc4)cn(-c4cc(OC)ccc4OC)c32)cc1
REMARK SMILES IDX 21 1 20 2 19 3 18 4 16 5 17 6 15 8 9 9 10 10 103 11 11 12
REMARK SMILES IDX 14 13 92 14 12 15 13 16 91 17 8 19 5 20 6 21 105 22 7 23
REMARK SMILES IDX 104 24 3 25 4 26 2 27 1 28 93 29 94 30 100 31 95 32 99 33
REMARK SMILES IDX 98 34 101 35 102 36 96 37 97 38 22 39 23 40 24 41 25 42
REMARK SMILES IDX 26 43 27 45 28 46 29 47 90 48 30 49 89 50 31 51 32 52 33 53
REMARK SMILES IDX 83 54 34 55 88 56 82 57 84 58 35 59 87 60 81 61 80 62 36 64
REMARK SMILES IDX 68 65 48 66 67 67 49 68 52 69 66 70 85 71 50 72 51 73 65 75
REMARK SMILES IDX 86 76 53 77 37 78 38 79 46 80 39 81 40 82 44 83 47 84 41 85
REMARK SMILES IDX 42 86 45 87 43 88 69 89 70 90 78 91 71 92 72 93 76 94 79 95
REMARK SMILES IDX 73 96 74 97 77 98 75 99 54 100 55 101 63 102 56 103 57 104
REMARK SMILES IDX 61 105 64 106 58 107 59 108 62 109 60 110
REMARK H PARENT 18 7 13 18 25 44 84 63 52 74
REMARK Flexibility Score: inf
ROOT
ATOM      1  C   UNL A   1      37.296  33.936  32.193  1.00  0.00     0.002 C 
ENDROOT
BRANCH   1   2
ATOM      2  C   UNL A   1      38.000  33.197  33.333  1.00  0.00     0.021 C 
BRANCH   2   3
ATOM      3  C   UNL A   1      37.086  32.193  34.047  1.00  0.00     0.116 C 
BRANCH   3   4
ATOM      4  N   UNL A   1      37.872  31.202  34.724  1.00  0.00    -0.352 N 
ATOM      5  C   UNL A   1      38.379  31.126  35.985  1.00  0.00     0.254 C 
ATOM      6  O   UNL A   1      38.954  30.066  36.249  1.00  0.00    -0.269 OA
ATOM      7  H   UNL A   1      38.088  30.421  34.165  1.00  0.00     0.163 HD
BRANCH   5   8
ATOM      8  C   UNL A   1      38.292  32.186  36.996  1.00  0.00     0.081 A 
ATOM      9  C   UNL A   1      38.821  35.275  39.077  1.00  0.00     0.078 C 
ATOM     10  C   UNL A   1      39.646  36.125  38.100  1.00  0.00     0.115 C 
ATOM     11  C   UNL A   1      38.476  33.922  38.489  1.00  0.00     0.055 A 
ATOM     12  C   UNL A   1      39.555  35.751  36.649  1.00  0.00     0.225 C 
ATOM     13  C   UNL A   1      38.719  33.540  37.181  1.00  0.00     0.076 A 
ATOM     14  N   UNL A   1      37.883  32.846  39.130  1.00  0.00    -0.314 N 
ATOM     15  O   UNL A   1      39.836  36.551  35.754  1.00  0.00    -0.275 OA
ATOM     16  N   UNL A   1      39.283  34.456  36.330  1.00  0.00    -0.324 N 
ATOM     17  C   UNL A   1      37.654  31.878  38.193  1.00  0.00     0.107 A 
ATOM     18  H   UNL A   1      39.508  34.154  35.420  1.00  0.00     0.170 HD
BRANCH   9  19
ATOM     19  C   UNL A   1      39.579  35.296  40.406  1.00  0.00    -0.038 A 
ATOM     20  C   UNL A   1      41.088  35.390  42.786  1.00  0.00     0.060 A 
ATOM     21  C   UNL A   1      41.610  34.773  41.645  1.00  0.00     0.016 A 
ATOM     22  C   UNL A   1      39.785  35.890  42.758  1.00  0.00     0.016 A 
ATOM     23  C   UNL A   1      40.868  34.739  40.463  1.00  0.00     0.005 A 
ATOM     24  C   UNL A   1      39.025  35.795  41.591  1.00  0.00     0.005 A 
BRANCH  20  25
ATOM     25  C   UNL A   1      41.964  35.520  43.982  1.00  0.00     0.337 C 
ATOM     26  O   UNL A   1      42.323  36.584  44.439  1.00  0.00    -0.246 OA
BRANCH  25  27
ATOM     27  O   UNL A   1      42.265  34.291  44.478  1.00  0.00    -0.465 OA
ATOM     28  C   UNL A   1      41.147  33.597  45.026  1.00  0.00     0.282 C 
ENDBRANCH  25  27
ENDBRANCH  20  25
ENDBRANCH   9  19
BRANCH  14  29
ATOM     29  C   UNL A   1      37.557  32.718  40.495  1.00  0.00     0.091 A 
ATOM     30  C   UNL A   1      36.325  33.277  40.888  1.00  0.00     0.077 A 
ATOM     31  C   UNL A   1      38.428  32.167  41.450  1.00  0.00     0.143 A 
ATOM     32  C   UNL A   1      35.972  33.365  42.232  1.00  0.00     0.121 A 
ATOM     33  C   UNL A   1      38.033  32.247  42.796  1.00  0.00     0.052 A 
ATOM     34  C   UNL A   1      36.835  32.850  43.190  1.00  0.00     0.050 A 
BRANCH  31  35
ATOM     35  O   UNL A   1      39.674  31.622  41.369  1.00  0.00    -0.495 OA
ATOM     36  C   UNL A   1      40.345  30.977  42.435  1.00  0.00     0.278 C 
ENDBRANCH  31  35
BRANCH  32  37
ATOM     37  O   UNL A   1      34.773  33.974  42.475  1.00  0.00    -0.497 OA
ATOM     38  C   UNL A   1      34.280  33.872  43.807  1.00  0.00     0.278 C 
ENDBRANCH  32  37
ENDBRANCH  14  29
ENDBRANCH   5   8
ENDBRANCH   3   4
ENDBRANCH   2   3
ENDBRANCH   1   2
BRANCH   1  39
ATOM     39  C   UNL A   1      35.949  34.567  32.579  1.00  0.00     0.002 C 
BRANCH  39  40
ATOM     40  C   UNL A   1      34.733  34.118  31.750  1.00  0.00     0.021 C 
BRANCH  40  41
ATOM     41  C   UNL A   1      34.726  32.624  31.470  1.00  0.00     0.116 C 
BRANCH  41  42
ATOM     42  N   UNL A   1      34.397  32.352  30.069  1.00  0.00    -0.352 N 
ATOM     43  C   UNL A   1      35.194  31.871  29.056  1.00  0.00     0.251 C 
ATOM     44  H   UNL A   1      33.465  32.542  29.814  1.00  0.00     0.163 HD
ATOM     45  O   UNL A   1      34.881  32.031  27.882  1.00  0.00    -0.269 OA
BRANCH  43  46
ATOM     46  C   UNL A   1      36.429  31.154  29.402  1.00  0.00     0.039 A 
ATOM     47  C   UNL A   1      36.431  29.772  29.601  1.00  0.00     0.014 A 
ATOM     48  C   UNL A   1      37.604  31.893  29.511  1.00  0.00     0.014 A 
ATOM     49  C   UNL A   1      37.644  29.136  29.840  1.00  0.00     0.010 A 
ATOM     50  C   UNL A   1      38.810  31.250  29.557  1.00  0.00     0.010 A 
ATOM     51  C   UNL A   1      38.833  29.883  29.794  1.00  0.00    -0.014 A 
BRANCH  51  52
ATOM     52  C   UNL A   1      40.131  29.227  29.854  1.00  0.00     0.031 A 
ATOM     53  C   UNL A   1      40.641  29.078  31.239  1.00  0.00     0.074 A 
ATOM     54  C   UNL A   1      40.709  28.631  28.788  1.00  0.00     0.049 A 
ATOM     55  N   UNL A   1      41.609  29.735  31.782  1.00  0.00    -0.248 NA
ATOM     56  C   UNL A   1      39.877  28.250  32.187  1.00  0.00     0.031 C 
ATOM     57  C   UNL A   1      40.147  28.445  27.444  1.00  0.00     0.029 A 
ATOM     58  N   UNL A   1      41.896  27.968  28.703  1.00  0.00    -0.354 N 
ATOM     59  C   UNL A   1      41.737  29.219  33.067  1.00  0.00     0.074 A 
ATOM     60  C   UNL A   1      40.523  28.495  33.331  1.00  0.00     0.031 C 
ATOM     61  C   UNL A   1      40.873  27.530  26.767  1.00  0.00     0.029 A 
ATOM     62  C   UNL A   1      42.045  27.196  27.553  1.00  0.00     0.049 A 
ATOM     63  H   UNL A   1      42.593  28.031  29.396  1.00  0.00     0.167 HD
ATOM     64  C   UNL A   1      42.968  29.156  33.647  1.00  0.00     0.037 A 
ATOM     65  C   UNL A   1      43.053  26.333  27.278  1.00  0.00     0.037 A 
ATOM     66  C   UNL A   1      43.900  30.001  32.932  1.00  0.00     0.049 A 
ATOM     67  C   UNL A   1      44.192  26.717  28.142  1.00  0.00     0.074 A 
ATOM     68  C   UNL A   1      44.013  31.348  32.654  1.00  0.00     0.029 A 
ATOM     69  N   UNL A   1      44.702  29.350  32.031  1.00  0.00    -0.354 N 
ATOM     70  N   UNL A   1      44.861  27.826  28.010  1.00  0.00    -0.248 NA
ATOM     71  C   UNL A   1      44.335  26.049  29.427  1.00  0.00     0.031 C 
ATOM     72  C   UNL A   1      44.599  31.420  31.352  1.00  0.00     0.029 A 
ATOM     73  C   UNL A   1      44.882  30.123  30.920  1.00  0.00     0.049 A 
ATOM     74  H   UNL A   1      45.090  28.456  32.164  1.00  0.00     0.167 HD
ATOM     75  C   UNL A   1      45.120  28.229  29.309  1.00  0.00     0.074 A 
ATOM     76  C   UNL A   1      44.917  27.030  30.119  1.00  0.00     0.031 C 
ATOM     77  C   UNL A   1      45.167  29.560  29.619  1.00  0.00     0.037 A 
BRANCH  64  78
ATOM     78  C   UNL A   1      43.464  27.975  34.468  1.00  0.00     0.064 A 
ATOM     79  C   UNL A   1      43.394  26.688  33.892  1.00  0.00     0.173 A 
ATOM     80  C   UNL A   1      43.654  27.994  35.869  1.00  0.00     0.173 A 
ATOM     81  F   UNL A   1      43.206  26.541  32.571  1.00  0.00    -0.203 F 
ATOM     82  C   UNL A   1      43.393  25.525  34.669  1.00  0.00     0.198 A 
ATOM     83  C   UNL A   1      43.705  26.829  36.633  1.00  0.00     0.198 A 
ATOM     84  F   UNL A   1      43.685  29.125  36.579  1.00  0.00    -0.203 F 
ATOM     85  F   UNL A   1      43.169  24.339  34.089  1.00  0.00    -0.200 F 
ATOM     86  C   UNL A   1      43.536  25.598  36.041  1.00  0.00     0.200 A 
ATOM     87  F   UNL A   1      43.823  26.925  37.966  1.00  0.00    -0.200 F 
ATOM     88  F   UNL A   1      43.459  24.495  36.796  1.00  0.00    -0.200 F 
ENDBRANCH  64  78
BRANCH  65  89
ATOM     89  C   UNL A   1      43.027  25.048  26.537  1.00  0.00     0.064 A 
ATOM     90  C   UNL A   1      43.855  24.841  25.419  1.00  0.00     0.173 A 
ATOM     91  C   UNL A   1      42.422  23.901  27.085  1.00  0.00     0.173 A 
ATOM     92  F   UNL A   1      44.502  25.873  24.858  1.00  0.00    -0.203 F 
ATOM     93  C   UNL A   1      44.099  23.560  24.910  1.00  0.00     0.198 A 
ATOM     94  C   UNL A   1      42.662  22.624  26.573  1.00  0.00     0.198 A 
ATOM     95  F   UNL A   1      41.668  23.983  28.190  1.00  0.00    -0.203 F 
ATOM     96  F   UNL A   1      44.954  23.396  23.891  1.00  0.00    -0.200 F 
ATOM     97  C   UNL A   1      43.514  22.451  25.497  1.00  0.00     0.200 A 
ATOM     98  F   UNL A   1      42.118  21.554  27.173  1.00  0.00    -0.200 F 
ATOM     99  F   UNL A   1      43.802  21.218  25.057  1.00  0.00    -0.200 F 
ENDBRANCH  65  89
BRANCH  77 100
ATOM    100  C   UNL A   1      45.362  30.523  28.481  1.00  0.00     0.064 A 
ATOM    101  C   UNL A   1      44.327  31.089  27.717  1.00  0.00     0.173 A 
ATOM    102  C   UNL A   1      46.668  30.960  28.220  1.00  0.00     0.173 A 
ATOM    103  F   UNL A   1      43.044  30.794  27.961  1.00  0.00    -0.203 F 
ATOM    104  C   UNL A   1      44.598  32.010  26.705  1.00  0.00     0.198 A 
ATOM    105  C   UNL A   1      46.932  31.909  27.238  1.00  0.00     0.198 A 
ATOM    106  F   UNL A   1      47.693  30.489  28.948  1.00  0.00    -0.203 F 
ATOM    107  F   UNL A   1      43.596  32.516  25.971  1.00  0.00    -0.200 F 
ATOM    108  C   UNL A   1      45.899  32.423  26.472  1.00  0.00     0.200 A 
ATOM    109  F   UNL A   1      48.187  32.339  27.048  1.00  0.00    -0.200 F 
ATOM    110  F   UNL A   1      46.156  33.334  25.522  1.00  0.00    -0.200 F 
ENDBRANCH  77 100
ENDBRANCH  51  52
ENDBRANCH  43  46
ENDBRANCH  41  42
ENDBRANCH  40  41
ENDBRANCH  39  40
ENDBRANCH   1  39
TORSDOF 19
ENDMDL
