MODEL 1
REMARK VINA RESULT:     -11.5      0.000      0.000
REMARK SMILES COc1ncccc1Cn1ccc(C(=O)NCCCCCCNC(=O)c2ccc(-c3c4nc(c(-c5c(F)c(F)c(F)c(F)c5F)c5ccc([nH]5)c(-c5c(F)c(F)c(F)c(F)c5F)c5nc(c(-c6c(F)c(F)c(F)c(F)c6F)c6ccc3[nH]6)C=C5)C=C4)cc2)n1
REMARK SMILES IDX 19 1 18 2 17 3 16 4 14 5 15 6 13 8 10 9 11 10 89 11 12 12
REMARK SMILES IDX 9 13 8 14 3 15 4 16 5 17 7 18 6 19 2 20 1 21 20 22 21 23
REMARK SMILES IDX 22 24 23 25 24 26 25 28 26 29 27 30 88 31 28 32 87 33 29 34
REMARK SMILES IDX 30 35 31 36 81 37 32 38 86 39 80 40 82 41 33 42 85 43 79 44
REMARK SMILES IDX 78 45 34 47 66 48 46 49 65 50 47 51 50 52 64 53 83 54 48 55
REMARK SMILES IDX 49 56 63 58 84 59 51 60 35 61 36 62 44 63 37 64 38 65 42 66
REMARK SMILES IDX 45 67 39 68 40 69 43 70 41 71 67 72 68 73 76 74 69 75 70 76
REMARK SMILES IDX 74 77 77 78 71 79 72 80 75 81 73 82 52 83 53 84 61 85 54 86
REMARK SMILES IDX 55 87 59 88 62 89 56 90 57 91 60 92 58 93
REMARK H PARENT 16 7 23 27 82 46 50 57
REMARK Flexibility Score: inf
ROOT
ATOM      1  C   UNL A   1      39.477  21.836  25.987  1.00  0.00     0.002 C 
ENDROOT
BRANCH   1   2
ATOM      2  C   UNL A   1      39.098  23.225  26.509  1.00  0.00     0.021 C 
BRANCH   2   3
ATOM      3  C   UNL A   1      37.689  23.658  26.116  1.00  0.00     0.116 C 
BRANCH   3   4
ATOM      4  N   UNL A   1      37.440  23.350  24.722  1.00  0.00    -0.351 N 
ATOM      5  C   UNL A   1      36.270  23.405  24.004  1.00  0.00     0.271 C 
ATOM      6  O   UNL A   1      36.315  23.128  22.804  1.00  0.00    -0.267 OA
ATOM      7  H   UNL A   1      38.230  23.056  24.212  1.00  0.00     0.163 HD
BRANCH   5   8
ATOM      8  C   UNL A   1      35.049  23.916  24.639  1.00  0.00     0.150 A 
ATOM      9  N   UNL A   1      33.193  24.913  24.960  1.00  0.00    -0.267 N 
ATOM     10  C   UNL A   1      33.294  24.019  25.988  1.00  0.00     0.110 A 
ATOM     11  N   UNL A   1      34.252  24.875  24.124  1.00  0.00    -0.167 NA
ATOM     12  C   UNL A   1      34.523  23.425  25.861  1.00  0.00     0.056 A 
BRANCH   9  13
ATOM     13  C   UNL A   1      32.017  25.711  24.624  1.00  0.00     0.185 C 
BRANCH  13  14
ATOM     14  C   UNL A   1      31.952  27.029  25.339  1.00  0.00     0.036 A 
ATOM     15  C   UNL A   1      32.248  28.228  24.697  1.00  0.00     0.218 A 
ATOM     16  N   UNL A   1      32.299  29.433  25.305  1.00  0.00    -0.222 NA
ATOM     17  C   UNL A   1      32.028  29.452  26.629  1.00  0.00     0.115 A 
ATOM     18  C   UNL A   1      31.655  27.098  26.706  1.00  0.00     0.013 A 
ATOM     19  C   UNL A   1      31.699  28.324  27.364  1.00  0.00     0.021 A 
BRANCH  15  20
ATOM     20  O   UNL A   1      32.636  28.187  23.380  1.00  0.00    -0.481 OA
ATOM     21  C   UNL A   1      34.011  28.558  23.272  1.00  0.00     0.280 C 
ENDBRANCH  15  20
ENDBRANCH  13  14
ENDBRANCH   9  13
ENDBRANCH   5   8
ENDBRANCH   3   4
ENDBRANCH   2   3
ENDBRANCH   1   2
BRANCH   1  22
ATOM     22  C   UNL A   1      40.475  21.056  26.856  1.00  0.00     0.002 C 
BRANCH  22  23
ATOM     23  C   UNL A   1      41.188  19.880  26.174  1.00  0.00     0.021 C 
BRANCH  23  24
ATOM     24  C   UNL A   1      42.558  19.567  26.757  1.00  0.00     0.116 C 
BRANCH  24  25
ATOM     25  N   UNL A   1      43.588  19.484  25.723  1.00  0.00    -0.352 N 
ATOM     26  C   UNL A   1      44.124  20.496  24.964  1.00  0.00     0.251 C 
ATOM     27  H   UNL A   1      43.944  18.583  25.547  1.00  0.00     0.163 HD
ATOM     28  O   UNL A   1      44.669  20.252  23.885  1.00  0.00    -0.269 OA
BRANCH  26  29
ATOM     29  C   UNL A   1      44.056  21.881  25.453  1.00  0.00     0.039 A 
ATOM     30  C   UNL A   1      43.128  22.785  24.928  1.00  0.00     0.014 A 
ATOM     31  C   UNL A   1      44.946  22.274  26.451  1.00  0.00     0.014 A 
ATOM     32  C   UNL A   1      43.057  24.065  25.469  1.00  0.00     0.010 A 
ATOM     33  C   UNL A   1      44.786  23.485  27.076  1.00  0.00     0.010 A 
ATOM     34  C   UNL A   1      43.879  24.401  26.556  1.00  0.00    -0.014 A 
BRANCH  34  35
ATOM     35  C   UNL A   1      43.691  25.658  27.271  1.00  0.00     0.031 A 
ATOM     36  C   UNL A   1      44.667  26.708  26.880  1.00  0.00     0.074 A 
ATOM     37  C   UNL A   1      42.598  25.921  28.021  1.00  0.00     0.049 A 
ATOM     38  N   UNL A   1      45.602  27.222  27.606  1.00  0.00    -0.248 NA
ATOM     39  C   UNL A   1      44.721  27.120  25.467  1.00  0.00     0.031 C 
ATOM     40  C   UNL A   1      41.410  25.080  28.202  1.00  0.00     0.029 A 
ATOM     41  N   UNL A   1      42.263  27.054  28.701  1.00  0.00    -0.354 N 
ATOM     42  C   UNL A   1      46.214  28.187  26.812  1.00  0.00     0.074 A 
ATOM     43  C   UNL A   1      45.789  27.922  25.464  1.00  0.00     0.031 C 
ATOM     44  C   UNL A   1      40.409  25.814  28.735  1.00  0.00     0.029 A 
ATOM     45  C   UNL A   1      40.924  27.125  29.082  1.00  0.00     0.049 A 
ATOM     46  H   UNL A   1      42.913  27.764  28.907  1.00  0.00     0.167 HD
ATOM     47  C   UNL A   1      46.764  29.296  27.383  1.00  0.00     0.037 A 
ATOM     48  C   UNL A   1      40.283  28.197  29.616  1.00  0.00     0.037 A 
ATOM     49  C   UNL A   1      46.971  29.078  28.798  1.00  0.00     0.049 A 
ATOM     50  C   UNL A   1      41.324  29.116  30.133  1.00  0.00     0.074 A 
ATOM     51  C   UNL A   1      47.682  28.169  29.558  1.00  0.00     0.029 A 
ATOM     52  N   UNL A   1      46.064  29.649  29.653  1.00  0.00    -0.354 N 
ATOM     53  N   UNL A   1      42.075  28.860  31.166  1.00  0.00    -0.248 NA
ATOM     54  C   UNL A   1      41.827  30.142  29.234  1.00  0.00     0.031 C 
ATOM     55  C   UNL A   1      46.863  27.917  30.700  1.00  0.00     0.029 A 
ATOM     56  C   UNL A   1      45.741  28.740  30.622  1.00  0.00     0.049 A 
ATOM     57  H   UNL A   1      45.705  30.564  29.582  1.00  0.00     0.167 HD
ATOM     58  C   UNL A   1      43.328  29.325  30.804  1.00  0.00     0.074 A 
ATOM     59  C   UNL A   1      43.088  30.208  29.665  1.00  0.00     0.031 C 
ATOM     60  C   UNL A   1      44.452  28.709  31.274  1.00  0.00     0.037 A 
BRANCH  47  61
ATOM     61  C   UNL A   1      46.673  30.696  26.800  1.00  0.00     0.064 A 
ATOM     62  C   UNL A   1      47.828  31.509  26.827  1.00  0.00     0.173 A 
ATOM     63  C   UNL A   1      45.469  31.383  26.527  1.00  0.00     0.173 A 
ATOM     64  F   UNL A   1      49.034  30.974  27.071  1.00  0.00    -0.203 F 
ATOM     65  C   UNL A   1      47.763  32.902  26.724  1.00  0.00     0.198 A 
ATOM     66  C   UNL A   1      45.415  32.769  26.373  1.00  0.00     0.198 A 
ATOM     67  F   UNL A   1      44.278  30.779  26.502  1.00  0.00    -0.203 F 
ATOM     68  F   UNL A   1      48.867  33.635  26.914  1.00  0.00    -0.200 F 
ATOM     69  C   UNL A   1      46.553  33.531  26.511  1.00  0.00     0.200 A 
ATOM     70  F   UNL A   1      44.227  33.360  26.178  1.00  0.00    -0.200 F 
ATOM     71  F   UNL A   1      46.472  34.868  26.485  1.00  0.00    -0.200 F 
ENDBRANCH  47  61
BRANCH  48  72
ATOM     72  C   UNL A   1      38.869  28.628  29.491  1.00  0.00     0.064 A 
ATOM     73  C   UNL A   1      38.076  28.838  30.634  1.00  0.00     0.173 A 
ATOM     74  C   UNL A   1      38.363  29.138  28.280  1.00  0.00     0.173 A 
ATOM     75  F   UNL A   1      38.500  28.419  31.835  1.00  0.00    -0.203 F 
ATOM     76  C   UNL A   1      36.876  29.555  30.578  1.00  0.00     0.198 A 
ATOM     77  C   UNL A   1      37.161  29.849  28.224  1.00  0.00     0.198 A 
ATOM     78  F   UNL A   1      39.075  29.051  27.148  1.00  0.00    -0.203 F 
ATOM     79  F   UNL A   1      36.191  29.803  31.704  1.00  0.00    -0.200 F 
ATOM     80  C   UNL A   1      36.428  30.073  29.375  1.00  0.00     0.200 A 
ATOM     81  F   UNL A   1      36.757  30.379  27.061  1.00  0.00    -0.200 F 
ATOM     82  F   UNL A   1      35.319  30.825  29.331  1.00  0.00    -0.200 F 
ENDBRANCH  48  72
BRANCH  60  83
ATOM     83  C   UNL A   1      44.297  27.779  32.446  1.00  0.00     0.064 A 
ATOM     84  C   UNL A   1      44.093  26.390  32.352  1.00  0.00     0.173 A 
ATOM     85  C   UNL A   1      44.454  28.319  33.730  1.00  0.00     0.173 A 
ATOM     86  F   UNL A   1      44.035  25.776  31.163  1.00  0.00    -0.203 F 
ATOM     87  C   UNL A   1      43.987  25.596  33.494  1.00  0.00     0.198 A 
ATOM     88  C   UNL A   1      44.391  27.518  34.866  1.00  0.00     0.198 A 
ATOM     89  F   UNL A   1      44.701  29.629  33.882  1.00  0.00    -0.203 F 
ATOM     90  F   UNL A   1      43.759  24.279  33.380  1.00  0.00    -0.200 F 
ATOM     91  C   UNL A   1      44.142  26.160  34.749  1.00  0.00     0.200 A 
ATOM     92  F   UNL A   1      44.592  28.062  36.074  1.00  0.00    -0.200 F 
ATOM     93  F   UNL A   1      44.071  25.394  35.847  1.00  0.00    -0.200 F 
ENDBRANCH  60  83
ENDBRANCH  34  35
ENDBRANCH  26  29
ENDBRANCH  24  25
ENDBRANCH  23  24
ENDBRANCH  22  23
ENDBRANCH   1  22
TORSDOF 16
ENDMDL
MODEL 2
REMARK VINA RESULT:     -11.1      4.364     10.032
REMARK SMILES COc1ncccc1Cn1ccc(C(=O)NCCCCCCNC(=O)c2ccc(-c3c4nc(c(-c5c(F)c(F)c(F)c(F)c5F)c5ccc([nH]5)c(-c5c(F)c(F)c(F)c(F)c5F)c5nc(c(-c6c(F)c(F)c(F)c(F)c6F)c6ccc3[nH]6)C=C5)C=C4)cc2)n1
REMARK SMILES IDX 19 1 18 2 17 3 16 4 14 5 15 6 13 8 10 9 11 10 89 11 12 12
REMARK SMILES IDX 9 13 8 14 3 15 4 16 5 17 7 18 6 19 2 20 1 21 20 22 21 23
REMARK SMILES IDX 22 24 23 25 24 26 25 28 26 29 27 30 88 31 28 32 87 33 29 34
REMARK SMILES IDX 30 35 31 36 81 37 32 38 86 39 80 40 82 41 33 42 85 43 79 44
REMARK SMILES IDX 78 45 34 47 66 48 46 49 65 50 47 51 50 52 64 53 83 54 48 55
REMARK SMILES IDX 49 56 63 58 84 59 51 60 35 61 36 62 44 63 37 64 38 65 42 66
REMARK SMILES IDX 45 67 39 68 40 69 43 70 41 71 67 72 68 73 76 74 69 75 70 76
REMARK SMILES IDX 74 77 77 78 71 79 72 80 75 81 73 82 52 83 53 84 61 85 54 86
REMARK SMILES IDX 55 87 59 88 62 89 56 90 57 91 60 92 58 93
REMARK H PARENT 16 7 23 27 82 46 50 57
REMARK Flexibility Score: inf
ROOT
ATOM      1  C   UNL A   1      34.039  33.364  28.089  1.00  0.00     0.002 C 
ENDROOT
BRANCH   1   2
ATOM      2  C   UNL A   1      32.649  33.014  27.551  1.00  0.00     0.021 C 
BRANCH   2   3
ATOM      3  C   UNL A   1      32.465  31.529  27.260  1.00  0.00     0.116 C 
BRANCH   3   4
ATOM      4  N   UNL A   1      33.665  30.797  27.608  1.00  0.00    -0.351 N 
ATOM      5  C   UNL A   1      34.144  29.606  27.118  1.00  0.00     0.271 C 
ATOM      6  O   UNL A   1      35.223  29.195  27.548  1.00  0.00    -0.267 OA
ATOM      7  H   UNL A   1      34.224  31.217  28.304  1.00  0.00     0.163 HD
BRANCH   5   8
ATOM      8  C   UNL A   1      33.442  28.938  26.015  1.00  0.00     0.150 A 
ATOM      9  N   UNL A   1      32.361  28.591  24.211  1.00  0.00    -0.267 N 
ATOM     10  C   UNL A   1      32.902  27.379  24.535  1.00  0.00     0.110 A 
ATOM     11  N   UNL A   1      32.670  29.559  25.099  1.00  0.00    -0.167 NA
ATOM     12  C   UNL A   1      33.528  27.549  25.743  1.00  0.00     0.056 A 
BRANCH   9  13
ATOM     13  C   UNL A   1      31.681  28.925  22.963  1.00  0.00     0.185 C 
BRANCH  13  14
ATOM     14  C   UNL A   1      30.193  29.072  23.101  1.00  0.00     0.036 A 
ATOM     15  C   UNL A   1      29.349  27.968  23.172  1.00  0.00     0.218 A 
ATOM     16  N   UNL A   1      28.000  28.033  23.202  1.00  0.00    -0.222 NA
ATOM     17  C   UNL A   1      27.456  29.268  23.170  1.00  0.00     0.115 A 
ATOM     18  C   UNL A   1      29.587  30.334  23.093  1.00  0.00     0.013 A 
ATOM     19  C   UNL A   1      28.199  30.437  23.121  1.00  0.00     0.021 A 
BRANCH  15  20
ATOM     20  O   UNL A   1      29.903  26.714  23.086  1.00  0.00    -0.481 OA
ATOM     21  C   UNL A   1      29.530  25.944  24.228  1.00  0.00     0.280 C 
ENDBRANCH  15  20
ENDBRANCH  13  14
ENDBRANCH   9  13
ENDBRANCH   5   8
ENDBRANCH   3   4
ENDBRANCH   2   3
ENDBRANCH   1   2
BRANCH   1  22
ATOM     22  C   UNL A   1      34.293  34.857  28.340  1.00  0.00     0.002 C 
BRANCH  22  23
ATOM     23  C   UNL A   1      33.085  35.676  28.816  1.00  0.00     0.021 C 
BRANCH  23  24
ATOM     24  C   UNL A   1      33.424  36.726  29.863  1.00  0.00     0.116 C 
BRANCH  24  25
ATOM     25  N   UNL A   1      32.667  36.533  31.099  1.00  0.00    -0.352 N 
ATOM     26  C   UNL A   1      32.764  35.513  32.013  1.00  0.00     0.251 C 
ATOM     27  H   UNL A   1      31.999  37.227  31.302  1.00  0.00     0.163 HD
ATOM     28  O   UNL A   1      31.826  35.257  32.772  1.00  0.00    -0.269 OA
BRANCH  26  29
ATOM     29  C   UNL A   1      34.004  34.727  32.091  1.00  0.00     0.039 A 
ATOM     30  C   UNL A   1      34.018  33.368  31.762  1.00  0.00     0.014 A 
ATOM     31  C   UNL A   1      35.169  35.369  32.509  1.00  0.00     0.014 A 
ATOM     32  C   UNL A   1      35.229  32.683  31.788  1.00  0.00     0.010 A 
ATOM     33  C   UNL A   1      36.380  34.734  32.403  1.00  0.00     0.010 A 
ATOM     34  C   UNL A   1      36.409  33.379  32.093  1.00  0.00    -0.014 A 
BRANCH  34  35
ATOM     35  C   UNL A   1      37.711  32.741  31.934  1.00  0.00     0.031 A 
ATOM     36  C   UNL A   1      38.443  32.574  33.217  1.00  0.00     0.074 A 
ATOM     37  C   UNL A   1      38.102  32.143  30.788  1.00  0.00     0.049 A 
ATOM     38  N   UNL A   1      39.534  33.160  33.581  1.00  0.00    -0.248 NA
ATOM     39  C   UNL A   1      37.805  31.792  34.289  1.00  0.00     0.031 C 
ATOM     40  C   UNL A   1      37.320  31.954  29.562  1.00  0.00     0.029 A 
ATOM     41  N   UNL A   1      39.256  31.472  30.507  1.00  0.00    -0.354 N 
ATOM     42  C   UNL A   1      39.841  32.644  34.837  1.00  0.00     0.074 A 
ATOM     43  C   UNL A   1      38.647  31.996  35.305  1.00  0.00     0.031 C 
ATOM     44  C   UNL A   1      37.919  31.033  28.775  1.00  0.00     0.029 A 
ATOM     45  C   UNL A   1      39.202  30.685  29.358  1.00  0.00     0.049 A 
ATOM     46  H   UNL A   1      40.061  31.539  31.069  1.00  0.00     0.167 HD
ATOM     47  C   UNL A   1      41.141  32.536  35.233  1.00  0.00     0.037 A 
ATOM     48  C   UNL A   1      40.133  29.792  28.936  1.00  0.00     0.037 A 
ATOM     49  C   UNL A   1      41.986  33.371  34.408  1.00  0.00     0.049 A 
ATOM     50  C   UNL A   1      41.396  30.109  29.644  1.00  0.00     0.074 A 
ATOM     51  C   UNL A   1      42.048  34.720  34.114  1.00  0.00     0.029 A 
ATOM     52  N   UNL A   1      42.712  32.743  33.428  1.00  0.00    -0.354 N 
ATOM     53  N   UNL A   1      42.105  31.180  29.426  1.00  0.00    -0.248 NA
ATOM     54  C   UNL A   1      41.647  29.441  30.911  1.00  0.00     0.031 C 
ATOM     55  C   UNL A   1      42.413  34.785  32.735  1.00  0.00     0.029 A 
ATOM     56  C   UNL A   1      42.636  33.485  32.282  1.00  0.00     0.049 A 
ATOM     57  H   UNL A   1      43.207  31.898  33.533  1.00  0.00     0.167 HD
ATOM     58  C   UNL A   1      42.522  31.578  30.685  1.00  0.00     0.074 A 
ATOM     59  C   UNL A   1      42.316  30.411  31.538  1.00  0.00     0.031 C 
ATOM     60  C   UNL A   1      42.705  32.903  30.961  1.00  0.00     0.037 A 
BRANCH  47  61
ATOM     61  C   UNL A   1      41.706  31.360  36.013  1.00  0.00     0.064 A 
ATOM     62  C   UNL A   1      42.645  31.624  37.035  1.00  0.00     0.173 A 
ATOM     63  C   UNL A   1      41.632  30.009  35.607  1.00  0.00     0.173 A 
ATOM     64  F   UNL A   1      42.806  32.867  37.510  1.00  0.00    -0.203 F 
ATOM     65  C   UNL A   1      43.524  30.645  37.510  1.00  0.00     0.198 A 
ATOM     66  C   UNL A   1      42.476  29.024  36.121  1.00  0.00     0.198 A 
ATOM     67  F   UNL A   1      40.827  29.588  34.627  1.00  0.00    -0.203 F 
ATOM     68  F   UNL A   1      44.498  30.985  38.363  1.00  0.00    -0.200 F 
ATOM     69  C   UNL A   1      43.447  29.349  37.041  1.00  0.00     0.200 A 
ATOM     70  F   UNL A   1      42.392  27.774  35.644  1.00  0.00    -0.200 F 
ATOM     71  F   UNL A   1      44.333  28.425  37.437  1.00  0.00    -0.200 F 
ENDBRANCH  47  61
BRANCH  48  72
ATOM     72  C   UNL A   1      39.974  28.527  28.177  1.00  0.00     0.064 A 
ATOM     73  C   UNL A   1      40.670  28.318  26.972  1.00  0.00     0.173 A 
ATOM     74  C   UNL A   1      39.391  27.389  28.765  1.00  0.00     0.173 A 
ATOM     75  F   UNL A   1      41.288  29.340  26.364  1.00  0.00    -0.203 F 
ATOM     76  C   UNL A   1      40.812  27.042  26.415  1.00  0.00     0.198 A 
ATOM     77  C   UNL A   1      39.529  26.116  28.204  1.00  0.00     0.198 A 
ATOM     78  F   UNL A   1      38.767  27.471  29.949  1.00  0.00    -0.203 F 
ATOM     79  F   UNL A   1      41.551  26.874  25.309  1.00  0.00    -0.200 F 
ATOM     80  C   UNL A   1      40.255  25.941  27.041  1.00  0.00     0.200 A 
ATOM     81  F   UNL A   1      39.018  25.052  28.839  1.00  0.00    -0.200 F 
ATOM     82  F   UNL A   1      40.454  24.709  26.550  1.00  0.00    -0.200 F 
ENDBRANCH  48  72
BRANCH  60  83
ATOM     83  C   UNL A   1      42.795  33.850  29.796  1.00  0.00     0.064 A 
ATOM     84  C   UNL A   1      41.707  34.546  29.236  1.00  0.00     0.173 A 
ATOM     85  C   UNL A   1      44.069  34.131  29.283  1.00  0.00     0.173 A 
ATOM     86  F   UNL A   1      40.470  34.416  29.734  1.00  0.00    -0.203 F 
ATOM     87  C   UNL A   1      41.886  35.429  28.171  1.00  0.00     0.198 A 
ATOM     88  C   UNL A   1      44.249  35.045  28.250  1.00  0.00     0.198 A 
ATOM     89  F   UNL A   1      45.151  33.537  29.809  1.00  0.00    -0.203 F 
ATOM     90  F   UNL A   1      40.829  36.055  27.632  1.00  0.00    -0.200 F 
ATOM     91  C   UNL A   1      43.156  35.681  27.683  1.00  0.00     0.200 A 
ATOM     92  F   UNL A   1      45.486  35.322  27.816  1.00  0.00    -0.200 F 
ATOM     93  F   UNL A   1      43.334  36.553  26.680  1.00  0.00    -0.200 F 
ENDBRANCH  60  83
ENDBRANCH  34  35
ENDBRANCH  26  29
ENDBRANCH  24  25
ENDBRANCH  23  24
ENDBRANCH  22  23
ENDBRANCH   1  22
TORSDOF 16
ENDMDL
MODEL 3
REMARK VINA RESULT:     -11.1      4.080      9.872
REMARK SMILES COc1ncccc1Cn1ccc(C(=O)NCCCCCCNC(=O)c2ccc(-c3c4nc(c(-c5c(F)c(F)c(F)c(F)c5F)c5ccc([nH]5)c(-c5c(F)c(F)c(F)c(F)c5F)c5nc(c(-c6c(F)c(F)c(F)c(F)c6F)c6ccc3[nH]6)C=C5)C=C4)cc2)n1
REMARK SMILES IDX 19 1 18 2 17 3 16 4 14 5 15 6 13 8 10 9 11 10 89 11 12 12
REMARK SMILES IDX 9 13 8 14 3 15 4 16 5 17 7 18 6 19 2 20 1 21 20 22 21 23
REMARK SMILES IDX 22 24 23 25 24 26 25 28 26 29 27 30 88 31 28 32 87 33 29 34
REMARK SMILES IDX 30 35 31 36 81 37 32 38 86 39 80 40 82 41 33 42 85 43 79 44
REMARK SMILES IDX 78 45 34 47 66 48 46 49 65 50 47 51 50 52 64 53 83 54 48 55
REMARK SMILES IDX 49 56 63 58 84 59 51 60 35 61 36 62 44 63 37 64 38 65 42 66
REMARK SMILES IDX 45 67 39 68 40 69 43 70 41 71 67 72 68 73 76 74 69 75 70 76
REMARK SMILES IDX 74 77 77 78 71 79 72 80 75 81 73 82 52 83 53 84 61 85 54 86
REMARK SMILES IDX 55 87 59 88 62 89 56 90 57 91 60 92 58 93
REMARK H PARENT 16 7 23 27 82 46 50 57
REMARK Flexibility Score: inf
ROOT
ATOM      1  C   UNL A   1      34.972  32.674  27.895  1.00  0.00     0.002 C 
ENDROOT
BRANCH   1   2
ATOM      2  C   UNL A   1      33.730  31.803  28.110  1.00  0.00     0.021 C 
BRANCH   2   3
ATOM      3  C   UNL A   1      33.666  30.596  27.179  1.00  0.00     0.116 C 
BRANCH   3   4
ATOM      4  N   UNL A   1      32.787  29.584  27.730  1.00  0.00    -0.351 N 
ATOM      5  C   UNL A   1      32.073  28.598  27.095  1.00  0.00     0.271 C 
ATOM      6  O   UNL A   1      31.416  27.821  27.789  1.00  0.00    -0.267 OA
ATOM      7  H   UNL A   1      32.686  29.607  28.710  1.00  0.00     0.163 HD
BRANCH   5   8
ATOM      8  C   UNL A   1      32.218  28.413  25.646  1.00  0.00     0.150 A 
ATOM      9  N   UNL A   1      32.672  27.566  23.743  1.00  0.00    -0.267 N 
ATOM     10  C   UNL A   1      31.803  28.586  23.475  1.00  0.00     0.110 A 
ATOM     11  N   UNL A   1      32.946  27.441  25.058  1.00  0.00    -0.167 NA
ATOM     12  C   UNL A   1      31.564  29.210  24.672  1.00  0.00     0.056 A 
BRANCH   9  13
ATOM     13  C   UNL A   1      33.138  26.560  22.794  1.00  0.00     0.185 C 
BRANCH  13  14
ATOM     14  C   UNL A   1      32.602  25.182  23.053  1.00  0.00     0.036 A 
ATOM     15  C   UNL A   1      33.431  24.065  23.084  1.00  0.00     0.218 A 
ATOM     16  N   UNL A   1      33.001  22.792  23.219  1.00  0.00    -0.222 NA
ATOM     17  C   UNL A   1      31.667  22.617  23.343  1.00  0.00     0.115 A 
ATOM     18  C   UNL A   1      31.229  24.957  23.208  1.00  0.00     0.013 A 
ATOM     19  C   UNL A   1      30.751  23.657  23.348  1.00  0.00     0.021 A 
BRANCH  15  20
ATOM     20  O   UNL A   1      34.772  24.238  22.841  1.00  0.00    -0.481 OA
ATOM     21  C   UNL A   1      35.496  23.098  23.305  1.00  0.00     0.280 C 
ENDBRANCH  15  20
ENDBRANCH  13  14
ENDBRANCH   9  13
ENDBRANCH   5   8
ENDBRANCH   3   4
ENDBRANCH   2   3
ENDBRANCH   1   2
BRANCH   1  22
ATOM     22  C   UNL A   1      34.751  34.186  28.050  1.00  0.00     0.002 C 
BRANCH  22  23
ATOM     23  C   UNL A   1      33.432  34.610  28.713  1.00  0.00     0.021 C 
BRANCH  23  24
ATOM     24  C   UNL A   1      33.500  35.957  29.416  1.00  0.00     0.116 C 
BRANCH  24  25
ATOM     25  N   UNL A   1      32.797  35.944  30.697  1.00  0.00    -0.352 N 
ATOM     26  C   UNL A   1      32.995  35.116  31.775  1.00  0.00     0.251 C 
ATOM     27  H   UNL A   1      32.086  36.617  30.800  1.00  0.00     0.163 HD
ATOM     28  O   UNL A   1      32.101  34.942  32.606  1.00  0.00    -0.269 OA
BRANCH  26  29
ATOM     29  C   UNL A   1      34.290  34.441  31.940  1.00  0.00     0.039 A 
ATOM     30  C   UNL A   1      34.428  33.073  31.688  1.00  0.00     0.014 A 
ATOM     31  C   UNL A   1      35.381  35.199  32.363  1.00  0.00     0.014 A 
ATOM     32  C   UNL A   1      35.688  32.493  31.794  1.00  0.00     0.010 A 
ATOM     33  C   UNL A   1      36.643  34.662  32.336  1.00  0.00     0.010 A 
ATOM     34  C   UNL A   1      36.795  33.300  32.102  1.00  0.00    -0.014 A 
BRANCH  34  35
ATOM     35  C   UNL A   1      38.150  32.765  32.025  1.00  0.00     0.031 A 
ATOM     36  C   UNL A   1      38.856  32.766  33.332  1.00  0.00     0.074 A 
ATOM     37  C   UNL A   1      38.623  32.113  30.940  1.00  0.00     0.049 A 
ATOM     38  N   UNL A   1      39.883  33.470  33.671  1.00  0.00    -0.248 NA
ATOM     39  C   UNL A   1      38.255  32.020  34.452  1.00  0.00     0.031 C 
ATOM     40  C   UNL A   1      37.894  31.759  29.717  1.00  0.00     0.029 A 
ATOM     41  N   UNL A   1      39.836  31.523  30.741  1.00  0.00    -0.354 N 
ATOM     42  C   UNL A   1      40.196  33.085  34.972  1.00  0.00     0.074 A 
ATOM     43  C   UNL A   1      39.047  32.376  35.465  1.00  0.00     0.031 C 
ATOM     44  C   UNL A   1      38.591  30.834  29.023  1.00  0.00     0.029 A 
ATOM     45  C   UNL A   1      39.881  30.645  29.660  1.00  0.00     0.049 A 
ATOM     46  H   UNL A   1      40.616  31.703  31.313  1.00  0.00     0.167 HD
ATOM     47  C   UNL A   1      41.488  33.121  35.404  1.00  0.00     0.037 A 
ATOM     48  C   UNL A   1      40.896  29.803  29.334  1.00  0.00     0.037 A 
ATOM     49  C   UNL A   1      42.284  33.956  34.531  1.00  0.00     0.049 A 
ATOM     50  C   UNL A   1      42.106  30.284  30.041  1.00  0.00     0.074 A 
ATOM     51  C   UNL A   1      42.241  35.277  34.128  1.00  0.00     0.029 A 
ATOM     52  N   UNL A   1      43.087  33.316  33.622  1.00  0.00    -0.354 N 
ATOM     53  N   UNL A   1      42.729  31.390  29.751  1.00  0.00    -0.248 NA
ATOM     54  C   UNL A   1      42.376  29.744  31.364  1.00  0.00     0.031 C 
ATOM     55  C   UNL A   1      42.640  35.262  32.757  1.00  0.00     0.029 A 
ATOM     56  C   UNL A   1      42.983  33.954  32.417  1.00  0.00     0.049 A 
ATOM     57  H   UNL A   1      43.648  32.528  33.807  1.00  0.00     0.167 HD
ATOM     58  C   UNL A   1      43.075  31.923  30.981  1.00  0.00     0.074 A 
ATOM     59  C   UNL A   1      42.943  30.814  31.923  1.00  0.00     0.031 C 
ATOM     60  C   UNL A   1      43.139  33.277  31.151  1.00  0.00     0.037 A 
BRANCH  47  61
ATOM     61  C   UNL A   1      42.127  32.064  36.290  1.00  0.00     0.064 A 
ATOM     62  C   UNL A   1      42.918  32.493  37.379  1.00  0.00     0.173 A 
ATOM     63  C   UNL A   1      42.275  30.702  35.947  1.00  0.00     0.173 A 
ATOM     64  F   UNL A   1      42.863  33.764  37.805  1.00  0.00    -0.203 F 
ATOM     65  C   UNL A   1      43.869  31.664  37.981  1.00  0.00     0.198 A 
ATOM     66  C   UNL A   1      43.189  29.863  36.586  1.00  0.00     0.198 A 
ATOM     67  F   UNL A   1      41.634  30.138  34.920  1.00  0.00    -0.203 F 
ATOM     68  F   UNL A   1      44.701  32.167  38.902  1.00  0.00    -0.200 F 
ATOM     69  C   UNL A   1      44.013  30.353  37.573  1.00  0.00     0.200 A 
ATOM     70  F   UNL A   1      43.321  28.596  36.165  1.00  0.00    -0.200 F 
ATOM     71  F   UNL A   1      44.972  29.576  38.094  1.00  0.00    -0.200 F 
ENDBRANCH  47  61
BRANCH  48  72
ATOM     72  C   UNL A   1      40.865  28.473  28.679  1.00  0.00     0.064 A 
ATOM     73  C   UNL A   1      40.093  27.425  29.212  1.00  0.00     0.173 A 
ATOM     74  C   UNL A   1      41.335  28.293  27.364  1.00  0.00     0.173 A 
ATOM     75  F   UNL A   1      39.573  27.529  30.444  1.00  0.00    -0.203 F 
ATOM     76  C   UNL A   1      39.772  26.289  28.461  1.00  0.00     0.198 A 
ATOM     77  C   UNL A   1      41.018  27.155  26.617  1.00  0.00     0.198 A 
ATOM     78  F   UNL A   1      42.020  29.262  26.741  1.00  0.00    -0.203 F 
ATOM     79  F   UNL A   1      38.966  25.350  28.979  1.00  0.00    -0.200 F 
ATOM     80  C   UNL A   1      40.222  26.164  27.158  1.00  0.00     0.200 A 
ATOM     81  F   UNL A   1      41.427  27.063  25.343  1.00  0.00    -0.200 F 
ATOM     82  F   UNL A   1      39.852  25.114  26.411  1.00  0.00    -0.200 F 
ENDBRANCH  48  72
BRANCH  60  83
ATOM     83  C   UNL A   1      43.182  34.131  29.914  1.00  0.00     0.064 A 
ATOM     84  C   UNL A   1      42.055  34.661  29.259  1.00  0.00     0.173 A 
ATOM     85  C   UNL A   1      44.442  34.503  29.425  1.00  0.00     0.173 A 
ATOM     86  F   UNL A   1      40.817  34.441  29.721  1.00  0.00    -0.203 F 
ATOM     87  C   UNL A   1      42.189  35.469  28.130  1.00  0.00     0.198 A 
ATOM     88  C   UNL A   1      44.573  35.345  28.326  1.00  0.00     0.198 A 
ATOM     89  F   UNL A   1      45.555  34.071  30.038  1.00  0.00    -0.203 F 
ATOM     90  F   UNL A   1      41.098  35.934  27.503  1.00  0.00    -0.200 F 
ATOM     91  C   UNL A   1      43.448  35.815  27.669  1.00  0.00     0.200 A 
ATOM     92  F   UNL A   1      45.793  35.716  27.915  1.00  0.00    -0.200 F 
ATOM     93  F   UNL A   1      43.579  36.617  26.602  1.00  0.00    -0.200 F 
ENDBRANCH  60  83
ENDBRANCH  34  35
ENDBRANCH  26  29
ENDBRANCH  24  25
ENDBRANCH  23  24
ENDBRANCH  22  23
ENDBRANCH   1  22
TORSDOF 16
ENDMDL
