MODEL 1
REMARK VINA RESULT:     -11.8      0.000      0.000
REMARK SMILES C[C@H](Nc1ncccc1C(=O)NCCCCCCNC(=O)c1ccc(-c2c3nc(c(-c4c(F)c(F)c(F)c(F)c4F)c4ccc([nH]4)c(-c4c(F)c(F)c(F)c(F)c4F)c4nc(c(-c5c(F)c(F)c(F)c(F)c5F)c5ccc2[nH]5)C=C4)C=C3)cc1)c1ccc(Cl)cc1
REMARK SMILES IDX 15 1 14 2 13 3 12 4 10 5 11 6 9 8 4 9 5 10 6 11 8 12 7 13
REMARK SMILES IDX 3 14 2 16 1 17 85 18 86 19 91 20 87 21 90 22 88 23 89 24
REMARK SMILES IDX 16 25 17 26 18 27 19 28 20 29 21 31 22 32 23 33 84 34 24 35
REMARK SMILES IDX 83 36 25 37 26 38 27 39 77 40 28 41 82 42 76 43 78 44 29 45
REMARK SMILES IDX 81 46 75 47 74 48 30 50 62 51 42 52 61 53 43 54 46 55 60 56
REMARK SMILES IDX 79 57 44 58 45 59 59 61 80 62 47 63 31 64 32 65 40 66 33 67
REMARK SMILES IDX 34 68 38 69 41 70 35 71 36 72 39 73 37 74 63 75 64 76 72 77
REMARK SMILES IDX 65 78 66 79 70 80 73 81 67 82 68 83 71 84 69 85 48 86 49 87
REMARK SMILES IDX 57 88 50 89 51 90 55 91 58 92 52 93 53 94 56 95 54 96
REMARK H PARENT 12 7 3 15 19 30 78 49 46 60
REMARK Flexibility Score: inf
ROOT
ATOM      1  C   UNL A   1      31.802  29.359  26.616  1.00  0.00     0.002 C 
ENDROOT
BRANCH   1   2
ATOM      2  C   UNL A   1      32.738  28.326  25.980  1.00  0.00     0.021 C 
BRANCH   2   3
ATOM      3  C   UNL A   1      32.559  26.869  26.399  1.00  0.00     0.116 C 
BRANCH   3   4
ATOM      4  N   UNL A   1      31.173  26.462  26.539  1.00  0.00    -0.352 N 
ATOM      5  C   UNL A   1      30.497  25.297  26.253  1.00  0.00     0.255 C 
ATOM      6  O   UNL A   1      29.317  25.250  26.599  1.00  0.00    -0.269 OA
ATOM      7  H   UNL A   1      30.597  27.165  26.918  1.00  0.00     0.163 HD
BRANCH   5   8
ATOM      8  C   UNL A   1      31.123  24.130  25.572  1.00  0.00     0.082 A 
ATOM      9  C   UNL A   1      31.063  23.968  24.178  1.00  0.00     0.139 A 
ATOM     10  N   UNL A   1      31.533  22.850  23.565  1.00  0.00    -0.239 NA
ATOM     11  C   UNL A   1      32.105  21.888  24.313  1.00  0.00     0.113 A 
ATOM     12  C   UNL A   1      31.664  23.073  26.321  1.00  0.00     0.019 A 
ATOM     13  C   UNL A   1      32.202  21.956  25.685  1.00  0.00     0.021 A 
BRANCH   9  14
ATOM     14  N   UNL A   1      30.603  24.875  23.248  1.00  0.00    -0.363 N 
ATOM     15  H   UNL A   1      29.763  24.696  22.767  1.00  0.00     0.162 HD
BRANCH  14  16
ATOM     16  C   UNL A   1      31.346  26.100  22.966  1.00  0.00     0.108 C 
ATOM     17  C   UNL A   1      32.057  25.923  21.610  1.00  0.00     0.036 C 
BRANCH  16  18
ATOM     18  C   UNL A   1      30.419  27.322  22.937  1.00  0.00    -0.026 A 
ATOM     19  C   UNL A   1      29.108  27.299  23.445  1.00  0.00     0.007 A 
ATOM     20  C   UNL A   1      30.893  28.544  22.418  1.00  0.00     0.007 A 
ATOM     21  C   UNL A   1      28.283  28.429  23.376  1.00  0.00     0.021 A 
ATOM     22  C   UNL A   1      30.072  29.673  22.347  1.00  0.00     0.021 A 
ATOM     23  C   UNL A   1      28.766  29.608  22.818  1.00  0.00     0.041 A 
ATOM     24  Cl  UNL A   1      27.751  30.993  22.719  1.00  0.00    -0.084 Cl
ENDBRANCH  16  18
ENDBRANCH  14  16
ENDBRANCH   9  14
ENDBRANCH   5   8
ENDBRANCH   3   4
ENDBRANCH   2   3
ENDBRANCH   1   2
BRANCH   1  25
ATOM     25  C   UNL A   1      31.312  30.502  25.723  1.00  0.00     0.002 C 
BRANCH  25  26
ATOM     26  C   UNL A   1      31.241  31.891  26.363  1.00  0.00     0.021 C 
BRANCH  26  27
ATOM     27  C   UNL A   1      32.527  32.395  27.006  1.00  0.00     0.116 C 
BRANCH  27  28
ATOM     28  N   UNL A   1      32.425  33.767  27.471  1.00  0.00    -0.352 N 
ATOM     29  C   UNL A   1      33.160  34.422  28.430  1.00  0.00     0.251 C 
ATOM     30  H   UNL A   1      31.727  34.306  27.036  1.00  0.00     0.163 HD
ATOM     31  O   UNL A   1      32.822  35.543  28.798  1.00  0.00    -0.269 OA
BRANCH  29  32
ATOM     32  C   UNL A   1      34.348  33.781  29.038  1.00  0.00     0.039 A 
ATOM     33  C   UNL A   1      34.156  32.719  29.928  1.00  0.00     0.014 A 
ATOM     34  C   UNL A   1      35.641  34.244  28.777  1.00  0.00     0.014 A 
ATOM     35  C   UNL A   1      35.256  32.099  30.524  1.00  0.00     0.010 A 
ATOM     36  C   UNL A   1      36.742  33.580  29.317  1.00  0.00     0.010 A 
ATOM     37  C   UNL A   1      36.561  32.511  30.208  1.00  0.00    -0.014 A 
BRANCH  37  38
ATOM     38  C   UNL A   1      37.742  31.859  30.832  1.00  0.00     0.031 A 
ATOM     39  C   UNL A   1      38.182  32.261  32.213  1.00  0.00     0.074 A 
ATOM     40  C   UNL A   1      38.444  30.941  30.141  1.00  0.00     0.049 A 
ATOM     41  N   UNL A   1      39.211  31.846  32.909  1.00  0.00    -0.248 NA
ATOM     42  C   UNL A   1      37.375  33.286  32.892  1.00  0.00     0.031 C 
ATOM     43  C   UNL A   1      38.145  30.501  28.778  1.00  0.00     0.029 A 
ATOM     44  N   UNL A   1      39.558  30.219  30.488  1.00  0.00    -0.354 N 
ATOM     45  C   UNL A   1      39.182  32.569  34.095  1.00  0.00     0.074 A 
ATOM     46  C   UNL A   1      38.066  33.486  34.004  1.00  0.00     0.031 C 
ATOM     47  C   UNL A   1      39.040  29.568  28.412  1.00  0.00     0.029 A 
ATOM     48  C   UNL A   1      39.992  29.368  29.500  1.00  0.00     0.049 A 
ATOM     49  H   UNL A   1      40.005  30.303  31.361  1.00  0.00     0.167 HD
ATOM     50  C   UNL A   1      39.995  32.460  35.173  1.00  0.00     0.037 A 
ATOM     51  C   UNL A   1      41.039  28.522  29.478  1.00  0.00     0.037 A 
ATOM     52  C   UNL A   1      41.084  31.525  35.275  1.00  0.00     0.049 A 
ATOM     53  C   UNL A   1      41.917  28.408  30.695  1.00  0.00     0.074 A 
ATOM     54  C   UNL A   1      41.932  31.298  36.344  1.00  0.00     0.029 A 
ATOM     55  N   UNL A   1      41.473  30.656  34.265  1.00  0.00    -0.354 N 
ATOM     56  N   UNL A   1      41.841  29.051  31.835  1.00  0.00    -0.248 NA
ATOM     57  C   UNL A   1      43.022  27.441  30.626  1.00  0.00     0.031 C 
ATOM     58  C   UNL A   1      42.860  30.320  35.969  1.00  0.00     0.029 A 
ATOM     59  C   UNL A   1      42.558  29.902  34.682  1.00  0.00     0.049 A 
ATOM     60  H   UNL A   1      41.042  30.586  33.383  1.00  0.00     0.167 HD
ATOM     61  C   UNL A   1      42.863  28.546  32.628  1.00  0.00     0.074 A 
ATOM     62  C   UNL A   1      43.537  27.533  31.844  1.00  0.00     0.031 C 
ATOM     63  C   UNL A   1      43.210  28.889  33.893  1.00  0.00     0.037 A 
BRANCH  50  64
ATOM     64  C   UNL A   1      39.734  33.376  36.334  1.00  0.00     0.064 A 
ATOM     65  C   UNL A   1      40.350  34.633  36.434  1.00  0.00     0.173 A 
ATOM     66  C   UNL A   1      38.833  33.007  37.345  1.00  0.00     0.173 A 
ATOM     67  F   UNL A   1      41.230  35.029  35.501  1.00  0.00    -0.203 F 
ATOM     68  C   UNL A   1      40.098  35.472  37.518  1.00  0.00     0.198 A 
ATOM     69  C   UNL A   1      38.560  33.861  38.410  1.00  0.00     0.198 A 
ATOM     70  F   UNL A   1      38.211  31.819  37.296  1.00  0.00    -0.203 F 
ATOM     71  F   UNL A   1      40.740  36.645  37.617  1.00  0.00    -0.200 F 
ATOM     72  C   UNL A   1      39.199  35.089  38.500  1.00  0.00     0.200 A 
ATOM     73  F   UNL A   1      37.681  33.495  39.354  1.00  0.00    -0.200 F 
ATOM     74  F   UNL A   1      38.954  35.899  39.539  1.00  0.00    -0.200 F 
ENDBRANCH  50  64
BRANCH  51  75
ATOM     75  C   UNL A   1      41.294  27.687  28.275  1.00  0.00     0.064 A 
ATOM     76  C   UNL A   1      40.676  26.438  28.123  1.00  0.00     0.173 A 
ATOM     77  C   UNL A   1      42.157  28.117  27.258  1.00  0.00     0.173 A 
ATOM     78  F   UNL A   1      39.858  25.974  29.079  1.00  0.00    -0.203 F 
ATOM     79  C   UNL A   1      40.930  25.640  27.009  1.00  0.00     0.198 A 
ATOM     80  C   UNL A   1      42.388  27.331  26.131  1.00  0.00     0.198 A 
ATOM     81  F   UNL A   1      42.768  29.307  27.353  1.00  0.00    -0.203 F 
ATOM     82  F   UNL A   1      40.362  24.430  26.911  1.00  0.00    -0.200 F 
ATOM     83  C   UNL A   1      41.782  26.090  26.011  1.00  0.00     0.200 A 
ATOM     84  F   UNL A   1      43.201  27.775  25.162  1.00  0.00    -0.200 F 
ATOM     85  F   UNL A   1      42.022  25.324  24.938  1.00  0.00    -0.200 F 
ENDBRANCH  51  75
BRANCH  63  86
ATOM     86  C   UNL A   1      44.344  28.134  34.522  1.00  0.00     0.064 A 
ATOM     87  C   UNL A   1      44.140  26.919  35.193  1.00  0.00     0.173 A 
ATOM     88  C   UNL A   1      45.658  28.618  34.423  1.00  0.00     0.173 A 
ATOM     89  F   UNL A   1      42.901  26.422  35.326  1.00  0.00    -0.203 F 
ATOM     90  C   UNL A   1      45.206  26.231  35.765  1.00  0.00     0.198 A 
ATOM     91  C   UNL A   1      46.724  27.912  34.972  1.00  0.00     0.198 A 
ATOM     92  F   UNL A   1      45.907  29.771  33.786  1.00  0.00    -0.203 F 
ATOM     93  F   UNL A   1      44.981  25.097  36.443  1.00  0.00    -0.200 F 
ATOM     94  C   UNL A   1      46.497  26.723  35.649  1.00  0.00     0.200 A 
ATOM     95  F   UNL A   1      47.973  28.383  34.846  1.00  0.00    -0.200 F 
ATOM     96  F   UNL A   1      47.522  26.057  36.197  1.00  0.00    -0.200 F 
ENDBRANCH  63  86
ENDBRANCH  37  38
ENDBRANCH  29  32
ENDBRANCH  27  28
ENDBRANCH  26  27
ENDBRANCH  25  26
ENDBRANCH   1  25
TORSDOF 16
ENDMDL
MODEL 2
REMARK VINA RESULT:     -11.7      0.867      1.804
REMARK SMILES C[C@H](Nc1ncccc1C(=O)NCCCCCCNC(=O)c1ccc(-c2c3nc(c(-c4c(F)c(F)c(F)c(F)c4F)c4ccc([nH]4)c(-c4c(F)c(F)c(F)c(F)c4F)c4nc(c(-c5c(F)c(F)c(F)c(F)c5F)c5ccc2[nH]5)C=C4)C=C3)cc1)c1ccc(Cl)cc1
REMARK SMILES IDX 15 1 14 2 13 3 12 4 10 5 11 6 9 8 4 9 5 10 6 11 8 12 7 13
REMARK SMILES IDX 3 14 2 16 1 17 85 18 86 19 91 20 87 21 90 22 88 23 89 24
REMARK SMILES IDX 16 25 17 26 18 27 19 28 20 29 21 31 22 32 23 33 84 34 24 35
REMARK SMILES IDX 83 36 25 37 26 38 27 39 77 40 28 41 82 42 76 43 78 44 29 45
REMARK SMILES IDX 81 46 75 47 74 48 30 50 62 51 42 52 61 53 43 54 46 55 60 56
REMARK SMILES IDX 79 57 44 58 45 59 59 61 80 62 47 63 31 64 32 65 40 66 33 67
REMARK SMILES IDX 34 68 38 69 41 70 35 71 36 72 39 73 37 74 63 75 64 76 72 77
REMARK SMILES IDX 65 78 66 79 70 80 73 81 67 82 68 83 71 84 69 85 48 86 49 87
REMARK SMILES IDX 57 88 50 89 51 90 55 91 58 92 52 93 53 94 56 95 54 96
REMARK H PARENT 12 7 3 15 19 30 78 49 46 60
REMARK Flexibility Score: inf
ROOT
ATOM      1  C   UNL A   1      31.814  29.765  26.617  1.00  0.00     0.002 C 
ENDROOT
BRANCH   1   2
ATOM      2  C   UNL A   1      31.575  28.360  26.053  1.00  0.00     0.021 C 
BRANCH   2   3
ATOM      3  C   UNL A   1      31.810  27.180  26.993  1.00  0.00     0.116 C 
BRANCH   3   4
ATOM      4  N   UNL A   1      31.080  25.981  26.627  1.00  0.00    -0.352 N 
ATOM      5  C   UNL A   1      31.442  24.811  25.997  1.00  0.00     0.255 C 
ATOM      6  O   UNL A   1      30.580  23.935  25.934  1.00  0.00    -0.269 OA
ATOM      7  H   UNL A   1      30.130  26.010  26.882  1.00  0.00     0.163 HD
BRANCH   5   8
ATOM      8  C   UNL A   1      32.794  24.572  25.419  1.00  0.00     0.082 A 
ATOM      9  C   UNL A   1      33.013  24.570  24.032  1.00  0.00     0.139 A 
ATOM     10  N   UNL A   1      34.219  24.242  23.497  1.00  0.00    -0.239 NA
ATOM     11  C   UNL A   1      35.239  23.946  24.324  1.00  0.00     0.113 A 
ATOM     12  C   UNL A   1      33.864  24.191  26.242  1.00  0.00     0.019 A 
ATOM     13  C   UNL A   1      35.115  23.916  25.695  1.00  0.00     0.021 A 
BRANCH   9  14
ATOM     14  N   UNL A   1      32.125  24.932  23.041  1.00  0.00    -0.363 N 
ATOM     15  H   UNL A   1      31.364  24.343  22.831  1.00  0.00     0.162 HD
BRANCH  14  16
ATOM     16  C   UNL A   1      32.298  26.178  22.300  1.00  0.00     0.108 C 
ATOM     17  C   UNL A   1      32.365  25.832  20.799  1.00  0.00     0.036 C 
BRANCH  16  18
ATOM     18  C   UNL A   1      31.152  27.159  22.581  1.00  0.00    -0.026 A 
ATOM     19  C   UNL A   1      29.941  26.768  23.181  1.00  0.00     0.007 A 
ATOM     20  C   UNL A   1      31.310  28.523  22.267  1.00  0.00     0.007 A 
ATOM     21  C   UNL A   1      28.908  27.689  23.396  1.00  0.00     0.021 A 
ATOM     22  C   UNL A   1      30.281  29.445  22.480  1.00  0.00     0.021 A 
ATOM     23  C   UNL A   1      29.079  29.021  23.036  1.00  0.00     0.041 A 
ATOM     24  Cl  UNL A   1      27.806  30.151  23.286  1.00  0.00    -0.084 Cl
ENDBRANCH  16  18
ENDBRANCH  14  16
ENDBRANCH   9  14
ENDBRANCH   5   8
ENDBRANCH   3   4
ENDBRANCH   2   3
ENDBRANCH   1   2
BRANCH   1  25
ATOM     25  C   UNL A   1      31.304  30.946  25.788  1.00  0.00     0.002 C 
BRANCH  25  26
ATOM     26  C   UNL A   1      31.263  32.308  26.486  1.00  0.00     0.021 C 
BRANCH  26  27
ATOM     27  C   UNL A   1      32.569  32.769  27.122  1.00  0.00     0.116 C 
BRANCH  27  28
ATOM     28  N   UNL A   1      32.510  34.138  27.603  1.00  0.00    -0.352 N 
ATOM     29  C   UNL A   1      33.258  34.758  28.574  1.00  0.00     0.251 C 
ATOM     30  H   UNL A   1      31.833  34.706  27.168  1.00  0.00     0.163 HD
ATOM     31  O   UNL A   1      32.956  35.885  28.952  1.00  0.00    -0.269 OA
BRANCH  29  32
ATOM     32  C   UNL A   1      34.420  34.070  29.184  1.00  0.00     0.039 A 
ATOM     33  C   UNL A   1      34.183  33.041  30.102  1.00  0.00     0.014 A 
ATOM     34  C   UNL A   1      35.732  34.458  28.898  1.00  0.00     0.014 A 
ATOM     35  C   UNL A   1      35.258  32.377  30.700  1.00  0.00     0.010 A 
ATOM     36  C   UNL A   1      36.803  33.750  29.441  1.00  0.00     0.010 A 
ATOM     37  C   UNL A   1      36.578  32.714  30.360  1.00  0.00    -0.014 A 
BRANCH  37  38
ATOM     38  C   UNL A   1      37.731  32.016  30.985  1.00  0.00     0.031 A 
ATOM     39  C   UNL A   1      38.171  32.385  32.375  1.00  0.00     0.074 A 
ATOM     40  C   UNL A   1      38.409  31.084  30.289  1.00  0.00     0.049 A 
ATOM     41  N   UNL A   1      39.180  31.929  33.076  1.00  0.00    -0.248 NA
ATOM     42  C   UNL A   1      37.392  33.428  33.060  1.00  0.00     0.031 C 
ATOM     43  C   UNL A   1      38.109  30.671  28.918  1.00  0.00     0.029 A 
ATOM     44  N   UNL A   1      39.496  30.322  30.637  1.00  0.00    -0.354 N 
ATOM     45  C   UNL A   1      39.163  32.637  34.271  1.00  0.00     0.074 A 
ATOM     46  C   UNL A   1      38.078  33.591  34.181  1.00  0.00     0.031 C 
ATOM     47  C   UNL A   1      38.976  29.714  28.548  1.00  0.00     0.029 A 
ATOM     48  C   UNL A   1      39.911  29.469  29.642  1.00  0.00     0.049 A 
ATOM     49  H   UNL A   1      39.937  30.380  31.514  1.00  0.00     0.167 HD
ATOM     50  C   UNL A   1      39.962  32.488  35.354  1.00  0.00     0.037 A 
ATOM     51  C   UNL A   1      40.931  28.590  29.619  1.00  0.00     0.037 A 
ATOM     52  C   UNL A   1      41.019  31.517  35.454  1.00  0.00     0.049 A 
ATOM     53  C   UNL A   1      41.793  28.432  30.842  1.00  0.00     0.074 A 
ATOM     54  C   UNL A   1      41.849  31.249  36.527  1.00  0.00     0.029 A 
ATOM     55  N   UNL A   1      41.389  30.649  34.436  1.00  0.00    -0.354 N 
ATOM     56  N   UNL A   1      41.727  29.063  31.989  1.00  0.00    -0.248 NA
ATOM     57  C   UNL A   1      42.866  27.430  30.771  1.00  0.00     0.031 C 
ATOM     58  C   UNL A   1      42.748  30.246  36.148  1.00  0.00     0.029 A 
ATOM     59  C   UNL A   1      42.445  29.855  34.853  1.00  0.00     0.049 A 
ATOM     60  H   UNL A   1      40.964  30.604  33.549  1.00  0.00     0.167 HD
ATOM     61  C   UNL A   1      42.725  28.515  32.784  1.00  0.00     0.074 A 
ATOM     62  C   UNL A   1      43.373  27.490  31.993  1.00  0.00     0.031 C 
ATOM     63  C   UNL A   1      43.071  28.830  34.057  1.00  0.00     0.037 A 
BRANCH  50  64
ATOM     64  C   UNL A   1      39.720  33.398  36.525  1.00  0.00     0.064 A 
ATOM     65  C   UNL A   1      40.381  34.629  36.650  1.00  0.00     0.173 A 
ATOM     66  C   UNL A   1      38.792  33.049  37.518  1.00  0.00     0.173 A 
ATOM     67  F   UNL A   1      41.287  35.005  35.733  1.00  0.00    -0.203 F 
ATOM     68  C   UNL A   1      40.146  35.462  37.741  1.00  0.00     0.198 A 
ATOM     69  C   UNL A   1      38.538  33.898  38.592  1.00  0.00     0.198 A 
ATOM     70  F   UNL A   1      38.128  31.886  37.446  1.00  0.00    -0.203 F 
ATOM     71  F   UNL A   1      40.829  36.609  37.864  1.00  0.00    -0.200 F 
ATOM     72  C   UNL A   1      39.221  35.100  38.707  1.00  0.00     0.200 A 
ATOM     73  F   UNL A   1      37.634  33.553  39.520  1.00  0.00    -0.200 F 
ATOM     74  F   UNL A   1      38.993  35.905  39.754  1.00  0.00    -0.200 F 
ENDBRANCH  50  64
BRANCH  51  75
ATOM     75  C   UNL A   1      41.169  27.762  28.407  1.00  0.00     0.064 A 
ATOM     76  C   UNL A   1      42.060  28.185  27.411  1.00  0.00     0.173 A 
ATOM     77  C   UNL A   1      40.512  26.538  28.219  1.00  0.00     0.173 A 
ATOM     78  F   UNL A   1      42.696  29.359  27.537  1.00  0.00    -0.203 F 
ATOM     79  C   UNL A   1      42.269  27.425  26.262  1.00  0.00     0.198 A 
ATOM     80  C   UNL A   1      40.743  25.766  27.082  1.00  0.00     0.198 A 
ATOM     81  F   UNL A   1      39.654  26.085  29.145  1.00  0.00    -0.203 F 
ATOM     82  F   UNL A   1      43.091  27.876  25.304  1.00  0.00    -0.200 F 
ATOM     83  C   UNL A   1      41.614  26.214  26.101  1.00  0.00     0.200 A 
ATOM     84  F   UNL A   1      40.119  24.589  26.937  1.00  0.00    -0.200 F 
ATOM     85  F   UNL A   1      41.818  25.482  24.997  1.00  0.00    -0.200 F 
ENDBRANCH  51  75
BRANCH  63  86
ATOM     86  C   UNL A   1      44.174  28.031  34.687  1.00  0.00     0.064 A 
ATOM     87  C   UNL A   1      45.511  28.451  34.638  1.00  0.00     0.173 A 
ATOM     88  C   UNL A   1      43.882  26.846  35.379  1.00  0.00     0.173 A 
ATOM     89  F   UNL A   1      45.842  29.571  33.977  1.00  0.00    -0.203 F 
ATOM     90  C   UNL A   1      46.519  27.699  35.234  1.00  0.00     0.198 A 
ATOM     91  C   UNL A   1      44.889  26.111  35.998  1.00  0.00     0.198 A 
ATOM     92  F   UNL A   1      42.618  26.404  35.461  1.00  0.00    -0.203 F 
ATOM     93  F   UNL A   1      47.796  28.094  35.132  1.00  0.00    -0.200 F 
ATOM     94  C   UNL A   1      46.207  26.534  35.919  1.00  0.00     0.200 A 
ATOM     95  F   UNL A   1      44.583  24.993  36.671  1.00  0.00    -0.200 F 
ATOM     96  F   UNL A   1      47.179  25.814  36.495  1.00  0.00    -0.200 F 
ENDBRANCH  63  86
ENDBRANCH  37  38
ENDBRANCH  29  32
ENDBRANCH  27  28
ENDBRANCH  26  27
ENDBRANCH  25  26
ENDBRANCH   1  25
TORSDOF 16
ENDMDL
MODEL 3
REMARK VINA RESULT:     -11.6      1.343      7.394
REMARK SMILES C[C@H](Nc1ncccc1C(=O)NCCCCCCNC(=O)c1ccc(-c2c3nc(c(-c4c(F)c(F)c(F)c(F)c4F)c4ccc([nH]4)c(-c4c(F)c(F)c(F)c(F)c4F)c4nc(c(-c5c(F)c(F)c(F)c(F)c5F)c5ccc2[nH]5)C=C4)C=C3)cc1)c1ccc(Cl)cc1
REMARK SMILES IDX 15 1 14 2 13 3 12 4 10 5 11 6 9 8 4 9 5 10 6 11 8 12 7 13
REMARK SMILES IDX 3 14 2 16 1 17 85 18 86 19 91 20 87 21 90 22 88 23 89 24
REMARK SMILES IDX 16 25 17 26 18 27 19 28 20 29 21 31 22 32 23 33 84 34 24 35
REMARK SMILES IDX 83 36 25 37 26 38 27 39 77 40 28 41 82 42 76 43 78 44 29 45
REMARK SMILES IDX 81 46 75 47 74 48 30 50 62 51 42 52 61 53 43 54 46 55 60 56
REMARK SMILES IDX 79 57 44 58 45 59 59 61 80 62 47 63 31 64 32 65 40 66 33 67
REMARK SMILES IDX 34 68 38 69 41 70 35 71 36 72 39 73 37 74 63 75 64 76 72 77
REMARK SMILES IDX 65 78 66 79 70 80 73 81 67 82 68 83 71 84 69 85 48 86 49 87
REMARK SMILES IDX 57 88 50 89 51 90 55 91 58 92 52 93 53 94 56 95 54 96
REMARK H PARENT 12 7 3 15 19 30 78 49 46 60
REMARK Flexibility Score: inf
ROOT
ATOM      1  C   UNL A   1      32.578  30.193  27.040  1.00  0.00     0.002 C 
ENDROOT
BRANCH   1   2
ATOM      2  C   UNL A   1      32.424  28.683  27.250  1.00  0.00     0.021 C 
BRANCH   2   3
ATOM      3  C   UNL A   1      33.491  27.779  26.636  1.00  0.00     0.116 C 
BRANCH   3   4
ATOM      4  N   UNL A   1      33.770  28.062  25.241  1.00  0.00    -0.352 N 
ATOM      5  C   UNL A   1      33.749  27.292  24.099  1.00  0.00     0.255 C 
ATOM      6  O   UNL A   1      33.943  27.883  23.037  1.00  0.00    -0.269 OA
ATOM      7  H   UNL A   1      34.026  28.998  25.077  1.00  0.00     0.163 HD
BRANCH   5   8
ATOM      8  C   UNL A   1      33.500  25.824  24.102  1.00  0.00     0.082 A 
ATOM      9  C   UNL A   1      32.297  25.278  23.624  1.00  0.00     0.139 A 
ATOM     10  N   UNL A   1      32.019  23.952  23.729  1.00  0.00    -0.239 NA
ATOM     11  C   UNL A   1      32.940  23.135  24.274  1.00  0.00     0.113 A 
ATOM     12  C   UNL A   1      34.402  24.949  24.726  1.00  0.00     0.019 A 
ATOM     13  C   UNL A   1      34.143  23.581  24.775  1.00  0.00     0.021 A 
BRANCH   9  14
ATOM     14  N   UNL A   1      31.284  25.935  22.958  1.00  0.00    -0.363 N 
ATOM     15  H   UNL A   1      31.394  26.160  22.006  1.00  0.00     0.162 HD
BRANCH  14  16
ATOM     16  C   UNL A   1      30.050  26.300  23.647  1.00  0.00     0.108 C 
ATOM     17  C   UNL A   1      30.350  26.366  25.157  1.00  0.00     0.036 C 
BRANCH  16  18
ATOM     18  C   UNL A   1      29.506  27.644  23.143  1.00  0.00    -0.026 A 
ATOM     19  C   UNL A   1      28.156  28.018  23.270  1.00  0.00     0.007 A 
ATOM     20  C   UNL A   1      30.385  28.577  22.559  1.00  0.00     0.007 A 
ATOM     21  C   UNL A   1      27.692  29.243  22.774  1.00  0.00     0.021 A 
ATOM     22  C   UNL A   1      29.926  29.801  22.063  1.00  0.00     0.021 A 
ATOM     23  C   UNL A   1      28.578  30.124  22.164  1.00  0.00     0.041 A 
ATOM     24  Cl  UNL A   1      28.009  31.624  21.541  1.00  0.00    -0.084 Cl
ENDBRANCH  16  18
ENDBRANCH  14  16
ENDBRANCH   9  14
ENDBRANCH   5   8
ENDBRANCH   3   4
ENDBRANCH   2   3
ENDBRANCH   1   2
BRANCH   1  25
ATOM     25  C   UNL A   1      31.386  30.940  26.435  1.00  0.00     0.002 C 
BRANCH  25  26
ATOM     26  C   UNL A   1      31.371  32.461  26.603  1.00  0.00     0.021 C 
BRANCH  26  27
ATOM     27  C   UNL A   1      32.649  33.083  27.153  1.00  0.00     0.116 C 
BRANCH  27  28
ATOM     28  N   UNL A   1      32.441  34.412  27.698  1.00  0.00    -0.352 N 
ATOM     29  C   UNL A   1      33.036  35.018  28.779  1.00  0.00     0.251 C 
ATOM     30  H   UNL A   1      31.775  34.960  27.224  1.00  0.00     0.163 HD
ATOM     31  O   UNL A   1      32.614  36.097  29.183  1.00  0.00    -0.269 OA
BRANCH  29  32
ATOM     32  C   UNL A   1      34.173  34.372  29.474  1.00  0.00     0.039 A 
ATOM     33  C   UNL A   1      35.467  34.593  28.991  1.00  0.00     0.014 A 
ATOM     34  C   UNL A   1      33.974  33.517  30.562  1.00  0.00     0.014 A 
ATOM     35  C   UNL A   1      36.560  33.993  29.621  1.00  0.00     0.010 A 
ATOM     36  C   UNL A   1      35.069  32.974  31.233  1.00  0.00     0.010 A 
ATOM     37  C   UNL A   1      36.372  33.193  30.760  1.00  0.00    -0.014 A 
BRANCH  37  38
ATOM     38  C   UNL A   1      37.524  32.549  31.442  1.00  0.00     0.031 A 
ATOM     39  C   UNL A   1      38.258  31.417  30.776  1.00  0.00     0.074 A 
ATOM     40  C   UNL A   1      37.882  32.951  32.676  1.00  0.00     0.049 A 
ATOM     41  N   UNL A   1      39.255  30.696  31.225  1.00  0.00    -0.248 NA
ATOM     42  C   UNL A   1      37.791  31.024  29.437  1.00  0.00     0.031 C 
ATOM     43  C   UNL A   1      37.222  34.006  33.446  1.00  0.00     0.029 A 
ATOM     44  N   UNL A   1      38.886  32.513  33.504  1.00  0.00    -0.354 N 
ATOM     45  C   UNL A   1      39.521  29.759  30.235  1.00  0.00     0.074 A 
ATOM     46  C   UNL A   1      38.548  29.967  29.183  1.00  0.00     0.031 C 
ATOM     47  C   UNL A   1      37.851  34.149  34.624  1.00  0.00     0.029 A 
ATOM     48  C   UNL A   1      38.938  33.177  34.706  1.00  0.00     0.049 A 
ATOM     49  H   UNL A   1      39.510  31.792  33.261  1.00  0.00     0.167 HD
ATOM     50  C   UNL A   1      40.502  28.827  30.193  1.00  0.00     0.037 A 
ATOM     51  C   UNL A   1      39.769  33.019  35.753  1.00  0.00     0.037 A 
ATOM     52  C   UNL A   1      41.489  28.643  31.224  1.00  0.00     0.049 A 
ATOM     53  C   UNL A   1      40.862  31.987  35.674  1.00  0.00     0.074 A 
ATOM     54  C   UNL A   1      42.557  27.765  31.252  1.00  0.00     0.029 A 
ATOM     55  N   UNL A   1      41.528  29.357  32.413  1.00  0.00    -0.354 N 
ATOM     56  N   UNL A   1      41.143  31.150  34.705  1.00  0.00    -0.248 NA
ATOM     57  C   UNL A   1      41.762  31.886  36.832  1.00  0.00     0.031 C 
ATOM     58  C   UNL A   1      43.220  27.919  32.475  1.00  0.00     0.029 A 
ATOM     59  C   UNL A   1      42.593  28.928  33.188  1.00  0.00     0.049 A 
ATOM     60  H   UNL A   1      40.891  30.064  32.669  1.00  0.00     0.167 HD
ATOM     61  C   UNL A   1      42.266  30.448  35.120  1.00  0.00     0.074 A 
ATOM     62  C   UNL A   1      42.624  30.966  36.424  1.00  0.00     0.031 C 
ATOM     63  C   UNL A   1      42.942  29.463  34.479  1.00  0.00     0.037 A 
BRANCH  50  64
ATOM     64  C   UNL A   1      40.560  27.934  28.986  1.00  0.00     0.064 A 
ATOM     65  C   UNL A   1      41.378  28.235  27.886  1.00  0.00     0.173 A 
ATOM     66  C   UNL A   1      39.813  26.747  28.941  1.00  0.00     0.173 A 
ATOM     67  F   UNL A   1      42.104  29.363  27.874  1.00  0.00    -0.203 F 
ATOM     68  C   UNL A   1      41.422  27.397  26.774  1.00  0.00     0.198 A 
ATOM     69  C   UNL A   1      39.882  25.897  27.840  1.00  0.00     0.198 A 
ATOM     70  F   UNL A   1      39.018  26.408  29.968  1.00  0.00    -0.203 F 
ATOM     71  F   UNL A   1      42.171  27.733  25.714  1.00  0.00    -0.200 F 
ATOM     72  C   UNL A   1      40.680  26.227  26.754  1.00  0.00     0.200 A 
ATOM     73  F   UNL A   1      39.174  24.759  27.827  1.00  0.00    -0.200 F 
ATOM     74  F   UNL A   1      40.726  25.420  25.685  1.00  0.00    -0.200 F 
ENDBRANCH  50  64
BRANCH  51  75
ATOM     75  C   UNL A   1      39.624  33.884  36.953  1.00  0.00     0.064 A 
ATOM     76  C   UNL A   1      38.869  33.462  38.056  1.00  0.00     0.173 A 
ATOM     77  C   UNL A   1      40.231  35.145  37.021  1.00  0.00     0.173 A 
ATOM     78  F   UNL A   1      38.252  32.272  38.030  1.00  0.00    -0.203 F 
ATOM     79  C   UNL A   1      38.709  34.279  39.174  1.00  0.00     0.198 A 
ATOM     80  C   UNL A   1      40.093  35.950  38.150  1.00  0.00     0.198 A 
ATOM     81  F   UNL A   1      40.969  35.593  35.994  1.00  0.00    -0.203 F 
ATOM     82  F   UNL A   1      37.944  33.870  40.196  1.00  0.00    -0.200 F 
ATOM     83  C   UNL A   1      39.326  35.520  39.222  1.00  0.00     0.200 A 
ATOM     84  F   UNL A   1      40.703  37.143  38.199  1.00  0.00    -0.200 F 
ATOM     85  F   UNL A   1      39.175  36.304  40.299  1.00  0.00    -0.200 F 
ENDBRANCH  51  75
BRANCH  63  86
ATOM     86  C   UNL A   1      44.161  28.912  35.158  1.00  0.00     0.064 A 
ATOM     87  C   UNL A   1      45.440  29.438  34.922  1.00  0.00     0.173 A 
ATOM     88  C   UNL A   1      44.042  27.864  36.084  1.00  0.00     0.173 A 
ATOM     89  F   UNL A   1      45.607  30.431  34.036  1.00  0.00    -0.203 F 
ATOM     90  C   UNL A   1      46.557  28.916  35.567  1.00  0.00     0.198 A 
ATOM     91  C   UNL A   1      45.158  27.364  36.748  1.00  0.00     0.198 A 
ATOM     92  F   UNL A   1      42.841  27.330  36.350  1.00  0.00    -0.203 F 
ATOM     93  F   UNL A   1      47.776  29.402  35.289  1.00  0.00    -0.200 F 
ATOM     94  C   UNL A   1      46.416  27.885  36.484  1.00  0.00     0.200 A 
ATOM     95  F   UNL A   1      45.017  26.377  37.643  1.00  0.00    -0.200 F 
ATOM     96  F   UNL A   1      47.493  27.387  37.106  1.00  0.00    -0.200 F 
ENDBRANCH  63  86
ENDBRANCH  37  38
ENDBRANCH  29  32
ENDBRANCH  27  28
ENDBRANCH  26  27
ENDBRANCH  25  26
ENDBRANCH   1  25
TORSDOF 16
ENDMDL
