MODEL 1
REMARK VINA RESULT:     -10.6      0.000      0.000
REMARK SMILES CC[C@H](C)[NH+]1CCN(C(=O)CC(=O)NCCCCCCNC(=O)c2ccc(-c3c4nc(c(-c5c(F)c(F)c(F)c(F)c5F)c5ccc([nH]5)c(-c5c(F)c(F)c(F)c(F)c5F)c5nc(c(-c6c(F)c(F)c(F)c(F)c6F)c6ccc3[nH]6)C=C5)C=C4)cc2)CC1
REMARK SMILES IDX 17 1 16 2 15 3 14 4 12 5 13 6 11 8 9 9 5 10 6 11 88 12 7 14
REMARK SMILES IDX 87 15 8 16 10 17 3 18 4 19 2 20 1 21 18 22 19 23 20 24 21 25
REMARK SMILES IDX 22 26 23 28 24 29 25 30 86 31 26 32 85 33 27 34 28 35 29 36
REMARK SMILES IDX 79 37 30 38 84 39 78 40 80 41 31 42 83 43 77 44 76 45 32 47
REMARK SMILES IDX 64 48 44 49 63 50 45 51 48 52 62 53 81 54 46 55 47 56 61 58
REMARK SMILES IDX 82 59 49 60 33 61 34 62 42 63 35 64 36 65 40 66 43 67 37 68
REMARK SMILES IDX 38 69 41 70 39 71 65 72 66 73 74 74 67 75 68 76 72 77 75 78
REMARK SMILES IDX 69 79 70 80 73 81 71 82 50 83 51 84 59 85 52 86 53 87 57 88
REMARK SMILES IDX 60 89 54 90 55 91 58 92 56 93
REMARK H PARENT 14 7 5 13 21 27 80 46 48 57
REMARK Flexibility Score: inf
ROOT
ATOM      1  C   UNL A   1      34.390  32.344  29.040  1.00  0.00     0.002 C 
ENDROOT
BRANCH   1   2
ATOM      2  C   UNL A   1      33.971  31.684  27.717  1.00  0.00     0.021 C 
BRANCH   2   3
ATOM      3  C   UNL A   1      34.504  30.262  27.538  1.00  0.00     0.116 C 
BRANCH   3   4
ATOM      4  N   UNL A   1      33.502  29.290  27.929  1.00  0.00    -0.356 N 
ATOM      5  C   UNL A   1      32.781  28.423  27.172  1.00  0.00     0.229 C 
ATOM      6  O   UNL A   1      31.887  27.783  27.731  1.00  0.00    -0.275 OA
ATOM      7  H   UNL A   1      33.314  29.254  28.895  1.00  0.00     0.163 HD
BRANCH   5   8
ATOM      8  C   UNL A   1      33.111  28.181  25.728  1.00  0.00     0.200 C 
BRANCH   8   9
ATOM      9  C   UNL A   1      32.344  27.108  25.004  1.00  0.00     0.232 C 
ATOM     10  N   UNL A   1      34.039  23.239  24.070  1.00  0.00    -0.330 N 
ATOM     11  C   UNL A   1      32.936  23.877  23.349  1.00  0.00     0.284 C 
ATOM     12  C   UNL A   1      34.858  24.258  24.748  1.00  0.00     0.284 C 
ATOM     13  H   UNL A   1      34.597  22.799  23.339  1.00  0.00     0.348 HD
ATOM     14  C   UNL A   1      32.080  24.822  24.197  1.00  0.00     0.181 C 
ATOM     15  C   UNL A   1      34.106  25.362  25.528  1.00  0.00     0.181 C 
ATOM     16  N   UNL A   1      32.887  25.844  24.865  1.00  0.00    -0.331 N 
ATOM     17  O   UNL A   1      31.251  27.395  24.503  1.00  0.00    -0.274 OA
BRANCH  10  18
ATOM     18  C   UNL A   1      33.775  22.014  24.843  1.00  0.00     0.180 C 
ATOM     19  C   UNL A   1      33.135  20.837  24.104  1.00  0.00     0.075 C 
BRANCH  18  20
ATOM     20  C   UNL A   1      35.008  21.570  25.681  1.00  0.00     0.061 C 
ATOM     21  C   UNL A   1      35.953  20.551  25.052  1.00  0.00     0.010 C 
ENDBRANCH  18  20
ENDBRANCH  10  18
ENDBRANCH   8   9
ENDBRANCH   5   8
ENDBRANCH   3   4
ENDBRANCH   2   3
ENDBRANCH   1   2
BRANCH   1  22
ATOM     22  C   UNL A   1      34.558  33.866  28.979  1.00  0.00     0.002 C 
BRANCH  22  23
ATOM     23  C   UNL A   1      33.250  34.658  29.011  1.00  0.00     0.021 C 
BRANCH  23  24
ATOM     24  C   UNL A   1      33.376  36.057  29.605  1.00  0.00     0.116 C 
BRANCH  24  25
ATOM     25  N   UNL A   1      32.473  36.259  30.727  1.00  0.00    -0.352 N 
ATOM     26  C   UNL A   1      32.536  35.747  31.997  1.00  0.00     0.251 C 
ATOM     27  H   UNL A   1      31.705  36.849  30.548  1.00  0.00     0.163 HD
ATOM     28  O   UNL A   1      31.580  35.864  32.761  1.00  0.00    -0.269 OA
BRANCH  26  29
ATOM     29  C   UNL A   1      33.751  35.035  32.444  1.00  0.00     0.039 A 
ATOM     30  C   UNL A   1      33.635  33.723  32.908  1.00  0.00     0.014 A 
ATOM     31  C   UNL A   1      35.000  35.660  32.408  1.00  0.00     0.014 A 
ATOM     32  C   UNL A   1      34.781  33.017  33.279  1.00  0.00     0.010 A 
ATOM     33  C   UNL A   1      36.148  34.931  32.704  1.00  0.00     0.010 A 
ATOM     34  C   UNL A   1      36.051  33.603  33.146  1.00  0.00    -0.014 A 
BRANCH  34  35
ATOM     35  C   UNL A   1      37.287  32.846  33.472  1.00  0.00     0.031 A 
ATOM     36  C   UNL A   1      38.036  33.137  34.743  1.00  0.00     0.074 A 
ATOM     37  C   UNL A   1      37.759  31.930  32.603  1.00  0.00     0.049 A 
ATOM     38  N   UNL A   1      39.170  32.639  35.171  1.00  0.00    -0.248 NA
ATOM     39  C   UNL A   1      37.446  34.140  35.645  1.00  0.00     0.031 C 
ATOM     40  C   UNL A   1      37.140  31.579  31.323  1.00  0.00     0.029 A 
ATOM     41  N   UNL A   1      38.875  31.132  32.660  1.00  0.00    -0.354 N 
ATOM     42  C   UNL A   1      39.423  33.263  36.385  1.00  0.00     0.074 A 
ATOM     43  C   UNL A   1      38.366  34.226  36.595  1.00  0.00     0.031 C 
ATOM     44  C   UNL A   1      37.868  30.619  30.730  1.00  0.00     0.029 A 
ATOM     45  C   UNL A   1      39.029  30.319  31.563  1.00  0.00     0.049 A 
ATOM     46  H   UNL A   1      39.504  31.140  33.418  1.00  0.00     0.167 HD
ATOM     47  C   UNL A   1      40.430  33.031  37.261  1.00  0.00     0.037 A 
ATOM     48  C   UNL A   1      40.005  29.441  31.259  1.00  0.00     0.037 A 
ATOM     49  C   UNL A   1      41.477  32.065  37.054  1.00  0.00     0.049 A 
ATOM     50  C   UNL A   1      41.142  29.248  32.228  1.00  0.00     0.074 A 
ATOM     51  C   UNL A   1      42.534  31.746  37.889  1.00  0.00     0.029 A 
ATOM     52  N   UNL A   1      41.600  31.264  35.929  1.00  0.00    -0.354 N 
ATOM     53  N   UNL A   1      41.341  29.805  33.398  1.00  0.00    -0.248 NA
ATOM     54  C   UNL A   1      42.190  28.294  31.836  1.00  0.00     0.031 C 
ATOM     55  C   UNL A   1      43.320  30.782  37.250  1.00  0.00     0.029 A 
ATOM     56  C   UNL A   1      42.722  30.459  36.044  1.00  0.00     0.049 A 
ATOM     57  H   UNL A   1      40.982  31.265  35.163  1.00  0.00     0.167 HD
ATOM     58  C   UNL A   1      42.507  29.240  33.897  1.00  0.00     0.074 A 
ATOM     59  C   UNL A   1      42.963  28.284  32.911  1.00  0.00     0.031 C 
ATOM     60  C   UNL A   1      43.147  29.491  35.066  1.00  0.00     0.037 A 
BRANCH  47  61
ATOM     61  C   UNL A   1      40.439  33.821  38.538  1.00  0.00     0.064 A 
ATOM     62  C   UNL A   1      41.193  34.999  38.663  1.00  0.00     0.173 A 
ATOM     63  C   UNL A   1      39.642  33.435  39.627  1.00  0.00     0.173 A 
ATOM     64  F   UNL A   1      41.981  35.405  37.656  1.00  0.00    -0.203 F 
ATOM     65  C   UNL A   1      41.166  35.746  39.836  1.00  0.00     0.198 A 
ATOM     66  C   UNL A   1      39.593  34.203  40.786  1.00  0.00     0.198 A 
ATOM     67  F   UNL A   1      38.897  32.321  39.558  1.00  0.00    -0.203 F 
ATOM     68  F   UNL A   1      41.928  36.843  39.948  1.00  0.00    -0.200 F 
ATOM     69  C   UNL A   1      40.359  35.354  40.893  1.00  0.00     0.200 A 
ATOM     70  F   UNL A   1      38.800  33.832  41.802  1.00  0.00    -0.200 F 
ATOM     71  F   UNL A   1      40.323  36.084  42.016  1.00  0.00    -0.200 F 
ENDBRANCH  47  61
BRANCH  48  72
ATOM     72  C   UNL A   1      39.960  28.668  29.989  1.00  0.00     0.064 A 
ATOM     73  C   UNL A   1      39.361  27.399  29.939  1.00  0.00     0.173 A 
ATOM     74  C   UNL A   1      40.561  29.146  28.816  1.00  0.00     0.173 A 
ATOM     75  F   UNL A   1      38.789  26.887  31.039  1.00  0.00    -0.203 F 
ATOM     76  C   UNL A   1      39.405  26.625  28.783  1.00  0.00     0.198 A 
ATOM     77  C   UNL A   1      40.572  28.386  27.648  1.00  0.00     0.198 A 
ATOM     78  F   UNL A   1      41.144  30.354  28.804  1.00  0.00    -0.203 F 
ATOM     79  F   UNL A   1      38.891  25.387  28.789  1.00  0.00    -0.200 F 
ATOM     80  C   UNL A   1      40.008  27.120  27.636  1.00  0.00     0.200 A 
ATOM     81  F   UNL A   1      41.143  28.875  26.539  1.00  0.00    -0.200 F 
ATOM     82  F   UNL A   1      40.061  26.370  26.527  1.00  0.00    -0.200 F 
ENDBRANCH  48  72
BRANCH  60  83
ATOM     83  C   UNL A   1      44.371  28.676  35.372  1.00  0.00     0.064 A 
ATOM     84  C   UNL A   1      45.656  29.098  35.001  1.00  0.00     0.173 A 
ATOM     85  C   UNL A   1      44.256  27.470  36.081  1.00  0.00     0.173 A 
ATOM     86  F   UNL A   1      45.819  30.237  34.309  1.00  0.00    -0.203 F 
ATOM     87  C   UNL A   1      46.777  28.328  35.299  1.00  0.00     0.198 A 
ATOM     88  C   UNL A   1      45.383  26.721  36.409  1.00  0.00     0.198 A 
ATOM     89  F   UNL A   1      43.052  27.023  36.468  1.00  0.00    -0.203 F 
ATOM     90  F   UNL A   1      47.988  28.724  34.885  1.00  0.00    -0.200 F 
ATOM     91  C   UNL A   1      46.641  27.144  36.009  1.00  0.00     0.200 A 
ATOM     92  F   UNL A   1      45.250  25.587  37.111  1.00  0.00    -0.200 F 
ATOM     93  F   UNL A   1      47.721  26.410  36.303  1.00  0.00    -0.200 F 
ENDBRANCH  60  83
ENDBRANCH  34  35
ENDBRANCH  26  29
ENDBRANCH  24  25
ENDBRANCH  23  24
ENDBRANCH  22  23
ENDBRANCH   1  22
TORSDOF 16
ENDMDL
MODEL 2
REMARK VINA RESULT:     -10.6      6.124     11.638
REMARK SMILES CC[C@H](C)[NH+]1CCN(C(=O)CC(=O)NCCCCCCNC(=O)c2ccc(-c3c4nc(c(-c5c(F)c(F)c(F)c(F)c5F)c5ccc([nH]5)c(-c5c(F)c(F)c(F)c(F)c5F)c5nc(c(-c6c(F)c(F)c(F)c(F)c6F)c6ccc3[nH]6)C=C5)C=C4)cc2)CC1
REMARK SMILES IDX 17 1 16 2 15 3 14 4 12 5 13 6 11 8 9 9 5 10 6 11 88 12 7 14
REMARK SMILES IDX 87 15 8 16 10 17 3 18 4 19 2 20 1 21 18 22 19 23 20 24 21 25
REMARK SMILES IDX 22 26 23 28 24 29 25 30 86 31 26 32 85 33 27 34 28 35 29 36
REMARK SMILES IDX 79 37 30 38 84 39 78 40 80 41 31 42 83 43 77 44 76 45 32 47
REMARK SMILES IDX 64 48 44 49 63 50 45 51 48 52 62 53 81 54 46 55 47 56 61 58
REMARK SMILES IDX 82 59 49 60 33 61 34 62 42 63 35 64 36 65 40 66 43 67 37 68
REMARK SMILES IDX 38 69 41 70 39 71 65 72 66 73 74 74 67 75 68 76 72 77 75 78
REMARK SMILES IDX 69 79 70 80 73 81 71 82 50 83 51 84 59 85 52 86 53 87 57 88
REMARK SMILES IDX 60 89 54 90 55 91 58 92 56 93
REMARK H PARENT 14 7 5 13 21 27 80 46 48 57
REMARK Flexibility Score: inf
ROOT
ATOM      1  C   UNL A   1      37.737  22.342  25.069  1.00  0.00     0.002 C 
ENDROOT
BRANCH   1   2
ATOM      2  C   UNL A   1      36.766  23.515  24.852  1.00  0.00     0.021 C 
BRANCH   2   3
ATOM      3  C   UNL A   1      35.729  23.265  23.757  1.00  0.00     0.116 C 
BRANCH   3   4
ATOM      4  N   UNL A   1      34.596  24.155  23.919  1.00  0.00    -0.356 N 
ATOM      5  C   UNL A   1      33.266  23.914  23.781  1.00  0.00     0.229 C 
ATOM      6  O   UNL A   1      32.500  24.878  23.846  1.00  0.00    -0.275 OA
ATOM      7  H   UNL A   1      34.826  25.081  24.166  1.00  0.00     0.163 HD
BRANCH   5   8
ATOM      8  C   UNL A   1      32.733  22.517  23.646  1.00  0.00     0.200 C 
BRANCH   8   9
ATOM      9  C   UNL A   1      33.050  21.537  24.742  1.00  0.00     0.232 C 
ATOM     10  N   UNL A   1      32.336  17.287  24.367  1.00  0.00    -0.330 N 
ATOM     11  C   UNL A   1      32.409  18.026  25.629  1.00  0.00     0.284 C 
ATOM     12  C   UNL A   1      31.968  18.196  23.268  1.00  0.00     0.284 C 
ATOM     13  H   UNL A   1      31.580  16.618  24.509  1.00  0.00     0.348 HD
ATOM     14  C   UNL A   1      33.306  19.266  25.593  1.00  0.00     0.181 C 
ATOM     15  C   UNL A   1      32.704  19.554  23.201  1.00  0.00     0.181 C 
ATOM     16  N   UNL A   1      32.938  20.179  24.510  1.00  0.00    -0.331 N 
ATOM     17  O   UNL A   1      33.363  21.973  25.856  1.00  0.00    -0.274 OA
BRANCH  10  18
ATOM     18  C   UNL A   1      33.382  16.299  24.054  1.00  0.00     0.180 C 
ATOM     19  C   UNL A   1      34.379  16.652  22.949  1.00  0.00     0.075 C 
BRANCH  18  20
ATOM     20  C   UNL A   1      34.096  15.773  25.332  1.00  0.00     0.061 C 
ATOM     21  C   UNL A   1      35.602  15.992  25.434  1.00  0.00     0.010 C 
ENDBRANCH  18  20
ENDBRANCH  10  18
ENDBRANCH   8   9
ENDBRANCH   5   8
ENDBRANCH   3   4
ENDBRANCH   2   3
ENDBRANCH   1   2
BRANCH   1  22
ATOM     22  C   UNL A   1      37.235  20.985  24.561  1.00  0.00     0.002 C 
BRANCH  22  23
ATOM     23  C   UNL A   1      38.156  19.804  24.875  1.00  0.00     0.021 C 
BRANCH  23  24
ATOM     24  C   UNL A   1      39.128  20.053  26.023  1.00  0.00     0.116 C 
BRANCH  24  25
ATOM     25  N   UNL A   1      40.247  19.124  26.004  1.00  0.00    -0.352 N 
ATOM     26  C   UNL A   1      41.592  19.382  26.064  1.00  0.00     0.251 C 
ATOM     27  H   UNL A   1      40.003  18.172  25.937  1.00  0.00     0.163 HD
ATOM     28  O   UNL A   1      42.406  18.489  25.836  1.00  0.00    -0.269 OA
BRANCH  26  29
ATOM     29  C   UNL A   1      42.067  20.744  26.388  1.00  0.00     0.039 A 
ATOM     30  C   UNL A   1      42.306  21.642  25.346  1.00  0.00     0.014 A 
ATOM     31  C   UNL A   1      42.278  21.132  27.713  1.00  0.00     0.014 A 
ATOM     32  C   UNL A   1      42.699  22.950  25.637  1.00  0.00     0.010 A 
ATOM     33  C   UNL A   1      42.593  22.455  28.005  1.00  0.00     0.010 A 
ATOM     34  C   UNL A   1      42.811  23.378  26.970  1.00  0.00    -0.014 A 
BRANCH  34  35
ATOM     35  C   UNL A   1      43.162  24.782  27.302  1.00  0.00     0.031 A 
ATOM     36  C   UNL A   1      44.565  25.280  27.087  1.00  0.00     0.074 A 
ATOM     37  C   UNL A   1      42.231  25.596  27.840  1.00  0.00     0.049 A 
ATOM     38  N   UNL A   1      45.087  26.445  27.380  1.00  0.00    -0.248 NA
ATOM     39  C   UNL A   1      45.518  24.334  26.481  1.00  0.00     0.031 C 
ATOM     40  C   UNL A   1      40.845  25.223  28.126  1.00  0.00     0.029 A 
ATOM     41  N   UNL A   1      42.313  26.903  28.250  1.00  0.00    -0.354 N 
ATOM     42  C   UNL A   1      46.419  26.371  26.994  1.00  0.00     0.074 A 
ATOM     43  C   UNL A   1      46.646  25.029  26.510  1.00  0.00     0.031 C 
ATOM     44  C   UNL A   1      40.200  26.283  28.640  1.00  0.00     0.029 A 
ATOM     45  C   UNL A   1      41.137  27.396  28.763  1.00  0.00     0.049 A 
ATOM     46  H   UNL A   1      43.137  27.438  28.182  1.00  0.00     0.167 HD
ATOM     47  C   UNL A   1      47.359  27.347  27.012  1.00  0.00     0.037 A 
ATOM     48  C   UNL A   1      40.852  28.605  29.284  1.00  0.00     0.037 A 
ATOM     49  C   UNL A   1      47.129  28.686  27.486  1.00  0.00     0.049 A 
ATOM     50  C   UNL A   1      41.936  29.649  29.342  1.00  0.00     0.074 A 
ATOM     51  C   UNL A   1      48.013  29.750  27.530  1.00  0.00     0.029 A 
ATOM     52  N   UNL A   1      45.924  29.145  27.999  1.00  0.00    -0.354 N 
ATOM     53  N   UNL A   1      43.177  29.584  28.924  1.00  0.00    -0.248 NA
ATOM     54  C   UNL A   1      41.576  30.943  29.942  1.00  0.00     0.031 C 
ATOM     55  C   UNL A   1      47.357  30.840  28.110  1.00  0.00     0.029 A 
ATOM     56  C   UNL A   1      46.048  30.473  28.374  1.00  0.00     0.049 A 
ATOM     57  H   UNL A   1      45.104  28.608  28.083  1.00  0.00     0.167 HD
ATOM     58  C   UNL A   1      43.728  30.835  29.168  1.00  0.00     0.074 A 
ATOM     59  C   UNL A   1      42.683  31.645  29.756  1.00  0.00     0.031 C 
ATOM     60  C   UNL A   1      44.989  31.275  28.931  1.00  0.00     0.037 A 
BRANCH  47  61
ATOM     61  C   UNL A   1      48.724  27.008  26.484  1.00  0.00     0.064 A 
ATOM     62  C   UNL A   1      49.730  26.511  27.327  1.00  0.00     0.173 A 
ATOM     63  C   UNL A   1      49.013  27.123  25.115  1.00  0.00     0.173 A 
ATOM     64  F   UNL A   1      49.509  26.392  28.644  1.00  0.00    -0.203 F 
ATOM     65  C   UNL A   1      50.980  26.163  26.823  1.00  0.00     0.198 A 
ATOM     66  C   UNL A   1      50.253  26.744  24.611  1.00  0.00     0.198 A 
ATOM     67  F   UNL A   1      48.085  27.588  24.265  1.00  0.00    -0.203 F 
ATOM     68  F   UNL A   1      51.939  25.731  27.654  1.00  0.00    -0.200 F 
ATOM     69  C   UNL A   1      51.238  26.270  25.465  1.00  0.00     0.200 A 
ATOM     70  F   UNL A   1      50.497  26.834  23.296  1.00  0.00    -0.200 F 
ATOM     71  F   UNL A   1      52.437  25.920  24.980  1.00  0.00    -0.200 F 
ENDBRANCH  47  61
BRANCH  48  72
ATOM     72  C   UNL A   1      39.486  28.909  29.790  1.00  0.00     0.064 A 
ATOM     73  C   UNL A   1      38.552  29.576  28.982  1.00  0.00     0.173 A 
ATOM     74  C   UNL A   1      39.103  28.598  31.102  1.00  0.00     0.173 A 
ATOM     75  F   UNL A   1      38.875  29.915  27.726  1.00  0.00    -0.203 F 
ATOM     76  C   UNL A   1      37.308  29.957  29.481  1.00  0.00     0.198 A 
ATOM     77  C   UNL A   1      37.844  28.946  31.589  1.00  0.00     0.198 A 
ATOM     78  F   UNL A   1      39.953  27.956  31.917  1.00  0.00    -0.203 F 
ATOM     79  F   UNL A   1      36.467  30.659  28.709  1.00  0.00    -0.200 F 
ATOM     80  C   UNL A   1      36.954  29.640  30.783  1.00  0.00     0.200 A 
ATOM     81  F   UNL A   1      37.501  28.623  32.843  1.00  0.00    -0.200 F 
ATOM     82  F   UNL A   1      35.762  30.016  31.267  1.00  0.00    -0.200 F 
ENDBRANCH  48  72
BRANCH  60  83
ATOM     83  C   UNL A   1      45.290  32.712  29.246  1.00  0.00     0.064 A 
ATOM     84  C   UNL A   1      45.811  33.107  30.487  1.00  0.00     0.173 A 
ATOM     85  C   UNL A   1      45.086  33.705  28.275  1.00  0.00     0.173 A 
ATOM     86  F   UNL A   1      46.012  32.198  31.455  1.00  0.00    -0.203 F 
ATOM     87  C   UNL A   1      46.087  34.444  30.756  1.00  0.00     0.198 A 
ATOM     88  C   UNL A   1      45.396  35.037  28.534  1.00  0.00     0.198 A 
ATOM     89  F   UNL A   1      44.597  33.382  27.068  1.00  0.00    -0.203 F 
ATOM     90  F   UNL A   1      46.531  34.804  31.967  1.00  0.00    -0.200 F 
ATOM     91  C   UNL A   1      45.886  35.407  29.777  1.00  0.00     0.200 A 
ATOM     92  F   UNL A   1      45.219  35.962  27.581  1.00  0.00    -0.200 F 
ATOM     93  F   UNL A   1      46.160  36.693  30.035  1.00  0.00    -0.200 F 
ENDBRANCH  60  83
ENDBRANCH  34  35
ENDBRANCH  26  29
ENDBRANCH  24  25
ENDBRANCH  23  24
ENDBRANCH  22  23
ENDBRANCH   1  22
TORSDOF 16
ENDMDL
MODEL 3
REMARK VINA RESULT:     -10.6      1.716      7.629
REMARK SMILES CC[C@H](C)[NH+]1CCN(C(=O)CC(=O)NCCCCCCNC(=O)c2ccc(-c3c4nc(c(-c5c(F)c(F)c(F)c(F)c5F)c5ccc([nH]5)c(-c5c(F)c(F)c(F)c(F)c5F)c5nc(c(-c6c(F)c(F)c(F)c(F)c6F)c6ccc3[nH]6)C=C5)C=C4)cc2)CC1
REMARK SMILES IDX 17 1 16 2 15 3 14 4 12 5 13 6 11 8 9 9 5 10 6 11 88 12 7 14
REMARK SMILES IDX 87 15 8 16 10 17 3 18 4 19 2 20 1 21 18 22 19 23 20 24 21 25
REMARK SMILES IDX 22 26 23 28 24 29 25 30 86 31 26 32 85 33 27 34 28 35 29 36
REMARK SMILES IDX 79 37 30 38 84 39 78 40 80 41 31 42 83 43 77 44 76 45 32 47
REMARK SMILES IDX 64 48 44 49 63 50 45 51 48 52 62 53 81 54 46 55 47 56 61 58
REMARK SMILES IDX 82 59 49 60 33 61 34 62 42 63 35 64 36 65 40 66 43 67 37 68
REMARK SMILES IDX 38 69 41 70 39 71 65 72 66 73 74 74 67 75 68 76 72 77 75 78
REMARK SMILES IDX 69 79 70 80 73 81 71 82 50 83 51 84 59 85 52 86 53 87 57 88
REMARK SMILES IDX 60 89 54 90 55 91 58 92 56 93
REMARK H PARENT 14 7 5 13 21 27 80 46 48 57
REMARK Flexibility Score: inf
ROOT
ATOM      1  C   UNL A   1      31.696  30.045  25.461  1.00  0.00     0.002 C 
ENDROOT
BRANCH   1   2
ATOM      2  C   UNL A   1      32.909  29.235  24.976  1.00  0.00     0.021 C 
BRANCH   2   3
ATOM      3  C   UNL A   1      32.949  29.028  23.462  1.00  0.00     0.116 C 
BRANCH   3   4
ATOM      4  N   UNL A   1      31.665  29.348  22.871  1.00  0.00    -0.356 N 
ATOM      5  C   UNL A   1      30.753  28.540  22.269  1.00  0.00     0.229 C 
ATOM      6  O   UNL A   1      29.785  29.077  21.725  1.00  0.00    -0.275 OA
ATOM      7  H   UNL A   1      31.414  30.299  22.911  1.00  0.00     0.163 HD
BRANCH   5   8
ATOM      8  C   UNL A   1      30.865  27.045  22.336  1.00  0.00     0.200 C 
BRANCH   8   9
ATOM      9  C   UNL A   1      30.760  26.395  23.688  1.00  0.00     0.232 C 
ATOM     10  N   UNL A   1      32.039  22.332  24.442  1.00  0.00    -0.330 N 
ATOM     11  C   UNL A   1      31.037  23.063  25.221  1.00  0.00     0.284 C 
ATOM     12  C   UNL A   1      32.135  22.895  23.085  1.00  0.00     0.284 C 
ATOM     13  H   UNL A   1      31.668  21.384  24.381  1.00  0.00     0.348 HD
ATOM     14  C   UNL A   1      31.233  24.581  25.248  1.00  0.00     0.181 C 
ATOM     15  C   UNL A   1      32.196  24.435  22.964  1.00  0.00     0.181 C 
ATOM     16  N   UNL A   1      31.319  25.148  23.902  1.00  0.00    -0.331 N 
ATOM     17  O   UNL A   1      30.127  26.974  24.578  1.00  0.00    -0.274 OA
BRANCH  10  18
ATOM     18  C   UNL A   1      33.318  21.973  25.077  1.00  0.00     0.180 C 
ATOM     19  C   UNL A   1      33.384  20.641  25.829  1.00  0.00     0.075 C 
BRANCH  18  20
ATOM     20  C   UNL A   1      34.525  22.155  24.114  1.00  0.00     0.061 C 
ATOM     21  C   UNL A   1      35.544  23.235  24.462  1.00  0.00     0.010 C 
ENDBRANCH  18  20
ENDBRANCH  10  18
ENDBRANCH   8   9
ENDBRANCH   5   8
ENDBRANCH   3   4
ENDBRANCH   2   3
ENDBRANCH   1   2
BRANCH   1  22
ATOM     22  C   UNL A   1      31.835  30.639  26.868  1.00  0.00     0.002 C 
BRANCH  22  23
ATOM     23  C   UNL A   1      31.551  32.139  26.961  1.00  0.00     0.021 C 
BRANCH  23  24
ATOM     24  C   UNL A   1      32.796  33.006  27.116  1.00  0.00     0.116 C 
BRANCH  24  25
ATOM     25  N   UNL A   1      32.479  34.334  27.618  1.00  0.00    -0.352 N 
ATOM     26  C   UNL A   1      32.988  34.997  28.705  1.00  0.00     0.251 C 
ATOM     27  H   UNL A   1      31.800  34.828  27.103  1.00  0.00     0.163 HD
ATOM     28  O   UNL A   1      32.462  36.036  29.100  1.00  0.00    -0.269 OA
BRANCH  26  29
ATOM     29  C   UNL A   1      34.162  34.450  29.417  1.00  0.00     0.039 A 
ATOM     30  C   UNL A   1      33.963  33.729  30.596  1.00  0.00     0.014 A 
ATOM     31  C   UNL A   1      35.454  34.651  28.925  1.00  0.00     0.014 A 
ATOM     32  C   UNL A   1      35.057  33.157  31.249  1.00  0.00     0.010 A 
ATOM     33  C   UNL A   1      36.533  34.016  29.533  1.00  0.00     0.010 A 
ATOM     34  C   UNL A   1      36.347  33.265  30.703  1.00  0.00    -0.014 A 
BRANCH  34  35
ATOM     35  C   UNL A   1      37.513  32.608  31.346  1.00  0.00     0.031 A 
ATOM     36  C   UNL A   1      38.216  31.473  30.654  1.00  0.00     0.074 A 
ATOM     37  C   UNL A   1      37.911  33.002  32.573  1.00  0.00     0.049 A 
ATOM     38  N   UNL A   1      39.203  30.724  31.080  1.00  0.00    -0.248 NA
ATOM     39  C   UNL A   1      37.731  31.113  29.311  1.00  0.00     0.031 C 
ATOM     40  C   UNL A   1      37.292  34.069  33.361  1.00  0.00     0.029 A 
ATOM     41  N   UNL A   1      38.925  32.544  33.376  1.00  0.00    -0.354 N 
ATOM     42  C   UNL A   1      39.456  29.815  30.062  1.00  0.00     0.074 A 
ATOM     43  C   UNL A   1      38.477  30.056  29.026  1.00  0.00     0.031 C 
ATOM     44  C   UNL A   1      37.955  34.202  34.521  1.00  0.00     0.029 A 
ATOM     45  C   UNL A   1      39.016  33.200  34.580  1.00  0.00     0.049 A 
ATOM     46  H   UNL A   1      39.532  31.814  33.114  1.00  0.00     0.167 HD
ATOM     47  C   UNL A   1      40.437  28.884  29.984  1.00  0.00     0.037 A 
ATOM     48  C   UNL A   1      39.852  33.006  35.618  1.00  0.00     0.037 A 
ATOM     49  C   UNL A   1      41.417  28.651  31.011  1.00  0.00     0.049 A 
ATOM     50  C   UNL A   1      40.895  31.924  35.523  1.00  0.00     0.074 A 
ATOM     51  C   UNL A   1      42.460  27.742  31.020  1.00  0.00     0.029 A 
ATOM     52  N   UNL A   1      41.473  29.336  32.217  1.00  0.00    -0.354 N 
ATOM     53  N   UNL A   1      41.158  31.106  34.532  1.00  0.00    -0.248 NA
ATOM     54  C   UNL A   1      41.767  31.741  36.694  1.00  0.00     0.031 C 
ATOM     55  C   UNL A   1      43.121  27.845  32.248  1.00  0.00     0.029 A 
ATOM     56  C   UNL A   1      42.527  28.859  32.981  1.00  0.00     0.049 A 
ATOM     57  H   UNL A   1      40.858  30.054  32.489  1.00  0.00     0.167 HD
ATOM     58  C   UNL A   1      42.246  30.347  34.942  1.00  0.00     0.074 A 
ATOM     59  C   UNL A   1      42.606  30.812  36.264  1.00  0.00     0.031 C 
ATOM     60  C   UNL A   1      42.890  29.352  34.284  1.00  0.00     0.037 A 
BRANCH  47  61
ATOM     61  C   UNL A   1      40.514  28.056  28.732  1.00  0.00     0.064 A 
ATOM     62  C   UNL A   1      41.306  28.452  27.643  1.00  0.00     0.173 A 
ATOM     63  C   UNL A   1      39.839  26.829  28.640  1.00  0.00     0.173 A 
ATOM     64  F   UNL A   1      41.962  29.621  27.675  1.00  0.00    -0.203 F 
ATOM     65  C   UNL A   1      41.402  27.661  26.502  1.00  0.00     0.198 A 
ATOM     66  C   UNL A   1      39.963  26.026  27.510  1.00  0.00     0.198 A 
ATOM     67  F   UNL A   1      39.072  26.401  29.655  1.00  0.00    -0.203 F 
ATOM     68  F   UNL A   1      42.131  28.080  25.458  1.00  0.00    -0.200 F 
ATOM     69  C   UNL A   1      40.739  26.445  26.440  1.00  0.00     0.200 A 
ATOM     70  F   UNL A   1      39.334  24.844  27.457  1.00  0.00    -0.200 F 
ATOM     71  F   UNL A   1      40.845  25.678  25.346  1.00  0.00    -0.200 F 
ENDBRANCH  47  61
BRANCH  48  72
ATOM     72  C   UNL A   1      39.754  33.851  36.839  1.00  0.00     0.064 A 
ATOM     73  C   UNL A   1      38.970  33.449  37.932  1.00  0.00     0.173 A 
ATOM     74  C   UNL A   1      40.387  35.100  36.920  1.00  0.00     0.173 A 
ATOM     75  F   UNL A   1      38.328  32.273  37.896  1.00  0.00    -0.203 F 
ATOM     76  C   UNL A   1      38.790  34.280  39.035  1.00  0.00     0.198 A 
ATOM     77  C   UNL A   1      40.236  35.914  38.041  1.00  0.00     0.198 A 
ATOM     78  F   UNL A   1      41.152  35.533  35.908  1.00  0.00    -0.203 F 
ATOM     79  F   UNL A   1      37.975  33.900  40.030  1.00  0.00    -0.200 F 
ATOM     80  C   UNL A   1      39.425  35.511  39.091  1.00  0.00     0.200 A 
ATOM     81  F   UNL A   1      40.864  37.096  38.096  1.00  0.00    -0.200 F 
ATOM     82  F   UNL A   1      39.242  36.315  40.146  1.00  0.00    -0.200 F 
ENDBRANCH  48  72
BRANCH  60  83
ATOM     83  C   UNL A   1      44.088  28.741  34.955  1.00  0.00     0.064 A 
ATOM     84  C   UNL A   1      45.378  29.266  34.792  1.00  0.00     0.173 A 
ATOM     85  C   UNL A   1      43.932  27.634  35.804  1.00  0.00     0.173 A 
ATOM     86  F   UNL A   1      45.582  30.316  33.980  1.00  0.00    -0.203 F 
ATOM     87  C   UNL A   1      46.472  28.686  35.426  1.00  0.00     0.198 A 
ATOM     88  C   UNL A   1      45.024  27.079  36.465  1.00  0.00     0.198 A 
ATOM     89  F   UNL A   1      42.719  27.097  36.002  1.00  0.00    -0.203 F 
ATOM     90  F   UNL A   1      47.703  29.170  35.211  1.00  0.00    -0.200 F 
ATOM     91  C   UNL A   1      46.294  27.599  36.269  1.00  0.00     0.200 A 
ATOM     92  F   UNL A   1      44.846  26.040  37.292  1.00  0.00    -0.200 F 
ATOM     93  F   UNL A   1      47.348  27.048  36.885  1.00  0.00    -0.200 F 
ENDBRANCH  60  83
ENDBRANCH  34  35
ENDBRANCH  26  29
ENDBRANCH  24  25
ENDBRANCH  23  24
ENDBRANCH  22  23
ENDBRANCH   1  22
TORSDOF 16
ENDMDL
