MODEL 1
REMARK VINA RESULT:     -10.2      0.000      0.000
REMARK SMILES O=C(COc1ccc(/C=N/NC(=O)c2cc3cc([N+](=O)[O-])ccc3o2)cc1)NCCCCCCNC(=O)c1ccc(-c2c3nc(c(-c4c(F)c(F)c(F)c(F)c4F)c4ccc([nH]4)c(-c4c(F)c(F)c(F)c(F)c4F)c4nc(c(-c5c(F)c(F)c(F)c(F)c5F)c5ccc2[nH]5)C=C4)C=C3)cc1
REMARK SMILES IDX 29 1 28 2 1 3 2 4 3 6 4 7 5 8 6 9 27 10 7 11 26 12 8 13 9 14
REMARK SMILES IDX 10 15 11 16 12 17 13 19 14 20 15 21 25 22 16 23 24 24 17 25
REMARK SMILES IDX 23 26 18 27 22 28 19 29 20 30 21 31 30 32 31 33 32 34 33 35
REMARK SMILES IDX 34 36 35 37 36 38 37 40 38 41 39 42 100 43 40 44 99 45 41 46
REMARK SMILES IDX 42 47 43 48 93 49 44 50 98 51 92 52 94 53 45 54 97 55 91 56
REMARK SMILES IDX 90 57 46 59 78 60 58 61 77 62 59 63 62 64 76 65 95 66 60 67
REMARK SMILES IDX 61 68 75 70 96 71 63 72 47 73 48 74 56 75 49 76 50 77 54 78
REMARK SMILES IDX 57 79 51 80 52 81 55 82 53 83 79 84 80 85 88 86 81 87 82 88
REMARK SMILES IDX 86 89 89 90 83 91 84 92 87 93 85 94 64 95 65 96 73 97 66 98
REMARK SMILES IDX 67 99 71 100 74 101 68 102 69 103 72 104 70 105
REMARK H PARENT 28 5 11 18 35 39 94 58 62 69
REMARK Flexibility Score: inf
ROOT
ATOM      1  C   UNL A   1      44.601  19.859  24.980  1.00  0.00     0.116 C 
ENDROOT
BRANCH   1   2
ATOM      2  N   UNL A   1      43.221  20.171  25.279  1.00  0.00    -0.353 N 
ATOM      3  O   UNL A   1      42.579  18.033  25.832  1.00  0.00    -0.271 OA
ATOM      4  C   UNL A   1      42.335  19.234  25.771  1.00  0.00     0.257 C 
ATOM      5  H   UNL A   1      42.900  21.090  25.127  1.00  0.00     0.163 HD
BRANCH   4   6
ATOM      6  C   UNL A   1      41.019  19.834  26.272  1.00  0.00     0.329 C 
BRANCH   6   7
ATOM      7  O   UNL A   1      41.041  20.340  27.607  1.00  0.00    -0.484 OA
BRANCH   7   8
ATOM      8  C   UNL A   1      41.269  21.687  27.702  1.00  0.00     0.120 A 
ATOM      9  C   UNL A   1      42.456  22.083  28.319  1.00  0.00     0.047 A 
ATOM     10  C   UNL A   1      40.327  22.651  27.338  1.00  0.00     0.047 A 
ATOM     11  C   UNL A   1      42.703  23.439  28.551  1.00  0.00     0.013 A 
ATOM     12  C   UNL A   1      40.556  24.003  27.586  1.00  0.00     0.013 A 
ATOM     13  C   UNL A   1      41.744  24.396  28.194  1.00  0.00    -0.005 A 
BRANCH  13  14
ATOM     14  C   UNL A   1      41.901  25.818  28.558  1.00  0.00     0.141 C 
ATOM     15  N   UNL A   1      40.933  26.451  29.122  1.00  0.00    -0.180 NA
BRANCH  15  16
ATOM     16  N   UNL A   1      40.969  27.795  29.288  1.00  0.00    -0.240 N 
ATOM     17  C   UNL A   1      40.210  28.709  29.979  1.00  0.00     0.307 C 
ATOM     18  H   UNL A   1      41.712  28.215  28.799  1.00  0.00     0.194 HD
ATOM     19  O   UNL A   1      40.783  29.751  30.317  1.00  0.00    -0.264 OA
BRANCH  17  20
ATOM     20  C   UNL A   1      38.786  28.567  30.211  1.00  0.00     0.194 A 
ATOM     21  C   UNL A   1      38.046  28.973  31.317  1.00  0.00     0.065 A 
ATOM     22  O   UNL A   1      38.007  28.725  29.085  1.00  0.00    -0.451 OA
ATOM     23  C   UNL A   1      37.016  29.812  30.789  1.00  0.00     0.028 A 
ATOM     24  C   UNL A   1      37.040  29.620  29.415  1.00  0.00     0.135 A 
ATOM     25  C   UNL A   1      36.192  30.821  31.319  1.00  0.00     0.097 A 
ATOM     26  C   UNL A   1      36.291  30.353  28.498  1.00  0.00     0.055 A 
ATOM     27  C   UNL A   1      35.526  31.664  30.404  1.00  0.00     0.270 A 
ATOM     28  C   UNL A   1      35.564  31.430  29.019  1.00  0.00     0.089 A 
BRANCH  27  29
ATOM     29  N   UNL A   1      34.869  32.879  30.908  1.00  0.00     0.062 N 
ATOM     30  O   UNL A   1      34.239  32.793  31.971  1.00  0.00    -0.258 OA
ATOM     31  O   UNL A   1      35.002  33.922  30.251  1.00  0.00    -0.258 OA
ENDBRANCH  27  29
ENDBRANCH  17  20
ENDBRANCH  15  16
ENDBRANCH  13  14
ENDBRANCH   7   8
ENDBRANCH   6   7
ENDBRANCH   4   6
ENDBRANCH   1   2
BRANCH   1  32
ATOM     32  C   UNL A   1      45.523  21.047  25.214  1.00  0.00     0.021 C 
BRANCH  32  33
ATOM     33  C   UNL A   1      45.414  22.145  24.149  1.00  0.00     0.002 C 
BRANCH  33  34
ATOM     34  C   UNL A   1      44.893  23.496  24.647  1.00  0.00     0.002 C 
BRANCH  34  35
ATOM     35  C   UNL A   1      45.394  23.921  26.029  1.00  0.00     0.021 C 
BRANCH  35  36
ATOM     36  C   UNL A   1      46.818  24.463  26.057  1.00  0.00     0.116 C 
BRANCH  36  37
ATOM     37  N   UNL A   1      47.130  25.276  24.892  1.00  0.00    -0.352 N 
ATOM     38  C   UNL A   1      46.841  26.594  24.647  1.00  0.00     0.251 C 
ATOM     39  H   UNL A   1      47.618  24.811  24.174  1.00  0.00     0.163 HD
ATOM     40  O   UNL A   1      47.036  27.073  23.531  1.00  0.00    -0.269 OA
BRANCH  38  41
ATOM     41  C   UNL A   1      46.270  27.438  25.717  1.00  0.00     0.039 A 
ATOM     42  C   UNL A   1      44.881  27.572  25.804  1.00  0.00     0.014 A 
ATOM     43  C   UNL A   1      47.095  28.098  26.632  1.00  0.00     0.014 A 
ATOM     44  C   UNL A   1      44.320  28.311  26.847  1.00  0.00     0.010 A 
ATOM     45  C   UNL A   1      46.534  28.769  27.714  1.00  0.00     0.010 A 
ATOM     46  C   UNL A   1      45.141  28.886  27.832  1.00  0.00    -0.014 A 
BRANCH  46  47
ATOM     47  C   UNL A   1      44.558  29.609  28.992  1.00  0.00     0.031 A 
ATOM     48  C   UNL A   1      44.322  31.093  28.920  1.00  0.00     0.074 A 
ATOM     49  C   UNL A   1      44.301  28.940  30.133  1.00  0.00     0.049 A 
ATOM     50  N   UNL A   1      43.887  31.909  29.847  1.00  0.00    -0.248 NA
ATOM     51  C   UNL A   1      44.641  31.751  27.643  1.00  0.00     0.031 C 
ATOM     52  C   UNL A   1      44.526  27.510  30.345  1.00  0.00     0.029 A 
ATOM     53  N   UNL A   1      43.802  29.379  31.336  1.00  0.00    -0.354 N 
ATOM     54  C   UNL A   1      43.893  33.172  29.271  1.00  0.00     0.074 A 
ATOM     55  C   UNL A   1      44.428  33.026  27.935  1.00  0.00     0.031 C 
ATOM     56  C   UNL A   1      44.147  27.184  31.590  1.00  0.00     0.029 A 
ATOM     57  C   UNL A   1      43.692  28.386  32.281  1.00  0.00     0.049 A 
ATOM     58  H   UNL A   1      43.546  30.314  31.505  1.00  0.00     0.167 HD
ATOM     59  C   UNL A   1      43.467  34.345  29.799  1.00  0.00     0.037 A 
ATOM     60  C   UNL A   1      43.283  28.443  33.562  1.00  0.00     0.037 A 
ATOM     61  C   UNL A   1      42.919  34.484  31.123  1.00  0.00     0.049 A 
ATOM     62  C   UNL A   1      42.837  29.764  34.132  1.00  0.00     0.074 A 
ATOM     63  C   UNL A   1      42.409  35.618  31.731  1.00  0.00     0.029 A 
ATOM     64  N   UNL A   1      42.817  33.454  32.049  1.00  0.00    -0.354 N 
ATOM     65  N   UNL A   1      42.780  30.939  33.555  1.00  0.00    -0.248 NA
ATOM     66  C   UNL A   1      42.392  29.762  35.533  1.00  0.00     0.031 C 
ATOM     67  C   UNL A   1      42.053  35.289  33.043  1.00  0.00     0.029 A 
ATOM     68  C   UNL A   1      42.278  33.935  33.233  1.00  0.00     0.049 A 
ATOM     69  H   UNL A   1      43.086  32.522  31.889  1.00  0.00     0.167 HD
ATOM     70  C   UNL A   1      42.264  31.809  34.507  1.00  0.00     0.074 A 
ATOM     71  C   UNL A   1      42.009  31.021  35.696  1.00  0.00     0.031 C 
ATOM     72  C   UNL A   1      42.022  33.139  34.406  1.00  0.00     0.037 A 
BRANCH  59  73
ATOM     73  C   UNL A   1      43.579  35.575  28.944  1.00  0.00     0.064 A 
ATOM     74  C   UNL A   1      42.501  36.039  28.172  1.00  0.00     0.173 A 
ATOM     75  C   UNL A   1      44.766  36.324  28.924  1.00  0.00     0.173 A 
ATOM     76  F   UNL A   1      41.346  35.356  28.147  1.00  0.00    -0.203 F 
ATOM     77  C   UNL A   1      42.619  37.185  27.390  1.00  0.00     0.198 A 
ATOM     78  C   UNL A   1      44.868  37.488  28.168  1.00  0.00     0.198 A 
ATOM     79  F   UNL A   1      45.826  35.932  29.648  1.00  0.00    -0.203 F 
ATOM     80  F   UNL A   1      41.593  37.576  26.621  1.00  0.00    -0.200 F 
ATOM     81  C   UNL A   1      43.798  37.913  27.394  1.00  0.00     0.200 A 
ATOM     82  F   UNL A   1      46.004  38.200  28.186  1.00  0.00    -0.200 F 
ATOM     83  F   UNL A   1      43.906  39.021  26.648  1.00  0.00    -0.200 F 
ENDBRANCH  59  73
BRANCH  60  84
ATOM     84  C   UNL A   1      43.259  27.209  34.393  1.00  0.00     0.064 A 
ATOM     85  C   UNL A   1      44.440  26.685  34.937  1.00  0.00     0.173 A 
ATOM     86  C   UNL A   1      42.063  26.523  34.649  1.00  0.00     0.173 A 
ATOM     87  F   UNL A   1      45.613  27.294  34.705  1.00  0.00    -0.203 F 
ATOM     88  C   UNL A   1      44.429  25.510  35.685  1.00  0.00     0.198 A 
ATOM     89  C   UNL A   1      42.048  25.366  35.424  1.00  0.00     0.198 A 
ATOM     90  F   UNL A   1      40.905  26.985  34.156  1.00  0.00    -0.203 F 
ATOM     91  F   UNL A   1      45.579  25.002  36.149  1.00  0.00    -0.200 F 
ATOM     92  C   UNL A   1      43.233  24.853  35.932  1.00  0.00     0.200 A 
ATOM     93  F   UNL A   1      40.887  24.745  35.675  1.00  0.00    -0.200 F 
ATOM     94  F   UNL A   1      43.222  23.725  36.654  1.00  0.00    -0.200 F 
ENDBRANCH  60  84
BRANCH  72  95
ATOM     95  C   UNL A   1      41.412  33.824  35.596  1.00  0.00     0.064 A 
ATOM     96  C   UNL A   1      42.184  34.581  36.490  1.00  0.00     0.173 A 
ATOM     97  C   UNL A   1      40.029  33.751  35.823  1.00  0.00     0.173 A 
ATOM     98  F   UNL A   1      43.513  34.672  36.328  1.00  0.00    -0.203 F 
ATOM     99  C   UNL A   1      41.597  35.217  37.581  1.00  0.00     0.198 A 
ATOM    100  C   UNL A   1      39.441  34.417  36.894  1.00  0.00     0.198 A 
ATOM    101  F   UNL A   1      39.244  33.046  34.995  1.00  0.00    -0.203 F 
ATOM    102  F   UNL A   1      42.362  35.892  38.452  1.00  0.00    -0.200 F 
ATOM    103  C   UNL A   1      40.227  35.142  37.778  1.00  0.00     0.200 A 
ATOM    104  F   UNL A   1      38.113  34.357  37.072  1.00  0.00    -0.200 F 
ATOM    105  F   UNL A   1      39.663  35.762  38.823  1.00  0.00    -0.200 F 
ENDBRANCH  72  95
ENDBRANCH  46  47
ENDBRANCH  38  41
ENDBRANCH  36  37
ENDBRANCH  35  36
ENDBRANCH  34  35
ENDBRANCH  33  34
ENDBRANCH  32  33
ENDBRANCH   1  32
TORSDOF 19
ENDMDL
MODEL 2
REMARK VINA RESULT:     -10.1      5.255     10.222
REMARK SMILES O=C(COc1ccc(/C=N/NC(=O)c2cc3cc([N+](=O)[O-])ccc3o2)cc1)NCCCCCCNC(=O)c1ccc(-c2c3nc(c(-c4c(F)c(F)c(F)c(F)c4F)c4ccc([nH]4)c(-c4c(F)c(F)c(F)c(F)c4F)c4nc(c(-c5c(F)c(F)c(F)c(F)c5F)c5ccc2[nH]5)C=C4)C=C3)cc1
REMARK SMILES IDX 29 1 28 2 1 3 2 4 3 6 4 7 5 8 6 9 27 10 7 11 26 12 8 13 9 14
REMARK SMILES IDX 10 15 11 16 12 17 13 19 14 20 15 21 25 22 16 23 24 24 17 25
REMARK SMILES IDX 23 26 18 27 22 28 19 29 20 30 21 31 30 32 31 33 32 34 33 35
REMARK SMILES IDX 34 36 35 37 36 38 37 40 38 41 39 42 100 43 40 44 99 45 41 46
REMARK SMILES IDX 42 47 43 48 93 49 44 50 98 51 92 52 94 53 45 54 97 55 91 56
REMARK SMILES IDX 90 57 46 59 78 60 58 61 77 62 59 63 62 64 76 65 95 66 60 67
REMARK SMILES IDX 61 68 75 70 96 71 63 72 47 73 48 74 56 75 49 76 50 77 54 78
REMARK SMILES IDX 57 79 51 80 52 81 55 82 53 83 79 84 80 85 88 86 81 87 82 88
REMARK SMILES IDX 86 89 89 90 83 91 84 92 87 93 85 94 64 95 65 96 73 97 66 98
REMARK SMILES IDX 67 99 71 100 74 101 68 102 69 103 72 104 70 105
REMARK H PARENT 28 5 11 18 35 39 94 58 62 69
REMARK Flexibility Score: inf
ROOT
ATOM      1  C   UNL A   1      33.652  35.429  29.667  1.00  0.00     0.116 C 
ENDROOT
BRANCH   1   2
ATOM      2  N   UNL A   1      33.465  34.051  29.272  1.00  0.00    -0.353 N 
ATOM      3  O   UNL A   1      34.933  34.080  27.502  1.00  0.00    -0.271 OA
ATOM      4  C   UNL A   1      34.197  33.460  28.262  1.00  0.00     0.257 C 
ATOM      5  H   UNL A   1      32.789  33.512  29.744  1.00  0.00     0.163 HD
BRANCH   4   6
ATOM      6  C   UNL A   1      34.036  31.939  28.194  1.00  0.00     0.329 C 
BRANCH   6   7
ATOM      7  O   UNL A   1      32.937  31.471  27.410  1.00  0.00    -0.484 OA
BRANCH   7   8
ATOM      8  C   UNL A   1      32.933  30.119  27.187  1.00  0.00     0.120 A 
ATOM      9  C   UNL A   1      34.127  29.549  26.747  1.00  0.00     0.047 A 
ATOM     10  C   UNL A   1      31.778  29.336  27.251  1.00  0.00     0.047 A 
ATOM     11  C   UNL A   1      34.167  28.198  26.391  1.00  0.00     0.013 A 
ATOM     12  C   UNL A   1      31.804  27.994  26.877  1.00  0.00     0.013 A 
ATOM     13  C   UNL A   1      32.999  27.426  26.446  1.00  0.00    -0.005 A 
BRANCH  13  14
ATOM     14  C   UNL A   1      32.967  26.041  25.939  1.00  0.00     0.141 C 
ATOM     15  N   UNL A   1      34.065  25.399  25.743  1.00  0.00    -0.180 NA
BRANCH  15  16
ATOM     16  N   UNL A   1      34.083  24.209  25.096  1.00  0.00    -0.240 N 
ATOM     17  C   UNL A   1      34.064  23.819  23.778  1.00  0.00     0.307 C 
ATOM     18  H   UNL A   1      34.118  23.445  25.715  1.00  0.00     0.194 HD
ATOM     19  O   UNL A   1      34.578  22.723  23.525  1.00  0.00    -0.264 OA
BRANCH  17  20
ATOM     20  C   UNL A   1      33.381  24.549  22.729  1.00  0.00     0.194 A 
ATOM     21  C   UNL A   1      32.013  24.732  22.555  1.00  0.00     0.065 A 
ATOM     22  O   UNL A   1      34.028  25.693  22.316  1.00  0.00    -0.451 OA
ATOM     23  C   UNL A   1      31.831  26.148  22.492  1.00  0.00     0.028 A 
ATOM     24  C   UNL A   1      33.102  26.686  22.347  1.00  0.00     0.135 A 
ATOM     25  C   UNL A   1      30.746  27.019  22.705  1.00  0.00     0.097 A 
ATOM     26  C   UNL A   1      33.398  28.047  22.386  1.00  0.00     0.055 A 
ATOM     27  C   UNL A   1      31.037  28.388  22.882  1.00  0.00     0.270 A 
ATOM     28  C   UNL A   1      32.336  28.898  22.715  1.00  0.00     0.089 A 
BRANCH  27  29
ATOM     29  N   UNL A   1      29.972  29.283  23.360  1.00  0.00     0.062 N 
ATOM     30  O   UNL A   1      28.825  29.092  22.932  1.00  0.00    -0.258 OA
ATOM     31  O   UNL A   1      30.280  30.161  24.179  1.00  0.00    -0.258 OA
ENDBRANCH  27  29
ENDBRANCH  17  20
ENDBRANCH  15  16
ENDBRANCH  13  14
ENDBRANCH   7   8
ENDBRANCH   6   7
ENDBRANCH   4   6
ENDBRANCH   1   2
BRANCH   1  32
ATOM     32  C   UNL A   1      33.504  35.623  31.169  1.00  0.00     0.021 C 
BRANCH  32  33
ATOM     33  C   UNL A   1      33.852  34.381  31.999  1.00  0.00     0.002 C 
BRANCH  33  34
ATOM     34  C   UNL A   1      35.343  34.041  32.082  1.00  0.00     0.002 C 
BRANCH  34  35
ATOM     35  C   UNL A   1      35.689  32.564  31.886  1.00  0.00     0.021 C 
BRANCH  35  36
ATOM     36  C   UNL A   1      36.468  31.930  33.032  1.00  0.00     0.116 C 
BRANCH  36  37
ATOM     37  N   UNL A   1      36.589  30.487  32.895  1.00  0.00    -0.352 N 
ATOM     38  C   UNL A   1      37.553  29.751  32.254  1.00  0.00     0.251 C 
ATOM     39  H   UNL A   1      35.875  29.963  33.323  1.00  0.00     0.163 HD
ATOM     40  O   UNL A   1      37.404  28.541  32.096  1.00  0.00    -0.269 OA
BRANCH  38  41
ATOM     41  C   UNL A   1      38.764  30.415  31.727  1.00  0.00     0.039 A 
ATOM     42  C   UNL A   1      39.737  30.859  32.626  1.00  0.00     0.014 A 
ATOM     43  C   UNL A   1      38.941  30.604  30.353  1.00  0.00     0.014 A 
ATOM     44  C   UNL A   1      40.917  31.430  32.144  1.00  0.00     0.010 A 
ATOM     45  C   UNL A   1      40.148  31.101  29.872  1.00  0.00     0.010 A 
ATOM     46  C   UNL A   1      41.148  31.523  30.761  1.00  0.00    -0.014 A 
BRANCH  46  47
ATOM     47  C   UNL A   1      42.430  32.054  30.230  1.00  0.00     0.031 A 
ATOM     48  C   UNL A   1      42.524  33.481  29.765  1.00  0.00     0.074 A 
ATOM     49  C   UNL A   1      43.492  31.234  30.108  1.00  0.00     0.049 A 
ATOM     50  N   UNL A   1      43.531  34.108  29.210  1.00  0.00    -0.248 NA
ATOM     51  C   UNL A   1      41.316  34.308  29.920  1.00  0.00     0.031 C 
ATOM     52  C   UNL A   1      43.516  29.820  30.482  1.00  0.00     0.029 A 
ATOM     53  N   UNL A   1      44.756  31.470  29.623  1.00  0.00    -0.354 N 
ATOM     54  C   UNL A   1      43.076  35.391  28.941  1.00  0.00     0.074 A 
ATOM     55  C   UNL A   1      41.686  35.439  29.339  1.00  0.00     0.031 C 
ATOM     56  C   UNL A   1      44.737  29.320  30.236  1.00  0.00     0.029 A 
ATOM     57  C   UNL A   1      45.570  30.363  29.647  1.00  0.00     0.049 A 
ATOM     58  H   UNL A   1      45.050  32.348  29.291  1.00  0.00     0.167 HD
ATOM     59  C   UNL A   1      43.762  36.443  28.431  1.00  0.00     0.037 A 
ATOM     60  C   UNL A   1      46.840  30.205  29.229  1.00  0.00     0.037 A 
ATOM     61  C   UNL A   1      45.150  36.396  28.053  1.00  0.00     0.049 A 
ATOM     62  C   UNL A   1      47.573  31.384  28.644  1.00  0.00     0.074 A 
ATOM     63  C   UNL A   1      45.950  37.421  27.578  1.00  0.00     0.029 A 
ATOM     64  N   UNL A   1      45.944  35.259  28.098  1.00  0.00    -0.354 N 
ATOM     65  N   UNL A   1      47.153  32.612  28.460  1.00  0.00    -0.248 NA
ATOM     66  C   UNL A   1      48.959  31.154  28.215  1.00  0.00     0.031 C 
ATOM     67  C   UNL A   1      47.209  36.892  27.281  1.00  0.00     0.029 A 
ATOM     68  C   UNL A   1      47.217  35.552  27.633  1.00  0.00     0.049 A 
ATOM     69  H   UNL A   1      45.648  34.375  28.414  1.00  0.00     0.167 HD
ATOM     70  C   UNL A   1      48.230  33.308  27.926  1.00  0.00     0.074 A 
ATOM     71  C   UNL A   1      49.328  32.368  27.830  1.00  0.00     0.031 C 
ATOM     72  C   UNL A   1      48.304  34.609  27.550  1.00  0.00     0.037 A 
BRANCH  59  73
ATOM     73  C   UNL A   1      43.019  37.736  28.250  1.00  0.00     0.064 A 
ATOM     74  C   UNL A   1      43.070  38.758  29.213  1.00  0.00     0.173 A 
ATOM     75  C   UNL A   1      42.279  37.976  27.082  1.00  0.00     0.173 A 
ATOM     76  F   UNL A   1      43.756  38.579  30.352  1.00  0.00    -0.203 F 
ATOM     77  C   UNL A   1      42.381  39.954  29.027  1.00  0.00     0.198 A 
ATOM     78  C   UNL A   1      41.621  39.187  26.885  1.00  0.00     0.198 A 
ATOM     79  F   UNL A   1      42.202  37.038  26.126  1.00  0.00    -0.203 F 
ATOM     80  F   UNL A   1      42.402  40.892  29.985  1.00  0.00    -0.200 F 
ATOM     81  C   UNL A   1      41.664  40.171  27.861  1.00  0.00     0.200 A 
ATOM     82  F   UNL A   1      40.941  39.401  25.749  1.00  0.00    -0.200 F 
ATOM     83  F   UNL A   1      41.010  41.326  27.680  1.00  0.00    -0.200 F 
ENDBRANCH  59  73
BRANCH  60  84
ATOM     84  C   UNL A   1      47.510  28.884  29.362  1.00  0.00     0.064 A 
ATOM     85  C   UNL A   1      48.247  28.562  30.511  1.00  0.00     0.173 A 
ATOM     86  C   UNL A   1      47.438  27.922  28.344  1.00  0.00     0.173 A 
ATOM     87  F   UNL A   1      48.362  29.455  31.505  1.00  0.00    -0.203 F 
ATOM     88  C   UNL A   1      48.906  27.340  30.625  1.00  0.00     0.198 A 
ATOM     89  C   UNL A   1      48.071  26.687  28.472  1.00  0.00     0.198 A 
ATOM     90  F   UNL A   1      46.742  28.176  27.227  1.00  0.00    -0.203 F 
ATOM     91  F   UNL A   1      49.647  27.080  31.710  1.00  0.00    -0.200 F 
ATOM     92  C   UNL A   1      48.814  26.402  29.608  1.00  0.00     0.200 A 
ATOM     93  F   UNL A   1      47.963  25.777  27.495  1.00  0.00    -0.200 F 
ATOM     94  F   UNL A   1      49.445  25.225  29.720  1.00  0.00    -0.200 F 
ENDBRANCH  60  84
BRANCH  72  95
ATOM     95  C   UNL A   1      49.625  35.107  27.039  1.00  0.00     0.064 A 
ATOM     96  C   UNL A   1      50.620  35.588  27.905  1.00  0.00     0.173 A 
ATOM     97  C   UNL A   1      49.914  35.067  25.667  1.00  0.00     0.173 A 
ATOM     98  F   UNL A   1      50.389  35.661  29.225  1.00  0.00    -0.203 F 
ATOM     99  C   UNL A   1      51.843  36.035  27.411  1.00  0.00     0.198 A 
ATOM    100  C   UNL A   1      51.151  35.482  25.181  1.00  0.00     0.198 A 
ATOM    101  F   UNL A   1      49.003  34.610  24.796  1.00  0.00    -0.203 F 
ATOM    102  F   UNL A   1      52.757  36.540  28.252  1.00  0.00    -0.200 F 
ATOM    103  C   UNL A   1      52.111  35.975  26.053  1.00  0.00     0.200 A 
ATOM    104  F   UNL A   1      51.414  35.406  23.868  1.00  0.00    -0.200 F 
ATOM    105  F   UNL A   1      53.292  36.397  25.581  1.00  0.00    -0.200 F 
ENDBRANCH  72  95
ENDBRANCH  46  47
ENDBRANCH  38  41
ENDBRANCH  36  37
ENDBRANCH  35  36
ENDBRANCH  34  35
ENDBRANCH  33  34
ENDBRANCH  32  33
ENDBRANCH   1  32
TORSDOF 19
ENDMDL
MODEL 3
REMARK VINA RESULT:      -9.9      1.895      8.013
REMARK SMILES O=C(COc1ccc(/C=N/NC(=O)c2cc3cc([N+](=O)[O-])ccc3o2)cc1)NCCCCCCNC(=O)c1ccc(-c2c3nc(c(-c4c(F)c(F)c(F)c(F)c4F)c4ccc([nH]4)c(-c4c(F)c(F)c(F)c(F)c4F)c4nc(c(-c5c(F)c(F)c(F)c(F)c5F)c5ccc2[nH]5)C=C4)C=C3)cc1
REMARK SMILES IDX 29 1 28 2 1 3 2 4 3 6 4 7 5 8 6 9 27 10 7 11 26 12 8 13 9 14
REMARK SMILES IDX 10 15 11 16 12 17 13 19 14 20 15 21 25 22 16 23 24 24 17 25
REMARK SMILES IDX 23 26 18 27 22 28 19 29 20 30 21 31 30 32 31 33 32 34 33 35
REMARK SMILES IDX 34 36 35 37 36 38 37 40 38 41 39 42 100 43 40 44 99 45 41 46
REMARK SMILES IDX 42 47 43 48 93 49 44 50 98 51 92 52 94 53 45 54 97 55 91 56
REMARK SMILES IDX 90 57 46 59 78 60 58 61 77 62 59 63 62 64 76 65 95 66 60 67
REMARK SMILES IDX 61 68 75 70 96 71 63 72 47 73 48 74 56 75 49 76 50 77 54 78
REMARK SMILES IDX 57 79 51 80 52 81 55 82 53 83 79 84 80 85 88 86 81 87 82 88
REMARK SMILES IDX 86 89 89 90 83 91 84 92 87 93 85 94 64 95 65 96 73 97 66 98
REMARK SMILES IDX 67 99 71 100 74 101 68 102 69 103 72 104 70 105
REMARK H PARENT 28 5 11 18 35 39 94 58 62 69
REMARK Flexibility Score: inf
ROOT
ATOM      1  C   UNL A   1      41.685  24.614  26.203  1.00  0.00     0.116 C 
ENDROOT
BRANCH   1   2
ATOM      2  N   UNL A   1      41.760  25.342  27.451  1.00  0.00    -0.353 N 
ATOM      3  O   UNL A   1      40.704  27.246  26.711  1.00  0.00    -0.271 OA
ATOM      4  C   UNL A   1      41.177  26.580  27.626  1.00  0.00     0.257 C 
ATOM      5  H   UNL A   1      42.246  24.936  28.206  1.00  0.00     0.163 HD
BRANCH   4   6
ATOM      6  C   UNL A   1      41.141  27.042  29.085  1.00  0.00     0.329 C 
BRANCH   6   7
ATOM      7  O   UNL A   1      41.136  28.456  29.284  1.00  0.00    -0.484 OA
BRANCH   7   8
ATOM      8  C   UNL A   1      39.889  29.012  29.390  1.00  0.00     0.120 A 
ATOM      9  C   UNL A   1      39.793  30.389  29.185  1.00  0.00     0.047 A 
ATOM     10  C   UNL A   1      38.766  28.298  29.814  1.00  0.00     0.047 A 
ATOM     11  C   UNL A   1      38.573  31.042  29.387  1.00  0.00     0.013 A 
ATOM     12  C   UNL A   1      37.552  28.945  30.038  1.00  0.00     0.013 A 
ATOM     13  C   UNL A   1      37.457  30.317  29.826  1.00  0.00    -0.005 A 
BRANCH  13  14
ATOM     14  C   UNL A   1      36.197  30.992  30.194  1.00  0.00     0.141 C 
ATOM     15  N   UNL A   1      35.766  31.982  29.492  1.00  0.00    -0.180 NA
BRANCH  15  16
ATOM     16  N   UNL A   1      34.729  32.745  29.910  1.00  0.00    -0.240 N 
ATOM     17  C   UNL A   1      34.574  33.756  30.830  1.00  0.00     0.307 C 
ATOM     18  H   UNL A   1      33.889  32.525  29.448  1.00  0.00     0.194 HD
ATOM     19  O   UNL A   1      33.651  34.550  30.619  1.00  0.00    -0.264 OA
BRANCH  17  20
ATOM     20  C   UNL A   1      35.337  33.853  32.058  1.00  0.00     0.194 A 
ATOM     21  C   UNL A   1      35.374  32.961  33.125  1.00  0.00     0.065 A 
ATOM     22  O   UNL A   1      36.591  34.404  31.909  1.00  0.00    -0.451 OA
ATOM     23  C   UNL A   1      36.755  32.635  33.291  1.00  0.00     0.028 A 
ATOM     24  C   UNL A   1      37.455  33.552  32.520  1.00  0.00     0.135 A 
ATOM     25  C   UNL A   1      37.458  31.566  33.879  1.00  0.00     0.097 A 
ATOM     26  C   UNL A   1      38.827  33.507  32.282  1.00  0.00     0.055 A 
ATOM     27  C   UNL A   1      38.821  31.423  33.545  1.00  0.00     0.270 A 
ATOM     28  C   UNL A   1      39.499  32.381  32.771  1.00  0.00     0.089 A 
BRANCH  27  29
ATOM     29  N   UNL A   1      39.519  30.187  33.927  1.00  0.00     0.062 N 
ATOM     30  O   UNL A   1      40.247  29.652  33.078  1.00  0.00    -0.258 OA
ATOM     31  O   UNL A   1      39.356  29.765  35.080  1.00  0.00    -0.258 OA
ENDBRANCH  27  29
ENDBRANCH  17  20
ENDBRANCH  15  16
ENDBRANCH  13  14
ENDBRANCH   7   8
ENDBRANCH   6   7
ENDBRANCH   4   6
ENDBRANCH   1   2
BRANCH   1  32
ATOM     32  C   UNL A   1      42.917  24.832  25.336  1.00  0.00     0.021 C 
BRANCH  32  33
ATOM     33  C   UNL A   1      43.660  23.543  24.966  1.00  0.00     0.002 C 
BRANCH  33  34
ATOM     34  C   UNL A   1      44.525  22.939  26.076  1.00  0.00     0.002 C 
BRANCH  34  35
ATOM     35  C   UNL A   1      46.026  23.209  25.956  1.00  0.00     0.021 C 
BRANCH  35  36
ATOM     36  C   UNL A   1      46.454  24.626  26.318  1.00  0.00     0.116 C 
BRANCH  36  37
ATOM     37  N   UNL A   1      46.779  25.428  25.149  1.00  0.00    -0.352 N 
ATOM     38  C   UNL A   1      46.581  26.767  24.929  1.00  0.00     0.251 C 
ATOM     39  H   UNL A   1      47.202  24.938  24.408  1.00  0.00     0.163 HD
ATOM     40  O   UNL A   1      46.766  27.244  23.811  1.00  0.00    -0.269 OA
BRANCH  38  41
ATOM     41  C   UNL A   1      46.117  27.638  26.029  1.00  0.00     0.039 A 
ATOM     42  C   UNL A   1      44.744  27.835  26.203  1.00  0.00     0.014 A 
ATOM     43  C   UNL A   1      47.027  28.260  26.888  1.00  0.00     0.014 A 
ATOM     44  C   UNL A   1      44.284  28.601  27.275  1.00  0.00     0.010 A 
ATOM     45  C   UNL A   1      46.566  28.958  28.000  1.00  0.00     0.010 A 
ATOM     46  C   UNL A   1      45.190  29.138  28.205  1.00  0.00    -0.014 A 
BRANCH  46  47
ATOM     47  C   UNL A   1      44.716  29.889  29.396  1.00  0.00     0.031 A 
ATOM     48  C   UNL A   1      44.444  29.167  30.688  1.00  0.00     0.074 A 
ATOM     49  C   UNL A   1      44.469  31.210  29.298  1.00  0.00     0.049 A 
ATOM     50  N   UNL A   1      43.963  29.634  31.813  1.00  0.00    -0.248 NA
ATOM     51  C   UNL A   1      44.727  27.723  30.710  1.00  0.00     0.031 C 
ATOM     52  C   UNL A   1      44.650  32.015  28.090  1.00  0.00     0.029 A 
ATOM     53  N   UNL A   1      44.001  32.106  30.228  1.00  0.00    -0.354 N 
ATOM     54  C   UNL A   1      43.875  28.544  32.668  1.00  0.00     0.074 A 
ATOM     55  C   UNL A   1      44.296  27.382  31.916  1.00  0.00     0.031 C 
ATOM     56  C   UNL A   1      44.321  33.289  28.357  1.00  0.00     0.029 A 
ATOM     57  C   UNL A   1      43.864  33.384  29.740  1.00  0.00     0.049 A 
ATOM     58  H   UNL A   1      43.785  31.858  31.155  1.00  0.00     0.167 HD
ATOM     59  C   UNL A   1      43.500  28.517  33.969  1.00  0.00     0.037 A 
ATOM     60  C   UNL A   1      43.410  34.502  30.337  1.00  0.00     0.037 A 
ATOM     61  C   UNL A   1      43.098  29.678  34.719  1.00  0.00     0.049 A 
ATOM     62  C   UNL A   1      42.978  34.440  31.778  1.00  0.00     0.074 A 
ATOM     63  C   UNL A   1      42.753  29.764  36.057  1.00  0.00     0.029 A 
ATOM     64  N   UNL A   1      42.979  30.957  34.193  1.00  0.00    -0.354 N 
ATOM     65  N   UNL A   1      42.966  33.417  32.597  1.00  0.00    -0.248 NA
ATOM     66  C   UNL A   1      42.500  35.694  32.379  1.00  0.00     0.031 C 
ATOM     67  C   UNL A   1      42.369  31.082  36.326  1.00  0.00     0.029 A 
ATOM     68  C   UNL A   1      42.538  31.833  35.174  1.00  0.00     0.049 A 
ATOM     69  H   UNL A   1      43.178  31.206  33.262  1.00  0.00     0.167 HD
ATOM     70  C   UNL A   1      42.513  33.907  33.815  1.00  0.00     0.074 A 
ATOM     71  C   UNL A   1      42.277  35.324  33.632  1.00  0.00     0.031 C 
ATOM     72  C   UNL A   1      42.314  33.243  34.981  1.00  0.00     0.037 A 
BRANCH  59  73
ATOM     73  C   UNL A   1      43.505  27.187  34.668  1.00  0.00     0.064 A 
ATOM     74  C   UNL A   1      44.675  26.653  35.231  1.00  0.00     0.173 A 
ATOM     75  C   UNL A   1      42.317  26.453  34.812  1.00  0.00     0.173 A 
ATOM     76  F   UNL A   1      45.841  27.308  35.115  1.00  0.00    -0.203 F 
ATOM     77  C   UNL A   1      44.661  25.421  35.881  1.00  0.00     0.198 A 
ATOM     78  C   UNL A   1      42.301  25.239  35.494  1.00  0.00     0.198 A 
ATOM     79  F   UNL A   1      41.168  26.919  34.300  1.00  0.00    -0.203 F 
ATOM     80  F   UNL A   1      45.802  24.908  36.363  1.00  0.00    -0.200 F 
ATOM     81  C   UNL A   1      43.474  24.720  36.019  1.00  0.00     0.200 A 
ATOM     82  F   UNL A   1      41.149  24.570  35.640  1.00  0.00    -0.200 F 
ATOM     83  F   UNL A   1      43.462  23.540  36.654  1.00  0.00    -0.200 F 
ENDBRANCH  59  73
BRANCH  60  84
ATOM     84  C   UNL A   1      43.355  35.782  29.581  1.00  0.00     0.064 A 
ATOM     85  C   UNL A   1      42.268  36.079  28.746  1.00  0.00     0.173 A 
ATOM     86  C   UNL A   1      44.388  36.726  29.665  1.00  0.00     0.173 A 
ATOM     87  F   UNL A   1      41.264  35.199  28.616  1.00  0.00    -0.203 F 
ATOM     88  C   UNL A   1      42.229  37.259  28.007  1.00  0.00     0.198 A 
ATOM     89  C   UNL A   1      44.333  37.921  28.951  1.00  0.00     0.198 A 
ATOM     90  F   UNL A   1      45.448  36.494  30.453  1.00  0.00    -0.203 F 
ATOM     91  F   UNL A   1      41.204  37.493  27.177  1.00  0.00    -0.200 F 
ATOM     92  C   UNL A   1      43.259  38.181  28.114  1.00  0.00     0.200 A 
ATOM     93  F   UNL A   1      45.322  38.817  29.072  1.00  0.00    -0.200 F 
ATOM     94  F   UNL A   1      43.219  39.318  27.405  1.00  0.00    -0.200 F 
ENDBRANCH  60  84
BRANCH  72  95
ATOM     95  C   UNL A   1      41.855  34.046  36.164  1.00  0.00     0.064 A 
ATOM     96  C   UNL A   1      40.494  34.200  36.473  1.00  0.00     0.173 A 
ATOM     97  C   UNL A   1      42.793  34.639  37.024  1.00  0.00     0.173 A 
ATOM     98  F   UNL A   1      39.556  33.665  35.676  1.00  0.00    -0.203 F 
ATOM     99  C   UNL A   1      40.091  34.939  37.582  1.00  0.00     0.198 A 
ATOM    100  C   UNL A   1      42.386  35.349  38.150  1.00  0.00     0.198 A 
ATOM    101  F   UNL A   1      44.106  34.518  36.780  1.00  0.00    -0.203 F 
ATOM    102  F   UNL A   1      38.785  35.117  37.826  1.00  0.00    -0.200 F 
ATOM    103  C   UNL A   1      41.035  35.506  38.423  1.00  0.00     0.200 A 
ATOM    104  F   UNL A   1      43.302  35.880  38.973  1.00  0.00    -0.200 F 
ATOM    105  F   UNL A   1      40.645  36.209  39.494  1.00  0.00    -0.200 F 
ENDBRANCH  72  95
ENDBRANCH  46  47
ENDBRANCH  38  41
ENDBRANCH  36  37
ENDBRANCH  35  36
ENDBRANCH  34  35
ENDBRANCH  33  34
ENDBRANCH  32  33
ENDBRANCH   1  32
TORSDOF 19
ENDMDL
