MODEL 1
REMARK VINA RESULT:     -12.2      0.000      0.000
REMARK SMILES C[C@H]1OCC[C@@H]1C(=O)Nc1ccc(Cl)c(C(=O)NCCCCCCNC(=O)c2ccc(-c3c4nc(c(-c5c(F)c(F)c(F)c(F)c5F)c5ccc([nH]5)c(-c5c(F)c(F)c(F)c(F)c5F)c5nc(c(-c6c(F)c(F)c(F)c(F)c6F)c6ccc3[nH]6)C=C5)C=C4)cc2)c1
REMARK SMILES IDX 21 1 20 2 19 3 18 4 16 5 17 6 15 8 10 9 11 10 91 11 12 12
REMARK SMILES IDX 13 13 14 14 9 15 7 16 8 17 6 19 1 20 2 21 3 22 4 23 5 24
REMARK SMILES IDX 22 25 23 26 24 27 25 28 26 29 27 31 28 32 29 33 90 34 30 35
REMARK SMILES IDX 89 36 31 37 32 38 33 39 83 40 34 41 88 42 82 43 84 44 35 45
REMARK SMILES IDX 87 46 81 47 80 48 36 50 68 51 48 52 67 53 49 54 52 55 66 56
REMARK SMILES IDX 85 57 50 58 51 59 65 61 86 62 53 63 37 64 38 65 46 66 39 67
REMARK SMILES IDX 40 68 44 69 47 70 41 71 42 72 45 73 43 74 69 75 70 76 78 77
REMARK SMILES IDX 71 78 72 79 76 80 79 81 73 82 74 83 77 84 75 85 54 86 55 87
REMARK SMILES IDX 63 88 56 89 57 90 61 91 64 92 58 93 59 94 62 95 60 96
REMARK H PARENT 18 7 9 18 25 30 84 49 52 60
REMARK Flexibility Score: inf
ROOT
ATOM      1  C   UNL A   1      32.847  29.770  27.208  1.00  0.00     0.002 C 
ENDROOT
BRANCH   1   2
ATOM      2  C   UNL A   1      32.556  28.302  27.519  1.00  0.00     0.021 C 
BRANCH   2   3
ATOM      3  C   UNL A   1      31.096  27.880  27.504  1.00  0.00     0.116 C 
BRANCH   3   4
ATOM      4  N   UNL A   1      30.788  26.668  26.773  1.00  0.00    -0.352 N 
ATOM      5  C   UNL A   1      31.274  26.235  25.556  1.00  0.00     0.252 C 
ATOM      6  O   UNL A   1      30.939  25.124  25.147  1.00  0.00    -0.269 OA
ATOM      7  H   UNL A   1      30.138  26.068  27.206  1.00  0.00     0.163 HD
BRANCH   5   8
ATOM      8  C   UNL A   1      32.074  27.119  24.667  1.00  0.00     0.060 A 
ATOM      9  C   UNL A   1      32.042  28.890  23.017  1.00  0.00     0.042 A 
ATOM     10  C   UNL A   1      33.401  29.084  23.205  1.00  0.00     0.028 A 
ATOM     11  C   UNL A   1      31.353  28.018  23.858  1.00  0.00     0.041 A 
ATOM     12  C   UNL A   1      34.127  28.159  23.942  1.00  0.00     0.023 A 
ATOM     13  C   UNL A   1      33.467  27.092  24.544  1.00  0.00     0.053 A 
ATOM     14  Cl  UNL A   1      34.444  25.711  24.903  1.00  0.00    -0.083 Cl
BRANCH   9  15
ATOM     15  N   UNL A   1      31.375  29.521  21.966  1.00  0.00    -0.326 N 
ATOM     16  C   UNL A   1      30.050  29.875  21.886  1.00  0.00     0.230 C 
ATOM     17  O   UNL A   1      29.644  30.274  20.786  1.00  0.00    -0.274 OA
ATOM     18  H   UNL A   1      31.925  29.740  21.179  1.00  0.00     0.169 HD
BRANCH  16  19
ATOM     19  C   UNL A   1      29.082  29.913  23.087  1.00  0.00     0.110 C 
ATOM     20  C   UNL A   1      27.053  28.471  23.614  1.00  0.00     0.039 C 
ATOM     21  C   UNL A   1      27.629  29.589  22.748  1.00  0.00     0.127 C 
ATOM     22  O   UNL A   1      26.871  30.780  23.009  1.00  0.00    -0.378 OA
ATOM     23  C   UNL A   1      27.560  31.538  24.004  1.00  0.00     0.161 C 
ATOM     24  C   UNL A   1      29.032  31.189  23.902  1.00  0.00     0.044 C 
ENDBRANCH  16  19
ENDBRANCH   9  15
ENDBRANCH   5   8
ENDBRANCH   3   4
ENDBRANCH   2   3
ENDBRANCH   1   2
BRANCH   1  25
ATOM     25  C   UNL A   1      31.788  30.557  26.428  1.00  0.00     0.002 C 
BRANCH  25  26
ATOM     26  C   UNL A   1      31.528  32.007  26.845  1.00  0.00     0.021 C 
BRANCH  26  27
ATOM     27  C   UNL A   1      32.731  32.942  26.861  1.00  0.00     0.116 C 
BRANCH  27  28
ATOM     28  N   UNL A   1      32.488  34.174  27.589  1.00  0.00    -0.352 N 
ATOM     29  C   UNL A   1      33.120  34.685  28.692  1.00  0.00     0.251 C 
ATOM     30  H   UNL A   1      31.757  34.729  27.233  1.00  0.00     0.163 HD
ATOM     31  O   UNL A   1      32.677  35.705  29.223  1.00  0.00    -0.269 OA
BRANCH  29  32
ATOM     32  C   UNL A   1      34.310  34.023  29.276  1.00  0.00     0.039 A 
ATOM     33  C   UNL A   1      34.109  32.937  30.137  1.00  0.00     0.014 A 
ATOM     34  C   UNL A   1      35.608  34.483  29.036  1.00  0.00     0.014 A 
ATOM     35  C   UNL A   1      35.203  32.295  30.721  1.00  0.00     0.010 A 
ATOM     36  C   UNL A   1      36.703  33.798  29.565  1.00  0.00     0.010 A 
ATOM     37  C   UNL A   1      36.512  32.706  30.426  1.00  0.00    -0.014 A 
BRANCH  37  38
ATOM     38  C   UNL A   1      37.682  32.023  31.037  1.00  0.00     0.031 A 
ATOM     39  C   UNL A   1      38.135  32.391  32.425  1.00  0.00     0.074 A 
ATOM     40  C   UNL A   1      38.361  31.096  30.332  1.00  0.00     0.049 A 
ATOM     41  N   UNL A   1      39.149  31.932  33.116  1.00  0.00    -0.248 NA
ATOM     42  C   UNL A   1      37.360  33.431  33.119  1.00  0.00     0.031 C 
ATOM     43  C   UNL A   1      38.054  30.685  28.962  1.00  0.00     0.029 A 
ATOM     44  N   UNL A   1      39.454  30.338  30.671  1.00  0.00    -0.354 N 
ATOM     45  C   UNL A   1      39.142  32.637  34.312  1.00  0.00     0.074 A 
ATOM     46  C   UNL A   1      38.056  33.589  34.236  1.00  0.00     0.031 C 
ATOM     47  C   UNL A   1      38.924  29.736  28.583  1.00  0.00     0.029 A 
ATOM     48  C   UNL A   1      39.866  29.490  29.672  1.00  0.00     0.049 A 
ATOM     49  H   UNL A   1      39.900  30.396  31.546  1.00  0.00     0.167 HD
ATOM     50  C   UNL A   1      39.954  32.489  35.387  1.00  0.00     0.037 A 
ATOM     51  C   UNL A   1      40.888  28.612  29.639  1.00  0.00     0.037 A 
ATOM     52  C   UNL A   1      41.013  31.518  35.477  1.00  0.00     0.049 A 
ATOM     53  C   UNL A   1      41.754  28.446  30.859  1.00  0.00     0.074 A 
ATOM     54  C   UNL A   1      41.856  31.254  36.543  1.00  0.00     0.029 A 
ATOM     55  N   UNL A   1      41.372  30.646  34.459  1.00  0.00    -0.354 N 
ATOM     56  N   UNL A   1      41.696  29.073  32.008  1.00  0.00    -0.248 NA
ATOM     57  C   UNL A   1      42.818  27.436  30.780  1.00  0.00     0.031 C 
ATOM     58  C   UNL A   1      42.749  30.249  36.158  1.00  0.00     0.029 A 
ATOM     59  C   UNL A   1      42.430  29.851  34.869  1.00  0.00     0.049 A 
ATOM     60  H   UNL A   1      40.939  30.599  33.577  1.00  0.00     0.167 HD
ATOM     61  C   UNL A   1      42.688  28.511  32.800  1.00  0.00     0.074 A 
ATOM     62  C   UNL A   1      43.324  27.482  32.005  1.00  0.00     0.031 C 
ATOM     63  C   UNL A   1      43.040  28.818  34.072  1.00  0.00     0.037 A 
BRANCH  50  64
ATOM     64  C   UNL A   1      39.725  33.396  36.562  1.00  0.00     0.064 A 
ATOM     65  C   UNL A   1      40.348  34.648  36.658  1.00  0.00     0.173 A 
ATOM     66  C   UNL A   1      38.836  33.027  37.584  1.00  0.00     0.173 A 
ATOM     67  F   UNL A   1      41.215  35.044  35.715  1.00  0.00    -0.203 F 
ATOM     68  C   UNL A   1      40.112  35.488  37.744  1.00  0.00     0.198 A 
ATOM     69  C   UNL A   1      38.578  33.880  38.653  1.00  0.00     0.198 A 
ATOM     70  F   UNL A   1      38.207  31.842  37.539  1.00  0.00    -0.203 F 
ATOM     71  F   UNL A   1      40.755  36.659  37.837  1.00  0.00    -0.200 F 
ATOM     72  C   UNL A   1      39.222  35.106  38.737  1.00  0.00     0.200 A 
ATOM     73  F   UNL A   1      37.707  33.516  39.606  1.00  0.00    -0.200 F 
ATOM     74  F   UNL A   1      38.988  35.918  39.778  1.00  0.00    -0.200 F 
ENDBRANCH  50  64
BRANCH  51  75
ATOM     75  C   UNL A   1      41.127  27.795  28.421  1.00  0.00     0.064 A 
ATOM     76  C   UNL A   1      41.997  28.240  27.414  1.00  0.00     0.173 A 
ATOM     77  C   UNL A   1      40.482  26.565  28.229  1.00  0.00     0.173 A 
ATOM     78  F   UNL A   1      42.622  29.419  27.544  1.00  0.00    -0.203 F 
ATOM     79  C   UNL A   1      42.190  27.499  26.250  1.00  0.00     0.198 A 
ATOM     80  C   UNL A   1      40.698  25.811  27.077  1.00  0.00     0.198 A 
ATOM     81  F   UNL A   1      39.644  26.093  29.164  1.00  0.00    -0.203 F 
ATOM     82  F   UNL A   1      42.985  27.973  25.282  1.00  0.00    -0.200 F 
ATOM     83  C   UNL A   1      41.544  26.284  26.085  1.00  0.00     0.200 A 
ATOM     84  F   UNL A   1      40.081  24.631  26.926  1.00  0.00    -0.200 F 
ATOM     85  F   UNL A   1      41.729  25.571  24.965  1.00  0.00    -0.200 F 
ENDBRANCH  51  75
BRANCH  63  86
ATOM     86  C   UNL A   1      44.127  27.996  34.702  1.00  0.00     0.064 A 
ATOM     87  C   UNL A   1      45.471  28.399  34.674  1.00  0.00     0.173 A 
ATOM     88  C   UNL A   1      43.813  26.798  35.364  1.00  0.00     0.173 A 
ATOM     89  F   UNL A   1      45.823  29.528  34.042  1.00  0.00    -0.203 F 
ATOM     90  C   UNL A   1      46.464  27.614  35.254  1.00  0.00     0.198 A 
ATOM     91  C   UNL A   1      44.806  26.033  35.969  1.00  0.00     0.198 A 
ATOM     92  F   UNL A   1      42.543  26.373  35.427  1.00  0.00    -0.203 F 
ATOM     93  F   UNL A   1      47.747  27.990  35.164  1.00  0.00    -0.200 F 
ATOM     94  C   UNL A   1      46.131  26.436  35.905  1.00  0.00     0.200 A 
ATOM     95  F   UNL A   1      44.481  24.902  36.610  1.00  0.00    -0.200 F 
ATOM     96  F   UNL A   1      47.089  25.683  36.463  1.00  0.00    -0.200 F 
ENDBRANCH  63  86
ENDBRANCH  37  38
ENDBRANCH  29  32
ENDBRANCH  27  28
ENDBRANCH  26  27
ENDBRANCH  25  26
ENDBRANCH   1  25
TORSDOF 15
ENDMDL
MODEL 2
REMARK VINA RESULT:     -12.1      0.969      2.090
REMARK SMILES C[C@H]1OCC[C@@H]1C(=O)Nc1ccc(Cl)c(C(=O)NCCCCCCNC(=O)c2ccc(-c3c4nc(c(-c5c(F)c(F)c(F)c(F)c5F)c5ccc([nH]5)c(-c5c(F)c(F)c(F)c(F)c5F)c5nc(c(-c6c(F)c(F)c(F)c(F)c6F)c6ccc3[nH]6)C=C5)C=C4)cc2)c1
REMARK SMILES IDX 21 1 20 2 19 3 18 4 16 5 17 6 15 8 10 9 11 10 91 11 12 12
REMARK SMILES IDX 13 13 14 14 9 15 7 16 8 17 6 19 1 20 2 21 3 22 4 23 5 24
REMARK SMILES IDX 22 25 23 26 24 27 25 28 26 29 27 31 28 32 29 33 90 34 30 35
REMARK SMILES IDX 89 36 31 37 32 38 33 39 83 40 34 41 88 42 82 43 84 44 35 45
REMARK SMILES IDX 87 46 81 47 80 48 36 50 68 51 48 52 67 53 49 54 52 55 66 56
REMARK SMILES IDX 85 57 50 58 51 59 65 61 86 62 53 63 37 64 38 65 46 66 39 67
REMARK SMILES IDX 40 68 44 69 47 70 41 71 42 72 45 73 43 74 69 75 70 76 78 77
REMARK SMILES IDX 71 78 72 79 76 80 79 81 73 82 74 83 77 84 75 85 54 86 55 87
REMARK SMILES IDX 63 88 56 89 57 90 61 91 64 92 58 93 59 94 62 95 60 96
REMARK H PARENT 18 7 9 18 25 30 84 49 52 60
REMARK Flexibility Score: inf
ROOT
ATOM      1  C   UNL A   1      32.870  29.985  25.719  1.00  0.00     0.002 C 
ENDROOT
BRANCH   1   2
ATOM      2  C   UNL A   1      33.675  29.081  26.652  1.00  0.00     0.021 C 
BRANCH   2   3
ATOM      3  C   UNL A   1      33.923  27.659  26.176  1.00  0.00     0.116 C 
BRANCH   3   4
ATOM      4  N   UNL A   1      33.029  26.645  26.698  1.00  0.00    -0.352 N 
ATOM      5  C   UNL A   1      32.015  25.963  26.058  1.00  0.00     0.252 C 
ATOM      6  O   UNL A   1      31.424  25.073  26.668  1.00  0.00    -0.269 OA
ATOM      7  H   UNL A   1      33.166  26.408  27.644  1.00  0.00     0.163 HD
BRANCH   5   8
ATOM      8  C   UNL A   1      31.526  26.360  24.710  1.00  0.00     0.060 A 
ATOM      9  C   UNL A   1      29.759  27.406  23.428  1.00  0.00     0.042 A 
ATOM     10  C   UNL A   1      30.605  27.483  22.333  1.00  0.00     0.028 A 
ATOM     11  C   UNL A   1      30.267  26.989  24.657  1.00  0.00     0.041 A 
ATOM     12  C   UNL A   1      31.815  26.804  22.356  1.00  0.00     0.023 A 
ATOM     13  C   UNL A   1      32.194  26.117  23.505  1.00  0.00     0.053 A 
ATOM     14  Cl  UNL A   1      33.346  24.848  23.276  1.00  0.00    -0.083 Cl
BRANCH   9  15
ATOM     15  N   UNL A   1      28.400  27.694  23.295  1.00  0.00    -0.326 N 
ATOM     16  C   UNL A   1      27.802  28.910  23.075  1.00  0.00     0.230 C 
ATOM     17  O   UNL A   1      26.567  28.950  23.161  1.00  0.00    -0.274 OA
ATOM     18  H   UNL A   1      27.790  26.924  23.371  1.00  0.00     0.169 HD
BRANCH  16  19
ATOM     19  C   UNL A   1      28.550  30.182  22.624  1.00  0.00     0.110 C 
ATOM     20  C   UNL A   1      29.284  32.221  23.958  1.00  0.00     0.039 C 
ATOM     21  C   UNL A   1      28.115  31.464  23.331  1.00  0.00     0.127 C 
ATOM     22  O   UNL A   1      27.534  32.310  22.328  1.00  0.00    -0.378 OA
ATOM     23  C   UNL A   1      28.108  31.964  21.066  1.00  0.00     0.161 C 
ATOM     24  C   UNL A   1      28.538  30.512  21.146  1.00  0.00     0.044 C 
ENDBRANCH  16  19
ENDBRANCH   9  15
ENDBRANCH   5   8
ENDBRANCH   3   4
ENDBRANCH   2   3
ENDBRANCH   1   2
BRANCH   1  25
ATOM     25  C   UNL A   1      31.495  30.461  26.198  1.00  0.00     0.002 C 
BRANCH  25  26
ATOM     26  C   UNL A   1      31.395  31.870  26.790  1.00  0.00     0.021 C 
BRANCH  26  27
ATOM     27  C   UNL A   1      32.688  32.670  26.876  1.00  0.00     0.116 C 
BRANCH  27  28
ATOM     28  N   UNL A   1      32.520  33.961  27.518  1.00  0.00    -0.352 N 
ATOM     29  C   UNL A   1      33.183  34.507  28.586  1.00  0.00     0.251 C 
ATOM     30  H   UNL A   1      31.823  34.533  27.124  1.00  0.00     0.163 HD
ATOM     31  O   UNL A   1      32.803  35.585  29.046  1.00  0.00    -0.269 OA
BRANCH  29  32
ATOM     32  C   UNL A   1      34.333  33.816  29.216  1.00  0.00     0.039 A 
ATOM     33  C   UNL A   1      35.611  34.354  29.031  1.00  0.00     0.014 A 
ATOM     34  C   UNL A   1      34.180  32.626  29.934  1.00  0.00     0.014 A 
ATOM     35  C   UNL A   1      36.724  33.725  29.595  1.00  0.00     0.010 A 
ATOM     36  C   UNL A   1      35.283  32.037  30.555  1.00  0.00     0.010 A 
ATOM     37  C   UNL A   1      36.569  32.571  30.379  1.00  0.00    -0.014 A 
BRANCH  37  38
ATOM     38  C   UNL A   1      37.746  31.899  30.988  1.00  0.00     0.031 A 
ATOM     39  C   UNL A   1      38.196  32.268  32.377  1.00  0.00     0.074 A 
ATOM     40  C   UNL A   1      38.434  30.980  30.281  1.00  0.00     0.049 A 
ATOM     41  N   UNL A   1      39.214  31.817  33.066  1.00  0.00    -0.248 NA
ATOM     42  C   UNL A   1      37.411  33.299  33.074  1.00  0.00     0.031 C 
ATOM     43  C   UNL A   1      38.131  30.569  28.910  1.00  0.00     0.029 A 
ATOM     44  N   UNL A   1      39.534  30.232  30.618  1.00  0.00    -0.354 N 
ATOM     45  C   UNL A   1      39.202  32.520  34.265  1.00  0.00     0.074 A 
ATOM     46  C   UNL A   1      38.106  33.461  34.191  1.00  0.00     0.031 C 
ATOM     47  C   UNL A   1      39.010  29.629  28.528  1.00  0.00     0.029 A 
ATOM     48  C   UNL A   1      39.955  29.391  29.617  1.00  0.00     0.049 A 
ATOM     49  H   UNL A   1      39.980  30.293  31.493  1.00  0.00     0.167 HD
ATOM     50  C   UNL A   1      40.015  32.377  35.339  1.00  0.00     0.037 A 
ATOM     51  C   UNL A   1      40.985  28.523  29.581  1.00  0.00     0.037 A 
ATOM     52  C   UNL A   1      41.084  31.416  35.426  1.00  0.00     0.049 A 
ATOM     53  C   UNL A   1      41.853  28.363  30.800  1.00  0.00     0.074 A 
ATOM     54  C   UNL A   1      41.929  31.159  36.491  1.00  0.00     0.029 A 
ATOM     55  N   UNL A   1      41.451  30.551  34.406  1.00  0.00    -0.354 N 
ATOM     56  N   UNL A   1      41.789  28.987  31.951  1.00  0.00    -0.248 NA
ATOM     57  C   UNL A   1      42.927  27.363  30.719  1.00  0.00     0.031 C 
ATOM     58  C   UNL A   1      42.832  30.163  36.103  1.00  0.00     0.029 A 
ATOM     59  C   UNL A   1      42.517  29.764  34.814  1.00  0.00     0.049 A 
ATOM     60  H   UNL A   1      41.018  30.501  33.524  1.00  0.00     0.167 HD
ATOM     61  C   UNL A   1      42.787  28.432  32.741  1.00  0.00     0.074 A 
ATOM     62  C   UNL A   1      43.433  27.412  31.944  1.00  0.00     0.031 C 
ATOM     63  C   UNL A   1      43.137  28.739  34.014  1.00  0.00     0.037 A 
BRANCH  50  64
ATOM     64  C   UNL A   1      39.777  33.279  36.516  1.00  0.00     0.064 A 
ATOM     65  C   UNL A   1      40.429  34.514  36.640  1.00  0.00     0.173 A 
ATOM     66  C   UNL A   1      38.852  32.924  37.510  1.00  0.00     0.173 A 
ATOM     67  F   UNL A   1      41.331  34.896  35.724  1.00  0.00    -0.203 F 
ATOM     68  C   UNL A   1      40.185  35.349  37.728  1.00  0.00     0.198 A 
ATOM     69  C   UNL A   1      38.587  33.773  38.580  1.00  0.00     0.198 A 
ATOM     70  F   UNL A   1      38.195  31.756  37.437  1.00  0.00    -0.203 F 
ATOM     71  F   UNL A   1      40.854  36.503  37.850  1.00  0.00    -0.200 F 
ATOM     72  C   UNL A   1      39.259  34.982  38.693  1.00  0.00     0.200 A 
ATOM     73  F   UNL A   1      37.682  33.423  39.506  1.00  0.00    -0.200 F 
ATOM     74  F   UNL A   1      39.018  35.790  39.735  1.00  0.00    -0.200 F 
ENDBRANCH  50  64
BRANCH  51  75
ATOM     75  C   UNL A   1      41.233  27.710  28.361  1.00  0.00     0.064 A 
ATOM     76  C   UNL A   1      40.606  26.468  28.184  1.00  0.00     0.173 A 
ATOM     77  C   UNL A   1      42.110  28.148  27.359  1.00  0.00     0.173 A 
ATOM     78  F   UNL A   1      39.774  25.998  29.124  1.00  0.00    -0.203 F 
ATOM     79  C   UNL A   1      40.870  25.682  27.064  1.00  0.00     0.198 A 
ATOM     80  C   UNL A   1      42.351  27.374  26.226  1.00  0.00     0.198 A 
ATOM     81  F   UNL A   1      42.731  29.331  27.479  1.00  0.00    -0.203 F 
ATOM     82  F   UNL A   1      40.299  24.477  26.946  1.00  0.00    -0.200 F 
ATOM     83  C   UNL A   1      41.738  26.138  26.084  1.00  0.00     0.200 A 
ATOM     84  F   UNL A   1      43.182  27.823  25.275  1.00  0.00    -0.200 F 
ATOM     85  F   UNL A   1      41.993  25.382  25.007  1.00  0.00    -0.200 F 
ENDBRANCH  51  75
BRANCH  63  86
ATOM     86  C   UNL A   1      44.231  27.927  34.642  1.00  0.00     0.064 A 
ATOM     87  C   UNL A   1      43.966  26.730  35.326  1.00  0.00     0.173 A 
ATOM     88  C   UNL A   1      45.568  28.342  34.538  1.00  0.00     0.173 A 
ATOM     89  F   UNL A   1      42.704  26.299  35.465  1.00  0.00    -0.203 F 
ATOM     90  C   UNL A   1      44.996  25.999  35.912  1.00  0.00     0.198 A 
ATOM     91  C   UNL A   1      46.598  27.592  35.099  1.00  0.00     0.198 A 
ATOM     92  F   UNL A   1      45.876  29.473  33.887  1.00  0.00    -0.203 F 
ATOM     93  F   UNL A   1      44.714  24.890  36.609  1.00  0.00    -0.200 F 
ATOM     94  C   UNL A   1      46.310  26.427  35.794  1.00  0.00     0.200 A 
ATOM     95  F   UNL A   1      47.868  27.998  34.971  1.00  0.00    -0.200 F 
ATOM     96  F   UNL A   1      47.300  25.720  36.358  1.00  0.00    -0.200 F 
ENDBRANCH  63  86
ENDBRANCH  37  38
ENDBRANCH  29  32
ENDBRANCH  27  28
ENDBRANCH  26  27
ENDBRANCH  25  26
ENDBRANCH   1  25
TORSDOF 15
ENDMDL
MODEL 3
REMARK VINA RESULT:     -12.0      1.188      7.462
REMARK SMILES C[C@H]1OCC[C@@H]1C(=O)Nc1ccc(Cl)c(C(=O)NCCCCCCNC(=O)c2ccc(-c3c4nc(c(-c5c(F)c(F)c(F)c(F)c5F)c5ccc([nH]5)c(-c5c(F)c(F)c(F)c(F)c5F)c5nc(c(-c6c(F)c(F)c(F)c(F)c6F)c6ccc3[nH]6)C=C5)C=C4)cc2)c1
REMARK SMILES IDX 21 1 20 2 19 3 18 4 16 5 17 6 15 8 10 9 11 10 91 11 12 12
REMARK SMILES IDX 13 13 14 14 9 15 7 16 8 17 6 19 1 20 2 21 3 22 4 23 5 24
REMARK SMILES IDX 22 25 23 26 24 27 25 28 26 29 27 31 28 32 29 33 90 34 30 35
REMARK SMILES IDX 89 36 31 37 32 38 33 39 83 40 34 41 88 42 82 43 84 44 35 45
REMARK SMILES IDX 87 46 81 47 80 48 36 50 68 51 48 52 67 53 49 54 52 55 66 56
REMARK SMILES IDX 85 57 50 58 51 59 65 61 86 62 53 63 37 64 38 65 46 66 39 67
REMARK SMILES IDX 40 68 44 69 47 70 41 71 42 72 45 73 43 74 69 75 70 76 78 77
REMARK SMILES IDX 71 78 72 79 76 80 79 81 73 82 74 83 77 84 75 85 54 86 55 87
REMARK SMILES IDX 63 88 56 89 57 90 61 91 64 92 58 93 59 94 62 95 60 96
REMARK H PARENT 18 7 9 18 25 30 84 49 52 60
REMARK Flexibility Score: inf
ROOT
ATOM      1  C   UNL A   1      32.862  30.135  25.818  1.00  0.00     0.002 C 
ENDROOT
BRANCH   1   2
ATOM      2  C   UNL A   1      33.592  29.199  26.780  1.00  0.00     0.021 C 
BRANCH   2   3
ATOM      3  C   UNL A   1      33.882  27.794  26.275  1.00  0.00     0.116 C 
BRANCH   3   4
ATOM      4  N   UNL A   1      33.006  26.747  26.759  1.00  0.00    -0.352 N 
ATOM      5  C   UNL A   1      32.025  26.049  26.086  1.00  0.00     0.252 C 
ATOM      6  O   UNL A   1      31.446  25.132  26.668  1.00  0.00    -0.269 OA
ATOM      7  H   UNL A   1      33.130  26.497  27.704  1.00  0.00     0.163 HD
BRANCH   5   8
ATOM      8  C   UNL A   1      31.553  26.457  24.736  1.00  0.00     0.060 A 
ATOM      9  C   UNL A   1      29.793  27.497  23.438  1.00  0.00     0.042 A 
ATOM     10  C   UNL A   1      30.656  27.599  22.359  1.00  0.00     0.028 A 
ATOM     11  C   UNL A   1      30.286  27.070  24.670  1.00  0.00     0.041 A 
ATOM     12  C   UNL A   1      31.873  26.935  22.392  1.00  0.00     0.023 A 
ATOM     13  C   UNL A   1      32.243  26.238  23.539  1.00  0.00     0.053 A 
ATOM     14  Cl  UNL A   1      33.415  24.986  23.313  1.00  0.00    -0.083 Cl
BRANCH   9  15
ATOM     15  N   UNL A   1      28.433  27.769  23.287  1.00  0.00    -0.326 N 
ATOM     16  C   UNL A   1      27.825  28.976  23.045  1.00  0.00     0.230 C 
ATOM     17  O   UNL A   1      26.589  29.004  23.116  1.00  0.00    -0.274 OA
ATOM     18  H   UNL A   1      27.829  26.994  23.366  1.00  0.00     0.169 HD
BRANCH  16  19
ATOM     19  C   UNL A   1      28.565  30.250  22.586  1.00  0.00     0.110 C 
ATOM     20  C   UNL A   1      29.257  32.316  23.900  1.00  0.00     0.039 C 
ATOM     21  C   UNL A   1      28.106  31.537  23.268  1.00  0.00     0.127 C 
ATOM     22  O   UNL A   1      27.529  32.361  22.244  1.00  0.00    -0.378 OA
ATOM     23  C   UNL A   1      28.125  32.004  20.996  1.00  0.00     0.161 C 
ATOM     24  C   UNL A   1      28.570  30.558  21.103  1.00  0.00     0.044 C 
ENDBRANCH  16  19
ENDBRANCH   9  15
ENDBRANCH   5   8
ENDBRANCH   3   4
ENDBRANCH   2   3
ENDBRANCH   1   2
BRANCH   1  25
ATOM     25  C   UNL A   1      31.472  30.635  26.226  1.00  0.00     0.002 C 
BRANCH  25  26
ATOM     26  C   UNL A   1      31.373  32.023  26.865  1.00  0.00     0.021 C 
BRANCH  26  27
ATOM     27  C   UNL A   1      32.680  32.784  27.057  1.00  0.00     0.116 C 
BRANCH  27  28
ATOM     28  N   UNL A   1      32.489  34.125  27.577  1.00  0.00    -0.352 N 
ATOM     29  C   UNL A   1      33.113  34.765  28.616  1.00  0.00     0.251 C 
ATOM     30  H   UNL A   1      31.806  34.659  27.110  1.00  0.00     0.163 HD
ATOM     31  O   UNL A   1      32.717  35.878  28.965  1.00  0.00    -0.269 OA
BRANCH  29  32
ATOM     32  C   UNL A   1      34.239  34.135  29.345  1.00  0.00     0.039 A 
ATOM     33  C   UNL A   1      35.543  34.416  28.921  1.00  0.00     0.014 A 
ATOM     34  C   UNL A   1      34.032  33.236  30.395  1.00  0.00     0.014 A 
ATOM     35  C   UNL A   1      36.632  33.831  29.571  1.00  0.00     0.010 A 
ATOM     36  C   UNL A   1      35.122  32.706  31.088  1.00  0.00     0.010 A 
ATOM     37  C   UNL A   1      36.434  32.985  30.674  1.00  0.00    -0.014 A 
BRANCH  37  38
ATOM     38  C   UNL A   1      37.587  32.364  31.376  1.00  0.00     0.031 A 
ATOM     39  C   UNL A   1      38.343  31.230  30.736  1.00  0.00     0.074 A 
ATOM     40  C   UNL A   1      37.934  32.794  32.605  1.00  0.00     0.049 A 
ATOM     41  N   UNL A   1      39.354  30.539  31.202  1.00  0.00    -0.248 NA
ATOM     42  C   UNL A   1      37.886  30.797  29.406  1.00  0.00     0.031 C 
ATOM     43  C   UNL A   1      37.254  33.851  33.354  1.00  0.00     0.029 A 
ATOM     44  N   UNL A   1      38.944  32.390  33.442  1.00  0.00    -0.354 N 
ATOM     45  C   UNL A   1      39.639  29.585  30.234  1.00  0.00     0.074 A 
ATOM     46  C   UNL A   1      38.666  29.751  29.177  1.00  0.00     0.031 C 
ATOM     47  C   UNL A   1      37.875  34.026  34.531  1.00  0.00     0.029 A 
ATOM     48  C   UNL A   1      38.981  33.077  34.631  1.00  0.00     0.049 A 
ATOM     49  H   UNL A   1      39.580  31.676  33.213  1.00  0.00     0.167 HD
ATOM     50  C   UNL A   1      40.637  28.669  30.217  1.00  0.00     0.037 A 
ATOM     51  C   UNL A   1      39.815  32.957  35.683  1.00  0.00     0.037 A 
ATOM     52  C   UNL A   1      41.627  28.526  31.253  1.00  0.00     0.049 A 
ATOM     53  C   UNL A   1      40.933  31.952  35.623  1.00  0.00     0.074 A 
ATOM     54  C   UNL A   1      42.709  27.664  31.302  1.00  0.00     0.029 A 
ATOM     55  N   UNL A   1      41.657  29.272  32.422  1.00  0.00    -0.354 N 
ATOM     56  N   UNL A   1      41.232  31.100  34.673  1.00  0.00    -0.248 NA
ATOM     57  C   UNL A   1      41.841  31.904  36.777  1.00  0.00     0.031 C 
ATOM     58  C   UNL A   1      43.372  27.861  32.518  1.00  0.00     0.029 A 
ATOM     59  C   UNL A   1      42.733  28.882  33.204  1.00  0.00     0.049 A 
ATOM     60  H   UNL A   1      41.010  29.974  32.661  1.00  0.00     0.167 HD
ATOM     61  C   UNL A   1      42.379  30.443  35.097  1.00  0.00     0.074 A 
ATOM     62  C   UNL A   1      42.731  31.004  36.384  1.00  0.00     0.031 C 
ATOM     63  C   UNL A   1      43.080  29.463  34.475  1.00  0.00     0.037 A 
BRANCH  50  64
ATOM     64  C   UNL A   1      40.715  27.748  29.033  1.00  0.00     0.064 A 
ATOM     65  C   UNL A   1      39.875  26.631  28.913  1.00  0.00     0.173 A 
ATOM     66  C   UNL A   1      41.610  28.009  27.984  1.00  0.00     0.173 A 
ATOM     67  F   UNL A   1      39.010  26.329  29.892  1.00  0.00    -0.203 F 
ATOM     68  C   UNL A   1      39.945  25.795  27.801  1.00  0.00     0.198 A 
ATOM     69  C   UNL A   1      41.657  27.190  26.860  1.00  0.00     0.198 A 
ATOM     70  F   UNL A   1      42.433  29.068  28.044  1.00  0.00    -0.203 F 
ATOM     71  F   UNL A   1      39.165  24.709  27.730  1.00  0.00    -0.200 F 
ATOM     72  C   UNL A   1      40.830  26.080  26.772  1.00  0.00     0.200 A 
ATOM     73  F   UNL A   1      42.504  27.473  25.860  1.00  0.00    -0.200 F 
ATOM     74  F   UNL A   1      40.890  25.280  25.697  1.00  0.00    -0.200 F 
ENDBRANCH  50  64
BRANCH  51  75
ATOM     75  C   UNL A   1      39.647  33.836  36.870  1.00  0.00     0.064 A 
ATOM     76  C   UNL A   1      38.842  33.443  37.949  1.00  0.00     0.173 A 
ATOM     77  C   UNL A   1      40.270  35.089  36.944  1.00  0.00     0.173 A 
ATOM     78  F   UNL A   1      38.208  32.261  37.916  1.00  0.00    -0.203 F 
ATOM     79  C   UNL A   1      38.644  34.282  39.043  1.00  0.00     0.198 A 
ATOM     80  C   UNL A   1      40.096  35.916  38.052  1.00  0.00     0.198 A 
ATOM     81  F   UNL A   1      41.055  35.510  35.940  1.00  0.00    -0.203 F 
ATOM     82  F   UNL A   1      37.828  33.904  40.036  1.00  0.00    -0.200 F 
ATOM     83  C   UNL A   1      39.275  35.515  39.096  1.00  0.00     0.200 A 
ATOM     84  F   UNL A   1      40.717  37.102  38.104  1.00  0.00    -0.200 F 
ATOM     85  F   UNL A   1      39.085  36.323  40.148  1.00  0.00    -0.200 F 
ENDBRANCH  51  75
BRANCH  63  86
ATOM     86  C   UNL A   1      44.327  28.974  35.152  1.00  0.00     0.064 A 
ATOM     87  C   UNL A   1      45.585  29.534  34.882  1.00  0.00     0.173 A 
ATOM     88  C   UNL A   1      44.257  27.944  36.103  1.00  0.00     0.173 A 
ATOM     89  F   UNL A   1      45.707  30.512  33.972  1.00  0.00    -0.203 F 
ATOM     90  C   UNL A   1      46.730  29.055  35.513  1.00  0.00     0.198 A 
ATOM     91  C   UNL A   1      45.400  27.489  36.753  1.00  0.00     0.198 A 
ATOM     92  F   UNL A   1      43.078  27.380  36.404  1.00  0.00    -0.203 F 
ATOM     93  F   UNL A   1      47.928  29.566  35.197  1.00  0.00    -0.200 F 
ATOM     94  C   UNL A   1      46.637  28.038  36.451  1.00  0.00     0.200 A 
ATOM     95  F   UNL A   1      45.306  26.517  37.670  1.00  0.00    -0.200 F 
ATOM     96  F   UNL A   1      47.741  27.581  37.058  1.00  0.00    -0.200 F 
ENDBRANCH  63  86
ENDBRANCH  37  38
ENDBRANCH  29  32
ENDBRANCH  27  28
ENDBRANCH  26  27
ENDBRANCH  25  26
ENDBRANCH   1  25
TORSDOF 15
ENDMDL
