MODEL 1
REMARK VINA RESULT:     -11.5      0.000      0.000
REMARK SMILES O=C(NCCCCCCNC(=O)[C@@H]1CCC(=O)N(CCCOC2CCCCC2)[C@H]1c1ccco1)c1ccc(-c2c3nc(c(-c4c(F)c(F)c(F)c(F)c4F)c4ccc([nH]4)c(-c4c(F)c(F)c(F)c(F)c4F)c4nc(c(-c5c(F)c(F)c(F)c(F)c5F)c5ccc2[nH]5)C=C4)C=C3)cc1
REMARK SMILES IDX 8 1 7 2 6 3 5 4 4 5 3 6 1 7 2 8 35 10 36 11 97 12 37 13
REMARK SMILES IDX 96 14 38 15 39 16 40 17 90 18 41 19 95 20 89 21 91 22 42 23
REMARK SMILES IDX 94 24 88 25 87 26 43 28 75 29 55 30 74 31 56 32 59 33 73 34
REMARK SMILES IDX 92 35 57 36 58 37 72 39 93 40 60 41 44 42 45 43 53 44 46 45
REMARK SMILES IDX 47 46 51 47 54 48 48 49 49 50 52 51 50 52 76 53 77 54 85 55
REMARK SMILES IDX 78 56 79 57 83 58 86 59 80 60 81 61 84 62 82 63 61 64 62 65
REMARK SMILES IDX 70 66 63 67 64 68 68 69 71 70 65 71 66 72 69 73 67 74 9 75
REMARK SMILES IDX 10 76 11 77 12 79 13 80 14 81 29 82 15 83 18 84 16 85 17 86
REMARK SMILES IDX 30 87 31 88 34 89 32 90 33 91 19 92 20 93 21 94 22 95 23 96
REMARK SMILES IDX 24 97 28 98 25 99 27 100 26 101
REMARK H PARENT 3 9 91 27 59 38 10 78
REMARK Flexibility Score: inf
ROOT
ATOM      1  C   UNL A   1      35.331  32.039  28.041  1.00  0.00     0.021 C 
ENDROOT
BRANCH   1   2
ATOM      2  C   UNL A   1      35.058  33.182  29.036  1.00  0.00     0.002 C 
BRANCH   2   3
ATOM      3  C   UNL A   1      35.123  34.602  28.463  1.00  0.00     0.002 C 
BRANCH   3   4
ATOM      4  C   UNL A   1      33.965  35.518  28.855  1.00  0.00     0.021 C 
BRANCH   4   5
ATOM      5  C   UNL A   1      32.873  34.856  29.685  1.00  0.00     0.116 C 
BRANCH   5   6
ATOM      6  N   UNL A   1      32.384  35.704  30.758  1.00  0.00    -0.352 N 
ATOM      7  O   UNL A   1      32.223  36.452  32.885  1.00  0.00    -0.269 OA
ATOM      8  C   UNL A   1      32.831  35.791  32.060  1.00  0.00     0.251 C 
ATOM      9  H   UNL A   1      31.633  36.297  30.525  1.00  0.00     0.163 HD
BRANCH   8  10
ATOM     10  C   UNL A   1      34.050  35.049  32.453  1.00  0.00     0.039 A 
ATOM     11  C   UNL A   1      35.315  35.617  32.279  1.00  0.00     0.014 A 
ATOM     12  C   UNL A   1      33.922  33.770  33.000  1.00  0.00     0.014 A 
ATOM     13  C   UNL A   1      36.452  34.857  32.523  1.00  0.00     0.010 A 
ATOM     14  C   UNL A   1      35.068  33.040  33.330  1.00  0.00     0.010 A 
ATOM     15  C   UNL A   1      36.342  33.570  33.074  1.00  0.00    -0.014 A 
BRANCH  15  16
ATOM     16  C   UNL A   1      37.574  32.835  33.458  1.00  0.00     0.031 A 
ATOM     17  C   UNL A   1      38.288  33.126  34.747  1.00  0.00     0.074 A 
ATOM     18  C   UNL A   1      38.040  31.889  32.622  1.00  0.00     0.049 A 
ATOM     19  N   UNL A   1      39.384  32.587  35.222  1.00  0.00    -0.248 NA
ATOM     20  C   UNL A   1      37.705  34.161  35.615  1.00  0.00     0.031 C 
ATOM     21  C   UNL A   1      37.433  31.530  31.338  1.00  0.00     0.029 A 
ATOM     22  N   UNL A   1      39.122  31.053  32.722  1.00  0.00    -0.354 N 
ATOM     23  C   UNL A   1      39.632  33.224  36.430  1.00  0.00     0.074 A 
ATOM     24  C   UNL A   1      38.584  34.210  36.607  1.00  0.00     0.031 C 
ATOM     25  C   UNL A   1      38.130  30.528  30.785  1.00  0.00     0.029 A 
ATOM     26  C   UNL A   1      39.271  30.221  31.639  1.00  0.00     0.049 A 
ATOM     27  H   UNL A   1      39.733  31.049  33.494  1.00  0.00     0.167 HD
ATOM     28  C   UNL A   1      40.638  33.000  37.310  1.00  0.00     0.037 A 
ATOM     29  C   UNL A   1      40.236  29.330  31.347  1.00  0.00     0.037 A 
ATOM     30  C   UNL A   1      41.670  32.010  37.124  1.00  0.00     0.049 A 
ATOM     31  C   UNL A   1      41.363  29.137  32.320  1.00  0.00     0.074 A 
ATOM     32  C   UNL A   1      42.707  31.675  37.978  1.00  0.00     0.029 A 
ATOM     33  N   UNL A   1      41.805  31.207  36.000  1.00  0.00    -0.354 N 
ATOM     34  N   UNL A   1      41.559  29.709  33.483  1.00  0.00    -0.248 NA
ATOM     35  C   UNL A   1      42.406  28.175  31.940  1.00  0.00     0.031 C 
ATOM     36  C   UNL A   1      43.502  30.713  37.347  1.00  0.00     0.029 A 
ATOM     37  C   UNL A   1      42.927  30.401  36.125  1.00  0.00     0.049 A 
ATOM     38  H   UNL A   1      41.194  31.208  35.228  1.00  0.00     0.167 HD
ATOM     39  C   UNL A   1      42.734  29.166  33.982  1.00  0.00     0.074 A 
ATOM     40  C   UNL A   1      43.194  28.202  33.005  1.00  0.00     0.031 C 
ATOM     41  C   UNL A   1      43.373  29.445  35.143  1.00  0.00     0.037 A 
BRANCH  28  42
ATOM     42  C   UNL A   1      40.694  33.850  38.547  1.00  0.00     0.064 A 
ATOM     43  C   UNL A   1      41.459  35.026  38.603  1.00  0.00     0.173 A 
ATOM     44  C   UNL A   1      39.926  33.517  39.674  1.00  0.00     0.173 A 
ATOM     45  F   UNL A   1      42.219  35.388  37.558  1.00  0.00    -0.203 F 
ATOM     46  C   UNL A   1      41.471  35.821  39.747  1.00  0.00     0.198 A 
ATOM     47  C   UNL A   1      39.915  34.330  40.804  1.00  0.00     0.198 A 
ATOM     48  F   UNL A   1      39.168  32.409  39.671  1.00  0.00    -0.203 F 
ATOM     49  F   UNL A   1      42.241  36.917  39.792  1.00  0.00    -0.200 F 
ATOM     50  C   UNL A   1      40.693  35.477  40.843  1.00  0.00     0.200 A 
ATOM     51  F   UNL A   1      39.151  34.004  41.855  1.00  0.00    -0.200 F 
ATOM     52  F   UNL A   1      40.696  36.249  41.939  1.00  0.00    -0.200 F 
ENDBRANCH  28  42
BRANCH  29  53
ATOM     53  C   UNL A   1      40.182  28.576  30.068  1.00  0.00     0.064 A 
ATOM     54  C   UNL A   1      39.538  27.335  29.988  1.00  0.00     0.173 A 
ATOM     55  C   UNL A   1      40.765  29.086  28.898  1.00  0.00     0.173 A 
ATOM     56  F   UNL A   1      38.980  26.797  31.083  1.00  0.00    -0.203 F 
ATOM     57  C   UNL A   1      39.494  26.624  28.790  1.00  0.00     0.198 A 
ATOM     58  C   UNL A   1      40.691  28.391  27.694  1.00  0.00     0.198 A 
ATOM     59  F   UNL A   1      41.386  30.274  28.920  1.00  0.00    -0.203 F 
ATOM     60  F   UNL A   1      38.912  25.418  28.751  1.00  0.00    -0.200 F 
ATOM     61  C   UNL A   1      40.064  27.156  27.644  1.00  0.00     0.200 A 
ATOM     62  F   UNL A   1      41.225  28.919  26.584  1.00  0.00    -0.200 F 
ATOM     63  F   UNL A   1      40.015  26.475  26.491  1.00  0.00    -0.200 F 
ENDBRANCH  29  53
BRANCH  41  64
ATOM     64  C   UNL A   1      44.629  28.673  35.434  1.00  0.00     0.064 A 
ATOM     65  C   UNL A   1      45.892  29.154  35.062  1.00  0.00     0.173 A 
ATOM     66  C   UNL A   1      44.567  27.452  36.124  1.00  0.00     0.173 A 
ATOM     67  F   UNL A   1      46.003  30.307  34.384  1.00  0.00    -0.203 F 
ATOM     68  C   UNL A   1      47.046  28.430  35.348  1.00  0.00     0.198 A 
ATOM     69  C   UNL A   1      45.724  26.747  36.436  1.00  0.00     0.198 A 
ATOM     70  F   UNL A   1      43.382  26.950  36.505  1.00  0.00    -0.203 F 
ATOM     71  F   UNL A   1      48.238  28.884  34.939  1.00  0.00    -0.200 F 
ATOM     72  C   UNL A   1      46.962  27.232  36.042  1.00  0.00     0.200 A 
ATOM     73  F   UNL A   1      45.643  25.597  37.119  1.00  0.00    -0.200 F 
ATOM     74  F   UNL A   1      48.075  26.540  36.324  1.00  0.00    -0.200 F 
ENDBRANCH  41  64
ENDBRANCH  15  16
ENDBRANCH   8  10
ENDBRANCH   5   6
ENDBRANCH   4   5
ENDBRANCH   3   4
ENDBRANCH   2   3
ENDBRANCH   1   2
BRANCH   1  75
ATOM     75  C   UNL A   1      34.099  31.228  27.628  1.00  0.00     0.116 C 
BRANCH  75  76
ATOM     76  N   UNL A   1      34.475  30.163  26.722  1.00  0.00    -0.356 N 
ATOM     77  C   UNL A   1      33.753  29.308  25.954  1.00  0.00     0.225 C 
ATOM     78  H   UNL A   1      35.449  30.032  26.648  1.00  0.00     0.163 HD
ATOM     79  O   UNL A   1      34.383  28.371  25.465  1.00  0.00    -0.275 OA
BRANCH  77  80
ATOM     80  C   UNL A   1      32.261  29.527  25.691  1.00  0.00     0.109 C 
ATOM     81  C   UNL A   1      31.433  29.357  26.958  1.00  0.00     0.026 C 
ATOM     82  C   UNL A   1      31.749  28.554  24.614  1.00  0.00     0.164 C 
ATOM     83  C   UNL A   1      31.431  27.928  27.464  1.00  0.00     0.101 C 
ATOM     84  N   UNL A   1      31.526  27.163  25.068  1.00  0.00    -0.332 N 
ATOM     85  C   UNL A   1      31.425  26.833  26.421  1.00  0.00     0.223 C 
ATOM     86  O   UNL A   1      31.365  25.661  26.808  1.00  0.00    -0.275 OA
BRANCH  82  87
ATOM     87  C   UNL A   1      30.534  29.086  23.903  1.00  0.00     0.127 A 
ATOM     88  C   UNL A   1      29.560  28.461  23.146  1.00  0.00     0.048 A 
ATOM     89  O   UNL A   1      30.209  30.400  24.071  1.00  0.00    -0.467 OA
ATOM     90  C   UNL A   1      28.559  29.430  22.901  1.00  0.00     0.042 A 
ATOM     91  C   UNL A   1      28.997  30.590  23.492  1.00  0.00     0.195 A 
ENDBRANCH  82  87
BRANCH  84  92
ATOM     92  C   UNL A   1      31.554  25.999  24.147  1.00  0.00     0.122 C 
BRANCH  92  93
ATOM     93  C   UNL A   1      32.556  25.860  22.992  1.00  0.00     0.050 C 
BRANCH  93  94
ATOM     94  C   UNL A   1      33.088  24.484  22.579  1.00  0.00     0.162 C 
BRANCH  94  95
ATOM     95  O   UNL A   1      34.501  24.293  22.648  1.00  0.00    -0.378 OA
BRANCH  95  96
ATOM     96  C   UNL A   1      35.100  23.471  23.659  1.00  0.00     0.118 C 
ATOM     97  C   UNL A   1      36.438  22.833  23.291  1.00  0.00     0.032 C 
ATOM     98  C   UNL A   1      35.095  24.249  24.978  1.00  0.00     0.032 C 
ATOM     99  C   UNL A   1      37.287  22.309  24.438  1.00  0.00     0.003 C 
ATOM    100  C   UNL A   1      35.893  23.564  26.079  1.00  0.00     0.003 C 
ATOM    101  C   UNL A   1      37.310  23.263  25.623  1.00  0.00     0.000 C 
ENDBRANCH  95  96
ENDBRANCH  94  95
ENDBRANCH  93  94
ENDBRANCH  92  93
ENDBRANCH  84  92
ENDBRANCH  77  80
ENDBRANCH  75  76
ENDBRANCH   1  75
TORSDOF 19
ENDMDL
MODEL 2
REMARK VINA RESULT:     -11.5      1.246      2.573
REMARK SMILES O=C(NCCCCCCNC(=O)[C@@H]1CCC(=O)N(CCCOC2CCCCC2)[C@H]1c1ccco1)c1ccc(-c2c3nc(c(-c4c(F)c(F)c(F)c(F)c4F)c4ccc([nH]4)c(-c4c(F)c(F)c(F)c(F)c4F)c4nc(c(-c5c(F)c(F)c(F)c(F)c5F)c5ccc2[nH]5)C=C4)C=C3)cc1
REMARK SMILES IDX 8 1 7 2 6 3 5 4 4 5 3 6 1 7 2 8 35 10 36 11 97 12 37 13
REMARK SMILES IDX 96 14 38 15 39 16 40 17 90 18 41 19 95 20 89 21 91 22 42 23
REMARK SMILES IDX 94 24 88 25 87 26 43 28 75 29 55 30 74 31 56 32 59 33 73 34
REMARK SMILES IDX 92 35 57 36 58 37 72 39 93 40 60 41 44 42 45 43 53 44 46 45
REMARK SMILES IDX 47 46 51 47 54 48 48 49 49 50 52 51 50 52 76 53 77 54 85 55
REMARK SMILES IDX 78 56 79 57 83 58 86 59 80 60 81 61 84 62 82 63 61 64 62 65
REMARK SMILES IDX 70 66 63 67 64 68 68 69 71 70 65 71 66 72 69 73 67 74 9 75
REMARK SMILES IDX 10 76 11 77 12 79 13 80 14 81 29 82 15 83 18 84 16 85 17 86
REMARK SMILES IDX 30 87 31 88 34 89 32 90 33 91 19 92 20 93 21 94 22 95 23 96
REMARK SMILES IDX 24 97 28 98 25 99 27 100 26 101
REMARK H PARENT 3 9 91 27 59 38 10 78
REMARK Flexibility Score: inf
ROOT
ATOM      1  C   UNL A   1      34.983  31.424  28.428  1.00  0.00     0.021 C 
ENDROOT
BRANCH   1   2
ATOM      2  C   UNL A   1      34.830  32.918  28.083  1.00  0.00     0.002 C 
BRANCH   2   3
ATOM      3  C   UNL A   1      34.503  33.848  29.257  1.00  0.00     0.002 C 
BRANCH   3   4
ATOM      4  C   UNL A   1      33.270  34.730  29.067  1.00  0.00     0.021 C 
BRANCH   4   5
ATOM      5  C   UNL A   1      33.352  36.101  29.726  1.00  0.00     0.116 C 
BRANCH   5   6
ATOM      6  N   UNL A   1      32.433  36.251  30.841  1.00  0.00    -0.352 N 
ATOM      7  O   UNL A   1      31.602  35.827  32.900  1.00  0.00    -0.269 OA
ATOM      8  C   UNL A   1      32.528  35.729  32.114  1.00  0.00     0.251 C 
ATOM      9  H   UNL A   1      31.635  36.800  30.665  1.00  0.00     0.163 HD
BRANCH   8  10
ATOM     10  C   UNL A   1      33.767  35.020  32.509  1.00  0.00     0.039 A 
ATOM     11  C   UNL A   1      35.009  35.654  32.417  1.00  0.00     0.014 A 
ATOM     12  C   UNL A   1      33.681  33.706  32.975  1.00  0.00     0.014 A 
ATOM     13  C   UNL A   1      36.172  34.933  32.661  1.00  0.00     0.010 A 
ATOM     14  C   UNL A   1      34.847  33.010  33.306  1.00  0.00     0.010 A 
ATOM     15  C   UNL A   1      36.103  33.611  33.130  1.00  0.00    -0.014 A 
BRANCH  15  16
ATOM     16  C   UNL A   1      37.354  32.911  33.518  1.00  0.00     0.031 A 
ATOM     17  C   UNL A   1      38.047  33.210  34.816  1.00  0.00     0.074 A 
ATOM     18  C   UNL A   1      37.857  31.989  32.676  1.00  0.00     0.049 A 
ATOM     19  N   UNL A   1      39.155  32.701  35.295  1.00  0.00    -0.248 NA
ATOM     20  C   UNL A   1      37.424  34.216  35.690  1.00  0.00     0.031 C 
ATOM     21  C   UNL A   1      37.272  31.625  31.383  1.00  0.00     0.029 A 
ATOM     22  N   UNL A   1      38.963  31.186  32.777  1.00  0.00    -0.354 N 
ATOM     23  C   UNL A   1      39.372  33.332  36.512  1.00  0.00     0.074 A 
ATOM     24  C   UNL A   1      38.293  34.282  36.690  1.00  0.00     0.031 C 
ATOM     25  C   UNL A   1      38.005  30.651  30.826  1.00  0.00     0.029 A 
ATOM     26  C   UNL A   1      39.147  30.371  31.687  1.00  0.00     0.049 A 
ATOM     27  H   UNL A   1      39.567  31.193  33.554  1.00  0.00     0.167 HD
ATOM     28  C   UNL A   1      40.377  33.130  37.398  1.00  0.00     0.037 A 
ATOM     29  C   UNL A   1      40.143  29.514  31.394  1.00  0.00     0.037 A 
ATOM     30  C   UNL A   1      41.442  32.175  37.212  1.00  0.00     0.049 A 
ATOM     31  C   UNL A   1      41.267  29.345  32.375  1.00  0.00     0.074 A 
ATOM     32  C   UNL A   1      42.481  31.862  38.072  1.00  0.00     0.029 A 
ATOM     33  N   UNL A   1      41.612  31.388  36.081  1.00  0.00    -0.354 N 
ATOM     34  N   UNL A   1      41.434  29.911  33.546  1.00  0.00    -0.248 NA
ATOM     35  C   UNL A   1      42.342  28.421  31.994  1.00  0.00     0.031 C 
ATOM     36  C   UNL A   1      43.311  30.932  37.437  1.00  0.00     0.029 A 
ATOM     37  C   UNL A   1      42.757  30.616  36.207  1.00  0.00     0.049 A 
ATOM     38  H   UNL A   1      41.008  31.378  35.303  1.00  0.00     0.167 HD
ATOM     39  C   UNL A   1      42.621  29.399  34.049  1.00  0.00     0.074 A 
ATOM     40  C   UNL A   1      43.120  28.460  33.067  1.00  0.00     0.031 C 
ATOM     41  C   UNL A   1      43.241  29.685  35.219  1.00  0.00     0.037 A 
BRANCH  28  42
ATOM     42  C   UNL A   1      40.396  33.968  38.645  1.00  0.00     0.064 A 
ATOM     43  C   UNL A   1      41.085  35.189  38.706  1.00  0.00     0.173 A 
ATOM     44  C   UNL A   1      39.666  33.573  39.777  1.00  0.00     0.173 A 
ATOM     45  F   UNL A   1      41.807  35.610  37.656  1.00  0.00    -0.203 F 
ATOM     46  C   UNL A   1      41.062  35.970  39.859  1.00  0.00     0.198 A 
ATOM     47  C   UNL A   1      39.619  34.371  40.918  1.00  0.00     0.198 A 
ATOM     48  F   UNL A   1      38.980  32.420  39.771  1.00  0.00    -0.203 F 
ATOM     49  F   UNL A   1      41.761  37.112  39.907  1.00  0.00    -0.200 F 
ATOM     50  C   UNL A   1      40.322  35.565  40.960  1.00  0.00     0.200 A 
ATOM     51  F   UNL A   1      38.891  33.985  41.975  1.00  0.00    -0.200 F 
ATOM     52  F   UNL A   1      40.292  36.323  42.065  1.00  0.00    -0.200 F 
ENDBRANCH  28  42
BRANCH  29  53
ATOM     53  C   UNL A   1      40.123  28.772  30.107  1.00  0.00     0.064 A 
ATOM     54  C   UNL A   1      39.498  27.523  30.002  1.00  0.00     0.173 A 
ATOM     55  C   UNL A   1      40.721  29.302  28.953  1.00  0.00     0.173 A 
ATOM     56  F   UNL A   1      38.928  26.967  31.081  1.00  0.00    -0.203 F 
ATOM     57  C   UNL A   1      39.488  26.824  28.796  1.00  0.00     0.198 A 
ATOM     58  C   UNL A   1      40.679  28.619  27.741  1.00  0.00     0.198 A 
ATOM     59  F   UNL A   1      41.324  30.499  28.999  1.00  0.00    -0.203 F 
ATOM     60  F   UNL A   1      38.923  25.611  28.735  1.00  0.00    -0.200 F 
ATOM     61  C   UNL A   1      40.071  27.376  27.667  1.00  0.00     0.200 A 
ATOM     62  F   UNL A   1      41.227  29.166  26.647  1.00  0.00    -0.200 F 
ATOM     63  F   UNL A   1      40.054  26.706  26.506  1.00  0.00    -0.200 F 
ENDBRANCH  29  53
BRANCH  41  64
ATOM     64  C   UNL A   1      44.517  28.950  35.514  1.00  0.00     0.064 A 
ATOM     65  C   UNL A   1      44.518  27.711  36.172  1.00  0.00     0.173 A 
ATOM     66  C   UNL A   1      45.751  29.477  35.102  1.00  0.00     0.173 A 
ATOM     67  F   UNL A   1      43.366  27.174  36.603  1.00  0.00    -0.203 F 
ATOM     68  C   UNL A   1      45.710  27.039  36.429  1.00  0.00     0.198 A 
ATOM     69  C   UNL A   1      46.938  28.786  35.332  1.00  0.00     0.198 A 
ATOM     70  F   UNL A   1      45.804  30.656  34.466  1.00  0.00    -0.203 F 
ATOM     71  F   UNL A   1      45.692  25.882  37.104  1.00  0.00    -0.200 F 
ATOM     72  C   UNL A   1      46.916  27.572  36.002  1.00  0.00     0.200 A 
ATOM     73  F   UNL A   1      48.101  29.296  34.906  1.00  0.00    -0.200 F 
ATOM     74  F   UNL A   1      48.063  26.920  36.242  1.00  0.00    -0.200 F 
ENDBRANCH  41  64
ENDBRANCH  15  16
ENDBRANCH   8  10
ENDBRANCH   5   6
ENDBRANCH   4   5
ENDBRANCH   3   4
ENDBRANCH   2   3
ENDBRANCH   1   2
BRANCH   1  75
ATOM     75  C   UNL A   1      34.620  30.456  27.298  1.00  0.00     0.116 C 
BRANCH  75  76
ATOM     76  N   UNL A   1      33.480  29.646  27.674  1.00  0.00    -0.356 N 
ATOM     77  C   UNL A   1      32.876  28.579  27.092  1.00  0.00     0.225 C 
ATOM     78  H   UNL A   1      33.059  29.924  28.520  1.00  0.00     0.163 HD
ATOM     79  O   UNL A   1      31.785  28.261  27.567  1.00  0.00    -0.275 OA
BRANCH  77  80
ATOM     80  C   UNL A   1      33.534  27.808  25.946  1.00  0.00     0.109 C 
ATOM     81  C   UNL A   1      33.686  28.669  24.698  1.00  0.00     0.026 C 
ATOM     82  C   UNL A   1      32.720  26.548  25.598  1.00  0.00     0.164 C 
ATOM     83  C   UNL A   1      32.352  29.031  24.075  1.00  0.00     0.101 C 
ATOM     84  N   UNL A   1      31.488  26.784  24.812  1.00  0.00    -0.332 N 
ATOM     85  C   UNL A   1      31.267  27.978  24.124  1.00  0.00     0.223 C 
ATOM     86  O   UNL A   1      30.190  28.228  23.571  1.00  0.00    -0.275 OA
BRANCH  82  87
ATOM     87  C   UNL A   1      33.570  25.485  24.956  1.00  0.00     0.127 A 
ATOM     88  C   UNL A   1      33.508  24.879  23.715  1.00  0.00     0.048 A 
ATOM     89  O   UNL A   1      34.687  25.062  25.615  1.00  0.00    -0.467 OA
ATOM     90  C   UNL A   1      34.683  24.102  23.588  1.00  0.00     0.042 A 
ATOM     91  C   UNL A   1      35.371  24.254  24.767  1.00  0.00     0.195 A 
ENDBRANCH  82  87
BRANCH  84  92
ATOM     92  C   UNL A   1      30.333  25.852  24.823  1.00  0.00     0.122 C 
BRANCH  92  93
ATOM     93  C   UNL A   1      29.626  25.399  26.108  1.00  0.00     0.050 C 
BRANCH  93  94
ATOM     94  C   UNL A   1      29.893  24.012  26.702  1.00  0.00     0.162 C 
BRANCH  94  95
ATOM     95  O   UNL A   1      31.196  23.782  27.238  1.00  0.00    -0.378 OA
BRANCH  95  96
ATOM     96  C   UNL A   1      31.879  22.536  27.045  1.00  0.00     0.118 C 
ATOM     97  C   UNL A   1      31.855  21.978  25.623  1.00  0.00     0.032 C 
ATOM     98  C   UNL A   1      33.270  22.646  27.675  1.00  0.00     0.032 C 
ATOM     99  C   UNL A   1      32.882  20.908  25.289  1.00  0.00     0.003 C 
ATOM    100  C   UNL A   1      34.167  21.458  27.352  1.00  0.00     0.003 C 
ATOM    101  C   UNL A   1      34.258  21.230  25.853  1.00  0.00     0.000 C 
ENDBRANCH  95  96
ENDBRANCH  94  95
ENDBRANCH  93  94
ENDBRANCH  92  93
ENDBRANCH  84  92
ENDBRANCH  77  80
ENDBRANCH  75  76
ENDBRANCH   1  75
TORSDOF 19
ENDMDL
MODEL 3
REMARK VINA RESULT:     -11.4      2.147      3.653
REMARK SMILES O=C(NCCCCCCNC(=O)[C@@H]1CCC(=O)N(CCCOC2CCCCC2)[C@H]1c1ccco1)c1ccc(-c2c3nc(c(-c4c(F)c(F)c(F)c(F)c4F)c4ccc([nH]4)c(-c4c(F)c(F)c(F)c(F)c4F)c4nc(c(-c5c(F)c(F)c(F)c(F)c5F)c5ccc2[nH]5)C=C4)C=C3)cc1
REMARK SMILES IDX 8 1 7 2 6 3 5 4 4 5 3 6 1 7 2 8 35 10 36 11 97 12 37 13
REMARK SMILES IDX 96 14 38 15 39 16 40 17 90 18 41 19 95 20 89 21 91 22 42 23
REMARK SMILES IDX 94 24 88 25 87 26 43 28 75 29 55 30 74 31 56 32 59 33 73 34
REMARK SMILES IDX 92 35 57 36 58 37 72 39 93 40 60 41 44 42 45 43 53 44 46 45
REMARK SMILES IDX 47 46 51 47 54 48 48 49 49 50 52 51 50 52 76 53 77 54 85 55
REMARK SMILES IDX 78 56 79 57 83 58 86 59 80 60 81 61 84 62 82 63 61 64 62 65
REMARK SMILES IDX 70 66 63 67 64 68 68 69 71 70 65 71 66 72 69 73 67 74 9 75
REMARK SMILES IDX 10 76 11 77 12 79 13 80 14 81 29 82 15 83 18 84 16 85 17 86
REMARK SMILES IDX 30 87 31 88 34 89 32 90 33 91 19 92 20 93 21 94 22 95 23 96
REMARK SMILES IDX 24 97 28 98 25 99 27 100 26 101
REMARK H PARENT 3 9 91 27 59 38 10 78
REMARK Flexibility Score: inf
ROOT
ATOM      1  C   UNL A   1      33.605  29.185  26.343  1.00  0.00     0.021 C 
ENDROOT
BRANCH   1   2
ATOM      2  C   UNL A   1      32.451  29.898  27.073  1.00  0.00     0.002 C 
BRANCH   2   3
ATOM      3  C   UNL A   1      31.549  30.781  26.204  1.00  0.00     0.002 C 
BRANCH   3   4
ATOM      4  C   UNL A   1      31.406  32.228  26.672  1.00  0.00     0.021 C 
BRANCH   4   5
ATOM      5  C   UNL A   1      32.705  32.898  27.102  1.00  0.00     0.116 C 
BRANCH   5   6
ATOM      6  N   UNL A   1      32.505  34.232  27.640  1.00  0.00    -0.352 N 
ATOM      7  O   UNL A   1      32.760  35.916  29.126  1.00  0.00    -0.269 OA
ATOM      8  C   UNL A   1      33.139  34.837  28.705  1.00  0.00     0.251 C 
ATOM      9  H   UNL A   1      31.826  34.778  27.183  1.00  0.00     0.163 HD
BRANCH   8  10
ATOM     10  C   UNL A   1      34.278  34.145  29.351  1.00  0.00     0.039 A 
ATOM     11  C   UNL A   1      35.584  34.349  28.898  1.00  0.00     0.014 A 
ATOM     12  C   UNL A   1      34.031  33.281  30.421  1.00  0.00     0.014 A 
ATOM     13  C   UNL A   1      36.623  33.590  29.422  1.00  0.00     0.010 A 
ATOM     14  C   UNL A   1      35.092  32.584  31.008  1.00  0.00     0.010 A 
ATOM     15  C   UNL A   1      36.393  32.718  30.498  1.00  0.00    -0.014 A 
BRANCH  15  16
ATOM     16  C   UNL A   1      37.544  32.026  31.133  1.00  0.00     0.031 A 
ATOM     17  C   UNL A   1      38.003  32.383  32.517  1.00  0.00     0.074 A 
ATOM     18  C   UNL A   1      38.171  31.059  30.437  1.00  0.00     0.049 A 
ATOM     19  N   UNL A   1      39.001  31.887  33.208  1.00  0.00    -0.248 NA
ATOM     20  C   UNL A   1      37.254  33.436  33.220  1.00  0.00     0.031 C 
ATOM     21  C   UNL A   1      37.817  30.638  29.080  1.00  0.00     0.029 A 
ATOM     22  N   UNL A   1      39.229  30.253  30.768  1.00  0.00    -0.354 N 
ATOM     23  C   UNL A   1      39.012  32.575  34.413  1.00  0.00     0.074 A 
ATOM     24  C   UNL A   1      37.934  33.543  34.354  1.00  0.00     0.031 C 
ATOM     25  C   UNL A   1      38.619  29.631  28.706  1.00  0.00     0.029 A 
ATOM     26  C   UNL A   1      39.587  29.384  29.768  1.00  0.00     0.049 A 
ATOM     27  H   UNL A   1      39.687  30.292  31.639  1.00  0.00     0.167 HD
ATOM     28  C   UNL A   1      39.841  32.408  35.471  1.00  0.00     0.037 A 
ATOM     29  C   UNL A   1      40.604  28.504  29.695  1.00  0.00     0.037 A 
ATOM     30  C   UNL A   1      40.906  31.436  35.520  1.00  0.00     0.049 A 
ATOM     31  C   UNL A   1      41.534  28.374  30.866  1.00  0.00     0.074 A 
ATOM     32  C   UNL A   1      41.772  31.156  36.564  1.00  0.00     0.029 A 
ATOM     33  N   UNL A   1      41.258  30.593  34.475  1.00  0.00    -0.354 N 
ATOM     34  N   UNL A   1      41.503  28.995  32.020  1.00  0.00    -0.248 NA
ATOM     35  C   UNL A   1      42.644  27.423  30.725  1.00  0.00     0.031 C 
ATOM     36  C   UNL A   1      42.685  30.189  36.130  1.00  0.00     0.029 A 
ATOM     37  C   UNL A   1      42.350  29.818  34.837  1.00  0.00     0.049 A 
ATOM     38  H   UNL A   1      40.800  30.550  33.605  1.00  0.00     0.167 HD
ATOM     39  C   UNL A   1      42.574  28.498  32.749  1.00  0.00     0.074 A 
ATOM     40  C   UNL A   1      43.222  27.508  31.914  1.00  0.00     0.031 C 
ATOM     41  C   UNL A   1      42.984  28.836  33.995  1.00  0.00     0.037 A 
BRANCH  28  42
ATOM     42  C   UNL A   1      39.656  33.306  36.661  1.00  0.00     0.064 A 
ATOM     43  C   UNL A   1      40.341  34.524  36.784  1.00  0.00     0.173 A 
ATOM     44  C   UNL A   1      38.734  32.971  37.666  1.00  0.00     0.173 A 
ATOM     45  F   UNL A   1      41.240  34.890  35.856  1.00  0.00    -0.203 F 
ATOM     46  C   UNL A   1      40.129  35.361  37.877  1.00  0.00     0.198 A 
ATOM     47  C   UNL A   1      38.501  33.825  38.743  1.00  0.00     0.198 A 
ATOM     48  F   UNL A   1      38.044  31.823  37.596  1.00  0.00    -0.203 F 
ATOM     49  F   UNL A   1      40.825  36.500  37.992  1.00  0.00    -0.200 F 
ATOM     50  C   UNL A   1      39.204  35.015  38.850  1.00  0.00     0.200 A 
ATOM     51  F   UNL A   1      37.595  33.495  39.673  1.00  0.00    -0.200 F 
ATOM     52  F   UNL A   1      38.992  35.826  39.896  1.00  0.00    -0.200 F 
ENDBRANCH  28  42
BRANCH  29  53
ATOM     53  C   UNL A   1      40.798  27.701  28.461  1.00  0.00     0.064 A 
ATOM     54  C   UNL A   1      40.167  26.461  28.299  1.00  0.00     0.173 A 
ATOM     55  C   UNL A   1      41.611  28.162  27.414  1.00  0.00     0.173 A 
ATOM     56  F   UNL A   1      39.393  25.970  29.279  1.00  0.00    -0.203 F 
ATOM     57  C   UNL A   1      40.356  25.703  27.144  1.00  0.00     0.198 A 
ATOM     58  C   UNL A   1      41.771  27.421  26.246  1.00  0.00     0.198 A 
ATOM     59  F   UNL A   1      42.230  29.347  27.516  1.00  0.00    -0.203 F 
ATOM     60  F   UNL A   1      39.778  24.501  27.034  1.00  0.00    -0.200 F 
ATOM     61  C   UNL A   1      41.152  26.187  26.118  1.00  0.00     0.200 A 
ATOM     62  F   UNL A   1      42.525  27.901  25.248  1.00  0.00    -0.200 F 
ATOM     63  F   UNL A   1      41.327  25.461  25.004  1.00  0.00    -0.200 F 
ENDBRANCH  29  53
BRANCH  41  64
ATOM     64  C   UNL A   1      44.176  28.104  34.544  1.00  0.00     0.064 A 
ATOM     65  C   UNL A   1      45.477  28.612  34.412  1.00  0.00     0.173 A 
ATOM     66  C   UNL A   1      44.008  26.896  35.239  1.00  0.00     0.173 A 
ATOM     67  F   UNL A   1      45.691  29.753  33.740  1.00  0.00    -0.203 F 
ATOM     68  C   UNL A   1      46.568  27.925  34.935  1.00  0.00     0.198 A 
ATOM     69  C   UNL A   1      45.099  26.229  35.789  1.00  0.00     0.198 A 
ATOM     70  F   UNL A   1      42.784  26.371  35.396  1.00  0.00    -0.203 F 
ATOM     71  F   UNL A   1      47.807  28.402  34.754  1.00  0.00    -0.200 F 
ATOM     72  C   UNL A   1      46.378  26.740  35.629  1.00  0.00     0.200 A 
ATOM     73  F   UNL A   1      44.911  25.092  36.471  1.00  0.00    -0.200 F 
ATOM     74  F   UNL A   1      47.430  26.084  36.140  1.00  0.00    -0.200 F 
ENDBRANCH  41  64
ENDBRANCH  15  16
ENDBRANCH   8  10
ENDBRANCH   5   6
ENDBRANCH   4   5
ENDBRANCH   3   4
ENDBRANCH   2   3
ENDBRANCH   1   2
BRANCH   1  75
ATOM     75  C   UNL A   1      33.419  27.678  26.148  1.00  0.00     0.116 C 
BRANCH  75  76
ATOM     76  N   UNL A   1      32.126  27.401  25.558  1.00  0.00    -0.356 N 
ATOM     77  C   UNL A   1      31.726  26.569  24.563  1.00  0.00     0.225 C 
ATOM     78  H   UNL A   1      31.390  27.919  25.958  1.00  0.00     0.163 HD
ATOM     79  O   UNL A   1      30.577  26.740  24.157  1.00  0.00    -0.275 OA
BRANCH  77  80
ATOM     80  C   UNL A   1      32.641  25.471  24.016  1.00  0.00     0.109 C 
ATOM     81  C   UNL A   1      31.884  24.497  23.122  1.00  0.00     0.026 C 
ATOM     82  C   UNL A   1      33.308  24.694  25.165  1.00  0.00     0.164 C 
ATOM     83  C   UNL A   1      30.870  23.672  23.889  1.00  0.00     0.101 C 
ATOM     84  N   UNL A   1      32.442  23.711  25.855  1.00  0.00    -0.332 N 
ATOM     85  C   UNL A   1      31.251  23.251  25.291  1.00  0.00     0.223 C 
ATOM     86  O   UNL A   1      30.465  22.529  25.915  1.00  0.00    -0.275 OA
BRANCH  82  87
ATOM     87  C   UNL A   1      34.605  24.060  24.740  1.00  0.00     0.127 A 
ATOM     88  C   UNL A   1      35.012  23.503  23.542  1.00  0.00     0.048 A 
ATOM     89  O   UNL A   1      35.657  24.092  25.609  1.00  0.00    -0.467 OA
ATOM     90  C   UNL A   1      36.397  23.248  23.667  1.00  0.00     0.042 A 
ATOM     91  C   UNL A   1      36.743  23.631  24.940  1.00  0.00     0.195 A 
ENDBRANCH  82  87
BRANCH  84  92
ATOM     92  C   UNL A   1      32.681  23.264  27.250  1.00  0.00     0.122 C 
BRANCH  92  93
ATOM     93  C   UNL A   1      33.631  22.116  27.617  1.00  0.00     0.050 C 
BRANCH  93  94
ATOM     94  C   UNL A   1      33.646  20.820  26.800  1.00  0.00     0.162 C 
BRANCH  94  95
ATOM     95  O   UNL A   1      34.579  20.750  25.722  1.00  0.00    -0.378 OA
BRANCH  95  96
ATOM     96  C   UNL A   1      34.305  19.986  24.540  1.00  0.00     0.118 C 
ATOM     97  C   UNL A   1      34.607  18.491  24.630  1.00  0.00     0.032 C 
ATOM     98  C   UNL A   1      32.895  20.335  24.057  1.00  0.00     0.032 C 
ATOM     99  C   UNL A   1      33.965  17.597  23.581  1.00  0.00     0.003 C 
ATOM    100  C   UNL A   1      32.410  19.432  22.929  1.00  0.00     0.003 C 
ATOM    101  C   UNL A   1      32.513  17.967  23.315  1.00  0.00     0.000 C 
ENDBRANCH  95  96
ENDBRANCH  94  95
ENDBRANCH  93  94
ENDBRANCH  92  93
ENDBRANCH  84  92
ENDBRANCH  77  80
ENDBRANCH  75  76
ENDBRANCH   1  75
TORSDOF 19
ENDMDL
