MODEL 1
REMARK VINA RESULT:     -11.7      0.000      0.000
REMARK SMILES C/C=C/C[N@H+]1CCC[C@H](C(=O)NCCCCCCNC(=O)c2ccc(-c3c4nc(c(-c5c(F)c(F)c(F)c(F)c5F)c5ccc([nH]5)c(-c5c(F)c(F)c(F)c(F)c5F)c5nc(c(-c6c(F)c(F)c(F)c(F)c6F)c6ccc3[nH]6)C=C5)C=C4)cc2)C1
REMARK SMILES IDX 15 1 14 2 13 3 12 4 10 5 11 6 9 8 5 9 6 10 85 11 7 13 8 14
REMARK SMILES IDX 4 15 3 16 1 17 2 18 16 19 17 20 18 21 19 22 20 23 21 25
REMARK SMILES IDX 22 26 23 27 84 28 24 29 83 30 25 31 26 32 27 33 77 34 28 35
REMARK SMILES IDX 82 36 76 37 78 38 29 39 81 40 75 41 74 42 30 44 62 45 42 46
REMARK SMILES IDX 61 47 43 48 46 49 60 50 79 51 44 52 45 53 59 55 80 56 47 57
REMARK SMILES IDX 31 58 32 59 40 60 33 61 34 62 38 63 41 64 35 65 36 66 39 67
REMARK SMILES IDX 37 68 63 69 64 70 72 71 65 72 66 73 70 74 73 75 67 76 68 77
REMARK SMILES IDX 71 78 69 79 48 80 49 81 57 82 50 83 51 84 55 85 58 86 52 87
REMARK SMILES IDX 53 88 56 89 54 90
REMARK H PARENT 12 7 5 12 19 24 78 43 46 54
REMARK Flexibility Score: inf
ROOT
ATOM      1  C   UNL A   1      32.439  29.726  27.042  1.00  0.00     0.002 C 
ENDROOT
BRANCH   1   2
ATOM      2  C   UNL A   1      31.749  28.451  27.530  1.00  0.00     0.021 C 
BRANCH   2   3
ATOM      3  C   UNL A   1      31.394  27.471  26.416  1.00  0.00     0.116 C 
BRANCH   3   4
ATOM      4  N   UNL A   1      31.193  26.125  26.898  1.00  0.00    -0.356 N 
ATOM      5  C   UNL A   1      31.752  24.942  26.537  1.00  0.00     0.228 C 
ATOM      6  O   UNL A   1      31.443  23.965  27.232  1.00  0.00    -0.275 OA
ATOM      7  H   UNL A   1      30.530  26.051  27.621  1.00  0.00     0.163 HD
BRANCH   5   8
ATOM      8  C   UNL A   1      32.691  24.738  25.341  1.00  0.00     0.133 C 
ATOM      9  N   UNL A   1      33.194  22.328  24.910  1.00  0.00    -0.331 N 
ATOM     10  C   UNL A   1      34.635  22.577  24.949  1.00  0.00     0.262 C 
ATOM     11  C   UNL A   1      32.418  23.491  24.490  1.00  0.00     0.276 C 
ATOM     12  H   UNL A   1      32.938  22.175  25.886  1.00  0.00     0.348 HD
ATOM     13  C   UNL A   1      34.997  23.730  25.885  1.00  0.00     0.062 C 
ATOM     14  C   UNL A   1      34.173  24.987  25.637  1.00  0.00     0.025 C 
BRANCH   9  15
ATOM     15  C   UNL A   1      32.798  21.077  24.266  1.00  0.00     0.290 C 
BRANCH  15  16
ATOM     16  C   UNL A   1      32.711  19.894  25.185  1.00  0.00     0.029 C 
ATOM     17  C   UNL A   1      32.626  17.425  25.610  1.00  0.00     0.035 C 
ATOM     18  C   UNL A   1      32.814  18.628  24.750  1.00  0.00    -0.029 C 
ENDBRANCH  15  16
ENDBRANCH   9  15
ENDBRANCH   5   8
ENDBRANCH   3   4
ENDBRANCH   2   3
ENDBRANCH   1   2
BRANCH   1  19
ATOM     19  C   UNL A   1      31.594  30.618  26.122  1.00  0.00     0.002 C 
BRANCH  19  20
ATOM     20  C   UNL A   1      31.413  32.070  26.577  1.00  0.00     0.021 C 
BRANCH  20  21
ATOM     21  C   UNL A   1      32.616  32.683  27.290  1.00  0.00     0.116 C 
BRANCH  21  22
ATOM     22  N   UNL A   1      32.407  34.084  27.616  1.00  0.00    -0.352 N 
ATOM     23  C   UNL A   1      33.001  34.872  28.570  1.00  0.00     0.251 C 
ATOM     24  H   UNL A   1      31.731  34.542  27.065  1.00  0.00     0.163 HD
ATOM     25  O   UNL A   1      32.544  35.981  28.825  1.00  0.00    -0.269 OA
BRANCH  23  26
ATOM     26  C   UNL A   1      34.185  34.382  29.305  1.00  0.00     0.039 A 
ATOM     27  C   UNL A   1      33.995  33.707  30.513  1.00  0.00     0.014 A 
ATOM     28  C   UNL A   1      35.477  34.608  28.821  1.00  0.00     0.014 A 
ATOM     29  C   UNL A   1      35.096  33.193  31.201  1.00  0.00     0.010 A 
ATOM     30  C   UNL A   1      36.569  34.043  29.476  1.00  0.00     0.010 A 
ATOM     31  C   UNL A   1      36.387  33.322  30.666  1.00  0.00    -0.014 A 
BRANCH  31  32
ATOM     32  C   UNL A   1      37.555  32.676  31.314  1.00  0.00     0.031 A 
ATOM     33  C   UNL A   1      38.251  31.521  30.653  1.00  0.00     0.074 A 
ATOM     34  C   UNL A   1      37.933  33.082  32.542  1.00  0.00     0.049 A 
ATOM     35  N   UNL A   1      39.227  30.774  31.107  1.00  0.00    -0.248 NA
ATOM     36  C   UNL A   1      37.772  31.138  29.317  1.00  0.00     0.031 C 
ATOM     37  C   UNL A   1      37.303  34.162  33.303  1.00  0.00     0.029 A 
ATOM     38  N   UNL A   1      38.922  32.622  33.373  1.00  0.00    -0.354 N 
ATOM     39  C   UNL A   1      39.469  29.830  30.119  1.00  0.00     0.074 A 
ATOM     40  C   UNL A   1      38.509  30.067  29.062  1.00  0.00     0.031 C 
ATOM     41  C   UNL A   1      37.928  34.290  34.483  1.00  0.00     0.029 A 
ATOM     42  C   UNL A   1      38.973  33.276  34.580  1.00  0.00     0.049 A 
ATOM     43  H   UNL A   1      39.538  31.893  33.129  1.00  0.00     0.167 HD
ATOM     44  C   UNL A   1      40.418  28.864  30.093  1.00  0.00     0.037 A 
ATOM     45  C   UNL A   1      39.762  33.070  35.652  1.00  0.00     0.037 A 
ATOM     46  C   UNL A   1      41.383  28.647  31.139  1.00  0.00     0.049 A 
ATOM     47  C   UNL A   1      40.793  31.977  35.605  1.00  0.00     0.074 A 
ATOM     48  C   UNL A   1      42.437  27.750  31.170  1.00  0.00     0.029 A 
ATOM     49  N   UNL A   1      41.406  29.331  32.347  1.00  0.00    -0.354 N 
ATOM     50  N   UNL A   1      41.066  31.140  34.634  1.00  0.00    -0.248 NA
ATOM     51  C   UNL A   1      41.626  31.798  36.803  1.00  0.00     0.031 C 
ATOM     52  C   UNL A   1      43.063  27.853  32.417  1.00  0.00     0.029 A 
ATOM     53  C   UNL A   1      42.431  28.848  33.145  1.00  0.00     0.049 A 
ATOM     54  H   UNL A   1      40.785  30.051  32.600  1.00  0.00     0.167 HD
ATOM     55  C   UNL A   1      42.107  30.347  35.094  1.00  0.00     0.074 A 
ATOM     56  C   UNL A   1      42.433  30.816  36.426  1.00  0.00     0.031 C 
ATOM     57  C   UNL A   1      42.735  29.320  34.472  1.00  0.00     0.037 A 
BRANCH  44  58
ATOM     58  C   UNL A   1      40.461  27.963  28.893  1.00  0.00     0.064 A 
ATOM     59  C   UNL A   1      39.729  26.766  28.843  1.00  0.00     0.173 A 
ATOM     60  C   UNL A   1      41.209  28.320  27.761  1.00  0.00     0.173 A 
ATOM     61  F   UNL A   1      39.004  26.374  29.902  1.00  0.00    -0.203 F 
ATOM     62  C   UNL A   1      39.767  25.949  27.716  1.00  0.00     0.198 A 
ATOM     63  C   UNL A   1      41.222  27.515  26.626  1.00  0.00     0.198 A 
ATOM     64  F   UNL A   1      41.922  29.457  27.753  1.00  0.00    -0.203 F 
ATOM     65  F   UNL A   1      39.096  24.789  27.709  1.00  0.00    -0.200 F 
ATOM     66  C   UNL A   1      40.508  26.326  26.606  1.00  0.00     0.200 A 
ATOM     67  F   UNL A   1      41.927  27.888  25.548  1.00  0.00    -0.200 F 
ATOM     68  F   UNL A   1      40.537  25.543  25.521  1.00  0.00    -0.200 F 
ENDBRANCH  44  58
BRANCH  45  69
ATOM     69  C   UNL A   1      39.606  33.924  36.857  1.00  0.00     0.064 A 
ATOM     70  C   UNL A   1      40.244  35.169  36.944  1.00  0.00     0.173 A 
ATOM     71  C   UNL A   1      38.812  33.520  37.941  1.00  0.00     0.173 A 
ATOM     72  F   UNL A   1      41.032  35.588  35.943  1.00  0.00    -0.203 F 
ATOM     73  C   UNL A   1      40.105  35.972  38.074  1.00  0.00     0.198 A 
ATOM     74  C   UNL A   1      38.651  34.336  39.059  1.00  0.00     0.198 A 
ATOM     75  F   UNL A   1      38.176  32.340  37.905  1.00  0.00    -0.203 F 
ATOM     76  F   UNL A   1      40.757  37.140  38.148  1.00  0.00    -0.200 F 
ATOM     77  C   UNL A   1      39.302  35.558  39.127  1.00  0.00     0.200 A 
ATOM     78  F   UNL A   1      37.863  33.939  40.067  1.00  0.00    -0.200 F 
ATOM     79  F   UNL A   1      39.162  36.334  40.211  1.00  0.00    -0.200 F 
ENDBRANCH  45  69
BRANCH  57  80
ATOM     80  C   UNL A   1      43.841  28.636  35.220  1.00  0.00     0.064 A 
ATOM     81  C   UNL A   1      45.171  29.070  35.114  1.00  0.00     0.173 A 
ATOM     82  C   UNL A   1      43.564  27.568  36.087  1.00  0.00     0.173 A 
ATOM     83  F   UNL A   1      45.489  30.075  34.285  1.00  0.00    -0.203 F 
ATOM     84  C   UNL A   1      46.185  28.447  35.836  1.00  0.00     0.198 A 
ATOM     85  C   UNL A   1      44.577  26.967  36.829  1.00  0.00     0.198 A 
ATOM     86  F   UNL A   1      42.308  27.120  36.227  1.00  0.00    -0.203 F 
ATOM     87  F   UNL A   1      47.455  28.851  35.689  1.00  0.00    -0.200 F 
ATOM     88  C   UNL A   1      45.887  27.403  36.699  1.00  0.00     0.200 A 
ATOM     89  F   UNL A   1      44.285  25.966  37.671  1.00  0.00    -0.200 F 
ATOM     90  F   UNL A   1      46.863  26.812  37.401  1.00  0.00    -0.200 F 
ENDBRANCH  57  80
ENDBRANCH  31  32
ENDBRANCH  23  26
ENDBRANCH  21  22
ENDBRANCH  20  21
ENDBRANCH  19  20
ENDBRANCH   1  19
TORSDOF 15
ENDMDL
MODEL 2
REMARK VINA RESULT:     -11.5      0.385      2.049
REMARK SMILES C/C=C/C[N@H+]1CCC[C@H](C(=O)NCCCCCCNC(=O)c2ccc(-c3c4nc(c(-c5c(F)c(F)c(F)c(F)c5F)c5ccc([nH]5)c(-c5c(F)c(F)c(F)c(F)c5F)c5nc(c(-c6c(F)c(F)c(F)c(F)c6F)c6ccc3[nH]6)C=C5)C=C4)cc2)C1
REMARK SMILES IDX 15 1 14 2 13 3 12 4 10 5 11 6 9 8 5 9 6 10 85 11 7 13 8 14
REMARK SMILES IDX 4 15 3 16 1 17 2 18 16 19 17 20 18 21 19 22 20 23 21 25
REMARK SMILES IDX 22 26 23 27 84 28 24 29 83 30 25 31 26 32 27 33 77 34 28 35
REMARK SMILES IDX 82 36 76 37 78 38 29 39 81 40 75 41 74 42 30 44 62 45 42 46
REMARK SMILES IDX 61 47 43 48 46 49 60 50 79 51 44 52 45 53 59 55 80 56 47 57
REMARK SMILES IDX 31 58 32 59 40 60 33 61 34 62 38 63 41 64 35 65 36 66 39 67
REMARK SMILES IDX 37 68 63 69 64 70 72 71 65 72 66 73 70 74 73 75 67 76 68 77
REMARK SMILES IDX 71 78 69 79 48 80 49 81 57 82 50 83 51 84 55 85 58 86 52 87
REMARK SMILES IDX 53 88 56 89 54 90
REMARK H PARENT 12 7 5 12 19 24 78 43 46 54
REMARK Flexibility Score: inf
ROOT
ATOM      1  C   UNL A   1      32.504  29.676  26.508  1.00  0.00     0.002 C 
ENDROOT
BRANCH   1   2
ATOM      2  C   UNL A   1      31.797  28.491  27.167  1.00  0.00     0.021 C 
BRANCH   2   3
ATOM      3  C   UNL A   1      31.366  27.402  26.188  1.00  0.00     0.116 C 
BRANCH   3   4
ATOM      4  N   UNL A   1      31.187  26.118  26.824  1.00  0.00    -0.356 N 
ATOM      5  C   UNL A   1      31.694  24.891  26.543  1.00  0.00     0.228 C 
ATOM      6  O   UNL A   1      31.431  23.998  27.361  1.00  0.00    -0.275 OA
ATOM      7  H   UNL A   1      30.588  26.136  27.605  1.00  0.00     0.163 HD
BRANCH   5   8
ATOM      8  C   UNL A   1      32.521  24.541  25.299  1.00  0.00     0.133 C 
ATOM      9  N   UNL A   1      33.799  22.409  25.560  1.00  0.00    -0.331 N 
ATOM     10  C   UNL A   1      35.056  23.068  25.201  1.00  0.00     0.262 C 
ATOM     11  C   UNL A   1      32.625  23.046  24.972  1.00  0.00     0.276 C 
ATOM     12  H   UNL A   1      33.711  22.563  26.564  1.00  0.00     0.348 HD
ATOM     13  C   UNL A   1      35.076  24.538  25.618  1.00  0.00     0.062 C 
ATOM     14  C   UNL A   1      33.841  25.308  25.169  1.00  0.00     0.025 C 
BRANCH   9  15
ATOM     15  C   UNL A   1      33.810  20.951  25.451  1.00  0.00     0.290 C 
BRANCH  15  16
ATOM     16  C   UNL A   1      33.162  20.408  24.212  1.00  0.00     0.029 C 
ATOM     17  C   UNL A   1      32.237  18.519  22.846  1.00  0.00     0.035 C 
ATOM     18  C   UNL A   1      32.783  19.124  24.094  1.00  0.00    -0.029 C 
ENDBRANCH  15  16
ENDBRANCH   9  15
ENDBRANCH   5   8
ENDBRANCH   3   4
ENDBRANCH   2   3
ENDBRANCH   1   2
BRANCH   1  19
ATOM     19  C   UNL A   1      31.579  30.710  25.850  1.00  0.00     0.002 C 
BRANCH  19  20
ATOM     20  C   UNL A   1      31.323  31.989  26.654  1.00  0.00     0.021 C 
BRANCH  20  21
ATOM     21  C   UNL A   1      32.564  32.629  27.269  1.00  0.00     0.116 C 
BRANCH  21  22
ATOM     22  N   UNL A   1      32.361  34.035  27.581  1.00  0.00    -0.352 N 
ATOM     23  C   UNL A   1      32.969  34.833  28.517  1.00  0.00     0.251 C 
ATOM     24  H   UNL A   1      31.678  34.486  27.034  1.00  0.00     0.163 HD
ATOM     25  O   UNL A   1      32.517  35.946  28.765  1.00  0.00    -0.269 OA
BRANCH  23  26
ATOM     26  C   UNL A   1      34.163  34.351  29.242  1.00  0.00     0.039 A 
ATOM     27  C   UNL A   1      33.991  33.722  30.478  1.00  0.00     0.014 A 
ATOM     28  C   UNL A   1      35.446  34.540  28.721  1.00  0.00     0.014 A 
ATOM     29  C   UNL A   1      35.100  33.216  31.158  1.00  0.00     0.010 A 
ATOM     30  C   UNL A   1      36.544  33.982  29.370  1.00  0.00     0.010 A 
ATOM     31  C   UNL A   1      36.380  33.306  30.589  1.00  0.00    -0.014 A 
BRANCH  31  32
ATOM     32  C   UNL A   1      37.554  32.665  31.233  1.00  0.00     0.031 A 
ATOM     33  C   UNL A   1      38.253  31.514  30.568  1.00  0.00     0.074 A 
ATOM     34  C   UNL A   1      37.933  33.071  32.460  1.00  0.00     0.049 A 
ATOM     35  N   UNL A   1      39.234  30.772  31.018  1.00  0.00    -0.248 NA
ATOM     36  C   UNL A   1      37.772  31.131  29.233  1.00  0.00     0.031 C 
ATOM     37  C   UNL A   1      37.300  34.147  33.224  1.00  0.00     0.029 A 
ATOM     38  N   UNL A   1      38.927  32.616  33.288  1.00  0.00    -0.354 N 
ATOM     39  C   UNL A   1      39.477  29.830  30.029  1.00  0.00     0.074 A 
ATOM     40  C   UNL A   1      38.514  30.063  28.975  1.00  0.00     0.031 C 
ATOM     41  C   UNL A   1      37.928  34.277  34.403  1.00  0.00     0.029 A 
ATOM     42  C   UNL A   1      38.979  33.268  34.495  1.00  0.00     0.049 A 
ATOM     43  H   UNL A   1      39.545  31.890  33.040  1.00  0.00     0.167 HD
ATOM     44  C   UNL A   1      40.432  28.868  29.998  1.00  0.00     0.037 A 
ATOM     45  C   UNL A   1      39.771  33.065  35.564  1.00  0.00     0.037 A 
ATOM     46  C   UNL A   1      41.401  28.656  31.041  1.00  0.00     0.049 A 
ATOM     47  C   UNL A   1      40.808  31.977  35.512  1.00  0.00     0.074 A 
ATOM     48  C   UNL A   1      42.459  27.763  31.067  1.00  0.00     0.029 A 
ATOM     49  N   UNL A   1      41.424  29.338  32.250  1.00  0.00    -0.354 N 
ATOM     50  N   UNL A   1      41.082  31.142  34.539  1.00  0.00    -0.248 NA
ATOM     51  C   UNL A   1      41.645  31.801  36.708  1.00  0.00     0.031 C 
ATOM     52  C   UNL A   1      43.089  27.869  32.313  1.00  0.00     0.029 A 
ATOM     53  C   UNL A   1      42.455  28.860  33.044  1.00  0.00     0.049 A 
ATOM     54  H   UNL A   1      40.800  30.055  32.505  1.00  0.00     0.167 HD
ATOM     55  C   UNL A   1      42.129  30.354  34.996  1.00  0.00     0.074 A 
ATOM     56  C   UNL A   1      42.456  30.824  36.327  1.00  0.00     0.031 C 
ATOM     57  C   UNL A   1      42.760  29.332  34.370  1.00  0.00     0.037 A 
BRANCH  44  58
ATOM     58  C   UNL A   1      40.476  27.969  28.797  1.00  0.00     0.064 A 
ATOM     59  C   UNL A   1      41.232  28.294  27.661  1.00  0.00     0.173 A 
ATOM     60  C   UNL A   1      39.789  26.745  28.798  1.00  0.00     0.173 A 
ATOM     61  F   UNL A   1      41.902  29.455  27.605  1.00  0.00    -0.203 F 
ATOM     62  C   UNL A   1      41.276  27.441  26.560  1.00  0.00     0.198 A 
ATOM     63  C   UNL A   1      39.858  25.883  27.708  1.00  0.00     0.198 A 
ATOM     64  F   UNL A   1      39.056  26.383  29.862  1.00  0.00    -0.203 F 
ATOM     65  F   UNL A   1      41.969  27.794  25.469  1.00  0.00    -0.200 F 
ATOM     66  C   UNL A   1      40.595  26.234  26.587  1.00  0.00     0.200 A 
ATOM     67  F   UNL A   1      39.210  24.710  27.741  1.00  0.00    -0.200 F 
ATOM     68  F   UNL A   1      40.645  25.411  25.531  1.00  0.00    -0.200 F 
ENDBRANCH  44  58
BRANCH  45  69
ATOM     69  C   UNL A   1      39.615  33.917  36.771  1.00  0.00     0.064 A 
ATOM     70  C   UNL A   1      38.815  33.503  37.845  1.00  0.00     0.173 A 
ATOM     71  C   UNL A   1      40.267  35.154  36.881  1.00  0.00     0.173 A 
ATOM     72  F   UNL A   1      38.154  32.338  37.777  1.00  0.00    -0.203 F 
ATOM     73  C   UNL A   1      38.662  34.299  38.978  1.00  0.00     0.198 A 
ATOM     74  C   UNL A   1      40.136  35.937  38.025  1.00  0.00     0.198 A 
ATOM     75  F   UNL A   1      41.048  35.593  35.884  1.00  0.00    -0.203 F 
ATOM     76  F   UNL A   1      37.861  33.898  39.973  1.00  0.00    -0.200 F 
ATOM     77  C   UNL A   1      39.328  35.513  39.070  1.00  0.00     0.200 A 
ATOM     78  F   UNL A   1      40.793  37.101  38.117  1.00  0.00    -0.200 F 
ATOM     79  F   UNL A   1      39.187  36.276  40.162  1.00  0.00    -0.200 F 
ENDBRANCH  45  69
BRANCH  57  80
ATOM     80  C   UNL A   1      43.872  28.653  35.115  1.00  0.00     0.064 A 
ATOM     81  C   UNL A   1      43.631  27.533  35.925  1.00  0.00     0.173 A 
ATOM     82  C   UNL A   1      45.196  29.096  34.981  1.00  0.00     0.173 A 
ATOM     83  F   UNL A   1      42.380  27.083  36.100  1.00  0.00    -0.203 F 
ATOM     84  C   UNL A   1      44.675  26.893  36.587  1.00  0.00     0.198 A 
ATOM     85  C   UNL A   1      46.241  28.435  35.621  1.00  0.00     0.198 A 
ATOM     86  F   UNL A   1      45.479  30.159  34.213  1.00  0.00    -0.203 F 
ATOM     87  F   UNL A   1      44.417  25.850  37.389  1.00  0.00    -0.200 F 
ATOM     88  C   UNL A   1      45.979  27.339  36.429  1.00  0.00     0.200 A 
ATOM     89  F   UNL A   1      47.501  28.860  35.457  1.00  0.00    -0.200 F 
ATOM     90  F   UNL A   1      46.983  26.714  37.058  1.00  0.00    -0.200 F 
ENDBRANCH  57  80
ENDBRANCH  31  32
ENDBRANCH  23  26
ENDBRANCH  21  22
ENDBRANCH  20  21
ENDBRANCH  19  20
ENDBRANCH   1  19
TORSDOF 15
ENDMDL
MODEL 3
REMARK VINA RESULT:     -11.4      5.736     11.094
REMARK SMILES C/C=C/C[N@H+]1CCC[C@H](C(=O)NCCCCCCNC(=O)c2ccc(-c3c4nc(c(-c5c(F)c(F)c(F)c(F)c5F)c5ccc([nH]5)c(-c5c(F)c(F)c(F)c(F)c5F)c5nc(c(-c6c(F)c(F)c(F)c(F)c6F)c6ccc3[nH]6)C=C5)C=C4)cc2)C1
REMARK SMILES IDX 15 1 14 2 13 3 12 4 10 5 11 6 9 8 5 9 6 10 85 11 7 13 8 14
REMARK SMILES IDX 4 15 3 16 1 17 2 18 16 19 17 20 18 21 19 22 20 23 21 25
REMARK SMILES IDX 22 26 23 27 84 28 24 29 83 30 25 31 26 32 27 33 77 34 28 35
REMARK SMILES IDX 82 36 76 37 78 38 29 39 81 40 75 41 74 42 30 44 62 45 42 46
REMARK SMILES IDX 61 47 43 48 46 49 60 50 79 51 44 52 45 53 59 55 80 56 47 57
REMARK SMILES IDX 31 58 32 59 40 60 33 61 34 62 38 63 41 64 35 65 36 66 39 67
REMARK SMILES IDX 37 68 63 69 64 70 72 71 65 72 66 73 70 74 73 75 67 76 68 77
REMARK SMILES IDX 71 78 69 79 48 80 49 81 57 82 50 83 51 84 55 85 58 86 52 87
REMARK SMILES IDX 53 88 56 89 54 90
REMARK H PARENT 12 7 5 12 19 24 78 43 46 54
REMARK Flexibility Score: inf
ROOT
ATOM      1  C   UNL A   1      36.718  22.042  25.717  1.00  0.00     0.002 C 
ENDROOT
BRANCH   1   2
ATOM      2  C   UNL A   1      35.462  22.649  26.343  1.00  0.00     0.021 C 
BRANCH   2   3
ATOM      3  C   UNL A   1      34.669  23.548  25.398  1.00  0.00     0.116 C 
BRANCH   3   4
ATOM      4  N   UNL A   1      33.643  24.305  26.077  1.00  0.00    -0.356 N 
ATOM      5  C   UNL A   1      32.291  24.185  26.092  1.00  0.00     0.228 C 
ATOM      6  O   UNL A   1      31.692  24.932  26.876  1.00  0.00    -0.275 OA
ATOM      7  H   UNL A   1      33.987  25.043  26.630  1.00  0.00     0.163 HD
BRANCH   5   8
ATOM      8  C   UNL A   1      31.480  23.231  25.204  1.00  0.00     0.133 C 
ATOM      9  N   UNL A   1      32.636  21.049  24.824  1.00  0.00    -0.331 N 
ATOM     10  C   UNL A   1      32.513  21.187  23.373  1.00  0.00     0.262 C 
ATOM     11  C   UNL A   1      31.585  21.744  25.561  1.00  0.00     0.276 C 
ATOM     12  H   UNL A   1      33.496  21.547  25.053  1.00  0.00     0.348 HD
ATOM     13  C   UNL A   1      32.533  22.650  22.928  1.00  0.00     0.062 C 
ATOM     14  C   UNL A   1      31.559  23.527  23.704  1.00  0.00     0.025 C 
BRANCH   9  15
ATOM     15  C   UNL A   1      32.905  19.692  25.297  1.00  0.00     0.290 C 
BRANCH  15  16
ATOM     16  C   UNL A   1      33.015  18.658  24.216  1.00  0.00     0.029 C 
ATOM     17  C   UNL A   1      34.145  16.697  23.138  1.00  0.00     0.035 C 
ATOM     18  C   UNL A   1      33.931  17.676  24.241  1.00  0.00    -0.029 C 
ENDBRANCH  15  16
ENDBRANCH   9  15
ENDBRANCH   5   8
ENDBRANCH   3   4
ENDBRANCH   2   3
ENDBRANCH   1   2
BRANCH   1  19
ATOM     19  C   UNL A   1      36.498  20.738  24.936  1.00  0.00     0.002 C 
BRANCH  19  20
ATOM     20  C   UNL A   1      37.641  19.718  25.001  1.00  0.00     0.021 C 
BRANCH  20  21
ATOM     21  C   UNL A   1      38.970  20.262  25.516  1.00  0.00     0.116 C 
BRANCH  21  22
ATOM     22  N   UNL A   1      39.937  19.205  25.766  1.00  0.00    -0.352 N 
ATOM     23  C   UNL A   1      41.278  19.278  26.048  1.00  0.00     0.251 C 
ATOM     24  H   UNL A   1      39.573  18.292  25.725  1.00  0.00     0.163 HD
ATOM     25  O   UNL A   1      41.968  18.265  26.027  1.00  0.00    -0.269 OA
BRANCH  23  26
ATOM     26  C   UNL A   1      41.901  20.580  26.364  1.00  0.00     0.039 A 
ATOM     27  C   UNL A   1      42.268  21.423  25.312  1.00  0.00     0.014 A 
ATOM     28  C   UNL A   1      42.146  20.958  27.688  1.00  0.00     0.014 A 
ATOM     29  C   UNL A   1      42.814  22.678  25.588  1.00  0.00     0.010 A 
ATOM     30  C   UNL A   1      42.634  22.233  27.963  1.00  0.00     0.010 A 
ATOM     31  C   UNL A   1      42.963  23.108  26.917  1.00  0.00    -0.014 A 
BRANCH  31  32
ATOM     32  C   UNL A   1      43.422  24.484  27.231  1.00  0.00     0.031 A 
ATOM     33  C   UNL A   1      42.457  25.506  27.761  1.00  0.00     0.074 A 
ATOM     34  C   UNL A   1      44.694  24.831  26.957  1.00  0.00     0.049 A 
ATOM     35  N   UNL A   1      42.653  26.778  28.007  1.00  0.00    -0.248 NA
ATOM     36  C   UNL A   1      41.086  25.046  28.027  1.00  0.00     0.031 C 
ATOM     37  C   UNL A   1      45.709  23.937  26.398  1.00  0.00     0.029 A 
ATOM     38  N   UNL A   1      45.346  26.030  27.093  1.00  0.00    -0.354 N 
ATOM     39  C   UNL A   1      41.431  27.269  28.444  1.00  0.00     0.074 A 
ATOM     40  C   UNL A   1      40.488  26.173  28.386  1.00  0.00     0.031 C 
ATOM     41  C   UNL A   1      46.857  24.615  26.249  1.00  0.00     0.029 A 
ATOM     42  C   UNL A   1      46.649  25.998  26.663  1.00  0.00     0.049 A 
ATOM     43  H   UNL A   1      44.920  26.836  27.464  1.00  0.00     0.167 HD
ATOM     44  C   UNL A   1      41.130  28.519  28.869  1.00  0.00     0.037 A 
ATOM     45  C   UNL A   1      47.569  26.979  26.592  1.00  0.00     0.037 A 
ATOM     46  C   UNL A   1      42.079  29.600  28.944  1.00  0.00     0.049 A 
ATOM     47  C   UNL A   1      47.203  28.364  27.051  1.00  0.00     0.074 A 
ATOM     48  C   UNL A   1      41.892  30.880  29.439  1.00  0.00     0.029 A 
ATOM     49  N   UNL A   1      43.392  29.531  28.501  1.00  0.00    -0.354 N 
ATOM     50  N   UNL A   1      46.066  28.799  27.536  1.00  0.00    -0.248 NA
ATOM     51  C   UNL A   1      48.247  29.393  26.951  1.00  0.00     0.031 C 
ATOM     52  C   UNL A   1      43.076  31.600  29.246  1.00  0.00     0.029 A 
ATOM     53  C   UNL A   1      44.016  30.756  28.676  1.00  0.00     0.049 A 
ATOM     54  H   UNL A   1      43.817  28.730  28.118  1.00  0.00     0.167 HD
ATOM     55  C   UNL A   1      46.259  30.144  27.813  1.00  0.00     0.074 A 
ATOM     56  C   UNL A   1      47.631  30.451  27.461  1.00  0.00     0.031 C 
ATOM     57  C   UNL A   1      45.379  31.046  28.311  1.00  0.00     0.037 A 
BRANCH  44  58
ATOM     58  C   UNL A   1      39.714  28.791  29.288  1.00  0.00     0.064 A 
ATOM     59  C   UNL A   1      39.290  28.609  30.614  1.00  0.00     0.173 A 
ATOM     60  C   UNL A   1      38.779  29.281  28.364  1.00  0.00     0.173 A 
ATOM     61  F   UNL A   1      40.142  28.135  31.536  1.00  0.00    -0.203 F 
ATOM     62  C   UNL A   1      37.977  28.880  30.991  1.00  0.00     0.198 A 
ATOM     63  C   UNL A   1      37.475  29.578  28.751  1.00  0.00     0.198 A 
ATOM     64  F   UNL A   1      39.134  29.480  27.086  1.00  0.00    -0.203 F 
ATOM     65  F   UNL A   1      37.584  28.655  32.252  1.00  0.00    -0.200 F 
ATOM     66  C   UNL A   1      37.073  29.371  30.061  1.00  0.00     0.200 A 
ATOM     67  F   UNL A   1      36.606  30.065  27.854  1.00  0.00    -0.200 F 
ATOM     68  F   UNL A   1      35.813  29.638  30.427  1.00  0.00    -0.200 F 
ENDBRANCH  44  58
BRANCH  45  69
ATOM     69  C   UNL A   1      48.927  26.681  26.069  1.00  0.00     0.064 A 
ATOM     70  C   UNL A   1      49.262  26.958  24.736  1.00  0.00     0.173 A 
ATOM     71  C   UNL A   1      49.919  26.123  26.889  1.00  0.00     0.173 A 
ATOM     72  F   UNL A   1      48.341  27.470  23.908  1.00  0.00    -0.203 F 
ATOM     73  C   UNL A   1      50.533  26.676  24.240  1.00  0.00     0.198 A 
ATOM     74  C   UNL A   1      51.198  25.867  26.399  1.00  0.00     0.198 A 
ATOM     75  F   UNL A   1      49.651  25.844  28.173  1.00  0.00    -0.203 F 
ATOM     76  F   UNL A   1      50.815  26.914  22.952  1.00  0.00    -0.200 F 
ATOM     77  C   UNL A   1      51.502  26.137  25.074  1.00  0.00     0.200 A 
ATOM     78  F   UNL A   1      52.135  25.361  27.212  1.00  0.00    -0.200 F 
ATOM     79  F   UNL A   1      52.727  25.873  24.598  1.00  0.00    -0.200 F 
ENDBRANCH  45  69
BRANCH  57  80
ATOM     80  C   UNL A   1      45.872  32.449  28.510  1.00  0.00     0.064 A 
ATOM     81  C   UNL A   1      45.735  33.421  27.508  1.00  0.00     0.173 A 
ATOM     82  C   UNL A   1      46.444  32.839  29.730  1.00  0.00     0.173 A 
ATOM     83  F   UNL A   1      45.211  33.093  26.317  1.00  0.00    -0.203 F 
ATOM     84  C   UNL A   1      46.169  34.727  27.714  1.00  0.00     0.198 A 
ATOM     85  C   UNL A   1      46.850  34.153  29.944  1.00  0.00     0.198 A 
ATOM     86  F   UNL A   1      46.593  31.948  30.722  1.00  0.00    -0.203 F 
ATOM     87  F   UNL A   1      46.066  35.629  26.728  1.00  0.00    -0.200 F 
ATOM     88  C   UNL A   1      46.718  35.094  28.934  1.00  0.00     0.200 A 
ATOM     89  F   UNL A   1      47.370  34.509  31.127  1.00  0.00    -0.200 F 
ATOM     90  F   UNL A   1      47.125  36.355  29.134  1.00  0.00    -0.200 F 
ENDBRANCH  57  80
ENDBRANCH  31  32
ENDBRANCH  23  26
ENDBRANCH  21  22
ENDBRANCH  20  21
ENDBRANCH  19  20
ENDBRANCH   1  19
TORSDOF 15
ENDMDL
