MODEL 1
REMARK VINA RESULT:     -13.4      0.000      0.000
REMARK SMILES N#Cc1ccc(Cl)cc1NC(=O)Cn1nc(C(=O)NCCCCCCNC(=O)c2ccc(-c3c4nc(c(-c5c(F)c(F)c(F)c(F)c5F)c5ccc([nH]5)c(-c5c(F)c(F)c(F)c(F)c5F)c5nc(c(-c6c(F)c(F)c(F)c(F)c6F)c6ccc3[nH]6)C=C5)C=C4)cc2)c2ccccc2c1=O
REMARK SMILES IDX 21 1 20 2 19 3 17 4 18 5 16 7 14 8 15 9 98 10 97 11 99 12
REMARK SMILES IDX 92 13 96 14 93 15 95 16 94 17 13 18 11 19 10 20 12 22 9 23
REMARK SMILES IDX 3 24 4 25 5 26 8 27 6 28 7 29 2 30 1 31 22 32 23 33 24 34
REMARK SMILES IDX 25 35 26 36 27 37 28 39 29 40 30 41 91 42 31 43 90 44 32 45
REMARK SMILES IDX 33 46 34 47 84 48 35 49 89 50 83 51 85 52 36 53 88 54 82 55
REMARK SMILES IDX 81 56 37 58 69 59 49 60 68 61 50 62 53 63 67 64 86 65 51 66
REMARK SMILES IDX 52 67 66 69 87 70 54 71 38 72 39 73 47 74 40 75 41 76 45 77
REMARK SMILES IDX 48 78 42 79 43 80 46 81 44 82 70 83 71 84 79 85 72 86 73 87
REMARK SMILES IDX 77 88 80 89 74 90 75 91 78 92 76 93 55 94 56 95 64 96 57 97
REMARK SMILES IDX 58 98 62 99 65 100 59 101 60 102 63 103 61 104
REMARK H PARENT 19 6 10 21 26 38 85 57 53 68
REMARK Flexibility Score: inf
ROOT
ATOM      1  C   UNL A   1      33.577  28.159  26.856  1.00  0.00     0.021 C 
ENDROOT
BRANCH   1   2
ATOM      2  C   UNL A   1      32.704  27.121  26.159  1.00  0.00     0.116 C 
BRANCH   2   3
ATOM      3  N   UNL A   1      31.427  26.660  26.678  1.00  0.00    -0.351 N 
ATOM      4  C   UNL A   1      30.390  26.104  25.900  1.00  0.00     0.272 C 
ATOM      5  O   UNL A   1      29.448  25.501  26.397  1.00  0.00    -0.267 OA
ATOM      6  H   UNL A   1      31.274  26.743  27.648  1.00  0.00     0.163 HD
BRANCH   4   7
ATOM      7  C   UNL A   1      30.377  26.385  24.385  1.00  0.00     0.156 A 
ATOM      8  N   UNL A   1      32.043  26.829  22.939  1.00  0.00    -0.219 N 
ATOM      9  N   UNL A   1      31.334  25.884  23.673  1.00  0.00    -0.163 NA
ATOM     10  C   UNL A   1      31.918  28.217  23.274  1.00  0.00     0.275 A 
ATOM     11  C   UNL A   1      30.550  28.624  23.709  1.00  0.00     0.051 A 
ATOM     12  O   UNL A   1      32.810  29.051  23.181  1.00  0.00    -0.267 OA
ATOM     13  C   UNL A   1      29.683  27.572  23.906  1.00  0.00     0.020 A 
ATOM     14  C   UNL A   1      30.051  29.906  23.518  1.00  0.00     0.014 A 
ATOM     15  C   UNL A   1      28.390  27.643  23.410  1.00  0.00     0.011 A 
ATOM     16  C   UNL A   1      28.701  30.039  23.187  1.00  0.00     0.001 A 
ATOM     17  C   UNL A   1      27.909  28.893  23.012  1.00  0.00     0.001 A 
BRANCH   8  18
ATOM     18  C   UNL A   1      33.271  26.318  22.342  1.00  0.00     0.248 C 
BRANCH  18  19
ATOM     19  C   UNL A   1      33.243  24.834  22.002  1.00  0.00     0.246 C 
ATOM     20  N   UNL A   1      33.495  23.776  22.827  1.00  0.00    -0.323 N 
ATOM     21  H   UNL A   1      33.413  22.930  22.329  1.00  0.00     0.170 HD
ATOM     22  O   UNL A   1      32.953  24.512  20.837  1.00  0.00    -0.273 OA
BRANCH  20  23
ATOM     23  C   UNL A   1      33.840  23.515  24.182  1.00  0.00     0.060 A 
ATOM     24  C   UNL A   1      35.179  23.173  24.490  1.00  0.00     0.076 A 
ATOM     25  C   UNL A   1      35.582  22.870  25.803  1.00  0.00     0.023 A 
ATOM     26  C   UNL A   1      34.651  22.820  26.825  1.00  0.00     0.022 A 
ATOM     27  C   UNL A   1      32.946  23.542  25.249  1.00  0.00     0.048 A 
ATOM     28  C   UNL A   1      33.329  23.110  26.536  1.00  0.00     0.043 A 
ATOM     29  Cl  UNL A   1      32.202  22.782  27.796  1.00  0.00    -0.084 Cl
BRANCH  24  30
ATOM     30  C   UNL A   1      36.181  23.053  23.470  1.00  0.00     0.101 C 
ATOM     31  N   UNL A   1      36.992  22.936  22.653  1.00  0.00    -0.192 NA
ENDBRANCH  24  30
ENDBRANCH  20  23
ENDBRANCH  18  19
ENDBRANCH   8  18
ENDBRANCH   4   7
ENDBRANCH   2   3
ENDBRANCH   1   2
BRANCH   1  32
ATOM     32  C   UNL A   1      33.333  29.635  26.526  1.00  0.00     0.002 C 
BRANCH  32  33
ATOM     33  C   UNL A   1      31.949  30.225  26.824  1.00  0.00     0.002 C 
BRANCH  33  34
ATOM     34  C   UNL A   1      31.760  31.735  26.763  1.00  0.00     0.021 C 
BRANCH  34  35
ATOM     35  C   UNL A   1      32.862  32.549  27.422  1.00  0.00     0.116 C 
BRANCH  35  36
ATOM     36  N   UNL A   1      32.488  33.936  27.677  1.00  0.00    -0.352 N 
ATOM     37  C   UNL A   1      33.011  34.850  28.566  1.00  0.00     0.251 C 
ATOM     38  H   UNL A   1      31.744  34.273  27.128  1.00  0.00     0.163 HD
ATOM     39  O   UNL A   1      32.470  35.940  28.721  1.00  0.00    -0.269 OA
BRANCH  37  40
ATOM     40  C   UNL A   1      34.202  34.494  29.364  1.00  0.00     0.039 A 
ATOM     41  C   UNL A   1      35.477  34.669  28.832  1.00  0.00     0.014 A 
ATOM     42  C   UNL A   1      34.046  33.921  30.629  1.00  0.00     0.014 A 
ATOM     43  C   UNL A   1      36.557  34.046  29.433  1.00  0.00     0.010 A 
ATOM     44  C   UNL A   1      35.163  33.420  31.305  1.00  0.00     0.010 A 
ATOM     45  C   UNL A   1      36.418  33.410  30.678  1.00  0.00    -0.014 A 
BRANCH  45  46
ATOM     46  C   UNL A   1      37.601  32.724  31.266  1.00  0.00     0.031 A 
ATOM     47  C   UNL A   1      38.067  33.051  32.662  1.00  0.00     0.074 A 
ATOM     48  C   UNL A   1      38.193  31.732  30.572  1.00  0.00     0.049 A 
ATOM     49  N   UNL A   1      39.047  32.515  33.349  1.00  0.00    -0.248 NA
ATOM     50  C   UNL A   1      37.352  34.117  33.381  1.00  0.00     0.031 C 
ATOM     51  C   UNL A   1      37.817  31.314  29.219  1.00  0.00     0.029 A 
ATOM     52  N   UNL A   1      39.198  30.865  30.917  1.00  0.00    -0.354 N 
ATOM     53  C   UNL A   1      39.074  33.190  34.562  1.00  0.00     0.074 A 
ATOM     54  C   UNL A   1      38.047  34.205  34.506  1.00  0.00     0.031 C 
ATOM     55  C   UNL A   1      38.522  30.225  28.881  1.00  0.00     0.029 A 
ATOM     56  C   UNL A   1      39.463  29.922  29.953  1.00  0.00     0.049 A 
ATOM     57  H   UNL A   1      39.684  30.913  31.772  1.00  0.00     0.167 HD
ATOM     58  C   UNL A   1      39.871  32.968  35.635  1.00  0.00     0.037 A 
ATOM     59  C   UNL A   1      40.375  28.933  29.922  1.00  0.00     0.037 A 
ATOM     60  C   UNL A   1      40.869  31.932  35.698  1.00  0.00     0.049 A 
ATOM     61  C   UNL A   1      41.289  28.752  31.100  1.00  0.00     0.074 A 
ATOM     62  C   UNL A   1      41.707  31.609  36.751  1.00  0.00     0.029 A 
ATOM     63  N   UNL A   1      41.161  31.050  34.668  1.00  0.00    -0.354 N 
ATOM     64  N   UNL A   1      41.289  29.383  32.249  1.00  0.00    -0.248 NA
ATOM     65  C   UNL A   1      42.339  27.733  30.974  1.00  0.00     0.031 C 
ATOM     66  C   UNL A   1      42.546  30.571  36.338  1.00  0.00     0.029 A 
ATOM     67  C   UNL A   1      42.194  30.208  35.047  1.00  0.00     0.049 A 
ATOM     68  H   UNL A   1      40.703  31.025  33.798  1.00  0.00     0.167 HD
ATOM     69  C   UNL A   1      42.332  28.838  32.983  1.00  0.00     0.074 A 
ATOM     70  C   UNL A   1      42.921  27.799  32.164  1.00  0.00     0.031 C 
ATOM     71  C   UNL A   1      42.769  29.178  34.220  1.00  0.00     0.037 A 
BRANCH  58  72
ATOM     72  C   UNL A   1      39.705  33.855  36.837  1.00  0.00     0.064 A 
ATOM     73  C   UNL A   1      40.302  35.122  36.906  1.00  0.00     0.173 A 
ATOM     74  C   UNL A   1      38.876  33.463  37.901  1.00  0.00     0.173 A 
ATOM     75  F   UNL A   1      41.114  35.541  35.923  1.00  0.00    -0.203 F 
ATOM     76  C   UNL A   1      40.092  35.956  38.003  1.00  0.00     0.198 A 
ATOM     77  C   UNL A   1      38.642  34.313  38.980  1.00  0.00     0.198 A 
ATOM     78  F   UNL A   1      38.273  32.265  37.884  1.00  0.00    -0.203 F 
ATOM     79  F   UNL A   1      40.707  37.146  38.065  1.00  0.00    -0.200 F 
ATOM     80  C   UNL A   1      39.254  35.555  39.032  1.00  0.00     0.200 A 
ATOM     81  F   UNL A   1      37.819  33.930  39.966  1.00  0.00    -0.200 F 
ATOM     82  F   UNL A   1      39.039  36.367  40.077  1.00  0.00    -0.200 F 
ENDBRANCH  58  72
BRANCH  59  83
ATOM     83  C   UNL A   1      40.467  28.051  28.728  1.00  0.00     0.064 A 
ATOM     84  C   UNL A   1      39.779  26.833  28.675  1.00  0.00     0.173 A 
ATOM     85  C   UNL A   1      41.224  28.421  27.604  1.00  0.00     0.173 A 
ATOM     86  F   UNL A   1      39.059  26.425  29.730  1.00  0.00    -0.203 F 
ATOM     87  C   UNL A   1      39.848  26.015  27.549  1.00  0.00     0.198 A 
ATOM     88  C   UNL A   1      41.263  27.620  26.465  1.00  0.00     0.198 A 
ATOM     89  F   UNL A   1      41.900  29.579  27.600  1.00  0.00    -0.203 F 
ATOM     90  F   UNL A   1      39.209  24.837  27.539  1.00  0.00    -0.200 F 
ATOM     91  C   UNL A   1      40.581  26.415  26.441  1.00  0.00     0.200 A 
ATOM     92  F   UNL A   1      41.954  28.022  25.390  1.00  0.00    -0.200 F 
ATOM     93  F   UNL A   1      40.632  25.636  25.351  1.00  0.00    -0.200 F 
ENDBRANCH  59  83
BRANCH  71  94
ATOM     94  C   UNL A   1      43.948  28.431  34.770  1.00  0.00     0.064 A 
ATOM     95  C   UNL A   1      45.253  28.921  34.619  1.00  0.00     0.173 A 
ATOM     96  C   UNL A   1      43.766  27.268  35.535  1.00  0.00     0.173 A 
ATOM     97  F   UNL A   1      45.480  30.020  33.883  1.00  0.00    -0.203 F 
ATOM     98  C   UNL A   1      46.333  28.272  35.208  1.00  0.00     0.198 A 
ATOM     99  C   UNL A   1      44.845  26.641  36.151  1.00  0.00     0.198 A 
ATOM    100  F   UNL A   1      42.537  26.763  35.716  1.00  0.00    -0.203 F 
ATOM    101  F   UNL A   1      47.575  28.742  35.026  1.00  0.00    -0.200 F 
ATOM    102  C   UNL A   1      46.128  27.142  35.985  1.00  0.00     0.200 A 
ATOM    103  F   UNL A   1      44.642  25.560  36.917  1.00  0.00    -0.200 F 
ATOM    104  F   UNL A   1      47.166  26.534  36.574  1.00  0.00    -0.200 F 
ENDBRANCH  71  94
ENDBRANCH  45  46
ENDBRANCH  37  40
ENDBRANCH  35  36
ENDBRANCH  34  35
ENDBRANCH  33  34
ENDBRANCH  32  33
ENDBRANCH   1  32
TORSDOF 17
ENDMDL
MODEL 2
REMARK VINA RESULT:     -13.3      5.185     10.761
REMARK SMILES N#Cc1ccc(Cl)cc1NC(=O)Cn1nc(C(=O)NCCCCCCNC(=O)c2ccc(-c3c4nc(c(-c5c(F)c(F)c(F)c(F)c5F)c5ccc([nH]5)c(-c5c(F)c(F)c(F)c(F)c5F)c5nc(c(-c6c(F)c(F)c(F)c(F)c6F)c6ccc3[nH]6)C=C5)C=C4)cc2)c2ccccc2c1=O
REMARK SMILES IDX 21 1 20 2 19 3 17 4 18 5 16 7 14 8 15 9 98 10 97 11 99 12
REMARK SMILES IDX 92 13 96 14 93 15 95 16 94 17 13 18 11 19 10 20 12 22 9 23
REMARK SMILES IDX 3 24 4 25 5 26 8 27 6 28 7 29 2 30 1 31 22 32 23 33 24 34
REMARK SMILES IDX 25 35 26 36 27 37 28 39 29 40 30 41 91 42 31 43 90 44 32 45
REMARK SMILES IDX 33 46 34 47 84 48 35 49 89 50 83 51 85 52 36 53 88 54 82 55
REMARK SMILES IDX 81 56 37 58 69 59 49 60 68 61 50 62 53 63 67 64 86 65 51 66
REMARK SMILES IDX 52 67 66 69 87 70 54 71 38 72 39 73 47 74 40 75 41 76 45 77
REMARK SMILES IDX 48 78 42 79 43 80 46 81 44 82 70 83 71 84 79 85 72 86 73 87
REMARK SMILES IDX 77 88 80 89 74 90 75 91 78 92 76 93 55 94 56 95 64 96 57 97
REMARK SMILES IDX 58 98 62 99 65 100 59 101 60 102 63 103 61 104
REMARK H PARENT 19 6 10 21 26 38 85 57 53 68
REMARK Flexibility Score: inf
ROOT
ATOM      1  C   UNL A   1      36.184  23.836  25.670  1.00  0.00     0.021 C 
ENDROOT
BRANCH   1   2
ATOM      2  C   UNL A   1      34.995  24.234  24.803  1.00  0.00     0.116 C 
BRANCH   2   3
ATOM      3  N   UNL A   1      34.894  23.933  23.385  1.00  0.00    -0.351 N 
ATOM      4  C   UNL A   1      33.775  23.342  22.760  1.00  0.00     0.272 C 
ATOM      5  O   UNL A   1      33.627  23.341  21.546  1.00  0.00    -0.267 OA
ATOM      6  H   UNL A   1      35.666  24.160  22.816  1.00  0.00     0.163 HD
BRANCH   4   7
ATOM      7  C   UNL A   1      32.778  22.556  23.632  1.00  0.00     0.156 A 
ATOM      8  N   UNL A   1      32.442  22.532  25.857  1.00  0.00    -0.219 N 
ATOM      9  N   UNL A   1      32.244  23.171  24.637  1.00  0.00    -0.163 NA
ATOM     10  C   UNL A   1      33.451  21.519  25.964  1.00  0.00     0.275 A 
ATOM     11  C   UNL A   1      33.593  20.663  24.751  1.00  0.00     0.051 A 
ATOM     12  O   UNL A   1      34.130  21.299  26.959  1.00  0.00    -0.267 OA
ATOM     13  C   UNL A   1      32.877  21.104  23.660  1.00  0.00     0.020 A 
ATOM     14  C   UNL A   1      34.026  19.344  24.808  1.00  0.00     0.014 A 
ATOM     15  C   UNL A   1      32.142  20.200  22.908  1.00  0.00     0.011 A 
ATOM     16  C   UNL A   1      33.434  18.425  23.940  1.00  0.00     0.001 A 
ATOM     17  C   UNL A   1      32.404  18.838  23.081  1.00  0.00     0.001 A 
BRANCH   8  18
ATOM     18  C   UNL A   1      32.074  23.337  27.016  1.00  0.00     0.248 C 
BRANCH  18  19
ATOM     19  C   UNL A   1      30.708  24.004  26.918  1.00  0.00     0.246 C 
ATOM     20  N   UNL A   1      30.420  25.280  26.530  1.00  0.00    -0.323 N 
ATOM     21  H   UNL A   1      29.448  25.438  26.575  1.00  0.00     0.170 HD
ATOM     22  O   UNL A   1      29.710  23.326  27.219  1.00  0.00    -0.273 OA
BRANCH  20  23
ATOM     23  C   UNL A   1      31.086  26.453  26.080  1.00  0.00     0.060 A 
ATOM     24  C   UNL A   1      30.572  27.136  24.950  1.00  0.00     0.076 A 
ATOM     25  C   UNL A   1      31.200  28.283  24.431  1.00  0.00     0.023 A 
ATOM     26  C   UNL A   1      32.392  28.731  24.970  1.00  0.00     0.022 A 
ATOM     27  C   UNL A   1      32.239  26.983  26.652  1.00  0.00     0.048 A 
ATOM     28  C   UNL A   1      32.932  28.052  26.047  1.00  0.00     0.043 A 
ATOM     29  Cl  UNL A   1      34.530  28.513  26.495  1.00  0.00    -0.084 Cl
BRANCH  24  30
ATOM     30  C   UNL A   1      29.424  26.657  24.236  1.00  0.00     0.101 C 
ATOM     31  N   UNL A   1      28.486  26.285  23.670  1.00  0.00    -0.192 NA
ENDBRANCH  24  30
ENDBRANCH  20  23
ENDBRANCH  18  19
ENDBRANCH   8  18
ENDBRANCH   4   7
ENDBRANCH   2   3
ENDBRANCH   1   2
BRANCH   1  32
ATOM     32  C   UNL A   1      37.336  23.080  25.000  1.00  0.00     0.002 C 
BRANCH  32  33
ATOM     33  C   UNL A   1      37.052  21.686  24.427  1.00  0.00     0.002 C 
BRANCH  33  34
ATOM     34  C   UNL A   1      37.732  20.476  25.055  1.00  0.00     0.021 C 
BRANCH  34  35
ATOM     35  C   UNL A   1      39.067  20.761  25.720  1.00  0.00     0.116 C 
BRANCH  35  36
ATOM     36  N   UNL A   1      39.936  19.592  25.811  1.00  0.00    -0.352 N 
ATOM     37  C   UNL A   1      41.287  19.503  26.060  1.00  0.00     0.251 C 
ATOM     38  H   UNL A   1      39.483  18.729  25.670  1.00  0.00     0.163 HD
ATOM     39  O   UNL A   1      41.863  18.424  25.969  1.00  0.00    -0.269 OA
BRANCH  37  40
ATOM     40  C   UNL A   1      42.049  20.723  26.398  1.00  0.00     0.039 A 
ATOM     41  C   UNL A   1      42.254  21.073  27.729  1.00  0.00     0.014 A 
ATOM     42  C   UNL A   1      42.509  21.560  25.376  1.00  0.00     0.014 A 
ATOM     43  C   UNL A   1      42.672  22.356  28.039  1.00  0.00     0.010 A 
ATOM     44  C   UNL A   1      43.070  22.800  25.698  1.00  0.00     0.010 A 
ATOM     45  C   UNL A   1      43.086  23.241  27.030  1.00  0.00    -0.014 A 
BRANCH  45  46
ATOM     46  C   UNL A   1      43.494  24.620  27.411  1.00  0.00     0.031 A 
ATOM     47  C   UNL A   1      44.886  25.121  27.123  1.00  0.00     0.074 A 
ATOM     48  C   UNL A   1      42.570  25.455  27.928  1.00  0.00     0.049 A 
ATOM     49  N   UNL A   1      45.396  26.309  27.342  1.00  0.00    -0.248 NA
ATOM     50  C   UNL A   1      45.834  24.171  26.521  1.00  0.00     0.031 C 
ATOM     51  C   UNL A   1      41.185  25.089  28.234  1.00  0.00     0.029 A 
ATOM     52  N   UNL A   1      42.636  26.788  28.245  1.00  0.00    -0.354 N 
ATOM     53  C   UNL A   1      46.718  26.239  26.923  1.00  0.00     0.074 A 
ATOM     54  C   UNL A   1      46.951  24.883  26.481  1.00  0.00     0.031 C 
ATOM     55  C   UNL A   1      40.513  26.184  28.615  1.00  0.00     0.029 A 
ATOM     56  C   UNL A   1      41.438  27.310  28.671  1.00  0.00     0.049 A 
ATOM     57  H   UNL A   1      43.461  27.320  28.176  1.00  0.00     0.167 HD
ATOM     58  C   UNL A   1      47.647  27.224  26.891  1.00  0.00     0.037 A 
ATOM     59  C   UNL A   1      41.119  28.552  29.079  1.00  0.00     0.037 A 
ATOM     60  C   UNL A   1      47.399  28.582  27.300  1.00  0.00     0.049 A 
ATOM     61  C   UNL A   1      42.186  29.607  29.094  1.00  0.00     0.074 A 
ATOM     62  C   UNL A   1      48.267  29.659  27.279  1.00  0.00     0.029 A 
ATOM     63  N   UNL A   1      46.193  29.050  27.802  1.00  0.00    -0.354 N 
ATOM     64  N   UNL A   1      43.427  29.533  28.676  1.00  0.00    -0.248 NA
ATOM     65  C   UNL A   1      41.819  30.915  29.652  1.00  0.00     0.031 C 
ATOM     66  C   UNL A   1      47.606  30.763  27.822  1.00  0.00     0.029 A 
ATOM     67  C   UNL A   1      46.307  30.391  28.130  1.00  0.00     0.049 A 
ATOM     68  H   UNL A   1      45.377  28.509  27.909  1.00  0.00     0.167 HD
ATOM     69  C   UNL A   1      43.985  30.780  28.913  1.00  0.00     0.074 A 
ATOM     70  C   UNL A   1      42.938  31.604  29.482  1.00  0.00     0.031 C 
ATOM     71  C   UNL A   1      45.255  31.198  28.694  1.00  0.00     0.037 A 
BRANCH  58  72
ATOM     72  C   UNL A   1      49.025  26.882  26.396  1.00  0.00     0.064 A 
ATOM     73  C   UNL A   1      49.995  26.326  27.243  1.00  0.00     0.173 A 
ATOM     74  C   UNL A   1      49.354  27.045  25.041  1.00  0.00     0.173 A 
ATOM     75  F   UNL A   1      49.738  26.160  28.549  1.00  0.00    -0.203 F 
ATOM     76  C   UNL A   1      51.249  25.962  26.756  1.00  0.00     0.198 A 
ATOM     77  C   UNL A   1      50.597  26.649  24.551  1.00  0.00     0.198 A 
ATOM     78  F   UNL A   1      48.463  27.566  24.185  1.00  0.00    -0.203 F 
ATOM     79  F   UNL A   1      52.174  25.470  27.592  1.00  0.00    -0.200 F 
ATOM     80  C   UNL A   1      51.544  26.113  25.409  1.00  0.00     0.200 A 
ATOM     81  F   UNL A   1      50.874  26.782  23.246  1.00  0.00    -0.200 F 
ATOM     82  F   UNL A   1      52.745  25.746  24.940  1.00  0.00    -0.200 F 
ENDBRANCH  58  72
BRANCH  59  83
ATOM     83  C   UNL A   1      39.728  28.851  29.513  1.00  0.00     0.064 A 
ATOM     84  C   UNL A   1      38.791  29.384  28.620  1.00  0.00     0.173 A 
ATOM     85  C   UNL A   1      39.299  28.584  30.825  1.00  0.00     0.173 A 
ATOM     86  F   UNL A   1      39.156  29.676  27.363  1.00  0.00    -0.203 F 
ATOM     87  C   UNL A   1      37.482  29.647  29.021  1.00  0.00     0.198 A 
ATOM     88  C   UNL A   1      37.982  28.812  31.213  1.00  0.00     0.198 A 
ATOM     89  F   UNL A   1      40.155  28.069  31.720  1.00  0.00    -0.203 F 
ATOM     90  F   UNL A   1      36.616  30.191  28.155  1.00  0.00    -0.200 F 
ATOM     91  C   UNL A   1      37.076  29.350  30.313  1.00  0.00     0.200 A 
ATOM     92  F   UNL A   1      37.590  28.503  32.456  1.00  0.00    -0.200 F 
ATOM     93  F   UNL A   1      35.812  29.585  30.692  1.00  0.00    -0.200 F 
ENDBRANCH  59  83
BRANCH  71  94
ATOM     94  C   UNL A   1      45.598  32.608  29.074  1.00  0.00     0.064 A 
ATOM     95  C   UNL A   1      46.168  32.907  30.319  1.00  0.00     0.173 A 
ATOM     96  C   UNL A   1      45.443  33.655  28.152  1.00  0.00     0.173 A 
ATOM     97  F   UNL A   1      46.321  31.943  31.240  1.00  0.00    -0.203 F 
ATOM     98  C   UNL A   1      46.567  34.203  30.631  1.00  0.00     0.198 A 
ATOM     99  C   UNL A   1      45.875  34.944  28.455  1.00  0.00     0.198 A 
ATOM    100  F   UNL A   1      44.910  33.421  26.944  1.00  0.00    -0.203 F 
ATOM    101  F   UNL A   1      47.083  34.470  31.838  1.00  0.00    -0.200 F 
ATOM    102  C   UNL A   1      46.434  35.217  29.694  1.00  0.00     0.200 A 
ATOM    103  F   UNL A   1      45.763  35.918  27.541  1.00  0.00    -0.200 F 
ATOM    104  F   UNL A   1      46.844  36.459  29.986  1.00  0.00    -0.200 F 
ENDBRANCH  71  94
ENDBRANCH  45  46
ENDBRANCH  37  40
ENDBRANCH  35  36
ENDBRANCH  34  35
ENDBRANCH  33  34
ENDBRANCH  32  33
ENDBRANCH   1  32
TORSDOF 17
ENDMDL
MODEL 3
REMARK VINA RESULT:     -13.0      3.435      5.570
REMARK SMILES N#Cc1ccc(Cl)cc1NC(=O)Cn1nc(C(=O)NCCCCCCNC(=O)c2ccc(-c3c4nc(c(-c5c(F)c(F)c(F)c(F)c5F)c5ccc([nH]5)c(-c5c(F)c(F)c(F)c(F)c5F)c5nc(c(-c6c(F)c(F)c(F)c(F)c6F)c6ccc3[nH]6)C=C5)C=C4)cc2)c2ccccc2c1=O
REMARK SMILES IDX 21 1 20 2 19 3 17 4 18 5 16 7 14 8 15 9 98 10 97 11 99 12
REMARK SMILES IDX 92 13 96 14 93 15 95 16 94 17 13 18 11 19 10 20 12 22 9 23
REMARK SMILES IDX 3 24 4 25 5 26 8 27 6 28 7 29 2 30 1 31 22 32 23 33 24 34
REMARK SMILES IDX 25 35 26 36 27 37 28 39 29 40 30 41 91 42 31 43 90 44 32 45
REMARK SMILES IDX 33 46 34 47 84 48 35 49 89 50 83 51 85 52 36 53 88 54 82 55
REMARK SMILES IDX 81 56 37 58 69 59 49 60 68 61 50 62 53 63 67 64 86 65 51 66
REMARK SMILES IDX 52 67 66 69 87 70 54 71 38 72 39 73 47 74 40 75 41 76 45 77
REMARK SMILES IDX 48 78 42 79 43 80 46 81 44 82 70 83 71 84 79 85 72 86 73 87
REMARK SMILES IDX 77 88 80 89 74 90 75 91 78 92 76 93 55 94 56 95 64 96 57 97
REMARK SMILES IDX 58 98 62 99 65 100 59 101 60 102 63 103 61 104
REMARK H PARENT 19 6 10 21 26 38 85 57 53 68
REMARK Flexibility Score: inf
ROOT
ATOM      1  C   UNL A   1      30.756  28.383  23.661  1.00  0.00     0.021 C 
ENDROOT
BRANCH   1   2
ATOM      2  C   UNL A   1      31.351  27.048  23.226  1.00  0.00     0.116 C 
BRANCH   2   3
ATOM      3  N   UNL A   1      32.231  26.893  22.079  1.00  0.00    -0.351 N 
ATOM      4  C   UNL A   1      32.746  25.664  21.615  1.00  0.00     0.272 C 
ATOM      5  O   UNL A   1      33.265  25.545  20.514  1.00  0.00    -0.267 OA
ATOM      6  H   UNL A   1      32.488  27.708  21.589  1.00  0.00     0.163 HD
BRANCH   4   7
ATOM      7  C   UNL A   1      32.774  24.467  22.584  1.00  0.00     0.156 A 
ATOM      8  N   UNL A   1      31.815  24.157  24.596  1.00  0.00    -0.219 N 
ATOM      9  N   UNL A   1      31.680  24.176  23.211  1.00  0.00    -0.163 NA
ATOM     10  C   UNL A   1      32.962  24.769  25.199  1.00  0.00     0.275 A 
ATOM     11  C   UNL A   1      34.224  24.608  24.421  1.00  0.00     0.051 A 
ATOM     12  O   UNL A   1      32.971  25.341  26.281  1.00  0.00    -0.267 OA
ATOM     13  C   UNL A   1      34.050  24.074  23.164  1.00  0.00     0.020 A 
ATOM     14  C   UNL A   1      35.477  24.575  25.020  1.00  0.00     0.014 A 
ATOM     15  C   UNL A   1      34.900  23.074  22.717  1.00  0.00     0.011 A 
ATOM     16  C   UNL A   1      36.431  23.704  24.490  1.00  0.00     0.001 A 
ATOM     17  C   UNL A   1      36.092  22.866  23.416  1.00  0.00     0.001 A 
BRANCH   8  18
ATOM     18  C   UNL A   1      30.547  24.087  25.315  1.00  0.00     0.248 C 
BRANCH  18  19
ATOM     19  C   UNL A   1      30.523  23.088  26.464  1.00  0.00     0.246 C 
ATOM     20  N   UNL A   1      31.209  21.913  26.574  1.00  0.00    -0.323 N 
ATOM     21  H   UNL A   1      30.988  21.468  27.425  1.00  0.00     0.170 HD
ATOM     22  O   UNL A   1      29.802  23.348  27.442  1.00  0.00    -0.273 OA
BRANCH  20  23
ATOM     23  C   UNL A   1      32.144  21.131  25.842  1.00  0.00     0.060 A 
ATOM     24  C   UNL A   1      33.515  21.210  26.187  1.00  0.00     0.076 A 
ATOM     25  C   UNL A   1      34.498  20.489  25.484  1.00  0.00     0.023 A 
ATOM     26  C   UNL A   1      34.153  19.740  24.374  1.00  0.00     0.022 A 
ATOM     27  C   UNL A   1      31.821  20.297  24.774  1.00  0.00     0.048 A 
ATOM     28  C   UNL A   1      32.824  19.684  23.995  1.00  0.00     0.043 A 
ATOM     29  Cl  UNL A   1      32.513  18.944  22.470  1.00  0.00    -0.084 Cl
BRANCH  24  30
ATOM     30  C   UNL A   1      33.982  22.078  27.229  1.00  0.00     0.101 C 
ATOM     31  N   UNL A   1      34.360  22.794  28.055  1.00  0.00    -0.192 NA
ENDBRANCH  24  30
ENDBRANCH  20  23
ENDBRANCH  18  19
ENDBRANCH   8  18
ENDBRANCH   4   7
ENDBRANCH   2   3
ENDBRANCH   1   2
BRANCH   1  32
ATOM     32  C   UNL A   1      31.434  29.125  24.817  1.00  0.00     0.002 C 
BRANCH  32  33
ATOM     33  C   UNL A   1      32.948  29.360  24.738  1.00  0.00     0.002 C 
BRANCH  33  34
ATOM     34  C   UNL A   1      33.867  28.580  25.669  1.00  0.00     0.021 C 
BRANCH  34  35
ATOM     35  C   UNL A   1      33.529  28.689  27.146  1.00  0.00     0.116 C 
BRANCH  35  36
ATOM     36  N   UNL A   1      33.579  30.055  27.658  1.00  0.00    -0.352 N 
ATOM     37  C   UNL A   1      34.602  30.736  28.278  1.00  0.00     0.251 C 
ATOM     38  H   UNL A   1      32.749  30.571  27.540  1.00  0.00     0.163 HD
ATOM     39  O   UNL A   1      34.404  31.849  28.753  1.00  0.00    -0.269 OA
BRANCH  37  40
ATOM     40  C   UNL A   1      35.930  30.101  28.408  1.00  0.00     0.039 A 
ATOM     41  C   UNL A   1      36.290  29.473  29.597  1.00  0.00     0.014 A 
ATOM     42  C   UNL A   1      36.848  30.188  27.358  1.00  0.00     0.014 A 
ATOM     43  C   UNL A   1      37.622  29.174  29.832  1.00  0.00     0.010 A 
ATOM     44  C   UNL A   1      38.161  29.748  27.549  1.00  0.00     0.010 A 
ATOM     45  C   UNL A   1      38.579  29.307  28.813  1.00  0.00    -0.014 A 
BRANCH  45  46
ATOM     46  C   UNL A   1      40.003  29.005  29.125  1.00  0.00     0.031 A 
ATOM     47  C   UNL A   1      40.791  29.884  30.061  1.00  0.00     0.074 A 
ATOM     48  C   UNL A   1      40.552  27.875  28.637  1.00  0.00     0.049 A 
ATOM     49  N   UNL A   1      42.025  29.741  30.482  1.00  0.00    -0.248 NA
ATOM     50  C   UNL A   1      40.120  31.081  30.591  1.00  0.00     0.031 C 
ATOM     51  C   UNL A   1      39.880  26.936  27.735  1.00  0.00     0.029 A 
ATOM     52  N   UNL A   1      41.776  27.297  28.861  1.00  0.00    -0.354 N 
ATOM     53  C   UNL A   1      42.276  30.833  31.303  1.00  0.00     0.074 A 
ATOM     54  C   UNL A   1      41.089  31.656  31.288  1.00  0.00     0.031 C 
ATOM     55  C   UNL A   1      40.664  25.865  27.548  1.00  0.00     0.029 A 
ATOM     56  C   UNL A   1      41.930  26.081  28.240  1.00  0.00     0.049 A 
ATOM     57  H   UNL A   1      42.477  27.713  29.412  1.00  0.00     0.167 HD
ATOM     58  C   UNL A   1      43.390  31.111  32.021  1.00  0.00     0.037 A 
ATOM     59  C   UNL A   1      42.979  25.238  28.212  1.00  0.00     0.037 A 
ATOM     60  C   UNL A   1      44.557  30.269  32.059  1.00  0.00     0.049 A 
ATOM     61  C   UNL A   1      44.224  25.605  28.965  1.00  0.00     0.074 A 
ATOM     62  C   UNL A   1      45.726  30.450  32.778  1.00  0.00     0.029 A 
ATOM     63  N   UNL A   1      44.703  29.085  31.351  1.00  0.00    -0.354 N 
ATOM     64  N   UNL A   1      44.440  26.629  29.755  1.00  0.00    -0.248 NA
ATOM     65  C   UNL A   1      45.379  24.709  28.814  1.00  0.00     0.031 C 
ATOM     66  C   UNL A   1      46.600  29.408  32.460  1.00  0.00     0.029 A 
ATOM     67  C   UNL A   1      45.957  28.546  31.586  1.00  0.00     0.049 A 
ATOM     68  H   UNL A   1      44.017  28.687  30.768  1.00  0.00     0.167 HD
ATOM     69  C   UNL A   1      45.748  26.500  30.197  1.00  0.00     0.074 A 
ATOM     70  C   UNL A   1      46.267  25.279  29.616  1.00  0.00     0.031 C 
ATOM     71  C   UNL A   1      46.458  27.328  31.001  1.00  0.00     0.037 A 
BRANCH  58  72
ATOM     72  C   UNL A   1      43.413  32.377  32.831  1.00  0.00     0.064 A 
ATOM     73  C   UNL A   1      43.849  33.593  32.286  1.00  0.00     0.173 A 
ATOM     74  C   UNL A   1      42.922  32.388  34.147  1.00  0.00     0.173 A 
ATOM     75  F   UNL A   1      44.340  33.638  31.038  1.00  0.00    -0.203 F 
ATOM     76  C   UNL A   1      43.811  34.770  33.033  1.00  0.00     0.198 A 
ATOM     77  C   UNL A   1      42.854  33.571  34.879  1.00  0.00     0.198 A 
ATOM     78  F   UNL A   1      42.485  31.255  34.716  1.00  0.00    -0.203 F 
ATOM     79  F   UNL A   1      44.271  35.912  32.504  1.00  0.00    -0.200 F 
ATOM     80  C   UNL A   1      43.303  34.759  34.323  1.00  0.00     0.200 A 
ATOM     81  F   UNL A   1      42.348  33.562  36.120  1.00  0.00    -0.200 F 
ATOM     82  F   UNL A   1      43.250  35.895  35.033  1.00  0.00    -0.200 F 
ENDBRANCH  58  72
BRANCH  59  83
ATOM     83  C   UNL A   1      42.888  23.974  27.434  1.00  0.00     0.064 A 
ATOM     84  C   UNL A   1      43.258  23.929  26.084  1.00  0.00     0.173 A 
ATOM     85  C   UNL A   1      42.456  22.778  28.031  1.00  0.00     0.173 A 
ATOM     86  F   UNL A   1      43.658  25.048  25.462  1.00  0.00    -0.203 F 
ATOM     87  C   UNL A   1      43.193  22.741  25.358  1.00  0.00     0.198 A 
ATOM     88  C   UNL A   1      42.427  21.584  27.315  1.00  0.00     0.198 A 
ATOM     89  F   UNL A   1      42.094  22.763  29.322  1.00  0.00    -0.203 F 
ATOM     90  F   UNL A   1      43.518  22.734  24.058  1.00  0.00    -0.200 F 
ATOM     91  C   UNL A   1      42.788  21.567  25.978  1.00  0.00     0.200 A 
ATOM     92  F   UNL A   1      42.056  20.449  27.924  1.00  0.00    -0.200 F 
ATOM     93  F   UNL A   1      42.743  20.421  25.284  1.00  0.00    -0.200 F 
ENDBRANCH  59  83
BRANCH  71  94
ATOM     94  C   UNL A   1      47.881  26.955  31.300  1.00  0.00     0.064 A 
ATOM     95  C   UNL A   1      48.195  26.069  32.340  1.00  0.00     0.173 A 
ATOM     96  C   UNL A   1      48.927  27.410  30.483  1.00  0.00     0.173 A 
ATOM     97  F   UNL A   1      47.231  25.620  33.158  1.00  0.00    -0.203 F 
ATOM     98  C   UNL A   1      49.506  25.656  32.556  1.00  0.00     0.198 A 
ATOM     99  C   UNL A   1      50.233  26.968  30.681  1.00  0.00     0.198 A 
ATOM    100  F   UNL A   1      48.679  28.252  29.470  1.00  0.00    -0.203 F 
ATOM    101  F   UNL A   1      49.787  24.832  33.575  1.00  0.00    -0.200 F 
ATOM    102  C   UNL A   1      50.522  26.094  31.719  1.00  0.00     0.200 A 
ATOM    103  F   UNL A   1      51.209  27.377  29.859  1.00  0.00    -0.200 F 
ATOM    104  F   UNL A   1      51.779  25.674  31.911  1.00  0.00    -0.200 F 
ENDBRANCH  71  94
ENDBRANCH  45  46
ENDBRANCH  37  40
ENDBRANCH  35  36
ENDBRANCH  34  35
ENDBRANCH  33  34
ENDBRANCH  32  33
ENDBRANCH   1  32
TORSDOF 17
ENDMDL
