MODEL 1
REMARK VINA RESULT:     -10.4      0.000      0.000
REMARK SMILES O=C(NCCCCCCNC(=O)c1cc([C@@H]2C=NN=C2c2ccc(F)cc2)c2c(ccc3ccccc32)n1)c1ccc(-c2c3nc(c(-c4c(F)c(F)c(F)c(F)c4F)c4ccc([nH]4)c(-c4c(F)c(F)c(F)c(F)c4F)c4nc(c(-c5c(F)c(F)c(F)c(F)c5F)c5ccc2[nH]5)C=C4)C=C3)cc1
REMARK SMILES IDX 6 1 5 2 4 3 3 4 1 5 2 6 39 8 40 9 101 10 41 11 100 12 42 13
REMARK SMILES IDX 43 14 44 15 94 16 45 17 99 18 93 19 95 20 46 21 98 22 92 23
REMARK SMILES IDX 91 24 47 26 79 27 59 28 78 29 60 30 63 31 77 32 96 33 61 34
REMARK SMILES IDX 62 35 76 37 97 38 64 39 48 40 49 41 57 42 50 43 51 44 55 45
REMARK SMILES IDX 58 46 52 47 53 48 56 49 54 50 80 51 81 52 89 53 82 54 83 55
REMARK SMILES IDX 87 56 90 57 84 58 85 59 88 60 86 61 65 62 66 63 74 64 67 65
REMARK SMILES IDX 68 66 72 67 75 68 69 69 70 70 73 71 71 72 7 73 8 74 9 75
REMARK SMILES IDX 10 76 11 77 12 79 13 80 14 81 38 82 15 83 29 84 28 85 30 86
REMARK SMILES IDX 37 87 31 88 32 89 36 90 33 91 35 92 34 93 16 94 17 95 20 96
REMARK SMILES IDX 18 97 19 98 21 99 22 100 27 101 23 102 26 103 24 104 25 105
REMARK H PARENT 3 7 95 25 63 36 10 78
REMARK Flexibility Score: inf
ROOT
ATOM      1  C   UNL A   1      36.537  34.246  32.602  1.00  0.00     0.002 C 
ENDROOT
BRANCH   1   2
ATOM      2  C   UNL A   1      36.250  32.773  32.282  1.00  0.00     0.021 C 
BRANCH   2   3
ATOM      3  C   UNL A   1      34.783  32.465  31.980  1.00  0.00     0.116 C 
BRANCH   3   4
ATOM      4  N   UNL A   1      34.443  32.555  30.578  1.00  0.00    -0.352 N 
ATOM      5  O   UNL A   1      34.263  32.171  28.411  1.00  0.00    -0.269 OA
ATOM      6  C   UNL A   1      34.902  31.953  29.444  1.00  0.00     0.251 C 
ATOM      7  H   UNL A   1      33.715  33.195  30.402  1.00  0.00     0.163 HD
BRANCH   6   8
ATOM      8  C   UNL A   1      36.149  31.151  29.357  1.00  0.00     0.039 A 
ATOM      9  C   UNL A   1      36.279  29.796  29.676  1.00  0.00     0.014 A 
ATOM     10  C   UNL A   1      37.298  31.871  28.986  1.00  0.00     0.014 A 
ATOM     11  C   UNL A   1      37.536  29.212  29.764  1.00  0.00     0.010 A 
ATOM     12  C   UNL A   1      38.553  31.290  29.051  1.00  0.00     0.010 A 
ATOM     13  C   UNL A   1      38.669  29.980  29.501  1.00  0.00    -0.014 A 
BRANCH  13  14
ATOM     14  C   UNL A   1      39.976  29.346  29.591  1.00  0.00     0.031 A 
ATOM     15  C   UNL A   1      40.524  29.248  30.976  1.00  0.00     0.074 A 
ATOM     16  C   UNL A   1      40.540  28.754  28.518  1.00  0.00     0.049 A 
ATOM     17  N   UNL A   1      41.669  29.653  31.426  1.00  0.00    -0.248 NA
ATOM     18  C   UNL A   1      39.630  28.719  32.022  1.00  0.00     0.031 C 
ATOM     19  C   UNL A   1      39.966  28.566  27.181  1.00  0.00     0.029 A 
ATOM     20  N   UNL A   1      41.725  28.094  28.427  1.00  0.00    -0.354 N 
ATOM     21  C   UNL A   1      41.707  29.282  32.771  1.00  0.00     0.074 A 
ATOM     22  C   UNL A   1      40.383  28.836  33.115  1.00  0.00     0.031 C 
ATOM     23  C   UNL A   1      40.693  27.646  26.506  1.00  0.00     0.029 A 
ATOM     24  C   UNL A   1      41.848  27.283  27.306  1.00  0.00     0.049 A 
ATOM     25  H   UNL A   1      42.438  28.184  29.101  1.00  0.00     0.167 HD
ATOM     26  C   UNL A   1      42.878  29.164  33.454  1.00  0.00     0.037 A 
ATOM     27  C   UNL A   1      42.791  26.325  27.111  1.00  0.00     0.037 A 
ATOM     28  C   UNL A   1      43.936  29.907  32.828  1.00  0.00     0.049 A 
ATOM     29  C   UNL A   1      43.910  26.621  28.043  1.00  0.00     0.074 A 
ATOM     30  C   UNL A   1      44.164  31.246  32.585  1.00  0.00     0.029 A 
ATOM     31  N   UNL A   1      44.818  29.231  32.025  1.00  0.00    -0.354 N 
ATOM     32  N   UNL A   1      44.668  27.679  27.951  1.00  0.00    -0.248 NA
ATOM     33  C   UNL A   1      43.875  25.983  29.349  1.00  0.00     0.031 C 
ATOM     34  C   UNL A   1      44.789  31.285  31.304  1.00  0.00     0.029 A 
ATOM     35  C   UNL A   1      44.957  29.967  30.876  1.00  0.00     0.049 A 
ATOM     36  H   UNL A   1      45.266  28.380  32.232  1.00  0.00     0.167 HD
ATOM     37  C   UNL A   1      44.875  28.079  29.262  1.00  0.00     0.074 A 
ATOM     38  C   UNL A   1      44.407  26.964  30.082  1.00  0.00     0.031 C 
ATOM     39  C   UNL A   1      45.135  29.383  29.570  1.00  0.00     0.037 A 
BRANCH  26  40
ATOM     40  C   UNL A   1      43.139  28.102  34.492  1.00  0.00     0.064 A 
ATOM     41  C   UNL A   1      43.338  26.741  34.173  1.00  0.00     0.173 A 
ATOM     42  C   UNL A   1      43.502  28.478  35.801  1.00  0.00     0.173 A 
ATOM     43  F   UNL A   1      43.143  26.266  32.936  1.00  0.00    -0.203 F 
ATOM     44  C   UNL A   1      43.863  25.829  35.085  1.00  0.00     0.198 A 
ATOM     45  C   UNL A   1      44.077  27.571  36.696  1.00  0.00     0.198 A 
ATOM     46  F   UNL A   1      43.384  29.753  36.203  1.00  0.00    -0.203 F 
ATOM     47  F   UNL A   1      44.053  24.556  34.708  1.00  0.00    -0.200 F 
ATOM     48  C   UNL A   1      44.260  26.248  36.336  1.00  0.00     0.200 A 
ATOM     49  F   UNL A   1      44.516  27.999  37.888  1.00  0.00    -0.200 F 
ATOM     50  F   UNL A   1      44.864  25.391  37.170  1.00  0.00    -0.200 F 
ENDBRANCH  26  40
BRANCH  27  51
ATOM     51  C   UNL A   1      42.593  24.974  26.521  1.00  0.00     0.064 A 
ATOM     52  C   UNL A   1      41.896  23.965  27.214  1.00  0.00     0.173 A 
ATOM     53  C   UNL A   1      43.332  24.560  25.400  1.00  0.00     0.173 A 
ATOM     54  F   UNL A   1      41.227  24.240  28.343  1.00  0.00    -0.203 F 
ATOM     55  C   UNL A   1      41.952  22.625  26.826  1.00  0.00     0.198 A 
ATOM     56  C   UNL A   1      43.393  23.214  25.015  1.00  0.00     0.198 A 
ATOM     57  F   UNL A   1      44.066  25.446  24.711  1.00  0.00    -0.203 F 
ATOM     58  F   UNL A   1      41.319  21.695  27.557  1.00  0.00    -0.200 F 
ATOM     59  C   UNL A   1      42.712  22.247  25.736  1.00  0.00     0.200 A 
ATOM     60  F   UNL A   1      44.162  22.847  23.981  1.00  0.00    -0.200 F 
ATOM     61  F   UNL A   1      42.821  20.952  25.409  1.00  0.00    -0.200 F 
ENDBRANCH  27  51
BRANCH  39  62
ATOM     62  C   UNL A   1      45.385  30.339  28.437  1.00  0.00     0.064 A 
ATOM     63  C   UNL A   1      46.709  30.614  28.076  1.00  0.00     0.173 A 
ATOM     64  C   UNL A   1      44.378  31.122  27.845  1.00  0.00     0.173 A 
ATOM     65  F   UNL A   1      47.715  29.938  28.654  1.00  0.00    -0.203 F 
ATOM     66  C   UNL A   1      47.016  31.631  27.177  1.00  0.00     0.198 A 
ATOM     67  C   UNL A   1      44.685  32.117  26.918  1.00  0.00     0.198 A 
ATOM     68  F   UNL A   1      43.098  30.988  28.209  1.00  0.00    -0.203 F 
ATOM     69  F   UNL A   1      48.297  31.916  26.907  1.00  0.00    -0.200 F 
ATOM     70  C   UNL A   1      46.005  32.379  26.594  1.00  0.00     0.200 A 
ATOM     71  F   UNL A   1      43.706  32.858  26.377  1.00  0.00    -0.200 F 
ATOM     72  F   UNL A   1      46.305  33.375  25.750  1.00  0.00    -0.200 F 
ENDBRANCH  39  62
ENDBRANCH  13  14
ENDBRANCH   6   8
ENDBRANCH   3   4
ENDBRANCH   2   3
ENDBRANCH   1   2
BRANCH   1  73
ATOM     73  C   UNL A   1      36.976  34.531  34.043  1.00  0.00     0.002 C 
BRANCH  73  74
ATOM     74  C   UNL A   1      36.468  33.534  35.084  1.00  0.00     0.021 C 
BRANCH  74  75
ATOM     75  C   UNL A   1      37.374  33.382  36.296  1.00  0.00     0.116 C 
BRANCH  75  76
ATOM     76  N   UNL A   1      37.778  32.001  36.504  1.00  0.00    -0.351 N 
ATOM     77  C   UNL A   1      38.785  31.293  35.882  1.00  0.00     0.269 C 
ATOM     78  H   UNL A   1      37.264  31.503  37.180  1.00  0.00     0.163 HD
ATOM     79  O   UNL A   1      38.880  30.078  36.065  1.00  0.00    -0.268 OA
BRANCH  77  80
ATOM     80  C   UNL A   1      39.774  32.020  35.040  1.00  0.00     0.129 A 
ATOM     81  C   UNL A   1      40.926  32.497  35.616  1.00  0.00     0.039 A 
ATOM     82  N   UNL A   1      39.496  32.197  33.746  1.00  0.00    -0.243 NA
ATOM     83  C   UNL A   1      41.819  33.303  34.875  1.00  0.00    -0.021 A 
ATOM     84  C   UNL A   1      40.371  32.870  32.994  1.00  0.00     0.072 A 
ATOM     85  C   UNL A   1      41.578  33.493  33.456  1.00  0.00     0.012 A 
ATOM     86  C   UNL A   1      40.011  32.905  31.668  1.00  0.00     0.029 A 
ATOM     87  C   UNL A   1      42.390  34.175  32.427  1.00  0.00    -0.009 A 
ATOM     88  C   UNL A   1      40.789  33.529  30.707  1.00  0.00     0.011 A 
ATOM     89  C   UNL A   1      41.968  34.162  31.066  1.00  0.00    -0.018 A 
ATOM     90  C   UNL A   1      43.613  34.855  32.632  1.00  0.00     0.009 A 
ATOM     91  C   UNL A   1      42.720  34.766  30.042  1.00  0.00     0.009 A 
ATOM     92  C   UNL A   1      44.361  35.463  31.616  1.00  0.00     0.001 A 
ATOM     93  C   UNL A   1      43.915  35.415  30.313  1.00  0.00     0.001 A 
BRANCH  83  94
ATOM     94  C   UNL A   1      42.945  33.801  35.751  1.00  0.00     0.115 C 
ATOM     95  C   UNL A   1      44.200  33.011  35.801  1.00  0.00     0.123 C 
ATOM     96  C   UNL A   1      42.770  34.048  37.212  1.00  0.00     0.083 C 
ATOM     97  N   UNL A   1      44.717  32.981  36.986  1.00  0.00    -0.162 NA
ATOM     98  N   UNL A   1      43.813  33.649  37.886  1.00  0.00    -0.154 NA
BRANCH  96  99
ATOM     99  C   UNL A   1      41.643  34.801  37.805  1.00  0.00    -0.001 A 
ATOM    100  C   UNL A   1      40.787  34.115  38.678  1.00  0.00     0.013 A 
ATOM    101  C   UNL A   1      41.410  36.157  37.542  1.00  0.00     0.013 A 
ATOM    102  C   UNL A   1      39.733  34.789  39.301  1.00  0.00     0.040 A 
ATOM    103  C   UNL A   1      40.358  36.828  38.168  1.00  0.00     0.040 A 
ATOM    104  C   UNL A   1      39.534  36.140  39.046  1.00  0.00     0.123 A 
ATOM    105  F   UNL A   1      38.528  36.787  39.648  1.00  0.00    -0.207 F 
ENDBRANCH  96  99
ENDBRANCH  83  94
ENDBRANCH  77  80
ENDBRANCH  75  76
ENDBRANCH  74  75
ENDBRANCH  73  74
ENDBRANCH   1  73
TORSDOF 15
ENDMDL
MODEL 2
REMARK VINA RESULT:     -10.4      5.171     11.955
REMARK SMILES O=C(NCCCCCCNC(=O)c1cc([C@@H]2C=NN=C2c2ccc(F)cc2)c2c(ccc3ccccc32)n1)c1ccc(-c2c3nc(c(-c4c(F)c(F)c(F)c(F)c4F)c4ccc([nH]4)c(-c4c(F)c(F)c(F)c(F)c4F)c4nc(c(-c5c(F)c(F)c(F)c(F)c5F)c5ccc2[nH]5)C=C4)C=C3)cc1
REMARK SMILES IDX 6 1 5 2 4 3 3 4 1 5 2 6 39 8 40 9 101 10 41 11 100 12 42 13
REMARK SMILES IDX 43 14 44 15 94 16 45 17 99 18 93 19 95 20 46 21 98 22 92 23
REMARK SMILES IDX 91 24 47 26 79 27 59 28 78 29 60 30 63 31 77 32 96 33 61 34
REMARK SMILES IDX 62 35 76 37 97 38 64 39 48 40 49 41 57 42 50 43 51 44 55 45
REMARK SMILES IDX 58 46 52 47 53 48 56 49 54 50 80 51 81 52 89 53 82 54 83 55
REMARK SMILES IDX 87 56 90 57 84 58 85 59 88 60 86 61 65 62 66 63 74 64 67 65
REMARK SMILES IDX 68 66 72 67 75 68 69 69 70 70 73 71 71 72 7 73 8 74 9 75
REMARK SMILES IDX 10 76 11 77 12 79 13 80 14 81 38 82 15 83 29 84 28 85 30 86
REMARK SMILES IDX 37 87 31 88 32 89 36 90 33 91 35 92 34 93 16 94 17 95 20 96
REMARK SMILES IDX 18 97 19 98 21 99 22 100 27 101 23 102 26 103 24 104 25 105
REMARK H PARENT 3 7 95 25 63 36 10 78
REMARK Flexibility Score: inf
ROOT
ATOM      1  C   UNL A   1      40.620  21.808  27.291  1.00  0.00     0.002 C 
ENDROOT
BRANCH   1   2
ATOM      2  C   UNL A   1      40.780  20.541  26.441  1.00  0.00     0.021 C 
BRANCH   2   3
ATOM      3  C   UNL A   1      42.179  19.924  26.481  1.00  0.00     0.116 C 
BRANCH   3   4
ATOM      4  N   UNL A   1      42.986  20.230  25.323  1.00  0.00    -0.352 N 
ATOM      5  O   UNL A   1      44.461  21.120  23.941  1.00  0.00    -0.269 OA
ATOM      6  C   UNL A   1      43.801  21.266  24.973  1.00  0.00     0.251 C 
ATOM      7  H   UNL A   1      42.938  19.532  24.629  1.00  0.00     0.163 HD
BRANCH   6   8
ATOM      8  C   UNL A   1      43.868  22.567  25.686  1.00  0.00     0.039 A 
ATOM      9  C   UNL A   1      44.463  22.793  26.930  1.00  0.00     0.014 A 
ATOM     10  C   UNL A   1      43.198  23.630  25.055  1.00  0.00     0.014 A 
ATOM     11  C   UNL A   1      44.273  23.999  27.593  1.00  0.00     0.010 A 
ATOM     12  C   UNL A   1      43.021  24.842  25.700  1.00  0.00     0.010 A 
ATOM     13  C   UNL A   1      43.507  24.997  26.994  1.00  0.00    -0.014 A 
BRANCH  13  14
ATOM     14  C   UNL A   1      43.326  26.256  27.701  1.00  0.00     0.031 A 
ATOM     15  C   UNL A   1      44.302  27.322  27.328  1.00  0.00     0.074 A 
ATOM     16  C   UNL A   1      42.254  26.464  28.493  1.00  0.00     0.049 A 
ATOM     17  N   UNL A   1      45.077  28.018  28.097  1.00  0.00    -0.248 NA
ATOM     18  C   UNL A   1      44.514  27.573  25.890  1.00  0.00     0.031 C 
ATOM     19  C   UNL A   1      41.106  25.579  28.715  1.00  0.00     0.029 A 
ATOM     20  N   UNL A   1      41.911  27.576  29.196  1.00  0.00    -0.354 N 
ATOM     21  C   UNL A   1      45.753  28.907  27.260  1.00  0.00     0.074 A 
ATOM     22  C   UNL A   1      45.471  28.501  25.910  1.00  0.00     0.031 C 
ATOM     23  C   UNL A   1      40.104  26.279  29.295  1.00  0.00     0.029 A 
ATOM     24  C   UNL A   1      40.582  27.614  29.601  1.00  0.00     0.049 A 
ATOM     25  H   UNL A   1      42.552  28.295  29.403  1.00  0.00     0.167 HD
ATOM     26  C   UNL A   1      46.326  30.048  27.732  1.00  0.00     0.037 A 
ATOM     27  C   UNL A   1      39.919  28.704  30.068  1.00  0.00     0.037 A 
ATOM     28  C   UNL A   1      46.580  29.971  29.144  1.00  0.00     0.049 A 
ATOM     29  C   UNL A   1      40.948  29.678  30.517  1.00  0.00     0.074 A 
ATOM     30  C   UNL A   1      47.390  29.186  29.939  1.00  0.00     0.029 A 
ATOM     31  N   UNL A   1      45.685  30.561  29.998  1.00  0.00    -0.354 N 
ATOM     32  N   UNL A   1      41.748  29.473  31.528  1.00  0.00    -0.248 NA
ATOM     33  C   UNL A   1      41.397  30.665  29.548  1.00  0.00     0.031 C 
ATOM     34  C   UNL A   1      46.628  28.951  31.120  1.00  0.00     0.029 A 
ATOM     35  C   UNL A   1      45.430  29.656  30.997  1.00  0.00     0.049 A 
ATOM     36  H   UNL A   1      45.299  31.463  29.913  1.00  0.00     0.167 HD
ATOM     37  C   UNL A   1      42.969  29.984  31.119  1.00  0.00     0.074 A 
ATOM     38  C   UNL A   1      42.678  30.755  29.912  1.00  0.00     0.031 C 
ATOM     39  C   UNL A   1      44.142  29.504  31.626  1.00  0.00     0.037 A 
BRANCH  26  40
ATOM     40  C   UNL A   1      46.337  31.354  26.977  1.00  0.00     0.064 A 
ATOM     41  C   UNL A   1      45.162  32.055  26.629  1.00  0.00     0.173 A 
ATOM     42  C   UNL A   1      47.538  32.082  26.860  1.00  0.00     0.173 A 
ATOM     43  F   UNL A   1      43.944  31.527  26.797  1.00  0.00    -0.203 F 
ATOM     44  C   UNL A   1      45.183  33.381  26.201  1.00  0.00     0.198 A 
ATOM     45  C   UNL A   1      47.549  33.428  26.481  1.00  0.00     0.198 A 
ATOM     46  F   UNL A   1      48.711  31.524  27.194  1.00  0.00    -0.203 F 
ATOM     47  F   UNL A   1      44.028  33.997  25.913  1.00  0.00    -0.200 F 
ATOM     48  C   UNL A   1      46.371  34.077  26.155  1.00  0.00     0.200 A 
ATOM     49  F   UNL A   1      48.700  34.114  26.497  1.00  0.00    -0.200 F 
ATOM     50  F   UNL A   1      46.373  35.381  25.849  1.00  0.00    -0.200 F 
ENDBRANCH  26  40
BRANCH  27  51
ATOM     51  C   UNL A   1      38.529  29.118  29.744  1.00  0.00     0.064 A 
ATOM     52  C   UNL A   1      38.123  29.352  28.415  1.00  0.00     0.173 A 
ATOM     53  C   UNL A   1      37.658  29.576  30.748  1.00  0.00     0.173 A 
ATOM     54  F   UNL A   1      38.917  29.029  27.384  1.00  0.00    -0.203 F 
ATOM     55  C   UNL A   1      36.935  30.020  28.109  1.00  0.00     0.198 A 
ATOM     56  C   UNL A   1      36.470  30.251  30.440  1.00  0.00     0.198 A 
ATOM     57  F   UNL A   1      37.989  29.440  32.040  1.00  0.00    -0.203 F 
ATOM     58  F   UNL A   1      36.626  30.271  26.828  1.00  0.00    -0.200 F 
ATOM     59  C   UNL A   1      36.116  30.482  29.121  1.00  0.00     0.200 A 
ATOM     60  F   UNL A   1      35.698  30.731  31.425  1.00  0.00    -0.200 F 
ATOM     61  F   UNL A   1      35.013  31.185  28.825  1.00  0.00    -0.200 F 
ENDBRANCH  27  51
BRANCH  39  62
ATOM     62  C   UNL A   1      44.069  28.543  32.780  1.00  0.00     0.064 A 
ATOM     63  C   UNL A   1      44.312  29.029  34.070  1.00  0.00     0.173 A 
ATOM     64  C   UNL A   1      43.965  27.149  32.624  1.00  0.00     0.173 A 
ATOM     65  F   UNL A   1      44.479  30.347  34.268  1.00  0.00    -0.203 F 
ATOM     66  C   UNL A   1      44.455  28.166  35.152  1.00  0.00     0.198 A 
ATOM     67  C   UNL A   1      44.075  26.288  33.715  1.00  0.00     0.198 A 
ATOM     68  F   UNL A   1      43.832  26.599  31.413  1.00  0.00    -0.203 F 
ATOM     69  F   UNL A   1      44.758  28.660  36.361  1.00  0.00    -0.200 F 
ATOM     70  C   UNL A   1      44.333  26.797  34.976  1.00  0.00     0.200 A 
ATOM     71  F   UNL A   1      43.983  24.961  33.538  1.00  0.00    -0.200 F 
ATOM     72  F   UNL A   1      44.499  25.967  36.015  1.00  0.00    -0.200 F 
ENDBRANCH  39  62
ENDBRANCH  13  14
ENDBRANCH   6   8
ENDBRANCH   3   4
ENDBRANCH   2   3
ENDBRANCH   1   2
BRANCH   1  73
ATOM     73  C   UNL A   1      39.979  23.002  26.576  1.00  0.00     0.002 C 
BRANCH  73  74
ATOM     74  C   UNL A   1      38.608  23.417  27.109  1.00  0.00     0.021 C 
BRANCH  74  75
ATOM     75  C   UNL A   1      37.715  24.091  26.078  1.00  0.00     0.116 C 
BRANCH  75  76
ATOM     76  N   UNL A   1      37.781  23.430  24.785  1.00  0.00    -0.351 N 
ATOM     77  C   UNL A   1      36.746  22.972  23.996  1.00  0.00     0.269 C 
ATOM     78  H   UNL A   1      38.685  23.290  24.423  1.00  0.00     0.163 HD
ATOM     79  O   UNL A   1      36.994  22.285  23.004  1.00  0.00    -0.268 OA
BRANCH  77  80
ATOM     80  C   UNL A   1      35.349  23.360  24.330  1.00  0.00     0.129 A 
ATOM     81  C   UNL A   1      34.692  24.264  23.531  1.00  0.00     0.039 A 
ATOM     82  N   UNL A   1      34.783  22.821  25.413  1.00  0.00    -0.243 NA
ATOM     83  C   UNL A   1      33.417  24.750  23.894  1.00  0.00    -0.021 A 
ATOM     84  C   UNL A   1      33.537  23.186  25.727  1.00  0.00     0.072 A 
ATOM     85  C   UNL A   1      32.746  24.168  25.042  1.00  0.00     0.012 A 
ATOM     86  C   UNL A   1      33.040  22.496  26.807  1.00  0.00     0.029 A 
ATOM     87  C   UNL A   1      31.387  24.392  25.575  1.00  0.00    -0.009 A 
ATOM     88  C   UNL A   1      31.758  22.698  27.287  1.00  0.00     0.011 A 
ATOM     89  C   UNL A   1      30.927  23.632  26.690  1.00  0.00    -0.018 A 
ATOM     90  C   UNL A   1      30.424  25.300  25.076  1.00  0.00     0.009 A 
ATOM     91  C   UNL A   1      29.631  23.782  27.216  1.00  0.00     0.009 A 
ATOM     92  C   UNL A   1      29.135  25.456  25.601  1.00  0.00     0.001 A 
ATOM     93  C   UNL A   1      28.734  24.690  26.674  1.00  0.00     0.001 A 
BRANCH  83  94
ATOM     94  C   UNL A   1      32.954  25.816  22.927  1.00  0.00     0.115 C 
ATOM     95  C   UNL A   1      33.273  25.646  21.488  1.00  0.00     0.123 C 
ATOM     96  C   UNL A   1      33.333  27.251  23.080  1.00  0.00     0.083 C 
ATOM     97  N   UNL A   1      33.576  26.765  20.915  1.00  0.00    -0.162 NA
ATOM     98  N   UNL A   1      33.607  27.791  21.924  1.00  0.00    -0.154 NA
BRANCH  96  99
ATOM     99  C   UNL A   1      33.245  28.011  24.346  1.00  0.00    -0.001 A 
ATOM    100  C   UNL A   1      32.365  29.100  24.394  1.00  0.00     0.013 A 
ATOM    101  C   UNL A   1      33.989  27.680  25.486  1.00  0.00     0.013 A 
ATOM    102  C   UNL A   1      32.210  29.826  25.579  1.00  0.00     0.040 A 
ATOM    103  C   UNL A   1      33.830  28.405  26.668  1.00  0.00     0.040 A 
ATOM    104  C   UNL A   1      32.938  29.466  26.706  1.00  0.00     0.123 A 
ATOM    105  F   UNL A   1      32.785  30.157  27.842  1.00  0.00    -0.207 F 
ENDBRANCH  96  99
ENDBRANCH  83  94
ENDBRANCH  77  80
ENDBRANCH  75  76
ENDBRANCH  74  75
ENDBRANCH  73  74
ENDBRANCH   1  73
TORSDOF 15
ENDMDL
MODEL 3
REMARK VINA RESULT:     -10.4      1.727      2.635
REMARK SMILES O=C(NCCCCCCNC(=O)c1cc([C@@H]2C=NN=C2c2ccc(F)cc2)c2c(ccc3ccccc32)n1)c1ccc(-c2c3nc(c(-c4c(F)c(F)c(F)c(F)c4F)c4ccc([nH]4)c(-c4c(F)c(F)c(F)c(F)c4F)c4nc(c(-c5c(F)c(F)c(F)c(F)c5F)c5ccc2[nH]5)C=C4)C=C3)cc1
REMARK SMILES IDX 6 1 5 2 4 3 3 4 1 5 2 6 39 8 40 9 101 10 41 11 100 12 42 13
REMARK SMILES IDX 43 14 44 15 94 16 45 17 99 18 93 19 95 20 46 21 98 22 92 23
REMARK SMILES IDX 91 24 47 26 79 27 59 28 78 29 60 30 63 31 77 32 96 33 61 34
REMARK SMILES IDX 62 35 76 37 97 38 64 39 48 40 49 41 57 42 50 43 51 44 55 45
REMARK SMILES IDX 58 46 52 47 53 48 56 49 54 50 80 51 81 52 89 53 82 54 83 55
REMARK SMILES IDX 87 56 90 57 84 58 85 59 88 60 86 61 65 62 66 63 74 64 67 65
REMARK SMILES IDX 68 66 72 67 75 68 69 69 70 70 73 71 71 72 7 73 8 74 9 75
REMARK SMILES IDX 10 76 11 77 12 79 13 80 14 81 38 82 15 83 29 84 28 85 30 86
REMARK SMILES IDX 37 87 31 88 32 89 36 90 33 91 35 92 34 93 16 94 17 95 20 96
REMARK SMILES IDX 18 97 19 98 21 99 22 100 27 101 23 102 26 103 24 104 25 105
REMARK H PARENT 3 7 95 25 63 36 10 78
REMARK Flexibility Score: inf
ROOT
ATOM      1  C   UNL A   1      34.706  32.803  31.152  1.00  0.00     0.002 C 
ENDROOT
BRANCH   1   2
ATOM      2  C   UNL A   1      34.189  33.892  30.203  1.00  0.00     0.021 C 
BRANCH   2   3
ATOM      3  C   UNL A   1      34.824  33.874  28.811  1.00  0.00     0.116 C 
BRANCH   3   4
ATOM      4  N   UNL A   1      34.421  32.749  28.000  1.00  0.00    -0.352 N 
ATOM      5  O   UNL A   1      34.190  30.726  27.144  1.00  0.00    -0.269 OA
ATOM      6  C   UNL A   1      34.888  31.479  27.829  1.00  0.00     0.251 C 
ATOM      7  H   UNL A   1      33.631  32.942  27.445  1.00  0.00     0.163 HD
BRANCH   6   8
ATOM      8  C   UNL A   1      36.200  30.986  28.322  1.00  0.00     0.039 A 
ATOM      9  C   UNL A   1      37.230  31.772  28.845  1.00  0.00     0.014 A 
ATOM     10  C   UNL A   1      36.416  29.605  28.165  1.00  0.00     0.014 A 
ATOM     11  C   UNL A   1      38.487  31.226  29.069  1.00  0.00     0.010 A 
ATOM     12  C   UNL A   1      37.660  29.049  28.405  1.00  0.00     0.010 A 
ATOM     13  C   UNL A   1      38.707  29.877  28.796  1.00  0.00    -0.014 A 
BRANCH  13  14
ATOM     14  C   UNL A   1      40.030  29.322  29.045  1.00  0.00     0.031 A 
ATOM     15  C   UNL A   1      40.359  29.128  30.488  1.00  0.00     0.074 A 
ATOM     16  C   UNL A   1      40.800  28.873  28.033  1.00  0.00     0.049 A 
ATOM     17  N   UNL A   1      41.382  29.559  31.153  1.00  0.00    -0.248 NA
ATOM     18  C   UNL A   1      39.355  28.444  31.325  1.00  0.00     0.031 C 
ATOM     19  C   UNL A   1      40.461  28.778  26.610  1.00  0.00     0.029 A 
ATOM     20  N   UNL A   1      42.033  28.302  28.083  1.00  0.00    -0.354 N 
ATOM     21  C   UNL A   1      41.237  29.064  32.449  1.00  0.00     0.074 A 
ATOM     22  C   UNL A   1      39.915  28.504  32.533  1.00  0.00     0.031 C 
ATOM     23  C   UNL A   1      41.355  27.976  25.987  1.00  0.00     0.029 A 
ATOM     24  C   UNL A   1      42.395  27.612  26.932  1.00  0.00     0.049 A 
ATOM     25  H   UNL A   1      42.621  28.373  28.870  1.00  0.00     0.167 HD
ATOM     26  C   UNL A   1      42.292  28.957  33.303  1.00  0.00     0.037 A 
ATOM     27  C   UNL A   1      43.428  26.739  26.815  1.00  0.00     0.037 A 
ATOM     28  C   UNL A   1      43.373  29.822  32.924  1.00  0.00     0.049 A 
ATOM     29  C   UNL A   1      44.360  27.016  27.939  1.00  0.00     0.074 A 
ATOM     30  C   UNL A   1      43.531  31.191  32.835  1.00  0.00     0.029 A 
ATOM     31  N   UNL A   1      44.421  29.284  32.222  1.00  0.00    -0.354 N 
ATOM     32  N   UNL A   1      45.038  28.124  28.063  1.00  0.00    -0.248 NA
ATOM     33  C   UNL A   1      44.170  26.254  29.164  1.00  0.00     0.031 C 
ATOM     34  C   UNL A   1      44.345  31.391  31.682  1.00  0.00     0.029 A 
ATOM     35  C   UNL A   1      44.681  30.135  31.178  1.00  0.00     0.049 A 
ATOM     36  H   UNL A   1      44.897  28.447  32.428  1.00  0.00     0.167 HD
ATOM     37  C   UNL A   1      45.003  28.408  29.419  1.00  0.00     0.074 A 
ATOM     38  C   UNL A   1      44.501  27.192  30.054  1.00  0.00     0.031 C 
ATOM     39  C   UNL A   1      45.109  29.690  29.874  1.00  0.00     0.037 A 
BRANCH  26  40
ATOM     40  C   UNL A   1      42.469  27.819  34.276  1.00  0.00     0.064 A 
ATOM     41  C   UNL A   1      41.863  27.790  35.552  1.00  0.00     0.173 A 
ATOM     42  C   UNL A   1      43.000  26.593  33.828  1.00  0.00     0.173 A 
ATOM     43  F   UNL A   1      41.221  28.851  36.056  1.00  0.00    -0.203 F 
ATOM     44  C   UNL A   1      41.787  26.628  36.316  1.00  0.00     0.198 A 
ATOM     45  C   UNL A   1      42.874  25.417  34.576  1.00  0.00     0.198 A 
ATOM     46  F   UNL A   1      43.571  26.497  32.618  1.00  0.00    -0.203 F 
ATOM     47  F   UNL A   1      41.172  26.664  37.507  1.00  0.00    -0.200 F 
ATOM     48  C   UNL A   1      42.265  25.436  35.818  1.00  0.00     0.200 A 
ATOM     49  F   UNL A   1      43.287  24.252  34.059  1.00  0.00    -0.200 F 
ATOM     50  F   UNL A   1      42.092  24.303  36.510  1.00  0.00    -0.200 F 
ENDBRANCH  26  40
BRANCH  27  51
ATOM     51  C   UNL A   1      43.432  25.441  26.089  1.00  0.00     0.064 A 
ATOM     52  C   UNL A   1      42.575  24.388  26.463  1.00  0.00     0.173 A 
ATOM     53  C   UNL A   1      44.476  25.109  25.209  1.00  0.00     0.173 A 
ATOM     54  F   UNL A   1      41.598  24.580  27.360  1.00  0.00    -0.203 F 
ATOM     55  C   UNL A   1      42.762  23.082  26.005  1.00  0.00     0.198 A 
ATOM     56  C   UNL A   1      44.667  23.797  24.755  1.00  0.00     0.198 A 
ATOM     57  F   UNL A   1      45.369  26.039  24.840  1.00  0.00    -0.203 F 
ATOM     58  F   UNL A   1      41.954  22.104  26.440  1.00  0.00    -0.200 F 
ATOM     59  C   UNL A   1      43.816  22.783  25.163  1.00  0.00     0.200 A 
ATOM     60  F   UNL A   1      45.713  23.505  23.969  1.00  0.00    -0.200 F 
ATOM     61  F   UNL A   1      44.034  21.517  24.783  1.00  0.00    -0.200 F 
ENDBRANCH  27  51
BRANCH  39  62
ATOM     62  C   UNL A   1      45.458  30.765  28.883  1.00  0.00     0.064 A 
ATOM     63  C   UNL A   1      46.789  31.192  28.802  1.00  0.00     0.173 A 
ATOM     64  C   UNL A   1      44.499  31.504  28.167  1.00  0.00     0.173 A 
ATOM     65  F   UNL A   1      47.738  30.560  29.511  1.00  0.00    -0.203 F 
ATOM     66  C   UNL A   1      47.144  32.310  28.054  1.00  0.00     0.198 A 
ATOM     67  C   UNL A   1      44.862  32.603  27.391  1.00  0.00     0.198 A 
ATOM     68  F   UNL A   1      43.195  31.221  28.269  1.00  0.00    -0.203 F 
ATOM     69  F   UNL A   1      48.415  32.735  28.056  1.00  0.00    -0.200 F 
ATOM     70  C   UNL A   1      46.183  33.013  27.345  1.00  0.00     0.200 A 
ATOM     71  F   UNL A   1      43.925  33.297  26.727  1.00  0.00    -0.200 F 
ATOM     72  F   UNL A   1      46.524  34.105  26.648  1.00  0.00    -0.200 F 
ENDBRANCH  39  62
ENDBRANCH  13  14
ENDBRANCH   6   8
ENDBRANCH   3   4
ENDBRANCH   2   3
ENDBRANCH   1   2
BRANCH   1  73
ATOM     73  C   UNL A   1      35.916  33.196  32.006  1.00  0.00     0.002 C 
BRANCH  73  74
ATOM     74  C   UNL A   1      35.592  34.043  33.237  1.00  0.00     0.021 C 
BRANCH  74  75
ATOM     75  C   UNL A   1      36.639  33.967  34.339  1.00  0.00     0.116 C 
BRANCH  75  76
ATOM     76  N   UNL A   1      36.972  32.594  34.681  1.00  0.00    -0.351 N 
ATOM     77  C   UNL A   1      38.120  31.887  34.393  1.00  0.00     0.269 C 
ATOM     78  H   UNL A   1      36.285  32.102  35.187  1.00  0.00     0.163 HD
ATOM     79  O   UNL A   1      38.163  30.676  34.618  1.00  0.00    -0.268 OA
BRANCH  77  80
ATOM     80  C   UNL A   1      39.307  32.610  33.861  1.00  0.00     0.129 A 
ATOM     81  C   UNL A   1      40.128  33.285  34.731  1.00  0.00     0.039 A 
ATOM     82  N   UNL A   1      39.525  32.588  32.544  1.00  0.00    -0.243 NA
ATOM     83  C   UNL A   1      41.184  34.088  34.245  1.00  0.00    -0.021 A 
ATOM     84  C   UNL A   1      40.577  33.256  32.063  1.00  0.00     0.072 A 
ATOM     85  C   UNL A   1      41.483  34.067  32.825  1.00  0.00     0.012 A 
ATOM     86  C   UNL A   1      40.740  33.081  30.709  1.00  0.00     0.029 A 
ATOM     87  C   UNL A   1      42.580  34.702  32.065  1.00  0.00    -0.009 A 
ATOM     88  C   UNL A   1      41.783  33.663  30.009  1.00  0.00     0.011 A 
ATOM     89  C   UNL A   1      42.701  34.468  30.665  1.00  0.00    -0.018 A 
ATOM     90  C   UNL A   1      43.593  35.539  32.587  1.00  0.00     0.009 A 
ATOM     91  C   UNL A   1      43.746  35.019  29.900  1.00  0.00     0.009 A 
ATOM     92  C   UNL A   1      44.631  36.094  31.828  1.00  0.00     0.001 A 
ATOM     93  C   UNL A   1      44.710  35.831  30.478  1.00  0.00     0.001 A 
BRANCH  83  94
ATOM     94  C   UNL A   1      41.867  34.820  35.377  1.00  0.00     0.115 C 
ATOM     95  C   UNL A   1      41.827  36.303  35.381  1.00  0.00     0.123 C 
ATOM     96  C   UNL A   1      43.312  34.627  35.695  1.00  0.00     0.083 C 
ATOM     97  N   UNL A   1      42.936  36.825  35.793  1.00  0.00    -0.162 NA
ATOM     98  N   UNL A   1      43.882  35.760  36.002  1.00  0.00    -0.154 NA
BRANCH  96  99
ATOM     99  C   UNL A   1      43.976  33.310  35.815  1.00  0.00    -0.001 A 
ATOM    100  C   UNL A   1      45.282  33.190  35.324  1.00  0.00     0.013 A 
ATOM    101  C   UNL A   1      43.360  32.199  36.405  1.00  0.00     0.013 A 
ATOM    102  C   UNL A   1      45.972  31.981  35.452  1.00  0.00     0.040 A 
ATOM    103  C   UNL A   1      44.053  30.993  36.534  1.00  0.00     0.040 A 
ATOM    104  C   UNL A   1      45.354  30.898  36.062  1.00  0.00     0.123 A 
ATOM    105  F   UNL A   1      46.016  29.741  36.191  1.00  0.00    -0.207 F 
ENDBRANCH  96  99
ENDBRANCH  83  94
ENDBRANCH  77  80
ENDBRANCH  75  76
ENDBRANCH  74  75
ENDBRANCH  73  74
ENDBRANCH   1  73
TORSDOF 15
ENDMDL
