MODEL 1
REMARK VINA RESULT:     -13.6      0.000      0.000
REMARK SMILES CCn1ncc(NC(=O)[C@@H]2CCCC[C@@H]2C(=O)NCCCCCCNC(=O)c2ccc(-c3c4nc(c(-c5c(F)c(F)c(F)c(F)c5F)c5ccc([nH]5)c(-c5c(F)c(F)c(F)c(F)c5F)c5nc(c(-c6c(F)c(F)c(F)c(F)c6F)c6ccc3[nH]6)C=C5)C=C4)cc2)c1C(=O)Nc1cnn(C)c1C
REMARK SMILES IDX 20 1 19 2 18 3 16 4 17 5 15 7 10 8 11 9 12 10 14 11 13 12
REMARK SMILES IDX 8 13 7 14 9 16 6 17 3 18 4 19 91 20 5 21 2 22 1 23 92 24
REMARK SMILES IDX 93 25 94 26 95 28 96 29 100 30 97 31 98 32 101 33 99 34
REMARK SMILES IDX 21 35 22 36 23 37 24 38 25 39 26 40 27 42 28 43 29 44 90 45
REMARK SMILES IDX 30 46 89 47 31 48 32 49 33 50 83 51 34 52 88 53 82 54 84 55
REMARK SMILES IDX 35 56 87 57 81 58 80 59 36 61 68 62 48 63 67 64 49 65 52 66
REMARK SMILES IDX 66 67 85 68 50 69 51 70 65 72 86 73 53 74 37 75 38 76 46 77
REMARK SMILES IDX 39 78 40 79 44 80 47 81 41 82 42 83 45 84 43 85 69 86 70 87
REMARK SMILES IDX 78 88 71 89 72 90 76 91 79 92 73 93 74 94 77 95 75 96 54 97
REMARK SMILES IDX 55 98 63 99 56 100 57 101 61 102 64 103 58 104 59 105 62 106
REMARK SMILES IDX 60 107
REMARK H PARENT 18 6 7 15 94 27 25 41 84 60 52 71
REMARK Flexibility Score: inf
ROOT
ATOM      1  C   UNL A   1      34.876  23.426  23.066  1.00  0.00     0.021 C 
ENDROOT
BRANCH   1   2
ATOM      2  C   UNL A   1      34.637  24.692  23.878  1.00  0.00     0.116 C 
BRANCH   2   3
ATOM      3  N   UNL A   1      34.027  25.688  23.030  1.00  0.00    -0.356 N 
ATOM      4  C   UNL A   1      32.889  26.377  23.314  1.00  0.00     0.223 C 
ATOM      5  O   UNL A   1      32.266  26.899  22.394  1.00  0.00    -0.275 OA
ATOM      6  H   UNL A   1      34.472  25.885  22.174  1.00  0.00     0.163 HD
BRANCH   4   7
ATOM      7  C   UNL A   1      32.557  26.555  24.791  1.00  0.00     0.091 C 
ATOM      8  C   UNL A   1      31.089  26.926  25.016  1.00  0.00     0.091 C 
ATOM      9  C   UNL A   1      30.843  28.306  24.505  1.00  0.00     0.014 C 
ATOM     10  C   UNL A   1      31.810  29.392  24.899  1.00  0.00     0.001 C 
ATOM     11  C   UNL A   1      33.503  27.655  25.348  1.00  0.00     0.014 C 
ATOM     12  C   UNL A   1      33.247  29.007  24.695  1.00  0.00     0.001 C 
BRANCH   8  13
ATOM     13  C   UNL A   1      30.093  25.873  24.518  1.00  0.00     0.228 C 
ATOM     14  N   UNL A   1      30.270  24.513  24.503  1.00  0.00    -0.322 N 
ATOM     15  H   UNL A   1      29.770  24.066  23.782  1.00  0.00     0.170 HD
ATOM     16  O   UNL A   1      29.038  26.276  23.997  1.00  0.00    -0.274 OA
BRANCH  14  17
ATOM     17  C   UNL A   1      31.009  23.623  25.291  1.00  0.00     0.092 A 
ATOM     18  N   UNL A   1      32.516  22.427  26.299  1.00  0.00    -0.258 N 
ATOM     19  N   UNL A   1      31.781  22.913  27.319  1.00  0.00    -0.178 NA
ATOM     20  C   UNL A   1      31.877  22.529  25.074  1.00  0.00     0.150 A 
ATOM     21  C   UNL A   1      30.889  23.676  26.705  1.00  0.00     0.162 A 
BRANCH  18  22
ATOM     22  C   UNL A   1      33.869  22.036  26.635  1.00  0.00     0.142 C 
ATOM     23  C   UNL A   1      34.672  23.173  27.250  1.00  0.00     0.029 C 
ENDBRANCH  18  22
BRANCH  20  24
ATOM     24  C   UNL A   1      32.041  21.682  23.875  1.00  0.00     0.276 C 
ATOM     25  O   UNL A   1      31.701  22.085  22.761  1.00  0.00    -0.267 OA
ATOM     26  N   UNL A   1      32.926  20.607  23.917  1.00  0.00    -0.318 N 
ATOM     27  H   UNL A   1      33.806  20.757  23.503  1.00  0.00     0.170 HD
BRANCH  26  28
ATOM     28  C   UNL A   1      32.724  19.361  24.464  1.00  0.00     0.082 A 
ATOM     29  C   UNL A   1      32.574  19.005  25.817  1.00  0.00     0.161 A 
ATOM     30  C   UNL A   1      32.589  18.175  23.761  1.00  0.00     0.059 A 
ATOM     31  N   UNL A   1      32.549  17.683  25.982  1.00  0.00    -0.179 NA
ATOM     32  N   UNL A   1      32.671  17.201  24.730  1.00  0.00    -0.271 N 
ATOM     33  C   UNL A   1      32.550  17.830  22.315  1.00  0.00     0.068 C 
ATOM     34  C   UNL A   1      33.063  15.820  24.558  1.00  0.00     0.174 C 
ENDBRANCH  26  28
ENDBRANCH  20  24
ENDBRANCH  14  17
ENDBRANCH   8  13
ENDBRANCH   4   7
ENDBRANCH   2   3
ENDBRANCH   1   2
BRANCH   1  35
ATOM     35  C   UNL A   1      36.287  22.861  23.258  1.00  0.00     0.002 C 
BRANCH  35  36
ATOM     36  C   UNL A   1      36.967  23.239  24.585  1.00  0.00     0.002 C 
BRANCH  36  37
ATOM     37  C   UNL A   1      37.756  22.127  25.293  1.00  0.00     0.021 C 
BRANCH  37  38
ATOM     38  C   UNL A   1      38.648  22.639  26.401  1.00  0.00     0.116 C 
BRANCH  38  39
ATOM     39  N   UNL A   1      40.036  22.213  26.232  1.00  0.00    -0.352 N 
ATOM     40  C   UNL A   1      41.175  22.994  26.314  1.00  0.00     0.251 C 
ATOM     41  H   UNL A   1      40.176  21.258  26.039  1.00  0.00     0.163 HD
ATOM     42  O   UNL A   1      42.226  22.656  25.802  1.00  0.00    -0.269 OA
BRANCH  40  43
ATOM     43  C   UNL A   1      41.070  24.253  27.067  1.00  0.00     0.039 A 
ATOM     44  C   UNL A   1      41.818  24.511  28.215  1.00  0.00     0.014 A 
ATOM     45  C   UNL A   1      40.239  25.223  26.519  1.00  0.00     0.014 A 
ATOM     46  C   UNL A   1      41.748  25.787  28.769  1.00  0.00     0.010 A 
ATOM     47  C   UNL A   1      40.403  26.522  26.889  1.00  0.00     0.010 A 
ATOM     48  C   UNL A   1      41.038  26.790  28.085  1.00  0.00    -0.014 A 
BRANCH  48  49
ATOM     49  C   UNL A   1      40.945  28.153  28.579  1.00  0.00     0.031 A 
ATOM     50  C   UNL A   1      42.014  29.064  28.102  1.00  0.00     0.074 A 
ATOM     51  C   UNL A   1      39.870  28.595  29.273  1.00  0.00     0.049 A 
ATOM     52  N   UNL A   1      42.959  29.594  28.803  1.00  0.00    -0.248 NA
ATOM     53  C   UNL A   1      42.136  29.305  26.656  1.00  0.00     0.031 C 
ATOM     54  C   UNL A   1      38.597  27.919  29.571  1.00  0.00     0.029 A 
ATOM     55  N   UNL A   1      39.675  29.823  29.817  1.00  0.00    -0.354 N 
ATOM     56  C   UNL A   1      43.706  30.374  27.927  1.00  0.00     0.074 A 
ATOM     57  C   UNL A   1      43.248  30.042  26.602  1.00  0.00     0.031 C 
ATOM     58  C   UNL A   1      37.695  28.815  30.029  1.00  0.00     0.029 A 
ATOM     59  C   UNL A   1      38.377  30.073  30.246  1.00  0.00     0.049 A 
ATOM     60  H   UNL A   1      40.398  30.486  29.902  1.00  0.00     0.167 HD
ATOM     61  C   UNL A   1      44.506  31.374  28.391  1.00  0.00     0.037 A 
ATOM     62  C   UNL A   1      37.912  31.246  30.740  1.00  0.00     0.037 A 
ATOM     63  C   UNL A   1      44.734  31.231  29.808  1.00  0.00     0.049 A 
ATOM     64  C   UNL A   1      39.096  32.017  31.198  1.00  0.00     0.074 A 
ATOM     65  C   UNL A   1      45.357  30.277  30.589  1.00  0.00     0.029 A 
ATOM     66  N   UNL A   1      43.934  31.949  30.665  1.00  0.00    -0.354 N 
ATOM     67  N   UNL A   1      39.847  31.648  32.201  1.00  0.00    -0.248 NA
ATOM     68  C   UNL A   1      39.729  32.902  30.232  1.00  0.00     0.031 C 
ATOM     69  C   UNL A   1      44.524  30.148  31.741  1.00  0.00     0.029 A 
ATOM     70  C   UNL A   1      43.494  31.085  31.635  1.00  0.00     0.049 A 
ATOM     71  H   UNL A   1      43.719  32.907  30.595  1.00  0.00     0.167 HD
ATOM     72  C   UNL A   1      41.146  31.903  31.784  1.00  0.00     0.074 A 
ATOM     73  C   UNL A   1      41.007  32.729  30.586  1.00  0.00     0.031 C 
ATOM     74  C   UNL A   1      42.200  31.184  32.271  1.00  0.00     0.037 A 
BRANCH  61  75
ATOM     75  C   UNL A   1      44.805  32.657  27.661  1.00  0.00     0.064 A 
ATOM     76  C   UNL A   1      46.029  32.783  26.972  1.00  0.00     0.173 A 
ATOM     77  C   UNL A   1      44.089  33.856  27.856  1.00  0.00     0.173 A 
ATOM     78  F   UNL A   1      46.796  31.709  26.734  1.00  0.00    -0.203 F 
ATOM     79  C   UNL A   1      46.537  34.029  26.593  1.00  0.00     0.198 A 
ATOM     80  C   UNL A   1      44.577  35.091  27.431  1.00  0.00     0.198 A 
ATOM     81  F   UNL A   1      42.952  33.902  28.559  1.00  0.00    -0.203 F 
ATOM     82  F   UNL A   1      47.762  34.112  26.057  1.00  0.00    -0.200 F 
ATOM     83  C   UNL A   1      45.815  35.183  26.831  1.00  0.00     0.200 A 
ATOM     84  F   UNL A   1      43.868  36.200  27.684  1.00  0.00    -0.200 F 
ATOM     85  F   UNL A   1      46.328  36.382  26.530  1.00  0.00    -0.200 F 
ENDBRANCH  61  75
BRANCH  62  86
ATOM     86  C   UNL A   1      36.592  31.873  30.494  1.00  0.00     0.064 A 
ATOM     87  C   UNL A   1      35.787  32.313  31.555  1.00  0.00     0.173 A 
ATOM     88  C   UNL A   1      36.231  32.316  29.205  1.00  0.00     0.173 A 
ATOM     89  F   UNL A   1      36.093  31.974  32.815  1.00  0.00    -0.203 F 
ATOM     90  C   UNL A   1      34.700  33.169  31.345  1.00  0.00     0.198 A 
ATOM     91  C   UNL A   1      35.146  33.170  28.996  1.00  0.00     0.198 A 
ATOM     92  F   UNL A   1      36.985  32.010  28.140  1.00  0.00    -0.203 F 
ATOM     93  F   UNL A   1      33.990  33.619  32.389  1.00  0.00    -0.200 F 
ATOM     94  C   UNL A   1      34.388  33.605  30.067  1.00  0.00     0.200 A 
ATOM     95  F   UNL A   1      34.882  33.620  27.761  1.00  0.00    -0.200 F 
ATOM     96  F   UNL A   1      33.389  34.479  29.873  1.00  0.00    -0.200 F 
ENDBRANCH  62  86
BRANCH  74  97
ATOM     97  C   UNL A   1      41.948  30.250  33.424  1.00  0.00     0.064 A 
ATOM     98  C   UNL A   1      41.605  28.894  33.282  1.00  0.00     0.173 A 
ATOM     99  C   UNL A   1      42.239  30.705  34.717  1.00  0.00     0.173 A 
ATOM    100  F   UNL A   1      41.401  28.357  32.075  1.00  0.00    -0.203 F 
ATOM    101  C   UNL A   1      41.533  28.043  34.386  1.00  0.00     0.198 A 
ATOM    102  C   UNL A   1      42.200  29.846  35.813  1.00  0.00     0.198 A 
ATOM    103  F   UNL A   1      42.625  31.976  34.908  1.00  0.00    -0.203 F 
ATOM    104  F   UNL A   1      41.207  26.751  34.221  1.00  0.00    -0.200 F 
ATOM    105  C   UNL A   1      41.841  28.518  35.649  1.00  0.00     0.200 A 
ATOM    106  F   UNL A   1      42.547  30.300  37.024  1.00  0.00    -0.200 F 
ATOM    107  F   UNL A   1      41.820  27.692  36.704  1.00  0.00    -0.200 F 
ENDBRANCH  74  97
ENDBRANCH  48  49
ENDBRANCH  40  43
ENDBRANCH  38  39
ENDBRANCH  37  38
ENDBRANCH  36  37
ENDBRANCH  35  36
ENDBRANCH   1  35
TORSDOF 18
ENDMDL
MODEL 2
REMARK VINA RESULT:     -13.5      2.625      5.129
REMARK SMILES CCn1ncc(NC(=O)[C@@H]2CCCC[C@@H]2C(=O)NCCCCCCNC(=O)c2ccc(-c3c4nc(c(-c5c(F)c(F)c(F)c(F)c5F)c5ccc([nH]5)c(-c5c(F)c(F)c(F)c(F)c5F)c5nc(c(-c6c(F)c(F)c(F)c(F)c6F)c6ccc3[nH]6)C=C5)C=C4)cc2)c1C(=O)Nc1cnn(C)c1C
REMARK SMILES IDX 20 1 19 2 18 3 16 4 17 5 15 7 10 8 11 9 12 10 14 11 13 12
REMARK SMILES IDX 8 13 7 14 9 16 6 17 3 18 4 19 91 20 5 21 2 22 1 23 92 24
REMARK SMILES IDX 93 25 94 26 95 28 96 29 100 30 97 31 98 32 101 33 99 34
REMARK SMILES IDX 21 35 22 36 23 37 24 38 25 39 26 40 27 42 28 43 29 44 90 45
REMARK SMILES IDX 30 46 89 47 31 48 32 49 33 50 83 51 34 52 88 53 82 54 84 55
REMARK SMILES IDX 35 56 87 57 81 58 80 59 36 61 68 62 48 63 67 64 49 65 52 66
REMARK SMILES IDX 66 67 85 68 50 69 51 70 65 72 86 73 53 74 37 75 38 76 46 77
REMARK SMILES IDX 39 78 40 79 44 80 47 81 41 82 42 83 45 84 43 85 69 86 70 87
REMARK SMILES IDX 78 88 71 89 72 90 76 91 79 92 73 93 74 94 77 95 75 96 54 97
REMARK SMILES IDX 55 98 63 99 56 100 57 101 61 102 64 103 58 104 59 105 62 106
REMARK SMILES IDX 60 107
REMARK H PARENT 18 6 7 15 94 27 25 41 84 60 52 71
REMARK Flexibility Score: inf
ROOT
ATOM      1  C   UNL A   1      38.108  23.372  26.087  1.00  0.00     0.021 C 
ENDROOT
BRANCH   1   2
ATOM      2  C   UNL A   1      36.639  23.517  25.712  1.00  0.00     0.116 C 
BRANCH   2   3
ATOM      3  N   UNL A   1      35.843  22.704  26.601  1.00  0.00    -0.356 N 
ATOM      4  C   UNL A   1      34.484  22.663  26.630  1.00  0.00     0.223 C 
ATOM      5  O   UNL A   1      33.923  22.250  27.640  1.00  0.00    -0.275 OA
ATOM      6  H   UNL A   1      36.325  22.130  27.240  1.00  0.00     0.163 HD
BRANCH   4   7
ATOM      7  C   UNL A   1      33.770  23.015  25.330  1.00  0.00     0.091 C 
ATOM      8  C   UNL A   1      32.249  22.877  25.446  1.00  0.00     0.091 C 
ATOM      9  C   UNL A   1      31.892  21.434  25.580  1.00  0.00     0.014 C 
ATOM     10  C   UNL A   1      32.519  20.456  24.622  1.00  0.00     0.001 C 
ATOM     11  C   UNL A   1      34.332  22.080  24.225  1.00  0.00     0.014 C 
ATOM     12  C   UNL A   1      34.006  20.617  24.499  1.00  0.00     0.001 C 
BRANCH   8  13
ATOM     13  C   UNL A   1      31.615  23.793  26.499  1.00  0.00     0.228 C 
ATOM     14  N   UNL A   1      31.888  25.120  26.709  1.00  0.00    -0.322 N 
ATOM     15  H   UNL A   1      31.750  25.400  27.643  1.00  0.00     0.170 HD
ATOM     16  O   UNL A   1      30.823  23.281  27.309  1.00  0.00    -0.274 OA
BRANCH  14  17
ATOM     17  C   UNL A   1      32.324  26.163  25.882  1.00  0.00     0.092 A 
ATOM     18  N   UNL A   1      32.602  27.976  24.719  1.00  0.00    -0.258 N 
ATOM     19  N   UNL A   1      33.754  27.880  25.411  1.00  0.00    -0.178 NA
ATOM     20  C   UNL A   1      31.882  26.791  24.696  1.00  0.00     0.150 A 
ATOM     21  C   UNL A   1      33.564  26.797  26.152  1.00  0.00     0.162 A 
BRANCH  18  22
ATOM     22  C   UNL A   1      32.256  29.306  24.263  1.00  0.00     0.142 C 
ATOM     23  C   UNL A   1      31.466  30.094  25.298  1.00  0.00     0.029 C 
ENDBRANCH  18  22
BRANCH  20  24
ATOM     24  C   UNL A   1      30.935  26.307  23.671  1.00  0.00     0.276 C 
ATOM     25  O   UNL A   1      31.047  25.180  23.184  1.00  0.00    -0.267 OA
ATOM     26  N   UNL A   1      29.699  26.937  23.535  1.00  0.00    -0.318 N 
ATOM     27  H   UNL A   1      28.935  26.481  23.955  1.00  0.00     0.170 HD
BRANCH  26  28
ATOM     28  C   UNL A   1      29.414  28.115  22.885  1.00  0.00     0.082 A 
ATOM     29  C   UNL A   1      30.234  28.872  22.029  1.00  0.00     0.161 A 
ATOM     30  C   UNL A   1      28.205  28.792  22.921  1.00  0.00     0.059 A 
ATOM     31  N   UNL A   1      29.672  30.037  21.707  1.00  0.00    -0.179 NA
ATOM     32  N   UNL A   1      28.488  30.012  22.350  1.00  0.00    -0.271 N 
ATOM     33  C   UNL A   1      26.883  28.515  23.544  1.00  0.00     0.068 C 
ATOM     34  C   UNL A   1      27.780  31.258  22.539  1.00  0.00     0.174 C 
ENDBRANCH  26  28
ENDBRANCH  20  24
ENDBRANCH  14  17
ENDBRANCH   8  13
ENDBRANCH   4   7
ENDBRANCH   2   3
ENDBRANCH   1   2
BRANCH   1  35
ATOM     35  C   UNL A   1      38.619  21.937  25.919  1.00  0.00     0.002 C 
BRANCH  35  36
ATOM     36  C   UNL A   1      39.990  21.654  26.558  1.00  0.00     0.002 C 
BRANCH  36  37
ATOM     37  C   UNL A   1      40.673  20.337  26.159  1.00  0.00     0.021 C 
BRANCH  37  38
ATOM     38  C   UNL A   1      41.911  20.036  26.972  1.00  0.00     0.116 C 
BRANCH  38  39
ATOM     39  N   UNL A   1      43.083  19.805  26.129  1.00  0.00    -0.352 N 
ATOM     40  C   UNL A   1      43.771  20.732  25.366  1.00  0.00     0.251 C 
ATOM     41  H   UNL A   1      43.422  18.881  26.101  1.00  0.00     0.163 HD
ATOM     42  O   UNL A   1      44.472  20.402  24.428  1.00  0.00    -0.269 OA
BRANCH  40  43
ATOM     43  C   UNL A   1      43.634  22.146  25.748  1.00  0.00     0.039 A 
ATOM     44  C   UNL A   1      42.897  23.063  24.999  1.00  0.00     0.014 A 
ATOM     45  C   UNL A   1      44.213  22.509  26.958  1.00  0.00     0.014 A 
ATOM     46  C   UNL A   1      42.714  24.340  25.523  1.00  0.00     0.010 A 
ATOM     47  C   UNL A   1      43.789  23.641  27.583  1.00  0.00     0.010 A 
ATOM     48  C   UNL A   1      43.161  24.613  26.828  1.00  0.00    -0.014 A 
BRANCH  48  49
ATOM     49  C   UNL A   1      42.980  25.908  27.459  1.00  0.00     0.031 A 
ATOM     50  C   UNL A   1      43.964  26.943  27.056  1.00  0.00     0.074 A 
ATOM     51  C   UNL A   1      41.896  26.194  28.218  1.00  0.00     0.049 A 
ATOM     52  N   UNL A   1      44.887  27.471  27.787  1.00  0.00    -0.248 NA
ATOM     53  C   UNL A   1      44.025  27.336  25.640  1.00  0.00     0.031 C 
ATOM     54  C   UNL A   1      40.686  25.395  28.472  1.00  0.00     0.029 A 
ATOM     55  N   UNL A   1      41.625  27.342  28.888  1.00  0.00    -0.354 N 
ATOM     56  C   UNL A   1      45.548  28.391  26.979  1.00  0.00     0.074 A 
ATOM     57  C   UNL A   1      45.077  28.158  25.637  1.00  0.00     0.031 C 
ATOM     58  C   UNL A   1      39.733  26.168  29.038  1.00  0.00     0.029 A 
ATOM     59  C   UNL A   1      40.325  27.447  29.368  1.00  0.00     0.049 A 
ATOM     60  H   UNL A   1      42.299  28.047  29.025  1.00  0.00     0.167 HD
ATOM     61  C   UNL A   1      46.283  29.398  27.526  1.00  0.00     0.037 A 
ATOM     62  C   UNL A   1      39.788  28.525  29.988  1.00  0.00     0.037 A 
ATOM     63  C   UNL A   1      46.562  29.132  28.916  1.00  0.00     0.049 A 
ATOM     64  C   UNL A   1      40.924  29.335  30.498  1.00  0.00     0.074 A 
ATOM     65  C   UNL A   1      47.277  28.156  29.582  1.00  0.00     0.029 A 
ATOM     66  N   UNL A   1      45.736  29.697  29.858  1.00  0.00    -0.354 N 
ATOM     67  N   UNL A   1      41.729  28.927  31.442  1.00  0.00    -0.248 NA
ATOM     68  C   UNL A   1      41.461  30.359  29.614  1.00  0.00     0.031 C 
ATOM     69  C   UNL A   1      46.490  27.848  30.732  1.00  0.00     0.029 A 
ATOM     70  C   UNL A   1      45.390  28.709  30.745  1.00  0.00     0.049 A 
ATOM     71  H   UNL A   1      45.447  30.637  29.891  1.00  0.00     0.167 HD
ATOM     72  C   UNL A   1      42.992  29.322  31.026  1.00  0.00     0.074 A 
ATOM     73  C   UNL A   1      42.757  30.251  29.921  1.00  0.00     0.031 C 
ATOM     74  C   UNL A   1      44.111  28.642  31.414  1.00  0.00     0.037 A 
BRANCH  61  75
ATOM     75  C   UNL A   1      46.464  30.767  26.924  1.00  0.00     0.064 A 
ATOM     76  C   UNL A   1      47.752  31.340  26.902  1.00  0.00     0.173 A 
ATOM     77  C   UNL A   1      45.399  31.649  26.648  1.00  0.00     0.173 A 
ATOM     78  F   UNL A   1      48.839  30.596  27.154  1.00  0.00    -0.203 F 
ATOM     79  C   UNL A   1      47.946  32.711  26.711  1.00  0.00     0.198 A 
ATOM     80  C   UNL A   1      45.602  33.008  26.407  1.00  0.00     0.198 A 
ATOM     81  F   UNL A   1      44.120  31.265  26.710  1.00  0.00    -0.203 F 
ATOM     82  F   UNL A   1      49.175  33.231  26.825  1.00  0.00    -0.200 F 
ATOM     83  C   UNL A   1      46.870  33.545  26.473  1.00  0.00     0.200 A 
ATOM     84  F   UNL A   1      44.544  33.802  26.193  1.00  0.00    -0.200 F 
ATOM     85  F   UNL A   1      47.045  34.867  26.355  1.00  0.00    -0.200 F 
ENDBRANCH  61  75
BRANCH  62  86
ATOM     86  C   UNL A   1      38.418  29.069  29.836  1.00  0.00     0.064 A 
ATOM     87  C   UNL A   1      37.643  29.409  30.954  1.00  0.00     0.173 A 
ATOM     88  C   UNL A   1      37.962  29.538  28.587  1.00  0.00     0.173 A 
ATOM     89  F   UNL A   1      38.035  29.041  32.181  1.00  0.00    -0.203 F 
ATOM     90  C   UNL A   1      36.491  30.196  30.835  1.00  0.00     0.198 A 
ATOM     91  C   UNL A   1      36.813  30.323  28.470  1.00  0.00     0.198 A 
ATOM     92  F   UNL A   1      38.678  29.329  27.473  1.00  0.00    -0.203 F 
ATOM     93  F   UNL A   1      35.808  30.553  31.932  1.00  0.00    -0.200 F 
ATOM     94  C   UNL A   1      36.084  30.662  29.595  1.00  0.00     0.200 A 
ATOM     95  F   UNL A   1      36.455  30.804  27.270  1.00  0.00    -0.200 F 
ATOM     96  F   UNL A   1      35.021  31.471  29.489  1.00  0.00    -0.200 F 
ENDBRANCH  62  86
BRANCH  74  97
ATOM     97  C   UNL A   1      43.963  27.581  32.471  1.00  0.00     0.064 A 
ATOM     98  C   UNL A   1      43.891  26.203  32.202  1.00  0.00     0.173 A 
ATOM     99  C   UNL A   1      44.078  27.966  33.813  1.00  0.00     0.173 A 
ATOM    100  F   UNL A   1      43.871  25.746  30.946  1.00  0.00    -0.203 F 
ATOM    101  C   UNL A   1      43.907  25.259  33.231  1.00  0.00     0.198 A 
ATOM    102  C   UNL A   1      44.129  27.022  34.836  1.00  0.00     0.198 A 
ATOM    103  F   UNL A   1      44.206  29.264  34.128  1.00  0.00    -0.203 F 
ATOM    104  F   UNL A   1      43.840  23.949  32.945  1.00  0.00    -0.200 F 
ATOM    105  C   UNL A   1      44.036  25.671  34.546  1.00  0.00     0.200 A 
ATOM    106  F   UNL A   1      44.304  27.424  36.102  1.00  0.00    -0.200 F 
ATOM    107  F   UNL A   1      44.102  24.765  35.532  1.00  0.00    -0.200 F 
ENDBRANCH  74  97
ENDBRANCH  48  49
ENDBRANCH  40  43
ENDBRANCH  38  39
ENDBRANCH  37  38
ENDBRANCH  36  37
ENDBRANCH  35  36
ENDBRANCH   1  35
TORSDOF 18
ENDMDL
MODEL 3
REMARK VINA RESULT:     -13.0      2.642      5.262
REMARK SMILES CCn1ncc(NC(=O)[C@@H]2CCCC[C@@H]2C(=O)NCCCCCCNC(=O)c2ccc(-c3c4nc(c(-c5c(F)c(F)c(F)c(F)c5F)c5ccc([nH]5)c(-c5c(F)c(F)c(F)c(F)c5F)c5nc(c(-c6c(F)c(F)c(F)c(F)c6F)c6ccc3[nH]6)C=C5)C=C4)cc2)c1C(=O)Nc1cnn(C)c1C
REMARK SMILES IDX 20 1 19 2 18 3 16 4 17 5 15 7 10 8 11 9 12 10 14 11 13 12
REMARK SMILES IDX 8 13 7 14 9 16 6 17 3 18 4 19 91 20 5 21 2 22 1 23 92 24
REMARK SMILES IDX 93 25 94 26 95 28 96 29 100 30 97 31 98 32 101 33 99 34
REMARK SMILES IDX 21 35 22 36 23 37 24 38 25 39 26 40 27 42 28 43 29 44 90 45
REMARK SMILES IDX 30 46 89 47 31 48 32 49 33 50 83 51 34 52 88 53 82 54 84 55
REMARK SMILES IDX 35 56 87 57 81 58 80 59 36 61 68 62 48 63 67 64 49 65 52 66
REMARK SMILES IDX 66 67 85 68 50 69 51 70 65 72 86 73 53 74 37 75 38 76 46 77
REMARK SMILES IDX 39 78 40 79 44 80 47 81 41 82 42 83 45 84 43 85 69 86 70 87
REMARK SMILES IDX 78 88 71 89 72 90 76 91 79 92 73 93 74 94 77 95 75 96 54 97
REMARK SMILES IDX 55 98 63 99 56 100 57 101 61 102 64 103 58 104 59 105 62 106
REMARK SMILES IDX 60 107
REMARK H PARENT 18 6 7 15 94 27 25 41 84 60 52 71
REMARK Flexibility Score: inf
ROOT
ATOM      1  C   UNL A   1      38.047  23.668  26.067  1.00  0.00     0.021 C 
ENDROOT
BRANCH   1   2
ATOM      2  C   UNL A   1      36.535  23.781  25.927  1.00  0.00     0.116 C 
BRANCH   2   3
ATOM      3  N   UNL A   1      35.909  22.748  26.717  1.00  0.00    -0.356 N 
ATOM      4  C   UNL A   1      34.585  22.438  26.707  1.00  0.00     0.223 C 
ATOM      5  O   UNL A   1      34.109  21.830  27.661  1.00  0.00    -0.275 OA
ATOM      6  H   UNL A   1      36.490  22.224  27.315  1.00  0.00     0.163 HD
BRANCH   4   7
ATOM      7  C   UNL A   1      33.825  22.763  25.425  1.00  0.00     0.091 C 
ATOM      8  C   UNL A   1      32.317  22.541  25.571  1.00  0.00     0.091 C 
ATOM      9  C   UNL A   1      32.042  21.080  25.699  1.00  0.00     0.014 C 
ATOM     10  C   UNL A   1      32.699  20.146  24.717  1.00  0.00     0.001 C 
ATOM     11  C   UNL A   1      34.414  21.868  24.300  1.00  0.00     0.014 C 
ATOM     12  C   UNL A   1      34.173  20.388  24.566  1.00  0.00     0.001 C 
BRANCH   8  13
ATOM     13  C   UNL A   1      31.657  23.412  26.646  1.00  0.00     0.228 C 
ATOM     14  N   UNL A   1      31.386  24.754  26.568  1.00  0.00    -0.322 N 
ATOM     15  H   UNL A   1      31.394  25.202  27.445  1.00  0.00     0.170 HD
ATOM     16  O   UNL A   1      31.402  22.883  27.742  1.00  0.00    -0.274 OA
BRANCH  14  17
ATOM     17  C   UNL A   1      31.103  25.626  25.510  1.00  0.00     0.092 A 
ATOM     18  N   UNL A   1      30.942  26.702  23.630  1.00  0.00    -0.258 N 
ATOM     19  N   UNL A   1      29.656  26.526  23.991  1.00  0.00    -0.178 NA
ATOM     20  C   UNL A   1      31.831  26.505  24.675  1.00  0.00     0.150 A 
ATOM     21  C   UNL A   1      29.756  25.833  25.116  1.00  0.00     0.162 A 
BRANCH  18  22
ATOM     22  C   UNL A   1      31.170  26.909  22.215  1.00  0.00     0.142 C 
ATOM     23  C   UNL A   1      31.908  25.748  21.564  1.00  0.00     0.029 C 
ENDBRANCH  18  22
BRANCH  20  24
ATOM     24  C   UNL A   1      33.169  27.098  24.872  1.00  0.00     0.276 C 
ATOM     25  O   UNL A   1      34.187  26.408  24.795  1.00  0.00    -0.267 OA
ATOM     26  N   UNL A   1      33.327  28.477  24.748  1.00  0.00    -0.318 N 
ATOM     27  H   UNL A   1      33.696  28.793  23.892  1.00  0.00     0.170 HD
BRANCH  26  28
ATOM     28  C   UNL A   1      33.033  29.451  25.673  1.00  0.00     0.082 A 
ATOM     29  C   UNL A   1      31.894  30.273  25.757  1.00  0.00     0.161 A 
ATOM     30  C   UNL A   1      33.813  29.802  26.763  1.00  0.00     0.059 A 
ATOM     31  N   UNL A   1      32.026  31.208  26.698  1.00  0.00    -0.179 NA
ATOM     32  N   UNL A   1      33.245  30.970  27.219  1.00  0.00    -0.271 N 
ATOM     33  C   UNL A   1      35.087  29.285  27.331  1.00  0.00     0.068 C 
ATOM     34  C   UNL A   1      33.879  32.012  27.995  1.00  0.00     0.174 C 
ENDBRANCH  26  28
ENDBRANCH  20  24
ENDBRANCH  14  17
ENDBRANCH   8  13
ENDBRANCH   4   7
ENDBRANCH   2   3
ENDBRANCH   1   2
BRANCH   1  35
ATOM     35  C   UNL A   1      38.552  22.239  25.844  1.00  0.00     0.002 C 
BRANCH  35  36
ATOM     36  C   UNL A   1      39.791  21.848  26.669  1.00  0.00     0.002 C 
BRANCH  36  37
ATOM     37  C   UNL A   1      40.501  20.546  26.267  1.00  0.00     0.021 C 
BRANCH  37  38
ATOM     38  C   UNL A   1      41.785  20.307  27.026  1.00  0.00     0.116 C 
BRANCH  38  39
ATOM     39  N   UNL A   1      42.915  20.055  26.134  1.00  0.00    -0.352 N 
ATOM     40  C   UNL A   1      43.615  20.977  25.375  1.00  0.00     0.251 C 
ATOM     41  H   UNL A   1      43.215  19.120  26.065  1.00  0.00     0.163 HD
ATOM     42  O   UNL A   1      44.268  20.649  24.402  1.00  0.00    -0.269 OA
BRANCH  40  43
ATOM     43  C   UNL A   1      43.551  22.383  25.805  1.00  0.00     0.039 A 
ATOM     44  C   UNL A   1      42.737  23.327  25.181  1.00  0.00     0.014 A 
ATOM     45  C   UNL A   1      44.289  22.708  26.936  1.00  0.00     0.014 A 
ATOM     46  C   UNL A   1      42.644  24.593  25.755  1.00  0.00     0.010 A 
ATOM     47  C   UNL A   1      43.968  23.829  27.638  1.00  0.00     0.010 A 
ATOM     48  C   UNL A   1      43.263  24.827  26.995  1.00  0.00    -0.014 A 
BRANCH  48  49
ATOM     49  C   UNL A   1      43.186  26.108  27.676  1.00  0.00     0.031 A 
ATOM     50  C   UNL A   1      44.206  27.100  27.257  1.00  0.00     0.074 A 
ATOM     51  C   UNL A   1      42.158  26.427  28.496  1.00  0.00     0.049 A 
ATOM     52  N   UNL A   1      45.192  27.551  27.957  1.00  0.00    -0.248 NA
ATOM     53  C   UNL A   1      44.222  27.537  25.852  1.00  0.00     0.031 C 
ATOM     54  C   UNL A   1      40.918  25.688  28.785  1.00  0.00     0.029 A 
ATOM     55  N   UNL A   1      41.985  27.565  29.215  1.00  0.00    -0.354 N 
ATOM     56  C   UNL A   1      45.865  28.460  27.147  1.00  0.00     0.074 A 
ATOM     57  C   UNL A   1      45.318  28.300  25.824  1.00  0.00     0.031 C 
ATOM     58  C   UNL A   1      40.038  26.493  29.422  1.00  0.00     0.029 A 
ATOM     59  C   UNL A   1      40.718  27.725  29.762  1.00  0.00     0.049 A 
ATOM     60  H   UNL A   1      42.703  28.227  29.340  1.00  0.00     0.167 HD
ATOM     61  C   UNL A   1      46.682  29.405  27.688  1.00  0.00     0.037 A 
ATOM     62  C   UNL A   1      40.273  28.810  30.442  1.00  0.00     0.037 A 
ATOM     63  C   UNL A   1      47.012  29.077  29.053  1.00  0.00     0.049 A 
ATOM     64  C   UNL A   1      41.477  29.538  30.919  1.00  0.00     0.074 A 
ATOM     65  C   UNL A   1      47.701  28.040  29.652  1.00  0.00     0.029 A 
ATOM     66  N   UNL A   1      46.265  29.654  30.053  1.00  0.00    -0.354 N 
ATOM     67  N   UNL A   1      42.301  29.053  31.809  1.00  0.00    -0.248 NA
ATOM     68  C   UNL A   1      42.028  30.560  30.042  1.00  0.00     0.031 C 
ATOM     69  C   UNL A   1      46.954  27.737  30.829  1.00  0.00     0.029 A 
ATOM     70  C   UNL A   1      45.906  28.656  30.924  1.00  0.00     0.049 A 
ATOM     71  H   UNL A   1      46.032  30.607  30.129  1.00  0.00     0.167 HD
ATOM     72  C   UNL A   1      43.564  29.392  31.343  1.00  0.00     0.074 A 
ATOM     73  C   UNL A   1      43.329  30.370  30.282  1.00  0.00     0.031 C 
ATOM     74  C   UNL A   1      44.659  28.638  31.654  1.00  0.00     0.037 A 
BRANCH  61  75
ATOM     75  C   UNL A   1      46.911  30.782  27.121  1.00  0.00     0.064 A 
ATOM     76  C   UNL A   1      48.229  31.278  27.040  1.00  0.00     0.173 A 
ATOM     77  C   UNL A   1      45.888  31.736  26.939  1.00  0.00     0.173 A 
ATOM     78  F   UNL A   1      49.280  30.461  27.202  1.00  0.00    -0.203 F 
ATOM     79  C   UNL A   1      48.495  32.641  26.882  1.00  0.00     0.198 A 
ATOM     80  C   UNL A   1      46.160  33.088  26.731  1.00  0.00     0.198 A 
ATOM     81  F   UNL A   1      44.594  31.426  27.065  1.00  0.00    -0.203 F 
ATOM     82  F   UNL A   1      49.759  33.082  26.939  1.00  0.00    -0.200 F 
ATOM     83  C   UNL A   1      47.461  33.546  26.737  1.00  0.00     0.200 A 
ATOM     84  F   UNL A   1      45.143  33.951  26.607  1.00  0.00    -0.200 F 
ATOM     85  F   UNL A   1      47.710  34.858  26.652  1.00  0.00    -0.200 F 
ENDBRANCH  61  75
BRANCH  62  86
ATOM     86  C   UNL A   1      38.931  29.433  30.375  1.00  0.00     0.064 A 
ATOM     87  C   UNL A   1      38.120  29.537  31.515  1.00  0.00     0.173 A 
ATOM     88  C   UNL A   1      38.545  30.200  29.257  1.00  0.00     0.173 A 
ATOM     89  F   UNL A   1      38.446  28.876  32.634  1.00  0.00    -0.203 F 
ATOM     90  C   UNL A   1      37.002  30.379  31.546  1.00  0.00     0.198 A 
ATOM     91  C   UNL A   1      37.430  31.040  29.288  1.00  0.00     0.198 A 
ATOM     92  F   UNL A   1      39.301  30.225  28.150  1.00  0.00    -0.203 F 
ATOM     93  F   UNL A   1      36.285  30.501  32.672  1.00  0.00    -0.200 F 
ATOM     94  C   UNL A   1      36.666  31.139  30.436  1.00  0.00     0.200 A 
ATOM     95  F   UNL A   1      37.141  31.803  28.224  1.00  0.00    -0.200 F 
ATOM     96  F   UNL A   1      35.636  31.996  30.488  1.00  0.00    -0.200 F 
ENDBRANCH  62  86
BRANCH  74  97
ATOM     97  C   UNL A   1      44.502  27.551  32.683  1.00  0.00     0.064 A 
ATOM     98  C   UNL A   1      44.236  26.205  32.376  1.00  0.00     0.173 A 
ATOM     99  C   UNL A   1      44.808  27.855  34.015  1.00  0.00     0.173 A 
ATOM    100  F   UNL A   1      44.024  25.814  31.115  1.00  0.00    -0.203 F 
ATOM    101  C   UNL A   1      44.252  25.217  33.362  1.00  0.00     0.198 A 
ATOM    102  C   UNL A   1      44.858  26.863  34.992  1.00  0.00     0.198 A 
ATOM    103  F   UNL A   1      45.124  29.113  34.360  1.00  0.00    -0.203 F 
ATOM    104  F   UNL A   1      43.997  23.939  33.040  1.00  0.00    -0.200 F 
ATOM    105  C   UNL A   1      44.573  25.547  34.668  1.00  0.00     0.200 A 
ATOM    106  F   UNL A   1      45.217  27.180  36.243  1.00  0.00    -0.200 F 
ATOM    107  F   UNL A   1      44.637  24.593  35.607  1.00  0.00    -0.200 F 
ENDBRANCH  74  97
ENDBRANCH  48  49
ENDBRANCH  40  43
ENDBRANCH  38  39
ENDBRANCH  37  38
ENDBRANCH  36  37
ENDBRANCH  35  36
ENDBRANCH   1  35
TORSDOF 18
ENDMDL
