MODEL 1
REMARK VINA RESULT:     -14.6      0.000      0.000
REMARK SMILES Cc1ccccc1[C@@H]1[NH2+][C@@H](C(=O)NCCCCCCNC(=O)c2ccc(-c3c4nc(c(-c5c(F)c(F)c(F)c(F)c5F)c5ccc([nH]5)c(-c5c(F)c(F)c(F)c(F)c5F)c5nc(c(-c6c(F)c(F)c(F)c(F)c6F)c6ccc3[nH]6)C=C5)C=C4)cc2)CC2=c3ccccc3=N[C@H]21
REMARK SMILES IDX 17 1 16 2 15 3 14 4 13 5 11 6 12 7 10 9 8 10 9 11 95 12
REMARK SMILES IDX 87 15 94 16 86 17 88 18 93 19 89 20 92 21 90 22 91 23 7 24
REMARK SMILES IDX 1 25 2 26 3 27 4 28 6 29 5 30 18 31 19 32 20 33 21 34 22 36
REMARK SMILES IDX 23 37 24 38 85 39 25 40 84 41 26 42 27 43 28 44 78 45 29 46
REMARK SMILES IDX 83 47 77 48 79 49 30 50 82 51 76 52 75 53 31 55 63 56 43 57
REMARK SMILES IDX 62 58 44 59 47 60 61 61 80 62 45 63 46 64 60 66 81 67 48 68
REMARK SMILES IDX 32 69 33 70 41 71 34 72 35 73 39 74 42 75 36 76 37 77 40 78
REMARK SMILES IDX 38 79 64 80 65 81 73 82 66 83 67 84 71 85 74 86 68 87 69 88
REMARK SMILES IDX 72 89 70 90 49 91 50 92 58 93 51 94 52 95 56 96 59 97 53 98
REMARK SMILES IDX 54 99 57 100 55 101
REMARK H PARENT 13 8 9 13 9 14 20 35 79 54 47 65
REMARK Flexibility Score: inf
ROOT
ATOM      1  C   UNL A   1      32.035  29.769  25.718  1.00  0.00     0.002 C 
ENDROOT
BRANCH   1   2
ATOM      2  C   UNL A   1      32.407  28.276  25.804  1.00  0.00     0.002 C 
BRANCH   2   3
ATOM      3  C   UNL A   1      31.361  27.313  26.384  1.00  0.00     0.021 C 
BRANCH   3   4
ATOM      4  C   UNL A   1      31.822  25.867  26.587  1.00  0.00     0.116 C 
BRANCH   4   5
ATOM      5  N   UNL A   1      30.778  24.884  26.803  1.00  0.00    -0.351 N 
ATOM      6  C   UNL A   1      30.818  23.516  26.814  1.00  0.00     0.278 C 
ATOM      7  O   UNL A   1      29.990  22.956  27.547  1.00  0.00    -0.268 OA
ATOM      8  H   UNL A   1      29.886  25.266  26.971  1.00  0.00     0.163 HD
BRANCH   6   9
ATOM      9  C   UNL A   1      31.681  22.678  25.822  1.00  0.00     0.277 C 
ATOM     10  C   UNL A   1      34.117  23.374  25.307  1.00  0.00     0.243 C 
ATOM     11  N   UNL A   1      33.122  22.749  26.222  1.00  0.00    -0.327 N 
ATOM     12  C   UNL A   1      33.734  23.558  23.805  1.00  0.00     0.196 C 
ATOM     13  H   UNL A   1      33.160  23.269  27.098  1.00  0.00     0.347 HD
ATOM     14  H   UNL A   1      33.408  21.770  26.246  1.00  0.00     0.347 HD
ATOM     15  C   UNL A   1      32.275  23.860  23.723  1.00  0.00    -0.024 C 
ATOM     16  N   UNL A   1      34.399  24.740  23.177  1.00  0.00    -0.270 NA
ATOM     17  C   UNL A   1      31.410  22.824  24.324  1.00  0.00     0.109 C 
ATOM     18  C   UNL A   1      32.042  25.053  23.197  1.00  0.00     0.002 A 
ATOM     19  C   UNL A   1      33.401  25.503  22.846  1.00  0.00     0.066 A 
ATOM     20  C   UNL A   1      30.900  25.880  22.997  1.00  0.00     0.010 A 
ATOM     21  C   UNL A   1      33.496  26.797  22.137  1.00  0.00     0.028 A 
ATOM     22  C   UNL A   1      31.070  27.078  22.415  1.00  0.00     0.001 A 
ATOM     23  C   UNL A   1      32.376  27.514  21.946  1.00  0.00     0.002 A 
BRANCH  10  24
ATOM     24  C   UNL A   1      35.455  22.622  25.395  1.00  0.00     0.015 A 
ATOM     25  C   UNL A   1      34.465  20.330  24.741  1.00  0.00     0.045 C 
ATOM     26  C   UNL A   1      35.606  21.244  25.100  1.00  0.00    -0.042 A 
ATOM     27  C   UNL A   1      36.897  20.684  25.064  1.00  0.00     0.004 A 
ATOM     28  C   UNL A   1      38.024  21.445  25.364  1.00  0.00     0.000 A 
ATOM     29  C   UNL A   1      36.610  23.366  25.719  1.00  0.00     0.010 A 
ATOM     30  C   UNL A   1      37.879  22.781  25.708  1.00  0.00     0.001 A 
ENDBRANCH  10  24
ENDBRANCH   6   9
ENDBRANCH   4   5
ENDBRANCH   3   4
ENDBRANCH   2   3
ENDBRANCH   1   2
BRANCH   1  31
ATOM     31  C   UNL A   1      32.482  30.665  26.877  1.00  0.00     0.021 C 
BRANCH  31  32
ATOM     32  C   UNL A   1      33.717  30.176  27.625  1.00  0.00     0.116 C 
BRANCH  32  33
ATOM     33  N   UNL A   1      34.413  31.209  28.386  1.00  0.00    -0.352 N 
ATOM     34  C   UNL A   1      35.612  31.152  29.083  1.00  0.00     0.251 C 
ATOM     35  H   UNL A   1      33.960  32.083  28.409  1.00  0.00     0.163 HD
ATOM     36  O   UNL A   1      35.989  32.112  29.728  1.00  0.00    -0.269 OA
BRANCH  34  37
ATOM     37  C   UNL A   1      36.503  29.971  28.922  1.00  0.00     0.039 A 
ATOM     38  C   UNL A   1      36.790  29.206  30.061  1.00  0.00     0.014 A 
ATOM     39  C   UNL A   1      37.201  29.745  27.742  1.00  0.00     0.014 A 
ATOM     40  C   UNL A   1      37.944  28.424  30.089  1.00  0.00     0.010 A 
ATOM     41  C   UNL A   1      38.400  29.068  27.801  1.00  0.00     0.010 A 
ATOM     42  C   UNL A   1      38.807  28.471  28.999  1.00  0.00    -0.014 A 
BRANCH  42  43
ATOM     43  C   UNL A   1      40.201  28.047  29.038  1.00  0.00     0.031 A 
ATOM     44  C   UNL A   1      40.597  26.714  28.545  1.00  0.00     0.074 A 
ATOM     45  C   UNL A   1      41.143  28.965  29.346  1.00  0.00     0.049 A 
ATOM     46  N   UNL A   1      41.751  26.175  28.744  1.00  0.00    -0.248 NA
ATOM     47  C   UNL A   1      39.690  25.858  27.793  1.00  0.00     0.031 C 
ATOM     48  C   UNL A   1      42.582  28.882  29.102  1.00  0.00     0.029 A 
ATOM     49  N   UNL A   1      40.995  30.117  30.139  1.00  0.00    -0.354 N 
ATOM     50  C   UNL A   1      41.844  25.053  27.953  1.00  0.00     0.074 A 
ATOM     51  C   UNL A   1      40.512  24.873  27.422  1.00  0.00     0.031 C 
ATOM     52  C   UNL A   1      43.211  29.708  29.952  1.00  0.00     0.029 A 
ATOM     53  C   UNL A   1      42.208  30.228  30.863  1.00  0.00     0.049 A 
ATOM     54  H   UNL A   1      40.215  30.716  30.182  1.00  0.00     0.167 HD
ATOM     55  C   UNL A   1      43.071  24.481  27.763  1.00  0.00     0.037 A 
ATOM     56  C   UNL A   1      42.218  30.061  32.219  1.00  0.00     0.037 A 
ATOM     57  C   UNL A   1      44.082  25.112  28.616  1.00  0.00     0.049 A 
ATOM     58  C   UNL A   1      43.014  28.866  32.704  1.00  0.00     0.074 A 
ATOM     59  C   UNL A   1      45.066  26.067  28.422  1.00  0.00     0.029 A 
ATOM     60  N   UNL A   1      43.961  24.965  29.986  1.00  0.00    -0.354 N 
ATOM     61  N   UNL A   1      43.602  28.006  31.920  1.00  0.00    -0.248 NA
ATOM     62  C   UNL A   1      43.131  28.496  34.117  1.00  0.00     0.031 C 
ATOM     63  C   UNL A   1      45.504  26.520  29.701  1.00  0.00     0.029 A 
ATOM     64  C   UNL A   1      44.789  25.834  30.667  1.00  0.00     0.049 A 
ATOM     65  H   UNL A   1      43.358  24.321  30.421  1.00  0.00     0.167 HD
ATOM     66  C   UNL A   1      44.107  26.979  32.669  1.00  0.00     0.074 A 
ATOM     67  C   UNL A   1      43.798  27.332  34.040  1.00  0.00     0.031 C 
ATOM     68  C   UNL A   1      44.707  25.888  32.116  1.00  0.00     0.037 A 
BRANCH  55  69
ATOM     69  C   UNL A   1      43.416  23.489  26.670  1.00  0.00     0.064 A 
ATOM     70  C   UNL A   1      43.079  22.124  26.810  1.00  0.00     0.173 A 
ATOM     71  C   UNL A   1      44.118  23.792  25.489  1.00  0.00     0.173 A 
ATOM     72  F   UNL A   1      42.320  21.689  27.825  1.00  0.00    -0.203 F 
ATOM     73  C   UNL A   1      43.507  21.143  25.909  1.00  0.00     0.198 A 
ATOM     74  C   UNL A   1      44.594  22.808  24.616  1.00  0.00     0.198 A 
ATOM     75  F   UNL A   1      44.309  25.052  25.089  1.00  0.00    -0.203 F 
ATOM     76  F   UNL A   1      43.154  19.864  26.102  1.00  0.00    -0.200 F 
ATOM     77  C   UNL A   1      44.297  21.479  24.832  1.00  0.00     0.200 A 
ATOM     78  F   UNL A   1      45.335  23.164  23.557  1.00  0.00    -0.200 F 
ATOM     79  F   UNL A   1      44.743  20.537  23.991  1.00  0.00    -0.200 F 
ENDBRANCH  55  69
BRANCH  56  80
ATOM     80  C   UNL A   1      40.984  30.590  32.857  1.00  0.00     0.064 A 
ATOM     81  C   UNL A   1      40.803  31.987  32.885  1.00  0.00     0.173 A 
ATOM     82  C   UNL A   1      39.854  29.786  33.043  1.00  0.00     0.173 A 
ATOM     83  F   UNL A   1      41.856  32.803  32.711  1.00  0.00    -0.203 F 
ATOM     84  C   UNL A   1      39.532  32.551  32.958  1.00  0.00     0.198 A 
ATOM     85  C   UNL A   1      38.583  30.356  33.137  1.00  0.00     0.198 A 
ATOM     86  F   UNL A   1      39.959  28.450  33.007  1.00  0.00    -0.203 F 
ATOM     87  F   UNL A   1      39.381  33.879  32.852  1.00  0.00    -0.200 F 
ATOM     88  C   UNL A   1      38.419  31.732  33.053  1.00  0.00     0.200 A 
ATOM     89  F   UNL A   1      37.504  29.563  33.205  1.00  0.00    -0.200 F 
ATOM     90  F   UNL A   1      37.190  32.263  33.019  1.00  0.00    -0.200 F 
ENDBRANCH  56  80
BRANCH  68  91
ATOM     91  C   UNL A   1      45.276  24.772  32.931  1.00  0.00     0.064 A 
ATOM     92  C   UNL A   1      44.512  23.649  33.279  1.00  0.00     0.173 A 
ATOM     93  C   UNL A   1      46.561  24.865  33.502  1.00  0.00     0.173 A 
ATOM     94  F   UNL A   1      43.268  23.496  32.801  1.00  0.00    -0.203 F 
ATOM     95  C   UNL A   1      45.010  22.670  34.140  1.00  0.00     0.198 A 
ATOM     96  C   UNL A   1      47.036  23.912  34.399  1.00  0.00     0.198 A 
ATOM     97  F   UNL A   1      47.389  25.872  33.187  1.00  0.00    -0.203 F 
ATOM     98  F   UNL A   1      44.266  21.591  34.421  1.00  0.00    -0.200 F 
ATOM     99  C   UNL A   1      46.263  22.811  34.713  1.00  0.00     0.200 A 
ATOM    100  F   UNL A   1      48.246  24.067  34.955  1.00  0.00    -0.200 F 
ATOM    101  F   UNL A   1      46.726  21.885  35.563  1.00  0.00    -0.200 F 
ENDBRANCH  68  91
ENDBRANCH  42  43
ENDBRANCH  34  37
ENDBRANCH  32  33
ENDBRANCH  31  32
ENDBRANCH   1  31
TORSDOF 14
ENDMDL
MODEL 2
REMARK VINA RESULT:     -14.1      1.275      2.561
REMARK SMILES Cc1ccccc1[C@@H]1[NH2+][C@@H](C(=O)NCCCCCCNC(=O)c2ccc(-c3c4nc(c(-c5c(F)c(F)c(F)c(F)c5F)c5ccc([nH]5)c(-c5c(F)c(F)c(F)c(F)c5F)c5nc(c(-c6c(F)c(F)c(F)c(F)c6F)c6ccc3[nH]6)C=C5)C=C4)cc2)CC2=c3ccccc3=N[C@H]21
REMARK SMILES IDX 17 1 16 2 15 3 14 4 13 5 11 6 12 7 10 9 8 10 9 11 95 12
REMARK SMILES IDX 87 15 94 16 86 17 88 18 93 19 89 20 92 21 90 22 91 23 7 24
REMARK SMILES IDX 1 25 2 26 3 27 4 28 6 29 5 30 18 31 19 32 20 33 21 34 22 36
REMARK SMILES IDX 23 37 24 38 85 39 25 40 84 41 26 42 27 43 28 44 78 45 29 46
REMARK SMILES IDX 83 47 77 48 79 49 30 50 82 51 76 52 75 53 31 55 63 56 43 57
REMARK SMILES IDX 62 58 44 59 47 60 61 61 80 62 45 63 46 64 60 66 81 67 48 68
REMARK SMILES IDX 32 69 33 70 41 71 34 72 35 73 39 74 42 75 36 76 37 77 40 78
REMARK SMILES IDX 38 79 64 80 65 81 73 82 66 83 67 84 71 85 74 86 68 87 69 88
REMARK SMILES IDX 72 89 70 90 49 91 50 92 58 93 51 94 52 95 56 96 59 97 53 98
REMARK SMILES IDX 54 99 57 100 55 101
REMARK H PARENT 13 8 9 13 9 14 20 35 79 54 47 65
REMARK Flexibility Score: inf
ROOT
ATOM      1  C   UNL A   1      32.240  29.288  26.299  1.00  0.00     0.002 C 
ENDROOT
BRANCH   1   2
ATOM      2  C   UNL A   1      31.909  27.957  27.001  1.00  0.00     0.002 C 
BRANCH   2   3
ATOM      3  C   UNL A   1      32.397  26.660  26.338  1.00  0.00     0.021 C 
BRANCH   3   4
ATOM      4  C   UNL A   1      31.317  25.620  26.025  1.00  0.00     0.116 C 
BRANCH   4   5
ATOM      5  N   UNL A   1      31.274  24.459  26.893  1.00  0.00    -0.351 N 
ATOM      6  C   UNL A   1      31.930  23.260  26.825  1.00  0.00     0.278 C 
ATOM      7  O   UNL A   1      32.160  22.706  27.910  1.00  0.00    -0.268 OA
ATOM      8  H   UNL A   1      30.668  24.548  27.664  1.00  0.00     0.163 HD
BRANCH   6   9
ATOM      9  C   UNL A   1      32.189  22.502  25.488  1.00  0.00     0.277 C 
ATOM     10  C   UNL A   1      33.501  20.275  25.488  1.00  0.00     0.243 C 
ATOM     11  N   UNL A   1      32.243  21.028  25.745  1.00  0.00    -0.327 N 
ATOM     12  C   UNL A   1      34.587  20.928  24.576  1.00  0.00     0.196 C 
ATOM     13  H   UNL A   1      32.014  20.892  26.729  1.00  0.00     0.347 HD
ATOM     14  H   UNL A   1      31.595  20.645  25.057  1.00  0.00     0.347 HD
ATOM     15  C   UNL A   1      34.573  22.402  24.807  1.00  0.00    -0.024 C 
ATOM     16  N   UNL A   1      35.976  20.504  24.932  1.00  0.00    -0.270 NA
ATOM     17  C   UNL A   1      33.267  23.041  24.547  1.00  0.00     0.109 C 
ATOM     18  C   UNL A   1      35.726  22.841  25.290  1.00  0.00     0.002 A 
ATOM     19  C   UNL A   1      36.545  21.616  25.289  1.00  0.00     0.066 A 
ATOM     20  C   UNL A   1      36.222  24.078  25.792  1.00  0.00     0.010 A 
ATOM     21  C   UNL A   1      37.957  21.775  25.696  1.00  0.00     0.028 A 
ATOM     22  C   UNL A   1      37.495  24.133  26.218  1.00  0.00     0.001 A 
ATOM     23  C   UNL A   1      38.375  22.978  26.126  1.00  0.00     0.002 A 
BRANCH  10  24
ATOM     24  C   UNL A   1      33.172  18.872  24.949  1.00  0.00     0.015 A 
ATOM     25  C   UNL A   1      32.209  19.716  22.708  1.00  0.00     0.045 C 
ATOM     26  C   UNL A   1      32.617  18.631  23.667  1.00  0.00    -0.042 A 
ATOM     27  C   UNL A   1      32.493  17.305  23.209  1.00  0.00     0.004 A 
ATOM     28  C   UNL A   1      32.856  16.226  24.010  1.00  0.00     0.000 A 
ATOM     29  C   UNL A   1      33.510  17.761  25.751  1.00  0.00     0.010 A 
ATOM     30  C   UNL A   1      33.349  16.453  25.287  1.00  0.00     0.001 A 
ENDBRANCH  10  24
ENDBRANCH   6   9
ENDBRANCH   4   5
ENDBRANCH   3   4
ENDBRANCH   2   3
ENDBRANCH   1   2
BRANCH   1  31
ATOM     31  C   UNL A   1      32.824  30.405  27.168  1.00  0.00     0.021 C 
BRANCH  31  32
ATOM     32  C   UNL A   1      34.342  30.381  27.308  1.00  0.00     0.116 C 
BRANCH  32  33
ATOM     33  N   UNL A   1      34.866  31.230  28.372  1.00  0.00    -0.352 N 
ATOM     34  C   UNL A   1      35.907  31.008  29.263  1.00  0.00     0.251 C 
ATOM     35  H   UNL A   1      34.410  32.097  28.474  1.00  0.00     0.163 HD
ATOM     36  O   UNL A   1      36.142  31.816  30.141  1.00  0.00    -0.269 OA
BRANCH  34  37
ATOM     37  C   UNL A   1      36.822  29.854  29.055  1.00  0.00     0.039 A 
ATOM     38  C   UNL A   1      37.018  28.969  30.124  1.00  0.00     0.014 A 
ATOM     39  C   UNL A   1      37.624  29.760  27.924  1.00  0.00     0.014 A 
ATOM     40  C   UNL A   1      38.174  28.191  30.170  1.00  0.00     0.010 A 
ATOM     41  C   UNL A   1      38.821  29.083  28.014  1.00  0.00     0.010 A 
ATOM     42  C   UNL A   1      39.129  28.360  29.171  1.00  0.00    -0.014 A 
BRANCH  42  43
ATOM     43  C   UNL A   1      40.519  27.937  29.288  1.00  0.00     0.031 A 
ATOM     44  C   UNL A   1      40.966  26.651  28.718  1.00  0.00     0.074 A 
ATOM     45  C   UNL A   1      41.425  28.829  29.746  1.00  0.00     0.049 A 
ATOM     46  N   UNL A   1      42.105  26.100  28.964  1.00  0.00    -0.248 NA
ATOM     47  C   UNL A   1      40.130  25.859  27.827  1.00  0.00     0.031 C 
ATOM     48  C   UNL A   1      42.879  28.770  29.614  1.00  0.00     0.029 A 
ATOM     49  N   UNL A   1      41.203  29.909  30.619  1.00  0.00    -0.354 N 
ATOM     50  C   UNL A   1      42.271  25.049  28.092  1.00  0.00     0.074 A 
ATOM     51  C   UNL A   1      40.989  24.911  27.442  1.00  0.00     0.031 C 
ATOM     52  C   UNL A   1      43.430  29.523  30.578  1.00  0.00     0.029 A 
ATOM     53  C   UNL A   1      42.353  29.962  31.445  1.00  0.00     0.049 A 
ATOM     54  H   UNL A   1      40.416  30.501  30.648  1.00  0.00     0.167 HD
ATOM     55  C   UNL A   1      43.515  24.498  27.955  1.00  0.00     0.037 A 
ATOM     56  C   UNL A   1      42.256  29.681  32.778  1.00  0.00     0.037 A 
ATOM     57  C   UNL A   1      44.448  25.057  28.937  1.00  0.00     0.049 A 
ATOM     58  C   UNL A   1      43.021  28.451  33.225  1.00  0.00     0.074 A 
ATOM     59  C   UNL A   1      45.436  26.028  28.904  1.00  0.00     0.029 A 
ATOM     60  N   UNL A   1      44.219  24.796  30.276  1.00  0.00    -0.354 N 
ATOM     61  N   UNL A   1      43.678  27.662  32.422  1.00  0.00    -0.248 NA
ATOM     62  C   UNL A   1      43.027  27.964  34.606  1.00  0.00     0.031 C 
ATOM     63  C   UNL A   1      45.765  26.373  30.248  1.00  0.00     0.029 A 
ATOM     64  C   UNL A   1      44.981  25.606  31.092  1.00  0.00     0.049 A 
ATOM     65  H   UNL A   1      43.589  24.116  30.605  1.00  0.00     0.167 HD
ATOM     66  C   UNL A   1      44.130  26.577  33.120  1.00  0.00     0.074 A 
ATOM     67  C   UNL A   1      43.709  26.812  34.487  1.00  0.00     0.031 C 
ATOM     68  C   UNL A   1      44.783  25.539  32.529  1.00  0.00     0.037 A 
BRANCH  55  69
ATOM     69  C   UNL A   1      43.956  23.603  26.814  1.00  0.00     0.064 A 
ATOM     70  C   UNL A   1      43.442  22.291  26.694  1.00  0.00     0.173 A 
ATOM     71  C   UNL A   1      44.911  23.940  25.838  1.00  0.00     0.173 A 
ATOM     72  F   UNL A   1      42.450  21.852  27.480  1.00  0.00    -0.203 F 
ATOM     73  C   UNL A   1      43.926  21.373  25.757  1.00  0.00     0.198 A 
ATOM     74  C   UNL A   1      45.436  23.008  24.936  1.00  0.00     0.198 A 
ATOM     75  F   UNL A   1      45.324  25.199  25.664  1.00  0.00    -0.203 F 
ATOM     76  F   UNL A   1      43.397  20.142  25.698  1.00  0.00    -0.200 F 
ATOM     77  C   UNL A   1      44.950  21.718  24.904  1.00  0.00     0.200 A 
ATOM     78  F   UNL A   1      46.411  23.377  24.094  1.00  0.00    -0.200 F 
ATOM     79  F   UNL A   1      45.445  20.828  24.034  1.00  0.00    -0.200 F 
ENDBRANCH  55  69
BRANCH  56  80
ATOM     80  C   UNL A   1      40.969  30.152  33.357  1.00  0.00     0.064 A 
ATOM     81  C   UNL A   1      40.794  31.539  33.535  1.00  0.00     0.173 A 
ATOM     82  C   UNL A   1      39.822  29.351  33.338  1.00  0.00     0.173 A 
ATOM     83  F   UNL A   1      41.864  32.351  33.559  1.00  0.00    -0.203 F 
ATOM     84  C   UNL A   1      39.525  32.111  33.556  1.00  0.00     0.198 A 
ATOM     85  C   UNL A   1      38.551  29.927  33.380  1.00  0.00     0.198 A 
ATOM     86  F   UNL A   1      39.922  28.027  33.153  1.00  0.00    -0.203 F 
ATOM     87  F   UNL A   1      39.393  33.445  33.595  1.00  0.00    -0.200 F 
ATOM     88  C   UNL A   1      38.404  31.306  33.446  1.00  0.00     0.200 A 
ATOM     89  F   UNL A   1      37.466  29.151  33.251  1.00  0.00    -0.200 F 
ATOM     90  F   UNL A   1      37.187  31.859  33.361  1.00  0.00    -0.200 F 
ENDBRANCH  56  80
BRANCH  68  91
ATOM     91  C   UNL A   1      45.295  24.359  33.291  1.00  0.00     0.064 A 
ATOM     92  C   UNL A   1      44.492  23.237  33.540  1.00  0.00     0.173 A 
ATOM     93  C   UNL A   1      46.560  24.383  33.911  1.00  0.00     0.173 A 
ATOM     94  F   UNL A   1      43.263  23.147  33.009  1.00  0.00    -0.203 F 
ATOM     95  C   UNL A   1      44.934  22.193  34.354  1.00  0.00     0.198 A 
ATOM     96  C   UNL A   1      46.978  23.363  34.762  1.00  0.00     0.198 A 
ATOM     97  F   UNL A   1      47.422  25.386  33.690  1.00  0.00    -0.203 F 
ATOM     98  F   UNL A   1      44.155  21.119  34.539  1.00  0.00    -0.200 F 
ATOM     99  C   UNL A   1      46.168  22.265  34.978  1.00  0.00     0.200 A 
ATOM    100  F   UNL A   1      48.171  23.452  35.370  1.00  0.00    -0.200 F 
ATOM    101  F   UNL A   1      46.578  21.276  35.783  1.00  0.00    -0.200 F 
ENDBRANCH  68  91
ENDBRANCH  42  43
ENDBRANCH  34  37
ENDBRANCH  32  33
ENDBRANCH  31  32
ENDBRANCH   1  31
TORSDOF 14
ENDMDL
MODEL 3
REMARK VINA RESULT:     -14.1      1.074      2.326
REMARK SMILES Cc1ccccc1[C@@H]1[NH2+][C@@H](C(=O)NCCCCCCNC(=O)c2ccc(-c3c4nc(c(-c5c(F)c(F)c(F)c(F)c5F)c5ccc([nH]5)c(-c5c(F)c(F)c(F)c(F)c5F)c5nc(c(-c6c(F)c(F)c(F)c(F)c6F)c6ccc3[nH]6)C=C5)C=C4)cc2)CC2=c3ccccc3=N[C@H]21
REMARK SMILES IDX 17 1 16 2 15 3 14 4 13 5 11 6 12 7 10 9 8 10 9 11 95 12
REMARK SMILES IDX 87 15 94 16 86 17 88 18 93 19 89 20 92 21 90 22 91 23 7 24
REMARK SMILES IDX 1 25 2 26 3 27 4 28 6 29 5 30 18 31 19 32 20 33 21 34 22 36
REMARK SMILES IDX 23 37 24 38 85 39 25 40 84 41 26 42 27 43 28 44 78 45 29 46
REMARK SMILES IDX 83 47 77 48 79 49 30 50 82 51 76 52 75 53 31 55 63 56 43 57
REMARK SMILES IDX 62 58 44 59 47 60 61 61 80 62 45 63 46 64 60 66 81 67 48 68
REMARK SMILES IDX 32 69 33 70 41 71 34 72 35 73 39 74 42 75 36 76 37 77 40 78
REMARK SMILES IDX 38 79 64 80 65 81 73 82 66 83 67 84 71 85 74 86 68 87 69 88
REMARK SMILES IDX 72 89 70 90 49 91 50 92 58 93 51 94 52 95 56 96 59 97 53 98
REMARK SMILES IDX 54 99 57 100 55 101
REMARK H PARENT 13 8 9 13 9 14 20 35 79 54 47 65
REMARK Flexibility Score: inf
ROOT
ATOM      1  C   UNL A   1      31.667  29.365  26.092  1.00  0.00     0.002 C 
ENDROOT
BRANCH   1   2
ATOM      2  C   UNL A   1      31.132  29.702  24.686  1.00  0.00     0.002 C 
BRANCH   2   3
ATOM      3  C   UNL A   1      31.344  28.664  23.574  1.00  0.00     0.021 C 
BRANCH   3   4
ATOM      4  C   UNL A   1      32.665  28.765  22.808  1.00  0.00     0.116 C 
BRANCH   4   5
ATOM      5  N   UNL A   1      33.076  27.581  22.077  1.00  0.00    -0.351 N 
ATOM      6  C   UNL A   1      33.425  26.331  22.512  1.00  0.00     0.278 C 
ATOM      7  O   UNL A   1      33.182  25.399  21.731  1.00  0.00    -0.268 OA
ATOM      8  H   UNL A   1      33.110  27.696  21.100  1.00  0.00     0.163 HD
BRANCH   6   9
ATOM      9  C   UNL A   1      34.270  26.078  23.797  1.00  0.00     0.277 C 
ATOM     10  C   UNL A   1      34.522  23.683  24.738  1.00  0.00     0.243 C 
ATOM     11  N   UNL A   1      34.891  24.716  23.732  1.00  0.00    -0.327 N 
ATOM     12  C   UNL A   1      33.838  24.145  26.063  1.00  0.00     0.196 C 
ATOM     13  H   UNL A   1      34.663  24.331  22.816  1.00  0.00     0.347 HD
ATOM     14  H   UNL A   1      35.875  24.897  23.931  1.00  0.00     0.347 HD
ATOM     15  C   UNL A   1      32.959  25.312  25.759  1.00  0.00    -0.024 C 
ATOM     16  N   UNL A   1      32.914  23.115  26.629  1.00  0.00    -0.270 NA
ATOM     17  C   UNL A   1      33.666  26.457  25.149  1.00  0.00     0.109 C 
ATOM     18  C   UNL A   1      31.685  25.057  26.019  1.00  0.00     0.002 A 
ATOM     19  C   UNL A   1      31.755  23.703  26.595  1.00  0.00     0.066 A 
ATOM     20  C   UNL A   1      30.444  25.726  25.816  1.00  0.00     0.010 A 
ATOM     21  C   UNL A   1      30.482  23.138  27.089  1.00  0.00     0.028 A 
ATOM     22  C   UNL A   1      29.316  25.120  26.221  1.00  0.00     0.001 A 
ATOM     23  C   UNL A   1      29.348  23.834  26.901  1.00  0.00     0.002 A 
BRANCH  10  24
ATOM     24  C   UNL A   1      35.750  22.823  25.081  1.00  0.00     0.015 A 
ATOM     25  C   UNL A   1      34.566  20.568  24.657  1.00  0.00     0.045 C 
ATOM     26  C   UNL A   1      35.766  21.407  25.005  1.00  0.00    -0.042 A 
ATOM     27  C   UNL A   1      36.981  20.721  25.194  1.00  0.00     0.004 A 
ATOM     28  C   UNL A   1      38.156  21.402  25.505  1.00  0.00     0.000 A 
ATOM     29  C   UNL A   1      36.947  23.487  25.421  1.00  0.00     0.010 A 
ATOM     30  C   UNL A   1      38.135  22.784  25.635  1.00  0.00     0.001 A 
ENDBRANCH  10  24
ENDBRANCH   6   9
ENDBRANCH   4   5
ENDBRANCH   3   4
ENDBRANCH   2   3
ENDBRANCH   1   2
BRANCH   1  31
ATOM     31  C   UNL A   1      32.280  30.515  26.896  1.00  0.00     0.021 C 
BRANCH  31  32
ATOM     32  C   UNL A   1      33.774  30.383  27.164  1.00  0.00     0.116 C 
BRANCH  32  33
ATOM     33  N   UNL A   1      34.298  31.323  28.150  1.00  0.00    -0.352 N 
ATOM     34  C   UNL A   1      35.348  31.186  29.047  1.00  0.00     0.251 C 
ATOM     35  H   UNL A   1      33.834  32.191  28.183  1.00  0.00     0.163 HD
ATOM     36  O   UNL A   1      35.581  32.068  29.853  1.00  0.00    -0.269 OA
BRANCH  34  37
ATOM     37  C   UNL A   1      36.274  30.028  28.928  1.00  0.00     0.039 A 
ATOM     38  C   UNL A   1      36.588  29.316  30.093  1.00  0.00     0.014 A 
ATOM     39  C   UNL A   1      36.975  29.779  27.754  1.00  0.00     0.014 A 
ATOM     40  C   UNL A   1      37.766  28.571  30.147  1.00  0.00     0.010 A 
ATOM     41  C   UNL A   1      38.194  29.141  27.834  1.00  0.00     0.010 A 
ATOM     42  C   UNL A   1      38.623  28.603  29.052  1.00  0.00    -0.014 A 
BRANCH  42  43
ATOM     43  C   UNL A   1      40.030  28.223  29.101  1.00  0.00     0.031 A 
ATOM     44  C   UNL A   1      40.467  26.892  28.639  1.00  0.00     0.074 A 
ATOM     45  C   UNL A   1      40.943  29.177  29.388  1.00  0.00     0.049 A 
ATOM     46  N   UNL A   1      41.637  26.394  28.851  1.00  0.00    -0.248 NA
ATOM     47  C   UNL A   1      39.588  25.991  27.908  1.00  0.00     0.031 C 
ATOM     48  C   UNL A   1      42.383  29.133  29.147  1.00  0.00     0.029 A 
ATOM     49  N   UNL A   1      40.758  30.342  30.154  1.00  0.00    -0.354 N 
ATOM     50  C   UNL A   1      41.766  25.257  28.086  1.00  0.00     0.074 A 
ATOM     51  C   UNL A   1      40.441  25.024  27.559  1.00  0.00     0.031 C 
ATOM     52  C   UNL A   1      42.985  29.998  29.978  1.00  0.00     0.029 A 
ATOM     53  C   UNL A   1      41.967  30.508  30.876  1.00  0.00     0.049 A 
ATOM     54  H   UNL A   1      39.960  30.917  30.183  1.00  0.00     0.167 HD
ATOM     55  C   UNL A   1      43.010  24.719  27.910  1.00  0.00     0.037 A 
ATOM     56  C   UNL A   1      41.981  30.372  32.235  1.00  0.00     0.037 A 
ATOM     57  C   UNL A   1      44.000  25.401  28.748  1.00  0.00     0.049 A 
ATOM     58  C   UNL A   1      42.813  29.214  32.749  1.00  0.00     0.074 A 
ATOM     59  C   UNL A   1      44.955  26.382  28.533  1.00  0.00     0.029 A 
ATOM     60  N   UNL A   1      43.882  25.282  30.122  1.00  0.00    -0.354 N 
ATOM     61  N   UNL A   1      43.428  28.355  31.985  1.00  0.00    -0.248 NA
ATOM     62  C   UNL A   1      42.939  28.880  34.169  1.00  0.00     0.031 C 
ATOM     63  C   UNL A   1      45.377  26.877  29.802  1.00  0.00     0.029 A 
ATOM     64  C   UNL A   1      44.682  26.192  30.783  1.00  0.00     0.049 A 
ATOM     65  H   UNL A   1      43.299  24.630  30.572  1.00  0.00     0.167 HD
ATOM     66  C   UNL A   1      43.963  27.362  32.757  1.00  0.00     0.074 A 
ATOM     67  C   UNL A   1      43.642  27.736  34.120  1.00  0.00     0.031 C 
ATOM     68  C   UNL A   1      44.598  26.278  32.230  1.00  0.00     0.037 A 
BRANCH  55  69
ATOM     69  C   UNL A   1      43.387  23.714  26.841  1.00  0.00     0.064 A 
ATOM     70  C   UNL A   1      42.982  22.364  26.953  1.00  0.00     0.173 A 
ATOM     71  C   UNL A   1      44.182  23.987  25.712  1.00  0.00     0.173 A 
ATOM     72  F   UNL A   1      42.136  21.963  27.911  1.00  0.00    -0.203 F 
ATOM     73  C   UNL A   1      43.428  21.366  26.080  1.00  0.00     0.198 A 
ATOM     74  C   UNL A   1      44.674  22.982  24.871  1.00  0.00     0.198 A 
ATOM     75  F   UNL A   1      44.455  25.237  25.330  1.00  0.00    -0.203 F 
ATOM     76  F   UNL A   1      43.009  20.103  26.245  1.00  0.00    -0.200 F 
ATOM     77  C   UNL A   1      44.305  21.668  25.062  1.00  0.00     0.200 A 
ATOM     78  F   UNL A   1      45.502  23.306  23.867  1.00  0.00    -0.200 F 
ATOM     79  F   UNL A   1      44.768  20.708  24.251  1.00  0.00    -0.200 F 
ENDBRANCH  55  69
BRANCH  56  80
ATOM     80  C   UNL A   1      40.730  30.878  32.861  1.00  0.00     0.064 A 
ATOM     81  C   UNL A   1      40.512  32.269  32.868  1.00  0.00     0.173 A 
ATOM     82  C   UNL A   1      39.621  30.046  33.053  1.00  0.00     0.173 A 
ATOM     83  F   UNL A   1      41.543  33.110  32.686  1.00  0.00    -0.203 F 
ATOM     84  C   UNL A   1      39.225  32.800  32.928  1.00  0.00     0.198 A 
ATOM     85  C   UNL A   1      38.335  30.584  33.133  1.00  0.00     0.198 A 
ATOM     86  F   UNL A   1      39.761  28.713  33.037  1.00  0.00    -0.203 F 
ATOM     87  F   UNL A   1      39.041  34.122  32.802  1.00  0.00    -0.200 F 
ATOM     88  C   UNL A   1      38.135  31.953  33.029  1.00  0.00     0.200 A 
ATOM     89  F   UNL A   1      37.277  29.764  33.208  1.00  0.00    -0.200 F 
ATOM     90  F   UNL A   1      36.892  32.452  32.983  1.00  0.00    -0.200 F 
ENDBRANCH  56  80
BRANCH  68  91
ATOM     91  C   UNL A   1      45.200  25.199  33.071  1.00  0.00     0.064 A 
ATOM     92  C   UNL A   1      46.565  25.188  33.390  1.00  0.00     0.173 A 
ATOM     93  C   UNL A   1      44.448  24.073  33.464  1.00  0.00     0.173 A 
ATOM     94  F   UNL A   1      47.357  26.209  33.031  1.00  0.00    -0.203 F 
ATOM     95  C   UNL A   1      47.143  24.116  34.073  1.00  0.00     0.198 A 
ATOM     96  C   UNL A   1      45.038  22.984  34.101  1.00  0.00     0.198 A 
ATOM     97  F   UNL A   1      43.125  24.014  33.254  1.00  0.00    -0.203 F 
ATOM     98  F   UNL A   1      48.443  24.157  34.395  1.00  0.00    -0.200 F 
ATOM     99  C   UNL A   1      46.384  23.009  34.412  1.00  0.00     0.200 A 
ATOM    100  F   UNL A   1      44.293  21.913  34.412  1.00  0.00    -0.200 F 
ATOM    101  F   UNL A   1      46.947  21.969  35.040  1.00  0.00    -0.200 F 
ENDBRANCH  68  91
ENDBRANCH  42  43
ENDBRANCH  34  37
ENDBRANCH  32  33
ENDBRANCH  31  32
ENDBRANCH   1  31
TORSDOF 14
ENDMDL
