MODEL 1
REMARK VINA RESULT:     -11.9      0.000      0.000
REMARK SMILES CC(C)c1nc(OCC(=O)NCCCCCCNC(=O)c2ccc(-c3c4nc(c(-c5c(F)c(F)c(F)c(F)c5F)c5ccc([nH]5)c(-c5c(F)c(F)c(F)c(F)c5F)c5nc(c(-c6c(F)c(F)c(F)c(F)c6F)c6ccc3[nH]6)C=C5)C=C4)cc2)cc(-c2ccccn2)n1
REMARK SMILES IDX 14 1 13 2 12 3 11 4 9 5 10 6 8 8 7 9 6 10 4 11 5 12 92 13
REMARK SMILES IDX 85 14 84 15 2 16 1 17 3 18 86 19 87 20 91 21 88 22 90 23
REMARK SMILES IDX 89 24 15 25 16 26 17 27 18 28 19 29 20 31 21 32 22 33 83 34
REMARK SMILES IDX 23 35 82 36 24 37 25 38 26 39 76 40 27 41 81 42 75 43 77 44
REMARK SMILES IDX 28 45 80 46 74 47 73 48 29 50 61 51 41 52 60 53 42 54 45 55
REMARK SMILES IDX 59 56 78 57 43 58 44 59 58 61 79 62 46 63 30 64 31 65 39 66
REMARK SMILES IDX 32 67 33 68 37 69 40 70 34 71 35 72 38 73 36 74 62 75 63 76
REMARK SMILES IDX 71 77 64 78 65 79 69 80 72 81 66 82 67 83 70 84 68 85 47 86
REMARK SMILES IDX 48 87 56 88 49 89 50 90 54 91 57 92 51 93 52 94 55 95 53 96
REMARK H PARENT 11 7 18 30 77 49 45 60
REMARK Flexibility Score: inf
ROOT
ATOM      1  C   UNL A   1      32.344  26.450  26.139  1.00  0.00     0.002 C 
ENDROOT
BRANCH   1   2
ATOM      2  C   UNL A   1      30.875  26.894  26.155  1.00  0.00     0.021 C 
BRANCH   2   3
ATOM      3  C   UNL A   1      29.890  25.858  25.612  1.00  0.00     0.116 C 
BRANCH   3   4
ATOM      4  N   UNL A   1      29.540  24.878  26.621  1.00  0.00    -0.353 N 
ATOM      5  C   UNL A   1      30.002  23.603  26.759  1.00  0.00     0.258 C 
ATOM      6  O   UNL A   1      29.532  22.895  27.651  1.00  0.00    -0.271 OA
ATOM      7  H   UNL A   1      28.883  25.170  27.293  1.00  0.00     0.163 HD
BRANCH   5   8
ATOM      8  C   UNL A   1      31.102  23.088  25.824  1.00  0.00     0.331 C 
BRANCH   8   9
ATOM      9  O   UNL A   1      31.260  21.683  25.736  1.00  0.00    -0.467 OA
BRANCH   9  10
ATOM     10  C   UNL A   1      32.500  21.192  25.449  1.00  0.00     0.217 A 
ATOM     11  C   UNL A   1      33.622  19.368  24.622  1.00  0.00     0.135 A 
ATOM     12  N   UNL A   1      32.454  19.947  24.950  1.00  0.00    -0.198 NA
ATOM     13  N   UNL A   1      34.827  19.922  24.841  1.00  0.00    -0.231 NA
ATOM     14  C   UNL A   1      34.840  21.171  25.354  1.00  0.00     0.096 A 
ATOM     15  C   UNL A   1      33.681  21.861  25.644  1.00  0.00     0.099 A 
BRANCH  11  16
ATOM     16  C   UNL A   1      33.597  17.987  24.004  1.00  0.00     0.051 C 
ATOM     17  C   UNL A   1      33.260  16.936  25.060  1.00  0.00     0.016 C 
ATOM     18  C   UNL A   1      32.628  17.892  22.822  1.00  0.00     0.016 C 
ENDBRANCH  11  16
BRANCH  14  19
ATOM     19  C   UNL A   1      36.146  21.780  25.641  1.00  0.00     0.089 A 
ATOM     20  C   UNL A   1      36.248  23.131  25.985  1.00  0.00     0.030 A 
ATOM     21  N   UNL A   1      37.240  20.999  25.453  1.00  0.00    -0.255 NA
ATOM     22  C   UNL A   1      37.509  23.701  26.136  1.00  0.00     0.004 A 
ATOM     23  C   UNL A   1      38.450  21.579  25.613  1.00  0.00     0.112 A 
ATOM     24  C   UNL A   1      38.633  22.911  25.944  1.00  0.00     0.020 A 
ENDBRANCH  14  19
ENDBRANCH   9  10
ENDBRANCH   8   9
ENDBRANCH   5   8
ENDBRANCH   3   4
ENDBRANCH   2   3
ENDBRANCH   1   2
BRANCH   1  25
ATOM     25  C   UNL A   1      33.250  27.206  25.162  1.00  0.00     0.002 C 
BRANCH  25  26
ATOM     26  C   UNL A   1      33.879  28.488  25.714  1.00  0.00     0.021 C 
BRANCH  26  27
ATOM     27  C   UNL A   1      33.866  28.602  27.234  1.00  0.00     0.116 C 
BRANCH  27  28
ATOM     28  N   UNL A   1      33.802  29.983  27.685  1.00  0.00    -0.352 N 
ATOM     29  C   UNL A   1      34.731  30.717  28.377  1.00  0.00     0.251 C 
ATOM     30  H   UNL A   1      32.971  30.461  27.461  1.00  0.00     0.163 HD
ATOM     31  O   UNL A   1      34.434  31.823  28.829  1.00  0.00    -0.269 OA
BRANCH  29  32
ATOM     32  C   UNL A   1      36.086  30.173  28.606  1.00  0.00     0.039 A 
ATOM     33  C   UNL A   1      37.037  30.277  27.587  1.00  0.00     0.014 A 
ATOM     34  C   UNL A   1      36.421  29.558  29.816  1.00  0.00     0.014 A 
ATOM     35  C   UNL A   1      38.340  29.824  27.805  1.00  0.00     0.010 A 
ATOM     36  C   UNL A   1      37.738  29.177  30.059  1.00  0.00     0.010 A 
ATOM     37  C   UNL A   1      38.711  29.306  29.057  1.00  0.00    -0.014 A 
BRANCH  37  38
ATOM     38  C   UNL A   1      40.113  28.902  29.336  1.00  0.00     0.031 A 
ATOM     39  C   UNL A   1      41.036  29.824  30.081  1.00  0.00     0.074 A 
ATOM     40  C   UNL A   1      40.574  27.728  28.859  1.00  0.00     0.049 A 
ATOM     41  N   UNL A   1      42.307  29.677  30.362  1.00  0.00    -0.248 NA
ATOM     42  C   UNL A   1      40.463  31.094  30.551  1.00  0.00     0.031 C 
ATOM     43  C   UNL A   1      39.790  26.767  28.080  1.00  0.00     0.029 A 
ATOM     44  N   UNL A   1      41.816  27.149  28.948  1.00  0.00    -0.354 N 
ATOM     45  C   UNL A   1      42.685  30.835  31.027  1.00  0.00     0.074 A 
ATOM     46  C   UNL A   1      41.526  31.700  31.061  1.00  0.00     0.031 C 
ATOM     47  C   UNL A   1      40.562  25.710  27.782  1.00  0.00     0.029 A 
ATOM     48  C   UNL A   1      41.905  25.936  28.310  1.00  0.00     0.049 A 
ATOM     49  H   UNL A   1      42.571  27.565  29.424  1.00  0.00     0.167 HD
ATOM     50  C   UNL A   1      43.884  31.140  31.579  1.00  0.00     0.037 A 
ATOM     51  C   UNL A   1      42.953  25.104  28.159  1.00  0.00     0.037 A 
ATOM     52  C   UNL A   1      45.029  30.268  31.561  1.00  0.00     0.049 A 
ATOM     53  C   UNL A   1      44.277  25.472  28.771  1.00  0.00     0.074 A 
ATOM     54  C   UNL A   1      46.270  30.459  32.145  1.00  0.00     0.029 A 
ATOM     55  N   UNL A   1      45.078  29.040  30.916  1.00  0.00    -0.354 N 
ATOM     56  N   UNL A   1      44.602  26.537  29.463  1.00  0.00    -0.248 NA
ATOM     57  C   UNL A   1      45.380  24.518  28.587  1.00  0.00     0.031 C 
ATOM     58  C   UNL A   1      47.085  29.374  31.809  1.00  0.00     0.029 A 
ATOM     59  C   UNL A   1      46.335  28.476  31.065  1.00  0.00     0.049 A 
ATOM     60  H   UNL A   1      44.329  28.630  30.425  1.00  0.00     0.167 HD
ATOM     61  C   UNL A   1      45.933  26.369  29.821  1.00  0.00     0.074 A 
ATOM     62  C   UNL A   1      46.350  25.091  29.284  1.00  0.00     0.031 C 
ATOM     63  C   UNL A   1      46.736  27.199  30.532  1.00  0.00     0.037 A 
BRANCH  50  64
ATOM     64  C   UNL A   1      44.021  32.477  32.252  1.00  0.00     0.064 A 
ATOM     65  C   UNL A   1      43.731  32.649  33.614  1.00  0.00     0.173 A 
ATOM     66  C   UNL A   1      44.486  33.590  31.536  1.00  0.00     0.173 A 
ATOM     67  F   UNL A   1      43.275  31.620  34.344  1.00  0.00    -0.203 F 
ATOM     68  C   UNL A   1      43.872  33.892  34.226  1.00  0.00     0.198 A 
ATOM     69  C   UNL A   1      44.656  34.824  32.159  1.00  0.00     0.198 A 
ATOM     70  F   UNL A   1      44.784  33.480  30.233  1.00  0.00    -0.203 F 
ATOM     71  F   UNL A   1      43.540  34.045  35.515  1.00  0.00    -0.200 F 
ATOM     72  C   UNL A   1      44.342  34.976  33.500  1.00  0.00     0.200 A 
ATOM     73  F   UNL A   1      45.126  35.866  31.459  1.00  0.00    -0.200 F 
ATOM     74  F   UNL A   1      44.484  36.170  34.092  1.00  0.00    -0.200 F 
ENDBRANCH  50  64
BRANCH  51  75
ATOM     75  C   UNL A   1      42.787  23.829  27.411  1.00  0.00     0.064 A 
ATOM     76  C   UNL A   1      42.266  22.689  28.037  1.00  0.00     0.173 A 
ATOM     77  C   UNL A   1      43.152  23.723  26.061  1.00  0.00     0.173 A 
ATOM     78  F   UNL A   1      41.923  22.735  29.333  1.00  0.00    -0.203 F 
ATOM     79  C   UNL A   1      42.138  21.484  27.349  1.00  0.00     0.198 A 
ATOM     80  C   UNL A   1      42.994  22.526  25.364  1.00  0.00     0.198 A 
ATOM     81  F   UNL A   1      43.650  24.786  25.413  1.00  0.00    -0.203 F 
ATOM     82  F   UNL A   1      41.683  20.396  27.985  1.00  0.00    -0.200 F 
ATOM     83  C   UNL A   1      42.495  21.405  26.012  1.00  0.00     0.200 A 
ATOM     84  F   UNL A   1      43.325  22.459  24.067  1.00  0.00    -0.200 F 
ATOM     85  F   UNL A   1      42.368  20.248  25.348  1.00  0.00    -0.200 F 
ENDBRANCH  51  75
BRANCH  63  86
ATOM     86  C   UNL A   1      48.138  26.734  30.806  1.00  0.00     0.064 A 
ATOM     87  C   UNL A   1      49.197  27.030  29.935  1.00  0.00     0.173 A 
ATOM     88  C   UNL A   1      48.431  26.019  31.976  1.00  0.00     0.173 A 
ATOM     89  F   UNL A   1      48.968  27.699  28.794  1.00  0.00    -0.203 F 
ATOM     90  C   UNL A   1      50.493  26.600  30.212  1.00  0.00     0.198 A 
ATOM     91  C   UNL A   1      49.732  25.620  32.267  1.00  0.00     0.198 A 
ATOM     92  F   UNL A   1      47.456  25.717  32.847  1.00  0.00    -0.203 F 
ATOM     93  F   UNL A   1      51.480  26.848  29.340  1.00  0.00    -0.200 F 
ATOM     94  C   UNL A   1      50.760  25.903  31.381  1.00  0.00     0.200 A 
ATOM     95  F   UNL A   1      49.993  24.961  33.405  1.00  0.00    -0.200 F 
ATOM     96  F   UNL A   1      52.010  25.499  31.650  1.00  0.00    -0.200 F 
ENDBRANCH  63  86
ENDBRANCH  37  38
ENDBRANCH  29  32
ENDBRANCH  27  28
ENDBRANCH  26  27
ENDBRANCH  25  26
ENDBRANCH   1  25
TORSDOF 17
ENDMDL
MODEL 2
REMARK VINA RESULT:     -11.6      3.735      8.878
REMARK SMILES CC(C)c1nc(OCC(=O)NCCCCCCNC(=O)c2ccc(-c3c4nc(c(-c5c(F)c(F)c(F)c(F)c5F)c5ccc([nH]5)c(-c5c(F)c(F)c(F)c(F)c5F)c5nc(c(-c6c(F)c(F)c(F)c(F)c6F)c6ccc3[nH]6)C=C5)C=C4)cc2)cc(-c2ccccn2)n1
REMARK SMILES IDX 14 1 13 2 12 3 11 4 9 5 10 6 8 8 7 9 6 10 4 11 5 12 92 13
REMARK SMILES IDX 85 14 84 15 2 16 1 17 3 18 86 19 87 20 91 21 88 22 90 23
REMARK SMILES IDX 89 24 15 25 16 26 17 27 18 28 19 29 20 31 21 32 22 33 83 34
REMARK SMILES IDX 23 35 82 36 24 37 25 38 26 39 76 40 27 41 81 42 75 43 77 44
REMARK SMILES IDX 28 45 80 46 74 47 73 48 29 50 61 51 41 52 60 53 42 54 45 55
REMARK SMILES IDX 59 56 78 57 43 58 44 59 58 61 79 62 46 63 30 64 31 65 39 66
REMARK SMILES IDX 32 67 33 68 37 69 40 70 34 71 35 72 38 73 36 74 62 75 63 76
REMARK SMILES IDX 71 77 64 78 65 79 69 80 72 81 66 82 67 83 70 84 68 85 47 86
REMARK SMILES IDX 48 87 56 88 49 89 50 90 54 91 57 92 51 93 52 94 55 95 53 96
REMARK H PARENT 11 7 18 30 77 49 45 60
REMARK Flexibility Score: inf
ROOT
ATOM      1  C   UNL A   1      32.459  29.988  27.180  1.00  0.00     0.002 C 
ENDROOT
BRANCH   1   2
ATOM      2  C   UNL A   1      32.809  28.563  26.732  1.00  0.00     0.021 C 
BRANCH   2   3
ATOM      3  C   UNL A   1      31.702  27.533  26.959  1.00  0.00     0.116 C 
BRANCH   3   4
ATOM      4  N   UNL A   1      31.104  27.110  25.708  1.00  0.00    -0.353 N 
ATOM      5  C   UNL A   1      30.955  25.845  25.226  1.00  0.00     0.258 C 
ATOM      6  O   UNL A   1      30.475  25.690  24.101  1.00  0.00    -0.271 OA
ATOM      7  H   UNL A   1      30.761  27.831  25.131  1.00  0.00     0.163 HD
BRANCH   5   8
ATOM      8  C   UNL A   1      31.365  24.648  26.093  1.00  0.00     0.331 C 
BRANCH   8   9
ATOM      9  O   UNL A   1      31.154  23.359  25.544  1.00  0.00    -0.467 OA
BRANCH   9  10
ATOM     10  C   UNL A   1      32.243  22.565  25.331  1.00  0.00     0.217 A 
ATOM     11  C   UNL A   1      34.485  22.594  24.838  1.00  0.00     0.135 A 
ATOM     12  N   UNL A   1      33.348  23.276  25.057  1.00  0.00    -0.198 NA
ATOM     13  N   UNL A   1      34.564  21.253  24.794  1.00  0.00    -0.231 NA
ATOM     14  C   UNL A   1      33.433  20.566  25.063  1.00  0.00     0.096 A 
ATOM     15  C   UNL A   1      32.244  21.195  25.373  1.00  0.00     0.099 A 
BRANCH  11  16
ATOM     16  C   UNL A   1      35.759  23.371  24.584  1.00  0.00     0.051 C 
ATOM     17  C   UNL A   1      36.589  23.467  25.862  1.00  0.00     0.016 C 
ATOM     18  C   UNL A   1      36.591  22.775  23.445  1.00  0.00     0.016 C 
ENDBRANCH  11  16
BRANCH  14  19
ATOM     19  C   UNL A   1      33.486  19.100  24.979  1.00  0.00     0.089 A 
ATOM     20  C   UNL A   1      34.517  18.458  24.288  1.00  0.00     0.030 A 
ATOM     21  N   UNL A   1      32.440  18.418  25.510  1.00  0.00    -0.255 NA
ATOM     22  C   UNL A   1      34.473  17.076  24.131  1.00  0.00     0.004 A 
ATOM     23  C   UNL A   1      32.427  17.077  25.348  1.00  0.00     0.112 A 
ATOM     24  C   UNL A   1      33.406  16.370  24.668  1.00  0.00     0.020 A 
ENDBRANCH  14  19
ENDBRANCH   9  10
ENDBRANCH   8   9
ENDBRANCH   5   8
ENDBRANCH   3   4
ENDBRANCH   2   3
ENDBRANCH   1   2
BRANCH   1  25
ATOM     25  C   UNL A   1      31.506  30.754  26.256  1.00  0.00     0.002 C 
BRANCH  25  26
ATOM     26  C   UNL A   1      31.409  32.258  26.521  1.00  0.00     0.021 C 
BRANCH  26  27
ATOM     27  C   UNL A   1      32.564  32.841  27.327  1.00  0.00     0.116 C 
BRANCH  27  28
ATOM     28  N   UNL A   1      32.355  34.240  27.662  1.00  0.00    -0.352 N 
ATOM     29  C   UNL A   1      32.978  35.012  28.610  1.00  0.00     0.251 C 
ATOM     30  H   UNL A   1      31.666  34.702  27.131  1.00  0.00     0.163 HD
ATOM     31  O   UNL A   1      32.549  36.134  28.873  1.00  0.00    -0.269 OA
BRANCH  29  32
ATOM     32  C   UNL A   1      34.152  34.488  29.339  1.00  0.00     0.039 A 
ATOM     33  C   UNL A   1      33.957  33.869  30.576  1.00  0.00     0.014 A 
ATOM     34  C   UNL A   1      35.440  34.608  28.811  1.00  0.00     0.014 A 
ATOM     35  C   UNL A   1      35.046  33.313  31.253  1.00  0.00     0.010 A 
ATOM     36  C   UNL A   1      36.512  33.988  29.449  1.00  0.00     0.010 A 
ATOM     37  C   UNL A   1      36.326  33.334  30.675  1.00  0.00    -0.014 A 
BRANCH  37  38
ATOM     38  C   UNL A   1      37.478  32.671  31.338  1.00  0.00     0.031 A 
ATOM     39  C   UNL A   1      38.173  31.514  30.678  1.00  0.00     0.074 A 
ATOM     40  C   UNL A   1      37.858  33.070  32.569  1.00  0.00     0.049 A 
ATOM     41  N   UNL A   1      39.151  30.767  31.126  1.00  0.00    -0.248 NA
ATOM     42  C   UNL A   1      37.687  31.125  29.345  1.00  0.00     0.031 C 
ATOM     43  C   UNL A   1      37.233  34.150  33.336  1.00  0.00     0.029 A 
ATOM     44  N   UNL A   1      38.851  32.608  33.396  1.00  0.00    -0.354 N 
ATOM     45  C   UNL A   1      39.386  29.818  30.140  1.00  0.00     0.074 A 
ATOM     46  C   UNL A   1      38.415  30.047  29.094  1.00  0.00     0.031 C 
ATOM     47  C   UNL A   1      37.870  34.281  34.510  1.00  0.00     0.029 A 
ATOM     48  C   UNL A   1      38.920  33.269  34.598  1.00  0.00     0.049 A 
ATOM     49  H   UNL A   1      39.457  31.871  33.150  1.00  0.00     0.167 HD
ATOM     50  C   UNL A   1      40.341  28.857  30.102  1.00  0.00     0.037 A 
ATOM     51  C   UNL A   1      39.731  33.076  35.655  1.00  0.00     0.037 A 
ATOM     52  C   UNL A   1      41.318  28.646  31.138  1.00  0.00     0.049 A 
ATOM     53  C   UNL A   1      40.775  31.994  35.593  1.00  0.00     0.074 A 
ATOM     54  C   UNL A   1      42.365  27.740  31.165  1.00  0.00     0.029 A 
ATOM     55  N   UNL A   1      41.366  29.346  32.336  1.00  0.00    -0.354 N 
ATOM     56  N   UNL A   1      41.037  31.151  34.623  1.00  0.00    -0.248 NA
ATOM     57  C   UNL A   1      41.641  31.840  36.769  1.00  0.00     0.031 C 
ATOM     58  C   UNL A   1      43.010  27.853  32.400  1.00  0.00     0.029 A 
ATOM     59  C   UNL A   1      42.406  28.872  33.120  1.00  0.00     0.049 A 
ATOM     60  H   UNL A   1      40.751  30.071  32.591  1.00  0.00     0.167 HD
ATOM     61  C   UNL A   1      42.112  30.390  35.058  1.00  0.00     0.074 A 
ATOM     62  C   UNL A   1      42.465  30.882  36.374  1.00  0.00     0.031 C 
ATOM     63  C   UNL A   1      42.751  29.376  34.425  1.00  0.00     0.037 A 
BRANCH  50  64
ATOM     64  C   UNL A   1      40.375  27.958  28.899  1.00  0.00     0.064 A 
ATOM     65  C   UNL A   1      41.124  28.283  27.757  1.00  0.00     0.173 A 
ATOM     66  C   UNL A   1      39.684  26.737  28.904  1.00  0.00     0.173 A 
ATOM     67  F   UNL A   1      41.797  29.442  27.697  1.00  0.00    -0.203 F 
ATOM     68  C   UNL A   1      41.154  27.434  26.654  1.00  0.00     0.198 A 
ATOM     69  C   UNL A   1      39.743  25.875  27.810  1.00  0.00     0.198 A 
ATOM     70  F   UNL A   1      38.959  26.373  29.972  1.00  0.00    -0.203 F 
ATOM     71  F   UNL A   1      41.833  27.789  25.555  1.00  0.00    -0.200 F 
ATOM     72  C   UNL A   1      40.470  26.228  26.684  1.00  0.00     0.200 A 
ATOM     73  F   UNL A   1      39.095  24.703  27.849  1.00  0.00    -0.200 F 
ATOM     74  F   UNL A   1      40.506  25.409  25.625  1.00  0.00    -0.200 F 
ENDBRANCH  50  64
BRANCH  51  75
ATOM     75  C   UNL A   1      39.602  33.941  36.858  1.00  0.00     0.064 A 
ATOM     76  C   UNL A   1      40.262  35.174  36.934  1.00  0.00     0.173 A 
ATOM     77  C   UNL A   1      38.822  33.550  37.957  1.00  0.00     0.173 A 
ATOM     78  F   UNL A   1      41.036  35.582  35.918  1.00  0.00    -0.203 F 
ATOM     79  C   UNL A   1      40.168  35.973  38.072  1.00  0.00     0.198 A 
ATOM     80  C   UNL A   1      38.702  34.364  39.082  1.00  0.00     0.198 A 
ATOM     81  F   UNL A   1      38.164  32.381  37.934  1.00  0.00    -0.203 F 
ATOM     82  F   UNL A   1      40.850  37.124  38.138  1.00  0.00    -0.200 F 
ATOM     83  C   UNL A   1      39.384  35.571  39.142  1.00  0.00     0.200 A 
ATOM     84  F   UNL A   1      37.930  33.979  40.107  1.00  0.00    -0.200 F 
ATOM     85  F   UNL A   1      39.289  36.341  40.234  1.00  0.00    -0.200 F 
ENDBRANCH  51  75
BRANCH  63  86
ATOM     86  C   UNL A   1      43.924  28.753  35.128  1.00  0.00     0.064 A 
ATOM     87  C   UNL A   1      45.236  29.204  34.919  1.00  0.00     0.173 A 
ATOM     88  C   UNL A   1      43.726  27.717  36.054  1.00  0.00     0.173 A 
ATOM     89  F   UNL A   1      45.481  30.182  34.034  1.00  0.00    -0.203 F 
ATOM     90  C   UNL A   1      46.309  28.621  35.589  1.00  0.00     0.198 A 
ATOM     91  C   UNL A   1      44.796  27.159  36.746  1.00  0.00     0.198 A 
ATOM     92  F   UNL A   1      42.491  27.254  36.297  1.00  0.00    -0.203 F 
ATOM     93  F   UNL A   1      47.558  29.032  35.335  1.00  0.00    -0.200 F 
ATOM     94  C   UNL A   1      46.087  27.605  36.507  1.00  0.00     0.200 A 
ATOM     95  F   UNL A   1      44.579  26.189  37.646  1.00  0.00    -0.200 F 
ATOM     96  F   UNL A   1      47.120  27.052  37.159  1.00  0.00    -0.200 F 
ENDBRANCH  63  86
ENDBRANCH  37  38
ENDBRANCH  29  32
ENDBRANCH  27  28
ENDBRANCH  26  27
ENDBRANCH  25  26
ENDBRANCH   1  25
TORSDOF 17
ENDMDL
MODEL 3
REMARK VINA RESULT:     -11.4      3.777      8.441
REMARK SMILES CC(C)c1nc(OCC(=O)NCCCCCCNC(=O)c2ccc(-c3c4nc(c(-c5c(F)c(F)c(F)c(F)c5F)c5ccc([nH]5)c(-c5c(F)c(F)c(F)c(F)c5F)c5nc(c(-c6c(F)c(F)c(F)c(F)c6F)c6ccc3[nH]6)C=C5)C=C4)cc2)cc(-c2ccccn2)n1
REMARK SMILES IDX 14 1 13 2 12 3 11 4 9 5 10 6 8 8 7 9 6 10 4 11 5 12 92 13
REMARK SMILES IDX 85 14 84 15 2 16 1 17 3 18 86 19 87 20 91 21 88 22 90 23
REMARK SMILES IDX 89 24 15 25 16 26 17 27 18 28 19 29 20 31 21 32 22 33 83 34
REMARK SMILES IDX 23 35 82 36 24 37 25 38 26 39 76 40 27 41 81 42 75 43 77 44
REMARK SMILES IDX 28 45 80 46 74 47 73 48 29 50 61 51 41 52 60 53 42 54 45 55
REMARK SMILES IDX 59 56 78 57 43 58 44 59 58 61 79 62 46 63 30 64 31 65 39 66
REMARK SMILES IDX 32 67 33 68 37 69 40 70 34 71 35 72 38 73 36 74 62 75 63 76
REMARK SMILES IDX 71 77 64 78 65 79 69 80 72 81 66 82 67 83 70 84 68 85 47 86
REMARK SMILES IDX 48 87 56 88 49 89 50 90 54 91 57 92 51 93 52 94 55 95 53 96
REMARK H PARENT 11 7 18 30 77 49 45 60
REMARK Flexibility Score: inf
ROOT
ATOM      1  C   UNL A   1      36.613  22.261  25.407  1.00  0.00     0.002 C 
ENDROOT
BRANCH   1   2
ATOM      2  C   UNL A   1      35.897  23.297  24.530  1.00  0.00     0.021 C 
BRANCH   2   3
ATOM      3  C   UNL A   1      34.412  23.019  24.300  1.00  0.00     0.116 C 
BRANCH   3   4
ATOM      4  N   UNL A   1      34.096  22.954  22.887  1.00  0.00    -0.353 N 
ATOM      5  C   UNL A   1      33.526  23.911  22.102  1.00  0.00     0.258 C 
ATOM      6  O   UNL A   1      33.275  23.643  20.925  1.00  0.00    -0.271 OA
ATOM      7  H   UNL A   1      34.322  22.109  22.435  1.00  0.00     0.163 HD
BRANCH   5   8
ATOM      8  C   UNL A   1      33.231  25.297  22.687  1.00  0.00     0.331 C 
BRANCH   8   9
ATOM      9  O   UNL A   1      31.867  25.649  22.840  1.00  0.00    -0.467 OA
BRANCH   9  10
ATOM     10  C   UNL A   1      31.574  26.886  23.337  1.00  0.00     0.217 A 
ATOM     11  C   UNL A   1      31.950  28.309  25.098  1.00  0.00     0.135 A 
ATOM     12  N   UNL A   1      32.164  27.114  24.520  1.00  0.00    -0.198 NA
ATOM     13  N   UNL A   1      31.122  29.247  24.608  1.00  0.00    -0.231 NA
ATOM     14  C   UNL A   1      30.535  28.983  23.421  1.00  0.00     0.096 A 
ATOM     15  C   UNL A   1      30.765  27.811  22.729  1.00  0.00     0.099 A 
BRANCH  11  16
ATOM     16  C   UNL A   1      32.649  28.616  26.405  1.00  0.00     0.051 C 
ATOM     17  C   UNL A   1      31.774  28.203  27.587  1.00  0.00     0.016 C 
ATOM     18  C   UNL A   1      34.028  27.957  26.501  1.00  0.00     0.016 C 
ENDBRANCH  11  16
BRANCH  14  19
ATOM     19  C   UNL A   1      29.593  29.976  22.887  1.00  0.00     0.089 A 
ATOM     20  C   UNL A   1      29.137  31.031  23.682  1.00  0.00     0.030 A 
ATOM     21  N   UNL A   1      29.117  29.758  21.635  1.00  0.00    -0.255 NA
ATOM     22  C   UNL A   1      28.158  31.885  23.181  1.00  0.00     0.004 A 
ATOM     23  C   UNL A   1      28.173  30.607  21.174  1.00  0.00     0.112 A 
ATOM     24  C   UNL A   1      27.663  31.669  21.903  1.00  0.00     0.020 A 
ENDBRANCH  14  19
ENDBRANCH   9  10
ENDBRANCH   8   9
ENDBRANCH   5   8
ENDBRANCH   3   4
ENDBRANCH   2   3
ENDBRANCH   1   2
BRANCH   1  25
ATOM     25  C   UNL A   1      36.456  20.802  24.966  1.00  0.00     0.002 C 
BRANCH  25  26
ATOM     26  C   UNL A   1      37.766  20.037  24.761  1.00  0.00     0.021 C 
BRANCH  26  27
ATOM     27  C   UNL A   1      38.863  20.370  25.766  1.00  0.00     0.116 C 
BRANCH  27  28
ATOM     28  N   UNL A   1      39.851  19.309  25.878  1.00  0.00    -0.352 N 
ATOM     29  C   UNL A   1      41.205  19.398  26.083  1.00  0.00     0.251 C 
ATOM     30  H   UNL A   1      39.498  18.394  25.794  1.00  0.00     0.163 HD
ATOM     31  O   UNL A   1      41.913  18.398  25.975  1.00  0.00    -0.269 OA
BRANCH  29  32
ATOM     32  C   UNL A   1      41.822  20.700  26.409  1.00  0.00     0.039 A 
ATOM     33  C   UNL A   1      42.304  21.498  25.368  1.00  0.00     0.014 A 
ATOM     34  C   UNL A   1      41.933  21.135  27.732  1.00  0.00     0.014 A 
ATOM     35  C   UNL A   1      42.836  22.759  25.649  1.00  0.00     0.010 A 
ATOM     36  C   UNL A   1      42.392  22.421  28.004  1.00  0.00     0.010 A 
ATOM     37  C   UNL A   1      42.848  23.246  26.966  1.00  0.00    -0.014 A 
BRANCH  37  38
ATOM     38  C   UNL A   1      43.328  24.618  27.273  1.00  0.00     0.031 A 
ATOM     39  C   UNL A   1      42.377  25.657  27.798  1.00  0.00     0.074 A 
ATOM     40  C   UNL A   1      44.609  24.948  27.016  1.00  0.00     0.049 A 
ATOM     41  N   UNL A   1      42.592  26.921  28.062  1.00  0.00    -0.248 NA
ATOM     42  C   UNL A   1      40.991  25.224  28.034  1.00  0.00     0.031 C 
ATOM     43  C   UNL A   1      45.618  24.044  26.460  1.00  0.00     0.029 A 
ATOM     44  N   UNL A   1      45.280  26.136  27.174  1.00  0.00    -0.354 N 
ATOM     45  C   UNL A   1      41.371  27.434  28.481  1.00  0.00     0.074 A 
ATOM     46  C   UNL A   1      40.407  26.361  28.385  1.00  0.00     0.031 C 
ATOM     47  C   UNL A   1      46.783  24.702  26.346  1.00  0.00     0.029 A 
ATOM     48  C   UNL A   1      46.594  26.083  26.778  1.00  0.00     0.049 A 
ATOM     49  H   UNL A   1      44.858  26.948  27.538  1.00  0.00     0.167 HD
ATOM     50  C   UNL A   1      41.087  28.682  28.926  1.00  0.00     0.037 A 
ATOM     51  C   UNL A   1      47.538  27.044  26.757  1.00  0.00     0.037 A 
ATOM     52  C   UNL A   1      42.055  29.742  29.039  1.00  0.00     0.049 A 
ATOM     53  C   UNL A   1      47.193  28.424  27.245  1.00  0.00     0.074 A 
ATOM     54  C   UNL A   1      41.879  31.021  29.536  1.00  0.00     0.029 A 
ATOM     55  N   UNL A   1      43.381  29.647  28.641  1.00  0.00    -0.354 N 
ATOM     56  N   UNL A   1      46.053  28.878  27.709  1.00  0.00    -0.248 NA
ATOM     57  C   UNL A   1      48.266  29.427  27.213  1.00  0.00     0.031 C 
ATOM     58  C   UNL A   1      43.082  31.718  29.389  1.00  0.00     0.029 A 
ATOM     59  C   UNL A   1      44.027  30.855  28.856  1.00  0.00     0.049 A 
ATOM     60  H   UNL A   1      43.801  28.842  28.261  1.00  0.00     0.167 HD
ATOM     61  C   UNL A   1      46.280  30.204  28.051  1.00  0.00     0.074 A 
ATOM     62  C   UNL A   1      47.671  30.478  27.756  1.00  0.00     0.031 C 
ATOM     63  C   UNL A   1      45.414  31.112  28.564  1.00  0.00     0.037 A 
BRANCH  50  64
ATOM     64  C   UNL A   1      39.668  28.971  29.326  1.00  0.00     0.064 A 
ATOM     65  C   UNL A   1      39.218  28.774  30.640  1.00  0.00     0.173 A 
ATOM     66  C   UNL A   1      38.757  29.489  28.393  1.00  0.00     0.173 A 
ATOM     67  F   UNL A   1      40.045  28.274  31.571  1.00  0.00    -0.203 F 
ATOM     68  C   UNL A   1      37.902  29.056  30.998  1.00  0.00     0.198 A 
ATOM     69  C   UNL A   1      37.451  29.801  28.762  1.00  0.00     0.198 A 
ATOM     70  F   UNL A   1      39.136  29.703  27.124  1.00  0.00    -0.203 F 
ATOM     71  F   UNL A   1      37.481  28.812  32.246  1.00  0.00    -0.200 F 
ATOM     72  C   UNL A   1      37.022  29.577  30.061  1.00  0.00     0.200 A 
ATOM     73  F   UNL A   1      36.607  30.318  27.859  1.00  0.00    -0.200 F 
ATOM     74  F   UNL A   1      35.758  29.855  30.408  1.00  0.00    -0.200 F 
ENDBRANCH  50  64
BRANCH  51  75
ATOM     75  C   UNL A   1      48.908  26.728  26.273  1.00  0.00     0.064 A 
ATOM     76  C   UNL A   1      49.884  26.229  27.146  1.00  0.00     0.173 A 
ATOM     77  C   UNL A   1      49.272  26.924  24.932  1.00  0.00     0.173 A 
ATOM     78  F   UNL A   1      49.591  26.045  28.441  1.00  0.00    -0.203 F 
ATOM     79  C   UNL A   1      51.178  25.961  26.703  1.00  0.00     0.198 A 
ATOM     80  C   UNL A   1      50.556  26.625  24.483  1.00  0.00     0.198 A 
ATOM     81  F   UNL A   1      48.374  27.393  24.053  1.00  0.00    -0.203 F 
ATOM     82  F   UNL A   1      52.105  25.532  27.570  1.00  0.00    -0.200 F 
ATOM     83  C   UNL A   1      51.511  26.152  25.371  1.00  0.00     0.200 A 
ATOM     84  F   UNL A   1      50.870  26.795  23.191  1.00  0.00    -0.200 F 
ATOM     85  F   UNL A   1      52.754  25.889  24.944  1.00  0.00    -0.200 F 
ENDBRANCH  51  75
BRANCH  63  86
ATOM     86  C   UNL A   1      45.954  32.479  28.878  1.00  0.00     0.064 A 
ATOM     87  C   UNL A   1      45.942  33.513  27.930  1.00  0.00     0.173 A 
ATOM     88  C   UNL A   1      46.451  32.768  30.157  1.00  0.00     0.173 A 
ATOM     89  F   UNL A   1      45.490  33.286  26.687  1.00  0.00    -0.203 F 
ATOM     90  C   UNL A   1      46.436  34.777  28.243  1.00  0.00     0.198 A 
ATOM     91  C   UNL A   1      46.913  34.041  30.478  1.00  0.00     0.198 A 
ATOM     92  F   UNL A   1      46.478  31.817  31.103  1.00  0.00    -0.203 F 
ATOM     93  F   UNL A   1      46.463  35.735  27.306  1.00  0.00    -0.200 F 
ATOM     94  C   UNL A   1      46.914  35.042  29.518  1.00  0.00     0.200 A 
ATOM     95  F   UNL A   1      47.359  34.300  31.715  1.00  0.00    -0.200 F 
ATOM     96  F   UNL A   1      47.380  36.262  29.821  1.00  0.00    -0.200 F 
ENDBRANCH  63  86
ENDBRANCH  37  38
ENDBRANCH  29  32
ENDBRANCH  27  28
ENDBRANCH  26  27
ENDBRANCH  25  26
ENDBRANCH   1  25
TORSDOF 17
ENDMDL
