MODEL 1
REMARK VINA RESULT:      -9.8      0.000      0.000
REMARK SMILES O=C(NCCCCCCNC(=O)[C@@H]1CCCN1C(=O)[C@@H]1CCCN1C(=O)OCC1c2ccccc2-c2ccccc21)c1ccc(-c2c3nc(c(-c4c(F)c(F)c(F)c(F)c4F)c4ccc([nH]4)c(-c4c(F)c(F)c(F)c(F)c4F)c4nc(c(-c5c(F)c(F)c(F)c(F)c5F)c5ccc2[nH]5)C=C4)C=C3)cc1
REMARK SMILES IDX 8 1 7 2 6 3 5 4 4 5 3 6 1 7 2 8 42 10 43 11 104 12 44 13
REMARK SMILES IDX 103 14 45 15 46 16 47 17 97 18 48 19 102 20 96 21 98 22
REMARK SMILES IDX 49 23 101 24 95 25 94 26 50 28 82 29 62 30 81 31 63 32 66 33
REMARK SMILES IDX 80 34 99 35 64 36 65 37 79 39 100 40 67 41 51 42 52 43 60 44
REMARK SMILES IDX 53 45 54 46 58 47 61 48 55 49 56 50 59 51 57 52 83 53 84 54
REMARK SMILES IDX 92 55 85 56 86 57 90 58 93 59 87 60 88 61 91 62 89 63 68 64
REMARK SMILES IDX 69 65 77 66 70 67 71 68 75 69 78 70 72 71 73 72 76 73 74 74
REMARK SMILES IDX 9 75 10 76 11 77 12 79 13 80 14 81 17 82 15 83 16 84 18 85
REMARK SMILES IDX 19 86 20 87 21 88 24 89 22 90 23 91 25 92 26 93 27 94 28 95
REMARK SMILES IDX 29 96 30 97 41 98 31 99 35 100 36 101 40 102 32 103 34 104
REMARK SMILES IDX 37 105 39 106 33 107 38 108
REMARK H PARENT 3 9 98 27 66 38 10 78
REMARK Flexibility Score: inf
ROOT
ATOM      1  C   UNL A   1      38.171  34.194  31.063  1.00  0.00     0.021 C 
ENDROOT
BRANCH   1   2
ATOM      2  C   UNL A   1      37.241  33.167  30.406  1.00  0.00     0.002 C 
BRANCH   2   3
ATOM      3  C   UNL A   1      37.056  33.286  28.888  1.00  0.00     0.002 C 
BRANCH   3   4
ATOM      4  C   UNL A   1      35.620  33.175  28.375  1.00  0.00     0.021 C 
BRANCH   4   5
ATOM      5  C   UNL A   1      34.710  32.258  29.176  1.00  0.00     0.116 C 
BRANCH   5   6
ATOM      6  N   UNL A   1      34.079  31.223  28.379  1.00  0.00    -0.352 N 
ATOM      7  O   UNL A   1      34.015  29.324  27.152  1.00  0.00    -0.269 OA
ATOM      8  C   UNL A   1      34.647  30.074  27.885  1.00  0.00     0.251 C 
ATOM      9  H   UNL A   1      33.127  31.361  28.167  1.00  0.00     0.163 HD
BRANCH   8  10
ATOM     10  C   UNL A   1      36.054  29.769  28.225  1.00  0.00     0.039 A 
ATOM     11  C   UNL A   1      36.395  29.332  29.508  1.00  0.00     0.014 A 
ATOM     12  C   UNL A   1      37.039  29.942  27.251  1.00  0.00     0.014 A 
ATOM     13  C   UNL A   1      37.733  29.179  29.849  1.00  0.00     0.010 A 
ATOM     14  C   UNL A   1      38.378  29.704  27.572  1.00  0.00     0.010 A 
ATOM     15  C   UNL A   1      38.734  29.334  28.878  1.00  0.00    -0.014 A 
BRANCH  15  16
ATOM     16  C   UNL A   1      40.135  28.990  29.222  1.00  0.00     0.031 A 
ATOM     17  C   UNL A   1      40.994  29.916  30.032  1.00  0.00     0.074 A 
ATOM     18  C   UNL A   1      40.620  27.811  28.787  1.00  0.00     0.049 A 
ATOM     19  N   UNL A   1      42.242  29.766  30.403  1.00  0.00    -0.248 NA
ATOM     20  C   UNL A   1      40.384  31.177  30.481  1.00  0.00     0.031 C 
ATOM     21  C   UNL A   1      39.875  26.845  27.975  1.00  0.00     0.029 A 
ATOM     22  N   UNL A   1      41.842  27.217  28.968  1.00  0.00    -0.354 N 
ATOM     23  C   UNL A   1      42.572  30.915  31.108  1.00  0.00     0.074 A 
ATOM     24  C   UNL A   1      41.399  31.765  31.102  1.00  0.00     0.031 C 
ATOM     25  C   UNL A   1      40.639  25.766  27.759  1.00  0.00     0.029 A 
ATOM     26  C   UNL A   1      41.949  25.992  28.355  1.00  0.00     0.049 A 
ATOM     27  H   UNL A   1      42.572  27.628  29.484  1.00  0.00     0.167 HD
ATOM     28  C   UNL A   1      43.749  31.225  31.704  1.00  0.00     0.037 A 
ATOM     29  C   UNL A   1      42.997  25.153  28.259  1.00  0.00     0.037 A 
ATOM     30  C   UNL A   1      44.902  30.361  31.715  1.00  0.00     0.049 A 
ATOM     31  C   UNL A   1      44.291  25.538  28.915  1.00  0.00     0.074 A 
ATOM     32  C   UNL A   1      46.124  30.562  32.337  1.00  0.00     0.029 A 
ATOM     33  N   UNL A   1      44.981  29.135  31.070  1.00  0.00    -0.354 N 
ATOM     34  N   UNL A   1      44.574  26.606  29.620  1.00  0.00    -0.248 NA
ATOM     35  C   UNL A   1      45.411  24.604  28.759  1.00  0.00     0.031 C 
ATOM     36  C   UNL A   1      46.957  29.483  32.025  1.00  0.00     0.029 A 
ATOM     37  C   UNL A   1      46.239  28.583  31.255  1.00  0.00     0.049 A 
ATOM     38  H   UNL A   1      44.251  28.719  30.557  1.00  0.00     0.167 HD
ATOM     39  C   UNL A   1      45.899  26.466  30.005  1.00  0.00     0.074 A 
ATOM     40  C   UNL A   1      46.354  25.196  29.478  1.00  0.00     0.031 C 
ATOM     41  C   UNL A   1      46.672  27.316  30.724  1.00  0.00     0.037 A 
BRANCH  28  42
ATOM     42  C   UNL A   1      43.867  32.555  32.388  1.00  0.00     0.064 A 
ATOM     43  C   UNL A   1      43.525  32.725  33.738  1.00  0.00     0.173 A 
ATOM     44  C   UNL A   1      44.418  33.654  31.709  1.00  0.00     0.173 A 
ATOM     45  F   UNL A   1      42.989  31.710  34.431  1.00  0.00    -0.203 F 
ATOM     46  C   UNL A   1      43.721  33.947  34.378  1.00  0.00     0.198 A 
ATOM     47  C   UNL A   1      44.633  34.866  32.359  1.00  0.00     0.198 A 
ATOM     48  F   UNL A   1      44.768  33.543  30.418  1.00  0.00    -0.203 F 
ATOM     49  F   UNL A   1      43.364  34.093  35.662  1.00  0.00    -0.200 F 
ATOM     50  C   UNL A   1      44.283  35.013  33.691  1.00  0.00     0.200 A 
ATOM     51  F   UNL A   1      45.191  35.890  31.696  1.00  0.00    -0.200 F 
ATOM     52  F   UNL A   1      44.488  36.181  34.315  1.00  0.00    -0.200 F 
ENDBRANCH  28  42
BRANCH  29  53
ATOM     53  C   UNL A   1      42.865  23.886  27.496  1.00  0.00     0.064 A 
ATOM     54  C   UNL A   1      42.349  22.730  28.096  1.00  0.00     0.173 A 
ATOM     55  C   UNL A   1      43.257  23.805  26.151  1.00  0.00     0.173 A 
ATOM     56  F   UNL A   1      41.977  22.755  29.384  1.00  0.00    -0.203 F 
ATOM     57  C   UNL A   1      42.253  21.535  27.388  1.00  0.00     0.198 A 
ATOM     58  C   UNL A   1      43.127  22.618  25.434  1.00  0.00     0.198 A 
ATOM     59  F   UNL A   1      43.750  24.884  25.527  1.00  0.00    -0.203 F 
ATOM     60  F   UNL A   1      41.803  20.431  28.001  1.00  0.00    -0.200 F 
ATOM     61  C   UNL A   1      42.635  21.480  26.056  1.00  0.00     0.200 A 
ATOM     62  F   UNL A   1      43.480  22.576  24.143  1.00  0.00    -0.200 F 
ATOM     63  F   UNL A   1      42.538  20.331  25.375  1.00  0.00    -0.200 F 
ENDBRANCH  29  53
BRANCH  41  64
ATOM     64  C   UNL A   1      48.081  26.881  31.000  1.00  0.00     0.064 A 
ATOM     65  C   UNL A   1      49.150  27.305  30.198  1.00  0.00     0.173 A 
ATOM     66  C   UNL A   1      48.364  26.046  32.091  1.00  0.00     0.173 A 
ATOM     67  F   UNL A   1      48.926  28.087  29.132  1.00  0.00    -0.203 F 
ATOM     68  C   UNL A   1      50.450  26.882  30.460  1.00  0.00     0.198 A 
ATOM     69  C   UNL A   1      49.670  25.651  32.369  1.00  0.00     0.198 A 
ATOM     70  F   UNL A   1      47.376  25.618  32.890  1.00  0.00    -0.203 F 
ATOM     71  F   UNL A   1      51.450  27.253  29.648  1.00  0.00    -0.200 F 
ATOM     72  C   UNL A   1      50.710  26.062  31.549  1.00  0.00     0.200 A 
ATOM     73  F   UNL A   1      49.920  24.869  33.428  1.00  0.00    -0.200 F 
ATOM     74  F   UNL A   1      51.963  25.659  31.801  1.00  0.00    -0.200 F 
ENDBRANCH  41  64
ENDBRANCH  15  16
ENDBRANCH   8  10
ENDBRANCH   5   6
ENDBRANCH   4   5
ENDBRANCH   3   4
ENDBRANCH   2   3
ENDBRANCH   1   2
BRANCH   1  75
ATOM     75  C   UNL A   1      37.987  34.351  32.564  1.00  0.00     0.116 C 
BRANCH  75  76
ATOM     76  N   UNL A   1      37.497  33.138  33.184  1.00  0.00    -0.354 N 
ATOM     77  C   UNL A   1      37.084  33.158  34.487  1.00  0.00     0.242 C 
ATOM     78  H   UNL A   1      37.460  32.301  32.667  1.00  0.00     0.163 HD
ATOM     79  O   UNL A   1      35.864  33.131  34.629  1.00  0.00    -0.273 OA
BRANCH  77  80
ATOM     80  C   UNL A   1      38.090  33.116  35.668  1.00  0.00     0.174 C 
ATOM     81  C   UNL A   1      38.835  34.453  35.835  1.00  0.00     0.037 C 
ATOM     82  N   UNL A   1      39.212  32.146  35.696  1.00  0.00    -0.329 N 
ATOM     83  C   UNL A   1      39.992  34.143  36.755  1.00  0.00     0.024 C 
ATOM     84  C   UNL A   1      40.368  32.731  36.373  1.00  0.00     0.120 C 
BRANCH  82  85
ATOM     85  C   UNL A   1      39.264  30.773  35.578  1.00  0.00     0.246 C 
ATOM     86  O   UNL A   1      38.670  30.081  36.426  1.00  0.00    -0.272 OA
BRANCH  85  87
ATOM     87  C   UNL A   1      40.162  30.002  34.603  1.00  0.00     0.178 C 
ATOM     88  C   UNL A   1      39.334  29.473  33.423  1.00  0.00     0.037 C 
ATOM     89  N   UNL A   1      41.005  28.890  34.984  1.00  0.00    -0.296 N 
ATOM     90  C   UNL A   1      40.115  28.284  32.864  1.00  0.00     0.024 C 
ATOM     91  C   UNL A   1      41.253  28.034  33.843  1.00  0.00     0.124 C 
BRANCH  89  92
ATOM     92  C   UNL A   1      41.883  28.891  36.033  1.00  0.00     0.410 C 
ATOM     93  O   UNL A   1      41.968  29.821  36.837  1.00  0.00    -0.224 OA
BRANCH  92  94
ATOM     94  O   UNL A   1      42.689  27.794  36.060  1.00  0.00    -0.448 OA
BRANCH  94  95
ATOM     95  C   UNL A   1      44.088  28.059  36.270  1.00  0.00     0.248 C 
BRANCH  95  96
ATOM     96  C   UNL A   1      45.049  26.878  35.995  1.00  0.00     0.088 C 
ATOM     97  C   UNL A   1      45.272  25.962  37.203  1.00  0.00    -0.029 A 
ATOM     98  C   UNL A   1      44.694  25.862  34.912  1.00  0.00    -0.029 A 
ATOM     99  C   UNL A   1      45.704  26.303  38.478  1.00  0.00     0.005 A 
ATOM    100  C   UNL A   1      45.085  24.612  36.839  1.00  0.00    -0.014 A 
ATOM    101  C   UNL A   1      44.733  24.550  35.438  1.00  0.00    -0.014 A 
ATOM    102  C   UNL A   1      44.423  26.071  33.570  1.00  0.00     0.005 A 
ATOM    103  C   UNL A   1      45.917  25.277  39.401  1.00  0.00     0.000 A 
ATOM    104  C   UNL A   1      45.283  23.595  37.759  1.00  0.00     0.009 A 
ATOM    105  C   UNL A   1      44.472  23.448  34.635  1.00  0.00     0.009 A 
ATOM    106  C   UNL A   1      44.139  24.964  32.764  1.00  0.00     0.000 A 
ATOM    107  C   UNL A   1      45.700  23.935  39.049  1.00  0.00     0.001 A 
ATOM    108  C   UNL A   1      44.170  23.665  33.290  1.00  0.00     0.001 A 
ENDBRANCH  95  96
ENDBRANCH  94  95
ENDBRANCH  92  94
ENDBRANCH  89  92
ENDBRANCH  85  87
ENDBRANCH  82  85
ENDBRANCH  77  80
ENDBRANCH  75  76
ENDBRANCH   1  75
TORSDOF 19
ENDMDL
MODEL 2
REMARK VINA RESULT:      -9.5      1.104      2.207
REMARK SMILES O=C(NCCCCCCNC(=O)[C@@H]1CCCN1C(=O)[C@@H]1CCCN1C(=O)OCC1c2ccccc2-c2ccccc21)c1ccc(-c2c3nc(c(-c4c(F)c(F)c(F)c(F)c4F)c4ccc([nH]4)c(-c4c(F)c(F)c(F)c(F)c4F)c4nc(c(-c5c(F)c(F)c(F)c(F)c5F)c5ccc2[nH]5)C=C4)C=C3)cc1
REMARK SMILES IDX 8 1 7 2 6 3 5 4 4 5 3 6 1 7 2 8 42 10 43 11 104 12 44 13
REMARK SMILES IDX 103 14 45 15 46 16 47 17 97 18 48 19 102 20 96 21 98 22
REMARK SMILES IDX 49 23 101 24 95 25 94 26 50 28 82 29 62 30 81 31 63 32 66 33
REMARK SMILES IDX 80 34 99 35 64 36 65 37 79 39 100 40 67 41 51 42 52 43 60 44
REMARK SMILES IDX 53 45 54 46 58 47 61 48 55 49 56 50 59 51 57 52 83 53 84 54
REMARK SMILES IDX 92 55 85 56 86 57 90 58 93 59 87 60 88 61 91 62 89 63 68 64
REMARK SMILES IDX 69 65 77 66 70 67 71 68 75 69 78 70 72 71 73 72 76 73 74 74
REMARK SMILES IDX 9 75 10 76 11 77 12 79 13 80 14 81 17 82 15 83 16 84 18 85
REMARK SMILES IDX 19 86 20 87 21 88 24 89 22 90 23 91 25 92 26 93 27 94 28 95
REMARK SMILES IDX 29 96 30 97 41 98 31 99 35 100 36 101 40 102 32 103 34 104
REMARK SMILES IDX 37 105 39 106 33 107 38 108
REMARK H PARENT 3 9 98 27 66 38 10 78
REMARK Flexibility Score: inf
ROOT
ATOM      1  C   UNL A   1      37.950  34.120  31.470  1.00  0.00     0.021 C 
ENDROOT
BRANCH   1   2
ATOM      2  C   UNL A   1      37.287  33.061  30.581  1.00  0.00     0.002 C 
BRANCH   2   3
ATOM      3  C   UNL A   1      37.163  33.400  29.091  1.00  0.00     0.002 C 
BRANCH   3   4
ATOM      4  C   UNL A   1      35.760  33.300  28.493  1.00  0.00     0.021 C 
BRANCH   4   5
ATOM      5  C   UNL A   1      34.789  32.409  29.251  1.00  0.00     0.116 C 
BRANCH   5   6
ATOM      6  N   UNL A   1      34.123  31.430  28.414  1.00  0.00    -0.352 N 
ATOM      7  O   UNL A   1      33.997  29.596  27.095  1.00  0.00    -0.269 OA
ATOM      8  C   UNL A   1      34.657  30.295  27.854  1.00  0.00     0.251 C 
ATOM      9  H   UNL A   1      33.171  31.599  28.224  1.00  0.00     0.163 HD
BRANCH   8  10
ATOM     10  C   UNL A   1      36.061  29.942  28.156  1.00  0.00     0.039 A 
ATOM     11  C   UNL A   1      37.068  30.169  27.214  1.00  0.00     0.014 A 
ATOM     12  C   UNL A   1      36.363  29.361  29.390  1.00  0.00     0.014 A 
ATOM     13  C   UNL A   1      38.356  29.710  27.460  1.00  0.00     0.010 A 
ATOM     14  C   UNL A   1      37.677  28.978  29.669  1.00  0.00     0.010 A 
ATOM     15  C   UNL A   1      38.680  29.138  28.700  1.00  0.00    -0.014 A 
BRANCH  15  16
ATOM     16  C   UNL A   1      40.097  28.823  29.003  1.00  0.00     0.031 A 
ATOM     17  C   UNL A   1      40.972  29.787  29.748  1.00  0.00     0.074 A 
ATOM     18  C   UNL A   1      40.581  27.635  28.591  1.00  0.00     0.049 A 
ATOM     19  N   UNL A   1      42.235  29.665  30.076  1.00  0.00    -0.248 NA
ATOM     20  C   UNL A   1      40.363  31.055  30.175  1.00  0.00     0.031 C 
ATOM     21  C   UNL A   1      39.819  26.632  27.841  1.00  0.00     0.029 A 
ATOM     22  N   UNL A   1      41.817  27.062  28.746  1.00  0.00    -0.354 N 
ATOM     23  C   UNL A   1      42.576  30.842  30.728  1.00  0.00     0.074 A 
ATOM     24  C   UNL A   1      41.392  31.676  30.737  1.00  0.00     0.031 C 
ATOM     25  C   UNL A   1      40.590  25.556  27.634  1.00  0.00     0.029 A 
ATOM     26  C   UNL A   1      41.918  25.819  28.172  1.00  0.00     0.049 A 
ATOM     27  H   UNL A   1      42.560  27.501  29.220  1.00  0.00     0.167 HD
ATOM     28  C   UNL A   1      43.770  31.187  31.268  1.00  0.00     0.037 A 
ATOM     29  C   UNL A   1      42.972  24.989  28.066  1.00  0.00     0.037 A 
ATOM     30  C   UNL A   1      44.935  30.338  31.266  1.00  0.00     0.049 A 
ATOM     31  C   UNL A   1      44.284  25.413  28.659  1.00  0.00     0.074 A 
ATOM     32  C   UNL A   1      46.175  30.576  31.834  1.00  0.00     0.029 A 
ATOM     33  N   UNL A   1      45.006  29.091  30.661  1.00  0.00    -0.354 N 
ATOM     34  N   UNL A   1      44.579  26.508  29.315  1.00  0.00    -0.248 NA
ATOM     35  C   UNL A   1      45.411  24.487  28.494  1.00  0.00     0.031 C 
ATOM     36  C   UNL A   1      47.011  29.496  31.528  1.00  0.00     0.029 A 
ATOM     37  C   UNL A   1      46.277  28.561  30.818  1.00  0.00     0.049 A 
ATOM     38  H   UNL A   1      44.263  28.648  30.190  1.00  0.00     0.167 HD
ATOM     39  C   UNL A   1      45.919  26.398  29.655  1.00  0.00     0.074 A 
ATOM     40  C   UNL A   1      46.372  25.116  29.156  1.00  0.00     0.031 C 
ATOM     41  C   UNL A   1      46.707  27.282  30.314  1.00  0.00     0.037 A 
BRANCH  28  42
ATOM     42  C   UNL A   1      43.896  32.542  31.901  1.00  0.00     0.064 A 
ATOM     43  C   UNL A   1      44.021  33.708  31.132  1.00  0.00     0.173 A 
ATOM     44  C   UNL A   1      43.799  32.684  33.295  1.00  0.00     0.173 A 
ATOM     45  F   UNL A   1      44.125  33.628  29.797  1.00  0.00    -0.203 F 
ATOM     46  C   UNL A   1      44.054  34.963  31.735  1.00  0.00     0.198 A 
ATOM     47  C   UNL A   1      43.808  33.941  33.892  1.00  0.00     0.198 A 
ATOM     48  F   UNL A   1      43.671  31.600  34.077  1.00  0.00    -0.203 F 
ATOM     49  F   UNL A   1      44.198  36.063  30.982  1.00  0.00    -0.200 F 
ATOM     50  C   UNL A   1      43.937  35.079  33.113  1.00  0.00     0.200 A 
ATOM     51  F   UNL A   1      43.681  34.051  35.222  1.00  0.00    -0.200 F 
ATOM     52  F   UNL A   1      43.950  36.290  33.688  1.00  0.00    -0.200 F 
ENDBRANCH  28  42
BRANCH  29  53
ATOM     53  C   UNL A   1      42.830  23.695  27.353  1.00  0.00     0.064 A 
ATOM     54  C   UNL A   1      42.320  22.563  28.002  1.00  0.00     0.173 A 
ATOM     55  C   UNL A   1      43.203  23.563  26.007  1.00  0.00     0.173 A 
ATOM     56  F   UNL A   1      41.965  22.636  29.294  1.00  0.00    -0.203 F 
ATOM     57  C   UNL A   1      42.213  21.342  27.341  1.00  0.00     0.198 A 
ATOM     58  C   UNL A   1      43.063  22.350  25.336  1.00  0.00     0.198 A 
ATOM     59  F   UNL A   1      43.690  24.618  25.337  1.00  0.00    -0.203 F 
ATOM     60  F   UNL A   1      41.770  20.262  28.000  1.00  0.00    -0.200 F 
ATOM     61  C   UNL A   1      42.578  21.237  26.007  1.00  0.00     0.200 A 
ATOM     62  F   UNL A   1      43.399  22.260  24.043  1.00  0.00    -0.200 F 
ATOM     63  F   UNL A   1      42.471  20.064  25.370  1.00  0.00    -0.200 F 
ENDBRANCH  29  53
BRANCH  41  64
ATOM     64  C   UNL A   1      48.131  26.874  30.553  1.00  0.00     0.064 A 
ATOM     65  C   UNL A   1      48.482  26.020  31.608  1.00  0.00     0.173 A 
ATOM     66  C   UNL A   1      49.151  27.329  29.704  1.00  0.00     0.173 A 
ATOM     67  F   UNL A   1      47.544  25.576  32.458  1.00  0.00    -0.203 F 
ATOM     68  C   UNL A   1      49.809  25.661  31.824  1.00  0.00     0.198 A 
ATOM     69  C   UNL A   1      50.473  26.942  29.904  1.00  0.00     0.198 A 
ATOM     70  F   UNL A   1      48.865  28.143  28.678  1.00  0.00    -0.203 F 
ATOM     71  F   UNL A   1      50.130  24.889  32.872  1.00  0.00    -0.200 F 
ATOM     72  C   UNL A   1      50.802  26.116  30.968  1.00  0.00     0.200 A 
ATOM     73  F   UNL A   1      51.428  27.372  29.070  1.00  0.00    -0.200 F 
ATOM     74  F   UNL A   1      52.079  25.766  31.176  1.00  0.00    -0.200 F 
ENDBRANCH  41  64
ENDBRANCH  15  16
ENDBRANCH   8  10
ENDBRANCH   5   6
ENDBRANCH   4   5
ENDBRANCH   3   4
ENDBRANCH   2   3
ENDBRANCH   1   2
BRANCH   1  75
ATOM     75  C   UNL A   1      37.125  34.551  32.672  1.00  0.00     0.116 C 
BRANCH  75  76
ATOM     76  N   UNL A   1      36.733  33.427  33.496  1.00  0.00    -0.354 N 
ATOM     77  C   UNL A   1      36.819  33.518  34.857  1.00  0.00     0.242 C 
ATOM     78  H   UNL A   1      36.404  32.599  33.077  1.00  0.00     0.163 HD
ATOM     79  O   UNL A   1      35.738  33.670  35.422  1.00  0.00    -0.273 OA
BRANCH  77  80
ATOM     80  C   UNL A   1      38.166  33.343  35.610  1.00  0.00     0.174 C 
ATOM     81  C   UNL A   1      39.061  34.589  35.481  1.00  0.00     0.037 C 
ATOM     82  N   UNL A   1      39.114  32.258  35.257  1.00  0.00    -0.329 N 
ATOM     83  C   UNL A   1      40.427  34.136  35.940  1.00  0.00     0.024 C 
ATOM     84  C   UNL A   1      40.490  32.701  35.474  1.00  0.00     0.120 C 
BRANCH  82  85
ATOM     85  C   UNL A   1      38.972  30.890  35.151  1.00  0.00     0.246 C 
ATOM     86  O   UNL A   1      38.938  30.214  36.196  1.00  0.00    -0.272 OA
BRANCH  85  87
ATOM     87  C   UNL A   1      39.055  30.091  33.844  1.00  0.00     0.178 C 
ATOM     88  C   UNL A   1      37.645  29.752  33.340  1.00  0.00     0.037 C 
ATOM     89  N   UNL A   1      39.802  28.861  33.693  1.00  0.00    -0.296 N 
ATOM     90  C   UNL A   1      37.806  28.522  32.447  1.00  0.00     0.024 C 
ATOM     91  C   UNL A   1      39.247  28.067  32.616  1.00  0.00     0.124 C 
BRANCH  89  92
ATOM     92  C   UNL A   1      41.106  28.681  34.066  1.00  0.00     0.410 C 
ATOM     93  O   UNL A   1      42.048  29.246  33.508  1.00  0.00    -0.224 OA
BRANCH  92  94
ATOM     94  O   UNL A   1      41.256  27.773  35.068  1.00  0.00    -0.448 OA
BRANCH  94  95
ATOM     95  C   UNL A   1      41.984  26.581  34.719  1.00  0.00     0.248 C 
BRANCH  95  96
ATOM     96  C   UNL A   1      43.251  26.290  35.559  1.00  0.00     0.088 C 
ATOM     97  C   UNL A   1      43.901  24.936  35.257  1.00  0.00    -0.029 A 
ATOM     98  C   UNL A   1      44.450  27.229  35.451  1.00  0.00    -0.029 A 
ATOM     99  C   UNL A   1      43.324  23.674  35.289  1.00  0.00     0.005 A 
ATOM    100  C   UNL A   1      45.284  25.094  35.029  1.00  0.00    -0.014 A 
ATOM    101  C   UNL A   1      45.621  26.495  35.148  1.00  0.00    -0.014 A 
ATOM    102  C   UNL A   1      44.515  28.596  35.661  1.00  0.00     0.005 A 
ATOM    103  C   UNL A   1      44.141  22.565  35.058  1.00  0.00     0.000 A 
ATOM    104  C   UNL A   1      46.093  23.995  34.785  1.00  0.00     0.009 A 
ATOM    105  C   UNL A   1      46.850  27.127  35.026  1.00  0.00     0.009 A 
ATOM    106  C   UNL A   1      45.749  29.238  35.517  1.00  0.00     0.000 A 
ATOM    107  C   UNL A   1      45.512  22.724  34.799  1.00  0.00     0.001 A 
ATOM    108  C   UNL A   1      46.907  28.509  35.209  1.00  0.00     0.001 A 
ENDBRANCH  95  96
ENDBRANCH  94  95
ENDBRANCH  92  94
ENDBRANCH  89  92
ENDBRANCH  85  87
ENDBRANCH  82  85
ENDBRANCH  77  80
ENDBRANCH  75  76
ENDBRANCH   1  75
TORSDOF 19
ENDMDL
MODEL 3
REMARK VINA RESULT:      -9.3      9.602     14.498
REMARK SMILES O=C(NCCCCCCNC(=O)[C@@H]1CCCN1C(=O)[C@@H]1CCCN1C(=O)OCC1c2ccccc2-c2ccccc21)c1ccc(-c2c3nc(c(-c4c(F)c(F)c(F)c(F)c4F)c4ccc([nH]4)c(-c4c(F)c(F)c(F)c(F)c4F)c4nc(c(-c5c(F)c(F)c(F)c(F)c5F)c5ccc2[nH]5)C=C4)C=C3)cc1
REMARK SMILES IDX 8 1 7 2 6 3 5 4 4 5 3 6 1 7 2 8 42 10 43 11 104 12 44 13
REMARK SMILES IDX 103 14 45 15 46 16 47 17 97 18 48 19 102 20 96 21 98 22
REMARK SMILES IDX 49 23 101 24 95 25 94 26 50 28 82 29 62 30 81 31 63 32 66 33
REMARK SMILES IDX 80 34 99 35 64 36 65 37 79 39 100 40 67 41 51 42 52 43 60 44
REMARK SMILES IDX 53 45 54 46 58 47 61 48 55 49 56 50 59 51 57 52 83 53 84 54
REMARK SMILES IDX 92 55 85 56 86 57 90 58 93 59 87 60 88 61 91 62 89 63 68 64
REMARK SMILES IDX 69 65 77 66 70 67 71 68 75 69 78 70 72 71 73 72 76 73 74 74
REMARK SMILES IDX 9 75 10 76 11 77 12 79 13 80 14 81 17 82 15 83 16 84 18 85
REMARK SMILES IDX 19 86 20 87 21 88 24 89 22 90 23 91 25 92 26 93 27 94 28 95
REMARK SMILES IDX 29 96 30 97 41 98 31 99 35 100 36 101 40 102 32 103 34 104
REMARK SMILES IDX 37 105 39 106 33 107 38 108
REMARK H PARENT 3 9 98 27 66 38 10 78
REMARK Flexibility Score: inf
ROOT
ATOM      1  C   UNL A   1      41.734  40.165  26.101  1.00  0.00     0.021 C 
ENDROOT
BRANCH   1   2
ATOM      2  C   UNL A   1      41.678  39.196  27.288  1.00  0.00     0.002 C 
BRANCH   2   3
ATOM      3  C   UNL A   1      42.762  38.112  27.336  1.00  0.00     0.002 C 
BRANCH   3   4
ATOM      4  C   UNL A   1      43.996  38.432  28.180  1.00  0.00     0.021 C 
BRANCH   4   5
ATOM      5  C   UNL A   1      45.328  38.031  27.566  1.00  0.00     0.116 C 
BRANCH   5   6
ATOM      6  N   UNL A   1      46.428  38.033  28.510  1.00  0.00    -0.352 N 
ATOM      7  O   UNL A   1      47.787  37.147  30.088  1.00  0.00    -0.269 OA
ATOM      8  C   UNL A   1      46.896  36.983  29.263  1.00  0.00     0.251 C 
ATOM      9  H   UNL A   1      46.898  38.891  28.626  1.00  0.00     0.163 HD
BRANCH   8  10
ATOM     10  C   UNL A   1      46.284  35.649  29.087  1.00  0.00     0.039 A 
ATOM     11  C   UNL A   1      45.727  35.280  27.859  1.00  0.00     0.014 A 
ATOM     12  C   UNL A   1      46.253  34.769  30.171  1.00  0.00     0.014 A 
ATOM     13  C   UNL A   1      45.039  34.078  27.750  1.00  0.00     0.010 A 
ATOM     14  C   UNL A   1      45.635  33.524  30.033  1.00  0.00     0.010 A 
ATOM     15  C   UNL A   1      45.011  33.177  28.825  1.00  0.00    -0.014 A 
BRANCH  15  16
ATOM     16  C   UNL A   1      44.426  31.829  28.624  1.00  0.00     0.031 A 
ATOM     17  C   UNL A   1      43.080  31.467  29.179  1.00  0.00     0.074 A 
ATOM     18  C   UNL A   1      45.141  30.930  27.919  1.00  0.00     0.049 A 
ATOM     19  N   UNL A   1      42.439  30.327  29.103  1.00  0.00    -0.248 NA
ATOM     20  C   UNL A   1      42.359  32.510  29.923  1.00  0.00     0.031 C 
ATOM     21  C   UNL A   1      46.470  31.173  27.352  1.00  0.00     0.029 A 
ATOM     22  N   UNL A   1      44.856  29.641  27.551  1.00  0.00    -0.354 N 
ATOM     23  C   UNL A   1      41.254  30.507  29.801  1.00  0.00     0.074 A 
ATOM     24  C   UNL A   1      41.267  31.862  30.311  1.00  0.00     0.031 C 
ATOM     25  C   UNL A   1      46.869  30.086  26.678  1.00  0.00     0.029 A 
ATOM     26  C   UNL A   1      45.858  29.046  26.824  1.00  0.00     0.049 A 
ATOM     27  H   UNL A   1      44.016  29.185  27.787  1.00  0.00     0.167 HD
ATOM     28  C   UNL A   1      40.250  29.618  29.994  1.00  0.00     0.037 A 
ATOM     29  C   UNL A   1      45.966  27.792  26.349  1.00  0.00     0.037 A 
ATOM     30  C   UNL A   1      40.243  28.277  29.465  1.00  0.00     0.049 A 
ATOM     31  C   UNL A   1      44.843  26.828  26.599  1.00  0.00     0.074 A 
ATOM     32  C   UNL A   1      39.249  27.317  29.562  1.00  0.00     0.029 A 
ATOM     33  N   UNL A   1      41.283  27.703  28.748  1.00  0.00    -0.354 N 
ATOM     34  N   UNL A   1      43.706  27.027  27.220  1.00  0.00    -0.248 NA
ATOM     35  C   UNL A   1      45.019  25.465  26.085  1.00  0.00     0.031 C 
ATOM     36  C   UNL A   1      39.709  26.148  28.947  1.00  0.00     0.029 A 
ATOM     37  C   UNL A   1      40.965  26.393  28.420  1.00  0.00     0.049 A 
ATOM     38  H   UNL A   1      42.122  28.158  28.507  1.00  0.00     0.167 HD
ATOM     39  C   UNL A   1      43.025  25.820  27.159  1.00  0.00     0.074 A 
ATOM     40  C   UNL A   1      43.865  24.904  26.416  1.00  0.00     0.031 C 
ATOM     41  C   UNL A   1      41.815  25.498  27.678  1.00  0.00     0.037 A 
BRANCH  28  42
ATOM     42  C   UNL A   1      39.071  30.048  30.818  1.00  0.00     0.064 A 
ATOM     43  C   UNL A   1      39.033  29.859  32.207  1.00  0.00     0.173 A 
ATOM     44  C   UNL A   1      38.005  30.740  30.222  1.00  0.00     0.173 A 
ATOM     45  F   UNL A   1      40.023  29.198  32.826  1.00  0.00    -0.203 F 
ATOM     46  C   UNL A   1      37.968  30.339  32.966  1.00  0.00     0.198 A 
ATOM     47  C   UNL A   1      36.954  31.238  30.987  1.00  0.00     0.198 A 
ATOM     48  F   UNL A   1      37.995  30.953  28.897  1.00  0.00    -0.203 F 
ATOM     49  F   UNL A   1      37.941  30.126  34.290  1.00  0.00    -0.200 F 
ATOM     50  C   UNL A   1      36.935  31.036  32.357  1.00  0.00     0.200 A 
ATOM     51  F   UNL A   1      35.964  31.924  30.397  1.00  0.00    -0.200 F 
ATOM     52  F   UNL A   1      35.921  31.513  33.093  1.00  0.00    -0.200 F 
ENDBRANCH  28  42
BRANCH  29  53
ATOM     53  C   UNL A   1      47.189  27.379  25.615  1.00  0.00     0.064 A 
ATOM     54  C   UNL A   1      48.250  26.745  26.275  1.00  0.00     0.173 A 
ATOM     55  C   UNL A   1      47.324  27.613  24.239  1.00  0.00     0.173 A 
ATOM     56  F   UNL A   1      48.174  26.514  27.595  1.00  0.00    -0.203 F 
ATOM     57  C   UNL A   1      49.408  26.383  25.592  1.00  0.00     0.198 A 
ATOM     58  C   UNL A   1      48.468  27.219  23.549  1.00  0.00     0.198 A 
ATOM     59  F   UNL A   1      46.334  28.210  23.558  1.00  0.00    -0.203 F 
ATOM     60  F   UNL A   1      50.428  25.823  26.258  1.00  0.00    -0.200 F 
ATOM     61  C   UNL A   1      49.514  26.614  24.229  1.00  0.00     0.200 A 
ATOM     62  F   UNL A   1      48.557  27.426  22.229  1.00  0.00    -0.200 F 
ATOM     63  F   UNL A   1      50.627  26.261  23.572  1.00  0.00    -0.200 F 
ENDBRANCH  29  53
BRANCH  41  64
ATOM     64  C   UNL A   1      41.324  24.102  27.434  1.00  0.00     0.064 A 
ATOM     65  C   UNL A   1      41.905  22.997  28.073  1.00  0.00     0.173 A 
ATOM     66  C   UNL A   1      40.247  23.871  26.565  1.00  0.00     0.173 A 
ATOM     67  F   UNL A   1      42.949  23.166  28.897  1.00  0.00    -0.203 F 
ATOM     68  C   UNL A   1      41.446  21.707  27.826  1.00  0.00     0.198 A 
ATOM     69  C   UNL A   1      39.770  22.582  26.345  1.00  0.00     0.198 A 
ATOM     70  F   UNL A   1      39.655  24.895  25.934  1.00  0.00    -0.203 F 
ATOM     71  F   UNL A   1      42.052  20.660  28.404  1.00  0.00    -0.200 F 
ATOM     72  C   UNL A   1      40.375  21.501  26.969  1.00  0.00     0.200 A 
ATOM     73  F   UNL A   1      38.728  22.386  25.526  1.00  0.00    -0.200 F 
ATOM     74  F   UNL A   1      39.932  20.258  26.735  1.00  0.00    -0.200 F 
ENDBRANCH  41  64
ENDBRANCH  15  16
ENDBRANCH   8  10
ENDBRANCH   5   6
ENDBRANCH   4   5
ENDBRANCH   3   4
ENDBRANCH   2   3
ENDBRANCH   1   2
BRANCH   1  75
ATOM     75  C   UNL A   1      42.708  41.321  26.267  1.00  0.00     0.116 C 
BRANCH  75  76
ATOM     76  N   UNL A   1      43.595  41.453  25.131  1.00  0.00    -0.354 N 
ATOM     77  C   UNL A   1      44.946  41.530  25.326  1.00  0.00     0.242 C 
ATOM     78  H   UNL A   1      43.226  41.488  24.218  1.00  0.00     0.163 HD
ATOM     79  O   UNL A   1      45.554  40.500  25.049  1.00  0.00    -0.273 OA
BRANCH  77  80
ATOM     80  C   UNL A   1      45.639  42.847  25.767  1.00  0.00     0.174 C 
ATOM     81  C   UNL A   1      45.369  43.171  27.247  1.00  0.00     0.037 C 
ATOM     82  N   UNL A   1      45.324  44.143  25.116  1.00  0.00    -0.329 N 
ATOM     83  C   UNL A   1      45.790  44.611  27.415  1.00  0.00     0.024 C 
ATOM     84  C   UNL A   1      45.435  45.232  26.084  1.00  0.00     0.120 C 
BRANCH  82  85
ATOM     85  C   UNL A   1      45.332  44.555  23.800  1.00  0.00     0.246 C 
ATOM     86  O   UNL A   1      46.213  45.357  23.435  1.00  0.00    -0.272 OA
BRANCH  85  87
ATOM     87  C   UNL A   1      44.225  44.272  22.778  1.00  0.00     0.178 C 
ATOM     88  C   UNL A   1      42.857  44.241  23.472  1.00  0.00     0.037 C 
ATOM     89  N   UNL A   1      44.211  43.126  21.894  1.00  0.00    -0.296 N 
ATOM     90  C   UNL A   1      41.949  43.405  22.571  1.00  0.00     0.024 C 
ATOM     91  C   UNL A   1      42.853  42.814  21.500  1.00  0.00     0.124 C 
BRANCH  89  92
ATOM     92  C   UNL A   1      45.255  42.729  21.104  1.00  0.00     0.410 C 
ATOM     93  O   UNL A   1      45.591  41.550  20.978  1.00  0.00    -0.224 OA
BRANCH  92  94
ATOM     94  O   UNL A   1      45.914  43.768  20.524  1.00  0.00    -0.448 OA
BRANCH  94  95
ATOM     95  C   UNL A   1      45.385  44.209  19.260  1.00  0.00     0.248 C 
BRANCH  95  96
ATOM     96  C   UNL A   1      44.340  45.348  19.324  1.00  0.00     0.088 C 
ATOM     97  C   UNL A   1      44.951  46.748  19.446  1.00  0.00    -0.029 A 
ATOM     98  C   UNL A   1      43.375  45.544  18.158  1.00  0.00    -0.029 A 
ATOM     99  C   UNL A   1      45.847  47.220  20.395  1.00  0.00     0.005 A 
ATOM    100  C   UNL A   1      44.389  47.616  18.486  1.00  0.00    -0.014 A 
ATOM    101  C   UNL A   1      43.424  46.881  17.699  1.00  0.00    -0.014 A 
ATOM    102  C   UNL A   1      42.489  44.642  17.592  1.00  0.00     0.005 A 
ATOM    103  C   UNL A   1      46.204  48.570  20.356  1.00  0.00     0.000 A 
ATOM    104  C   UNL A   1      44.753  48.953  18.439  1.00  0.00     0.009 A 
ATOM    105  C   UNL A   1      42.612  47.312  16.659  1.00  0.00     0.009 A 
ATOM    106  C   UNL A   1      41.686  45.068  16.530  1.00  0.00     0.000 A 
ATOM    107  C   UNL A   1      45.669  49.427  19.381  1.00  0.00     0.001 A 
ATOM    108  C   UNL A   1      41.742  46.392  16.072  1.00  0.00     0.001 A 
ENDBRANCH  95  96
ENDBRANCH  94  95
ENDBRANCH  92  94
ENDBRANCH  89  92
ENDBRANCH  85  87
ENDBRANCH  82  85
ENDBRANCH  77  80
ENDBRANCH  75  76
ENDBRANCH   1  75
TORSDOF 19
ENDMDL
