MODEL 1
REMARK VINA RESULT:     -11.2      0.000      0.000
REMARK SMILES O=C(CN1C(=O)/C(=C2/Sc3ccccc3N2CCCS(=O)(=O)[O-])SC1=S)NCCCCCCNC(=O)c1ccc(-c2c3nc(c(-c4c(F)c(F)c(F)c(F)c4F)c4ccc([nH]4)c(-c4c(F)c(F)c(F)c(F)c4F)c4nc(c(-c5c(F)c(F)c(F)c(F)c5F)c5ccc2[nH]5)C=C4)C=C3)cc1
REMARK SMILES IDX 29 1 28 2 27 3 1 4 2 5 3 7 4 8 5 9 25 10 6 11 7 12 24 13
REMARK SMILES IDX 26 14 8 15 9 16 16 17 10 18 15 19 11 20 14 21 12 22 13 23
REMARK SMILES IDX 17 24 18 25 19 26 20 27 21 28 22 29 23 30 30 31 31 32 32 33
REMARK SMILES IDX 33 34 34 35 35 36 36 38 37 39 38 40 99 41 39 42 98 43 40 44
REMARK SMILES IDX 41 45 42 46 92 47 43 48 97 49 91 50 93 51 44 52 96 53 90 54
REMARK SMILES IDX 89 55 45 57 77 58 57 59 76 60 58 61 61 62 75 63 94 64 59 65
REMARK SMILES IDX 60 66 74 68 95 69 62 70 46 71 47 72 55 73 48 74 49 75 53 76
REMARK SMILES IDX 56 77 50 78 51 79 54 80 52 81 78 82 79 83 87 84 80 85 81 86
REMARK SMILES IDX 85 87 88 88 82 89 83 90 86 91 84 92 63 93 64 94 72 95 65 96
REMARK SMILES IDX 66 97 70 98 73 99 67 100 68 101 71 102 69 103
REMARK H PARENT 27 6 34 37 93 56 61 67
REMARK Flexibility Score: inf
ROOT
ATOM      1  C   UNL A   1      39.359  23.547  26.691  1.00  0.00     0.021 C 
ENDROOT
BRANCH   1   2
ATOM      2  C   UNL A   1      38.095  22.718  26.349  1.00  0.00     0.116 C 
BRANCH   2   3
ATOM      3  N   UNL A   1      37.215  23.113  25.234  1.00  0.00    -0.355 N 
ATOM      4  O   UNL A   1      37.391  21.048  24.247  1.00  0.00    -0.273 OA
ATOM      5  C   UNL A   1      36.893  22.177  24.239  1.00  0.00     0.240 C 
ATOM      6  H   UNL A   1      36.855  24.029  25.188  1.00  0.00     0.163 HD
BRANCH   5   7
ATOM      7  C   UNL A   1      35.840  22.570  23.153  1.00  0.00     0.227 C 
BRANCH   7   8
ATOM      8  N   UNL A   1      34.529  22.924  23.780  1.00  0.00    -0.283 N 
ATOM      9  C   UNL A   1      33.885  24.090  23.450  1.00  0.00     0.269 C 
ATOM     10  C   UNL A   1      33.696  22.095  24.488  1.00  0.00     0.148 C 
ATOM     11  O   UNL A   1      33.891  24.588  22.336  1.00  0.00    -0.268 OA
ATOM     12  C   UNL A   1      32.952  24.525  24.508  1.00  0.00     0.111 C 
ATOM     13  S   UNL A   1      32.328  23.029  25.141  1.00  0.00    -0.052 SA
ATOM     14  S   UNL A   1      33.812  20.444  24.676  1.00  0.00    -0.052 S 
ATOM     15  C   UNL A   1      32.759  25.787  24.973  1.00  0.00     0.100 C 
ATOM     16  S   UNL A   1      31.462  26.027  26.230  1.00  0.00    -0.068 SA
ATOM     17  N   UNL A   1      33.442  27.007  24.707  1.00  0.00    -0.334 N 
ATOM     18  C   UNL A   1      31.972  27.720  26.431  1.00  0.00     0.037 A 
ATOM     19  C   UNL A   1      33.070  28.039  25.616  1.00  0.00     0.056 A 
ATOM     20  C   UNL A   1      31.392  28.656  27.278  1.00  0.00     0.017 A 
ATOM     21  C   UNL A   1      33.672  29.291  25.762  1.00  0.00     0.027 A 
ATOM     22  C   UNL A   1      31.968  29.924  27.375  1.00  0.00     0.001 A 
ATOM     23  C   UNL A   1      33.122  30.229  26.646  1.00  0.00     0.002 A 
BRANCH  17  24
ATOM     24  C   UNL A   1      34.031  27.478  23.451  1.00  0.00     0.124 C 
BRANCH  24  25
ATOM     25  C   UNL A   1      33.057  28.285  22.603  1.00  0.00     0.037 C 
BRANCH  25  26
ATOM     26  C   UNL A   1      31.698  27.650  22.492  1.00  0.00     0.124 C 
BRANCH  26  27
ATOM     27  S   UNL A   1      30.226  28.537  23.012  1.00  0.00     0.095 S 
ATOM     28  O   UNL A   1      29.183  27.613  23.404  1.00  0.00    -0.243 OA
ATOM     29  O   UNL A   1      30.623  29.610  23.891  1.00  0.00    -0.243 OA
ATOM     30  O   UNL A   1      29.673  29.143  21.632  1.00  0.00    -0.748 OA
ENDBRANCH  26  27
ENDBRANCH  25  26
ENDBRANCH  24  25
ENDBRANCH  17  24
ENDBRANCH   7   8
ENDBRANCH   5   7
ENDBRANCH   2   3
ENDBRANCH   1   2
BRANCH   1  31
ATOM     31  C   UNL A   1      40.695  22.904  27.103  1.00  0.00     0.002 C 
BRANCH  31  32
ATOM     32  C   UNL A   1      41.508  22.060  26.116  1.00  0.00     0.002 C 
BRANCH  32  33
ATOM     33  C   UNL A   1      41.448  20.553  26.106  1.00  0.00     0.021 C 
BRANCH  33  34
ATOM     34  C   UNL A   1      42.771  19.888  26.400  1.00  0.00     0.116 C 
BRANCH  34  35
ATOM     35  N   UNL A   1      43.376  19.202  25.256  1.00  0.00    -0.352 N 
ATOM     36  C   UNL A   1      44.350  19.662  24.395  1.00  0.00     0.251 C 
ATOM     37  H   UNL A   1      43.043  18.293  25.078  1.00  0.00     0.163 HD
ATOM     38  O   UNL A   1      44.722  18.994  23.437  1.00  0.00    -0.269 OA
BRANCH  36  39
ATOM     39  C   UNL A   1      44.892  21.017  24.615  1.00  0.00     0.039 A 
ATOM     40  C   UNL A   1      45.670  21.269  25.745  1.00  0.00     0.014 A 
ATOM     41  C   UNL A   1      44.497  22.060  23.776  1.00  0.00     0.014 A 
ATOM     42  C   UNL A   1      45.826  22.575  26.177  1.00  0.00     0.010 A 
ATOM     43  C   UNL A   1      44.785  23.377  24.142  1.00  0.00     0.010 A 
ATOM     44  C   UNL A   1      45.391  23.646  25.380  1.00  0.00    -0.014 A 
BRANCH  44  45
ATOM     45  C   UNL A   1      45.593  25.033  25.865  1.00  0.00     0.031 A 
ATOM     46  C   UNL A   1      44.470  25.809  26.495  1.00  0.00     0.074 A 
ATOM     47  C   UNL A   1      46.826  25.570  25.781  1.00  0.00     0.049 A 
ATOM     48  N   UNL A   1      44.471  27.038  26.950  1.00  0.00    -0.248 NA
ATOM     49  C   UNL A   1      43.175  25.125  26.634  1.00  0.00     0.031 C 
ATOM     50  C   UNL A   1      47.999  24.897  25.217  1.00  0.00     0.029 A 
ATOM     51  N   UNL A   1      47.307  26.786  26.190  1.00  0.00    -0.354 N 
ATOM     52  C   UNL A   1      43.181  27.280  27.404  1.00  0.00     0.074 A 
ATOM     53  C   UNL A   1      42.412  26.082  27.145  1.00  0.00     0.031 C 
ATOM     54  C   UNL A   1      49.072  25.684  25.368  1.00  0.00     0.029 A 
ATOM     55  C   UNL A   1      48.649  26.950  25.952  1.00  0.00     0.049 A 
ATOM     56  H   UNL A   1      46.745  27.476  26.613  1.00  0.00     0.167 HD
ATOM     57  C   UNL A   1      42.691  28.397  27.993  1.00  0.00     0.037 A 
ATOM     58  C   UNL A   1      49.449  28.012  26.153  1.00  0.00     0.037 A 
ATOM     59  C   UNL A   1      43.472  29.579  28.260  1.00  0.00     0.049 A 
ATOM     60  C   UNL A   1      48.863  29.259  26.743  1.00  0.00     0.074 A 
ATOM     61  C   UNL A   1      43.071  30.761  28.860  1.00  0.00     0.029 A 
ATOM     62  N   UNL A   1      44.816  29.729  27.946  1.00  0.00    -0.354 N 
ATOM     63  N   UNL A   1      47.639  29.479  27.160  1.00  0.00    -0.248 NA
ATOM     64  C   UNL A   1      49.764  30.408  26.884  1.00  0.00     0.031 C 
ATOM     65  C   UNL A   1      44.154  31.644  28.856  1.00  0.00     0.029 A 
ATOM     66  C   UNL A   1      45.252  30.992  28.317  1.00  0.00     0.049 A 
ATOM     67  H   UNL A   1      45.377  29.040  27.522  1.00  0.00     0.167 HD
ATOM     68  C   UNL A   1      47.628  30.783  27.631  1.00  0.00     0.074 A 
ATOM     69  C   UNL A   1      48.972  31.298  27.466  1.00  0.00     0.031 C 
ATOM     70  C   UNL A   1      46.594  31.490  28.151  1.00  0.00     0.037 A 
BRANCH  57  71
ATOM     71  C   UNL A   1      41.238  28.413  28.382  1.00  0.00     0.064 A 
ATOM     72  C   UNL A   1      40.808  27.986  29.648  1.00  0.00     0.173 A 
ATOM     73  C   UNL A   1      40.272  28.928  27.503  1.00  0.00     0.173 A 
ATOM     74  F   UNL A   1      41.686  27.473  30.523  1.00  0.00    -0.203 F 
ATOM     75  C   UNL A   1      39.464  28.059  30.012  1.00  0.00     0.198 A 
ATOM     76  C   UNL A   1      38.935  29.030  27.882  1.00  0.00     0.198 A 
ATOM     77  F   UNL A   1      40.628  29.357  26.283  1.00  0.00    -0.203 F 
ATOM     78  F   UNL A   1      39.073  27.608  31.211  1.00  0.00    -0.200 F 
ATOM     79  C   UNL A   1      38.532  28.590  29.134  1.00  0.00     0.200 A 
ATOM     80  F   UNL A   1      38.039  29.558  27.038  1.00  0.00    -0.200 F 
ATOM     81  F   UNL A   1      37.243  28.674  29.492  1.00  0.00    -0.200 F 
ENDBRANCH  57  71
BRANCH  58  82
ATOM     82  C   UNL A   1      50.885  27.921  25.785  1.00  0.00     0.064 A 
ATOM     83  C   UNL A   1      51.301  28.115  24.463  1.00  0.00     0.173 A 
ATOM     84  C   UNL A   1      51.874  27.691  26.755  1.00  0.00     0.173 A 
ATOM     85  F   UNL A   1      50.392  28.323  23.499  1.00  0.00    -0.203 F 
ATOM     86  C   UNL A   1      52.652  28.080  24.123  1.00  0.00     0.198 A 
ATOM     87  C   UNL A   1      53.225  27.690  26.420  1.00  0.00     0.198 A 
ATOM     88  F   UNL A   1      51.527  27.509  28.039  1.00  0.00    -0.203 F 
ATOM     89  F   UNL A   1      53.021  28.241  22.845  1.00  0.00    -0.200 F 
ATOM     90  C   UNL A   1      53.612  27.879  25.103  1.00  0.00     0.200 A 
ATOM     91  F   UNL A   1      54.149  27.520  27.374  1.00  0.00    -0.200 F 
ATOM     92  F   UNL A   1      54.912  27.869  24.777  1.00  0.00    -0.200 F 
ENDBRANCH  58  82
BRANCH  70  93
ATOM     93  C   UNL A   1      46.878  32.890  28.611  1.00  0.00     0.064 A 
ATOM     94  C   UNL A   1      47.348  33.158  29.906  1.00  0.00     0.173 A 
ATOM     95  C   UNL A   1      46.733  33.971  27.728  1.00  0.00     0.173 A 
ATOM     96  F   UNL A   1      47.490  32.161  30.793  1.00  0.00    -0.203 F 
ATOM     97  C   UNL A   1      47.643  34.459  30.303  1.00  0.00     0.198 A 
ATOM     98  C   UNL A   1      47.062  35.266  28.118  1.00  0.00     0.198 A 
ATOM     99  F   UNL A   1      46.293  33.768  26.477  1.00  0.00    -0.203 F 
ATOM    100  F   UNL A   1      48.049  34.698  31.558  1.00  0.00    -0.200 F 
ATOM    101  C   UNL A   1      47.510  35.509  29.408  1.00  0.00     0.200 A 
ATOM    102  F   UNL A   1      46.949  36.276  27.246  1.00  0.00    -0.200 F 
ATOM    103  F   UNL A   1      47.810  36.758  29.788  1.00  0.00    -0.200 F 
ENDBRANCH  70  93
ENDBRANCH  44  45
ENDBRANCH  36  39
ENDBRANCH  34  35
ENDBRANCH  33  34
ENDBRANCH  32  33
ENDBRANCH  31  32
ENDBRANCH   1  31
TORSDOF 18
ENDMDL
MODEL 2
REMARK VINA RESULT:     -10.7      6.306     11.625
REMARK SMILES O=C(CN1C(=O)/C(=C2/Sc3ccccc3N2CCCS(=O)(=O)[O-])SC1=S)NCCCCCCNC(=O)c1ccc(-c2c3nc(c(-c4c(F)c(F)c(F)c(F)c4F)c4ccc([nH]4)c(-c4c(F)c(F)c(F)c(F)c4F)c4nc(c(-c5c(F)c(F)c(F)c(F)c5F)c5ccc2[nH]5)C=C4)C=C3)cc1
REMARK SMILES IDX 29 1 28 2 27 3 1 4 2 5 3 7 4 8 5 9 25 10 6 11 7 12 24 13
REMARK SMILES IDX 26 14 8 15 9 16 16 17 10 18 15 19 11 20 14 21 12 22 13 23
REMARK SMILES IDX 17 24 18 25 19 26 20 27 21 28 22 29 23 30 30 31 31 32 32 33
REMARK SMILES IDX 33 34 34 35 35 36 36 38 37 39 38 40 99 41 39 42 98 43 40 44
REMARK SMILES IDX 41 45 42 46 92 47 43 48 97 49 91 50 93 51 44 52 96 53 90 54
REMARK SMILES IDX 89 55 45 57 77 58 57 59 76 60 58 61 61 62 75 63 94 64 59 65
REMARK SMILES IDX 60 66 74 68 95 69 62 70 46 71 47 72 55 73 48 74 49 75 53 76
REMARK SMILES IDX 56 77 50 78 51 79 54 80 52 81 78 82 79 83 87 84 80 85 81 86
REMARK SMILES IDX 85 87 88 88 82 89 83 90 86 91 84 92 63 93 64 94 72 95 65 96
REMARK SMILES IDX 66 97 70 98 73 99 67 100 68 101 71 102 69 103
REMARK H PARENT 27 6 34 37 93 56 61 67
REMARK Flexibility Score: inf
ROOT
ATOM      1  C   UNL A   1      33.972  31.426  27.293  1.00  0.00     0.021 C 
ENDROOT
BRANCH   1   2
ATOM      2  C   UNL A   1      33.319  30.022  27.238  1.00  0.00     0.116 C 
BRANCH   2   3
ATOM      3  N   UNL A   1      34.050  28.874  26.671  1.00  0.00    -0.355 N 
ATOM      4  O   UNL A   1      32.221  27.500  26.866  1.00  0.00    -0.273 OA
ATOM      5  C   UNL A   1      33.387  27.649  26.492  1.00  0.00     0.240 C 
ATOM      6  H   UNL A   1      34.998  28.966  26.419  1.00  0.00     0.163 HD
BRANCH   5   7
ATOM      7  C   UNL A   1      34.135  26.494  25.750  1.00  0.00     0.227 C 
BRANCH   7   8
ATOM      8  N   UNL A   1      33.197  25.712  24.889  1.00  0.00    -0.283 N 
ATOM      9  C   UNL A   1      32.642  24.541  25.339  1.00  0.00     0.269 C 
ATOM     10  C   UNL A   1      32.569  26.137  23.745  1.00  0.00     0.148 C 
ATOM     11  O   UNL A   1      32.316  24.334  26.497  1.00  0.00    -0.268 OA
ATOM     12  C   UNL A   1      32.218  23.666  24.229  1.00  0.00     0.111 C 
ATOM     13  S   UNL A   1      31.667  24.786  23.016  1.00  0.00    -0.052 SA
ATOM     14  S   UNL A   1      32.520  27.678  23.115  1.00  0.00    -0.052 S 
ATOM     15  C   UNL A   1      32.377  22.321  24.128  1.00  0.00     0.100 C 
ATOM     16  S   UNL A   1      31.663  21.499  22.667  1.00  0.00    -0.068 SA
ATOM     17  N   UNL A   1      33.078  21.388  24.944  1.00  0.00    -0.334 N 
ATOM     18  C   UNL A   1      32.435  19.971  23.150  1.00  0.00     0.037 A 
ATOM     19  C   UNL A   1      33.199  20.113  24.318  1.00  0.00     0.056 A 
ATOM     20  C   UNL A   1      32.329  18.753  22.488  1.00  0.00     0.017 A 
ATOM     21  C   UNL A   1      33.978  19.035  24.746  1.00  0.00     0.027 A 
ATOM     22  C   UNL A   1      33.068  17.666  22.957  1.00  0.00     0.001 A 
ATOM     23  C   UNL A   1      33.913  17.815  24.061  1.00  0.00     0.002 A 
BRANCH  17  24
ATOM     24  C   UNL A   1      33.236  21.375  26.400  1.00  0.00     0.124 C 
BRANCH  24  25
ATOM     25  C   UNL A   1      34.544  22.004  26.861  1.00  0.00     0.037 C 
BRANCH  25  26
ATOM     26  C   UNL A   1      35.742  21.519  26.091  1.00  0.00     0.124 C 
BRANCH  26  27
ATOM     27  S   UNL A   1      36.734  22.662  25.125  1.00  0.00     0.095 S 
ATOM     28  O   UNL A   1      38.116  22.230  25.083  1.00  0.00    -0.243 OA
ATOM     29  O   UNL A   1      36.025  22.970  23.907  1.00  0.00    -0.243 OA
ATOM     30  O   UNL A   1      36.790  23.962  26.065  1.00  0.00    -0.748 OA
ENDBRANCH  26  27
ENDBRANCH  25  26
ENDBRANCH  24  25
ENDBRANCH  17  24
ENDBRANCH   7   8
ENDBRANCH   5   7
ENDBRANCH   2   3
ENDBRANCH   1   2
BRANCH   1  31
ATOM     31  C   UNL A   1      35.045  31.810  28.327  1.00  0.00     0.002 C 
BRANCH  31  32
ATOM     32  C   UNL A   1      35.624  33.227  28.381  1.00  0.00     0.002 C 
BRANCH  32  33
ATOM     33  C   UNL A   1      34.841  34.395  28.927  1.00  0.00     0.021 C 
BRANCH  33  34
ATOM     34  C   UNL A   1      33.440  34.039  29.364  1.00  0.00     0.116 C 
BRANCH  34  35
ATOM     35  N   UNL A   1      32.745  35.095  30.103  1.00  0.00    -0.352 N 
ATOM     36  C   UNL A   1      32.997  35.562  31.375  1.00  0.00     0.251 C 
ATOM     37  H   UNL A   1      31.999  35.529  29.628  1.00  0.00     0.163 HD
ATOM     38  O   UNL A   1      32.290  36.419  31.893  1.00  0.00    -0.269 OA
BRANCH  36  39
ATOM     39  C   UNL A   1      34.108  34.955  32.134  1.00  0.00     0.039 A 
ATOM     40  C   UNL A   1      35.331  35.621  32.211  1.00  0.00     0.014 A 
ATOM     41  C   UNL A   1      33.971  33.659  32.633  1.00  0.00     0.014 A 
ATOM     42  C   UNL A   1      36.469  34.904  32.540  1.00  0.00     0.010 A 
ATOM     43  C   UNL A   1      35.102  32.985  33.103  1.00  0.00     0.010 A 
ATOM     44  C   UNL A   1      36.369  33.579  32.996  1.00  0.00    -0.014 A 
BRANCH  44  45
ATOM     45  C   UNL A   1      37.607  32.848  33.360  1.00  0.00     0.031 A 
ATOM     46  C   UNL A   1      38.294  33.088  34.676  1.00  0.00     0.074 A 
ATOM     47  C   UNL A   1      38.078  31.916  32.508  1.00  0.00     0.049 A 
ATOM     48  N   UNL A   1      39.395  32.552  35.141  1.00  0.00    -0.248 NA
ATOM     49  C   UNL A   1      37.670  34.055  35.593  1.00  0.00     0.031 C 
ATOM     50  C   UNL A   1      37.475  31.577  31.217  1.00  0.00     0.029 A 
ATOM     51  N   UNL A   1      39.149  31.068  32.606  1.00  0.00    -0.354 N 
ATOM     52  C   UNL A   1      39.607  33.130  36.386  1.00  0.00     0.074 A 
ATOM     53  C   UNL A   1      38.538  34.081  36.596  1.00  0.00     0.031 C 
ATOM     54  C   UNL A   1      38.149  30.557  30.672  1.00  0.00     0.029 A 
ATOM     55  C   UNL A   1      39.283  30.232  31.526  1.00  0.00     0.049 A 
ATOM     56  H   UNL A   1      39.764  31.060  33.376  1.00  0.00     0.167 HD
ATOM     57  C   UNL A   1      40.600  32.877  37.274  1.00  0.00     0.037 A 
ATOM     58  C   UNL A   1      40.231  29.322  31.237  1.00  0.00     0.037 A 
ATOM     59  C   UNL A   1      41.651  31.914  37.058  1.00  0.00     0.049 A 
ATOM     60  C   UNL A   1      41.355  29.114  32.207  1.00  0.00     0.074 A 
ATOM     61  C   UNL A   1      42.698  31.579  37.899  1.00  0.00     0.029 A 
ATOM     62  N   UNL A   1      41.787  31.130  35.921  1.00  0.00    -0.354 N 
ATOM     63  N   UNL A   1      41.550  29.673  33.377  1.00  0.00    -0.248 NA
ATOM     64  C   UNL A   1      42.394  28.155  31.815  1.00  0.00     0.031 C 
ATOM     65  C   UNL A   1      43.499  30.636  37.248  1.00  0.00     0.029 A 
ATOM     66  C   UNL A   1      42.915  30.331  36.029  1.00  0.00     0.049 A 
ATOM     67  H   UNL A   1      41.174  31.140  35.151  1.00  0.00     0.167 HD
ATOM     68  C   UNL A   1      42.722  29.121  33.870  1.00  0.00     0.074 A 
ATOM     69  C   UNL A   1      43.183  28.167  32.881  1.00  0.00     0.031 C 
ATOM     70  C   UNL A   1      43.359  29.383  35.038  1.00  0.00     0.037 A 
BRANCH  57  71
ATOM     71  C   UNL A   1      40.615  33.658  38.558  1.00  0.00     0.064 A 
ATOM     72  C   UNL A   1      41.395  34.814  38.712  1.00  0.00     0.173 A 
ATOM     73  C   UNL A   1      39.783  33.286  39.627  1.00  0.00     0.173 A 
ATOM     74  F   UNL A   1      42.218  35.209  37.728  1.00  0.00    -0.203 F 
ATOM     75  C   UNL A   1      41.355  35.557  39.890  1.00  0.00     0.198 A 
ATOM     76  C   UNL A   1      39.721  34.049  40.791  1.00  0.00     0.198 A 
ATOM     77  F   UNL A   1      39.010  32.193  39.533  1.00  0.00    -0.203 F 
ATOM     78  F   UNL A   1      42.140  36.634  40.027  1.00  0.00    -0.200 F 
ATOM     79  C   UNL A   1      40.511  35.180  40.923  1.00  0.00     0.200 A 
ATOM     80  F   UNL A   1      38.893  33.691  41.781  1.00  0.00    -0.200 F 
ATOM     81  F   UNL A   1      40.462  35.905  42.050  1.00  0.00    -0.200 F 
ENDBRANCH  57  71
BRANCH  58  82
ATOM     82  C   UNL A   1      40.138  28.553  29.970  1.00  0.00     0.064 A 
ATOM     83  C   UNL A   1      40.762  29.012  28.805  1.00  0.00     0.173 A 
ATOM     84  C   UNL A   1      39.471  27.318  29.913  1.00  0.00     0.173 A 
ATOM     85  F   UNL A   1      41.398  30.193  28.806  1.00  0.00    -0.203 F 
ATOM     86  C   UNL A   1      40.720  28.269  27.627  1.00  0.00     0.198 A 
ATOM     87  C   UNL A   1      39.459  26.561  28.745  1.00  0.00     0.198 A 
ATOM     88  F   UNL A   1      38.867  26.829  31.006  1.00  0.00    -0.203 F 
ATOM     89  F   UNL A   1      41.300  28.745  26.517  1.00  0.00    -0.200 F 
ATOM     90  C   UNL A   1      40.078  27.040  27.601  1.00  0.00     0.200 A 
ATOM     91  F   UNL A   1      38.860  25.363  28.733  1.00  0.00    -0.200 F 
ATOM     92  F   UNL A   1      40.060  26.316  26.474  1.00  0.00    -0.200 F 
ENDBRANCH  58  82
BRANCH  70  93
ATOM     93  C   UNL A   1      44.610  28.607  35.331  1.00  0.00     0.064 A 
ATOM     94  C   UNL A   1      44.564  27.309  35.862  1.00  0.00     0.173 A 
ATOM     95  C   UNL A   1      45.869  29.146  35.021  1.00  0.00     0.173 A 
ATOM     96  F   UNL A   1      43.387  26.755  36.189  1.00  0.00    -0.203 F 
ATOM     97  C   UNL A   1      45.734  26.589  36.091  1.00  0.00     0.198 A 
ATOM     98  C   UNL A   1      47.033  28.410  35.219  1.00  0.00     0.198 A 
ATOM     99  F   UNL A   1      45.968  30.380  34.504  1.00  0.00    -0.203 F 
ATOM    100  F   UNL A   1      45.669  25.368  36.641  1.00  0.00    -0.200 F 
ATOM    101  C   UNL A   1      46.965  27.135  35.761  1.00  0.00     0.200 A 
ATOM    102  F   UNL A   1      48.220  28.932  34.882  1.00  0.00    -0.200 F 
ATOM    103  F   UNL A   1      48.088  26.433  35.967  1.00  0.00    -0.200 F 
ENDBRANCH  70  93
ENDBRANCH  44  45
ENDBRANCH  36  39
ENDBRANCH  34  35
ENDBRANCH  33  34
ENDBRANCH  32  33
ENDBRANCH  31  32
ENDBRANCH   1  31
TORSDOF 18
ENDMDL
MODEL 3
REMARK VINA RESULT:     -10.6      5.377      7.693
REMARK SMILES O=C(CN1C(=O)/C(=C2/Sc3ccccc3N2CCCS(=O)(=O)[O-])SC1=S)NCCCCCCNC(=O)c1ccc(-c2c3nc(c(-c4c(F)c(F)c(F)c(F)c4F)c4ccc([nH]4)c(-c4c(F)c(F)c(F)c(F)c4F)c4nc(c(-c5c(F)c(F)c(F)c(F)c5F)c5ccc2[nH]5)C=C4)C=C3)cc1
REMARK SMILES IDX 29 1 28 2 27 3 1 4 2 5 3 7 4 8 5 9 25 10 6 11 7 12 24 13
REMARK SMILES IDX 26 14 8 15 9 16 16 17 10 18 15 19 11 20 14 21 12 22 13 23
REMARK SMILES IDX 17 24 18 25 19 26 20 27 21 28 22 29 23 30 30 31 31 32 32 33
REMARK SMILES IDX 33 34 34 35 35 36 36 38 37 39 38 40 99 41 39 42 98 43 40 44
REMARK SMILES IDX 41 45 42 46 92 47 43 48 97 49 91 50 93 51 44 52 96 53 90 54
REMARK SMILES IDX 89 55 45 57 77 58 57 59 76 60 58 61 61 62 75 63 94 64 59 65
REMARK SMILES IDX 60 66 74 68 95 69 62 70 46 71 47 72 55 73 48 74 49 75 53 76
REMARK SMILES IDX 56 77 50 78 51 79 54 80 52 81 78 82 79 83 87 84 80 85 81 86
REMARK SMILES IDX 85 87 88 88 82 89 83 90 86 91 84 92 63 93 64 94 72 95 65 96
REMARK SMILES IDX 66 97 70 98 73 99 67 100 68 101 71 102 69 103
REMARK H PARENT 27 6 34 37 93 56 61 67
REMARK Flexibility Score: inf
ROOT
ATOM      1  C   UNL A   1      39.504  24.559  26.545  1.00  0.00     0.021 C 
ENDROOT
BRANCH   1   2
ATOM      2  C   UNL A   1      38.603  23.366  26.139  1.00  0.00     0.116 C 
BRANCH   2   3
ATOM      3  N   UNL A   1      37.637  23.496  25.033  1.00  0.00    -0.355 N 
ATOM      4  O   UNL A   1      37.753  21.254  24.552  1.00  0.00    -0.273 OA
ATOM      5  C   UNL A   1      37.247  22.354  24.315  1.00  0.00     0.240 C 
ATOM      6  H   UNL A   1      37.267  24.379  24.799  1.00  0.00     0.163 HD
BRANCH   5   7
ATOM      7  C   UNL A   1      36.111  22.491  23.251  1.00  0.00     0.227 C 
BRANCH   7   8
ATOM      8  N   UNL A   1      34.796  22.783  23.902  1.00  0.00    -0.283 N 
ATOM      9  C   UNL A   1      34.067  23.889  23.545  1.00  0.00     0.269 C 
ATOM     10  C   UNL A   1      34.041  21.931  24.667  1.00  0.00     0.148 C 
ATOM     11  O   UNL A   1      34.009  24.339  22.413  1.00  0.00    -0.268 OA
ATOM     12  C   UNL A   1      33.137  24.306  24.612  1.00  0.00     0.111 C 
ATOM     13  S   UNL A   1      32.633  22.800  25.324  1.00  0.00    -0.052 SA
ATOM     14  S   UNL A   1      34.273  20.301  24.919  1.00  0.00    -0.052 S 
ATOM     15  C   UNL A   1      32.872  25.570  25.032  1.00  0.00     0.100 C 
ATOM     16  S   UNL A   1      31.597  25.777  26.317  1.00  0.00    -0.068 SA
ATOM     17  N   UNL A   1      33.464  26.821  24.696  1.00  0.00    -0.334 N 
ATOM     18  C   UNL A   1      31.998  27.507  26.435  1.00  0.00     0.037 A 
ATOM     19  C   UNL A   1      33.048  27.864  25.574  1.00  0.00     0.056 A 
ATOM     20  C   UNL A   1      31.380  28.438  27.260  1.00  0.00     0.017 A 
ATOM     21  C   UNL A   1      33.569  29.158  25.652  1.00  0.00     0.027 A 
ATOM     22  C   UNL A   1      31.872  29.744  27.289  1.00  0.00     0.001 A 
ATOM     23  C   UNL A   1      32.982  30.093  26.513  1.00  0.00     0.002 A 
BRANCH  17  24
ATOM     24  C   UNL A   1      33.985  27.276  23.406  1.00  0.00     0.124 C 
BRANCH  24  25
ATOM     25  C   UNL A   1      33.051  28.248  22.697  1.00  0.00     0.037 C 
BRANCH  25  26
ATOM     26  C   UNL A   1      31.672  27.691  22.471  1.00  0.00     0.124 C 
BRANCH  26  27
ATOM     27  S   UNL A   1      30.216  28.619  22.962  1.00  0.00     0.095 S 
ATOM     28  O   UNL A   1      30.553  29.603  23.970  1.00  0.00    -0.243 OA
ATOM     29  O   UNL A   1      29.494  29.004  21.774  1.00  0.00    -0.243 OA
ATOM     30  O   UNL A   1      29.368  27.534  23.785  1.00  0.00    -0.748 OA
ENDBRANCH  26  27
ENDBRANCH  25  26
ENDBRANCH  24  25
ENDBRANCH  17  24
ENDBRANCH   7   8
ENDBRANCH   5   7
ENDBRANCH   2   3
ENDBRANCH   1   2
BRANCH   1  31
ATOM     31  C   UNL A   1      40.917  24.380  27.127  1.00  0.00     0.002 C 
BRANCH  31  32
ATOM     32  C   UNL A   1      42.161  24.489  26.238  1.00  0.00     0.002 C 
BRANCH  32  33
ATOM     33  C   UNL A   1      42.884  23.273  25.715  1.00  0.00     0.021 C 
BRANCH  33  34
ATOM     34  C   UNL A   1      43.602  22.484  26.783  1.00  0.00     0.116 C 
BRANCH  34  35
ATOM     35  N   UNL A   1      45.025  22.801  26.922  1.00  0.00    -0.352 N 
ATOM     36  C   UNL A   1      45.612  23.828  27.632  1.00  0.00     0.251 C 
ATOM     37  H   UNL A   1      45.645  22.203  26.446  1.00  0.00     0.163 HD
ATOM     38  O   UNL A   1      46.824  24.008  27.611  1.00  0.00    -0.269 OA
BRANCH  36  39
ATOM     39  C   UNL A   1      44.733  24.755  28.373  1.00  0.00     0.039 A 
ATOM     40  C   UNL A   1      44.754  26.115  28.064  1.00  0.00     0.014 A 
ATOM     41  C   UNL A   1      44.008  24.285  29.470  1.00  0.00     0.014 A 
ATOM     42  C   UNL A   1      44.276  27.023  28.992  1.00  0.00     0.010 A 
ATOM     43  C   UNL A   1      43.401  25.203  30.330  1.00  0.00     0.010 A 
ATOM     44  C   UNL A   1      43.589  26.581  30.135  1.00  0.00    -0.014 A 
BRANCH  44  45
ATOM     45  C   UNL A   1      43.073  27.583  31.098  1.00  0.00     0.031 A 
ATOM     46  C   UNL A   1      41.839  28.388  30.797  1.00  0.00     0.074 A 
ATOM     47  C   UNL A   1      43.701  27.721  32.282  1.00  0.00     0.049 A 
ATOM     48  N   UNL A   1      41.267  29.321  31.518  1.00  0.00    -0.248 NA
ATOM     49  C   UNL A   1      41.154  28.118  29.522  1.00  0.00     0.031 C 
ATOM     50  C   UNL A   1      44.889  26.970  32.695  1.00  0.00     0.029 A 
ATOM     51  N   UNL A   1      43.419  28.515  33.362  1.00  0.00    -0.354 N 
ATOM     52  C   UNL A   1      40.177  29.762  30.779  1.00  0.00     0.074 A 
ATOM     53  C   UNL A   1      40.180  29.018  29.538  1.00  0.00     0.031 C 
ATOM     54  C   UNL A   1      45.198  27.295  33.956  1.00  0.00     0.029 A 
ATOM     55  C   UNL A   1      44.292  28.343  34.408  1.00  0.00     0.049 A 
ATOM     56  H   UNL A   1      42.665  29.148  33.386  1.00  0.00     0.167 HD
ATOM     57  C   UNL A   1      39.254  30.696  31.115  1.00  0.00     0.037 A 
ATOM     58  C   UNL A   1      44.375  28.977  35.591  1.00  0.00     0.037 A 
ATOM     59  C   UNL A   1      39.253  31.419  32.362  1.00  0.00     0.049 A 
ATOM     60  C   UNL A   1      43.381  30.054  35.906  1.00  0.00     0.074 A 
ATOM     61  C   UNL A   1      38.357  32.379  32.801  1.00  0.00     0.029 A 
ATOM     62  N   UNL A   1      40.193  31.260  33.371  1.00  0.00    -0.354 N 
ATOM     63  N   UNL A   1      42.360  30.470  35.196  1.00  0.00    -0.248 NA
ATOM     64  C   UNL A   1      43.553  30.756  37.183  1.00  0.00     0.031 C 
ATOM     65  C   UNL A   1      38.787  32.842  34.048  1.00  0.00     0.029 A 
ATOM     66  C   UNL A   1      39.912  32.123  34.420  1.00  0.00     0.049 A 
ATOM     67  H   UNL A   1      40.947  30.629  33.347  1.00  0.00     0.167 HD
ATOM     68  C   UNL A   1      41.757  31.467  35.946  1.00  0.00     0.074 A 
ATOM     69  C   UNL A   1      42.515  31.581  37.176  1.00  0.00     0.031 C 
ATOM     70  C   UNL A   1      40.673  32.222  35.640  1.00  0.00     0.037 A 
BRANCH  57  71
ATOM     71  C   UNL A   1      38.169  31.007  30.121  1.00  0.00     0.064 A 
ATOM     72  C   UNL A   1      37.116  30.114  29.873  1.00  0.00     0.173 A 
ATOM     73  C   UNL A   1      38.144  32.246  29.461  1.00  0.00     0.173 A 
ATOM     74  F   UNL A   1      37.095  28.911  30.467  1.00  0.00    -0.203 F 
ATOM     75  C   UNL A   1      36.089  30.443  28.990  1.00  0.00     0.198 A 
ATOM     76  C   UNL A   1      37.100  32.584  28.604  1.00  0.00     0.198 A 
ATOM     77  F   UNL A   1      39.123  33.141  29.665  1.00  0.00    -0.203 F 
ATOM     78  F   UNL A   1      35.115  29.557  28.739  1.00  0.00    -0.200 F 
ATOM     79  C   UNL A   1      36.076  31.680  28.365  1.00  0.00     0.200 A 
ATOM     80  F   UNL A   1      37.082  33.787  28.013  1.00  0.00    -0.200 F 
ATOM     81  F   UNL A   1      35.079  32.000  27.528  1.00  0.00    -0.200 F 
ENDBRANCH  57  71
BRANCH  58  82
ATOM     82  C   UNL A   1      45.445  28.595  36.547  1.00  0.00     0.064 A 
ATOM     83  C   UNL A   1      46.693  29.228  36.517  1.00  0.00     0.173 A 
ATOM     84  C   UNL A   1      45.223  27.631  37.544  1.00  0.00     0.173 A 
ATOM     85  F   UNL A   1      46.957  30.145  35.574  1.00  0.00    -0.203 F 
ATOM     86  C   UNL A   1      47.683  28.908  37.445  1.00  0.00     0.198 A 
ATOM     87  C   UNL A   1      46.200  27.337  38.490  1.00  0.00     0.198 A 
ATOM     88  F   UNL A   1      44.040  27.004  37.621  1.00  0.00    -0.203 F 
ATOM     89  F   UNL A   1      48.879  29.507  37.376  1.00  0.00    -0.200 F 
ATOM     90  C   UNL A   1      47.431  27.972  38.437  1.00  0.00     0.200 A 
ATOM     91  F   UNL A   1      45.943  26.451  39.461  1.00  0.00    -0.200 F 
ATOM     92  F   UNL A   1      48.376  27.683  39.342  1.00  0.00    -0.200 F 
ENDBRANCH  58  82
BRANCH  70  93
ATOM     93  C   UNL A   1      40.216  33.220  36.664  1.00  0.00     0.064 A 
ATOM     94  C   UNL A   1      40.774  34.506  36.738  1.00  0.00     0.173 A 
ATOM     95  C   UNL A   1      39.169  32.907  37.544  1.00  0.00     0.173 A 
ATOM     96  F   UNL A   1      41.787  34.850  35.930  1.00  0.00    -0.203 F 
ATOM     97  C   UNL A   1      40.311  35.432  37.669  1.00  0.00     0.198 A 
ATOM     98  C   UNL A   1      38.686  33.847  38.449  1.00  0.00     0.198 A 
ATOM     99  F   UNL A   1      38.597  31.693  37.510  1.00  0.00    -0.203 F 
ATOM    100  F   UNL A   1      40.887  36.640  37.752  1.00  0.00    -0.200 F 
ATOM    101  C   UNL A   1      39.262  35.106  38.516  1.00  0.00     0.200 A 
ATOM    102  F   UNL A   1      37.661  33.535  39.254  1.00  0.00    -0.200 F 
ATOM    103  F   UNL A   1      38.808  36.006  39.399  1.00  0.00    -0.200 F 
ENDBRANCH  70  93
ENDBRANCH  44  45
ENDBRANCH  36  39
ENDBRANCH  34  35
ENDBRANCH  33  34
ENDBRANCH  32  33
ENDBRANCH  31  32
ENDBRANCH   1  31
TORSDOF 18
ENDMDL
