MODEL 1
REMARK VINA RESULT:     -11.1      0.000      0.000
REMARK SMILES COc1ccccc1N1C(=O)/C(=C\c2ccc(O[C@H](C)C(=O)NCCCCCCNC(=O)c3ccc(-c4c5nc(c(-c6c(F)c(F)c(F)c(F)c6F)c6ccc([nH]6)c(-c6c(F)c(F)c(F)c(F)c6F)c6nc(c(-c7c(F)c(F)c(F)c(F)c7F)c7ccc4[nH]7)C=C6)C=C5)cc3)cc2)SC1=S
REMARK SMILES IDX 25 1 24 2 23 3 21 4 22 5 19 7 20 8 18 9 17 10 14 11 15 12
REMARK SMILES IDX 97 13 16 14 96 15 13 16 9 17 10 18 99 19 11 20 12 21 98 22
REMARK SMILES IDX 100 23 8 24 3 25 4 26 5 27 7 28 6 29 2 30 1 31 26 32 27 33
REMARK SMILES IDX 28 34 29 35 30 36 31 37 32 39 33 40 34 41 95 42 35 43 94 44
REMARK SMILES IDX 36 45 37 46 38 47 88 48 39 49 93 50 87 51 89 52 40 53 92 54
REMARK SMILES IDX 86 55 85 56 41 58 73 59 53 60 72 61 54 62 57 63 71 64 90 65
REMARK SMILES IDX 55 66 56 67 70 69 91 70 58 71 42 72 43 73 51 74 44 75 45 76
REMARK SMILES IDX 49 77 52 78 46 79 47 80 50 81 48 82 74 83 75 84 83 85 76 86
REMARK SMILES IDX 77 87 81 88 84 89 78 90 79 91 82 92 80 93 59 94 60 95 68 96
REMARK SMILES IDX 61 97 62 98 66 99 69 100 63 101 64 102 67 103 65 104
REMARK H PARENT 23 6 30 38 89 57 57 68
REMARK Flexibility Score: inf
ROOT
ATOM      1  C   UNL A   1      35.923  23.294  26.126  1.00  0.00     0.021 C 
ENDROOT
BRANCH   1   2
ATOM      2  C   UNL A   1      34.639  23.936  25.623  1.00  0.00     0.116 C 
BRANCH   2   3
ATOM      3  N   UNL A   1      33.552  23.979  26.564  1.00  0.00    -0.353 N 
ATOM      4  C   UNL A   1      32.233  24.247  26.319  1.00  0.00     0.260 C 
ATOM      5  O   UNL A   1      31.447  24.039  27.251  1.00  0.00    -0.271 OA
ATOM      6  H   UNL A   1      33.786  23.793  27.503  1.00  0.00     0.163 HD
BRANCH   4   7
ATOM      7  C   UNL A   1      31.716  24.881  24.982  1.00  0.00     0.258 C 
ATOM      8  C   UNL A   1      31.299  23.804  23.981  1.00  0.00     0.064 C 
BRANCH   7   9
ATOM      9  O   UNL A   1      30.962  26.095  24.950  1.00  0.00    -0.481 OA
BRANCH   9  10
ATOM     10  C   UNL A   1      31.401  27.243  25.529  1.00  0.00     0.120 A 
ATOM     11  C   UNL A   1      32.408  29.665  26.538  1.00  0.00    -0.024 A 
ATOM     12  C   UNL A   1      31.778  28.749  27.387  1.00  0.00     0.012 A 
ATOM     13  C   UNL A   1      32.501  29.381  25.173  1.00  0.00     0.012 A 
ATOM     14  C   UNL A   1      31.225  27.574  26.871  1.00  0.00     0.047 A 
ATOM     15  C   UNL A   1      31.999  28.173  24.675  1.00  0.00     0.047 A 
BRANCH  11  16
ATOM     16  C   UNL A   1      32.801  30.973  27.069  1.00  0.00     0.029 C 
ATOM     17  N   UNL A   1      36.176  30.710  28.420  1.00  0.00    -0.257 N 
ATOM     18  C   UNL A   1      35.042  30.137  27.859  1.00  0.00     0.270 C 
ATOM     19  C   UNL A   1      36.159  32.075  28.629  1.00  0.00     0.153 C 
ATOM     20  O   UNL A   1      34.875  28.953  27.648  1.00  0.00    -0.268 OA
ATOM     21  C   UNL A   1      34.003  31.185  27.627  1.00  0.00     0.081 C 
ATOM     22  S   UNL A   1      34.565  32.712  28.189  1.00  0.00    -0.054 SA
ATOM     23  S   UNL A   1      37.411  33.081  29.094  1.00  0.00    -0.051 S 
BRANCH  17  24
ATOM     24  C   UNL A   1      37.205  29.822  28.832  1.00  0.00     0.093 A 
ATOM     25  C   UNL A   1      37.200  29.234  30.105  1.00  0.00     0.143 A 
ATOM     26  C   UNL A   1      38.152  28.264  30.431  1.00  0.00     0.048 A 
ATOM     27  C   UNL A   1      39.083  27.844  29.479  1.00  0.00     0.004 A 
ATOM     28  C   UNL A   1      38.144  29.386  27.882  1.00  0.00     0.031 A 
ATOM     29  C   UNL A   1      39.080  28.405  28.205  1.00  0.00     0.002 A 
BRANCH  25  30
ATOM     30  O   UNL A   1      36.280  29.550  31.070  1.00  0.00    -0.495 OA
ATOM     31  C   UNL A   1      36.799  30.477  32.024  1.00  0.00     0.278 C 
ENDBRANCH  25  30
ENDBRANCH  17  24
ENDBRANCH  11  16
ENDBRANCH   9  10
ENDBRANCH   7   9
ENDBRANCH   4   7
ENDBRANCH   2   3
ENDBRANCH   1   2
BRANCH   1  32
ATOM     32  C   UNL A   1      37.201  23.703  25.397  1.00  0.00     0.002 C 
BRANCH  32  33
ATOM     33  C   UNL A   1      38.498  23.628  26.210  1.00  0.00     0.002 C 
BRANCH  33  34
ATOM     34  C   UNL A   1      38.831  24.837  27.093  1.00  0.00     0.021 C 
BRANCH  34  35
ATOM     35  C   UNL A   1      40.307  25.025  27.440  1.00  0.00     0.116 C 
BRANCH  35  36
ATOM     36  N   UNL A   1      41.171  24.913  26.278  1.00  0.00    -0.352 N 
ATOM     37  C   UNL A   1      42.039  25.814  25.717  1.00  0.00     0.251 C 
ATOM     38  H   UNL A   1      41.127  24.044  25.816  1.00  0.00     0.163 HD
ATOM     39  O   UNL A   1      42.548  25.569  24.626  1.00  0.00    -0.269 OA
BRANCH  37  40
ATOM     40  C   UNL A   1      42.365  27.089  26.398  1.00  0.00     0.039 A 
ATOM     41  C   UNL A   1      41.889  28.282  25.844  1.00  0.00     0.014 A 
ATOM     42  C   UNL A   1      43.181  27.126  27.532  1.00  0.00     0.014 A 
ATOM     43  C   UNL A   1      42.184  29.504  26.454  1.00  0.00     0.010 A 
ATOM     44  C   UNL A   1      43.426  28.341  28.175  1.00  0.00     0.010 A 
ATOM     45  C   UNL A   1      42.932  29.542  27.642  1.00  0.00    -0.014 A 
BRANCH  45  46
ATOM     46  C   UNL A   1      43.204  30.826  28.337  1.00  0.00     0.031 A 
ATOM     47  C   UNL A   1      44.387  31.668  27.944  1.00  0.00     0.074 A 
ATOM     48  C   UNL A   1      42.420  31.202  29.366  1.00  0.00     0.049 A 
ATOM     49  N   UNL A   1      44.832  32.776  28.483  1.00  0.00    -0.248 NA
ATOM     50  C   UNL A   1      45.193  31.192  26.809  1.00  0.00     0.031 C 
ATOM     51  C   UNL A   1      41.267  30.454  29.867  1.00  0.00     0.029 A 
ATOM     52  N   UNL A   1      42.483  32.302  30.187  1.00  0.00    -0.354 N 
ATOM     53  C   UNL A   1      45.977  33.112  27.773  1.00  0.00     0.074 A 
ATOM     54  C   UNL A   1      46.180  32.076  26.784  1.00  0.00     0.031 C 
ATOM     55  C   UNL A   1      40.722  31.122  30.896  1.00  0.00     0.029 A 
ATOM     56  C   UNL A   1      41.507  32.324  31.155  1.00  0.00     0.049 A 
ATOM     57  H   UNL A   1      43.161  33.008  30.090  1.00  0.00     0.167 HD
ATOM     58  C   UNL A   1      46.776  34.195  27.924  1.00  0.00     0.037 A 
ATOM     59  C   UNL A   1      41.281  33.208  32.145  1.00  0.00     0.037 A 
ATOM     60  C   UNL A   1      46.542  35.250  28.876  1.00  0.00     0.049 A 
ATOM     61  C   UNL A   1      42.189  34.403  32.284  1.00  0.00     0.074 A 
ATOM     62  C   UNL A   1      47.243  36.432  29.041  1.00  0.00     0.029 A 
ATOM     63  N   UNL A   1      45.531  35.249  29.824  1.00  0.00    -0.354 N 
ATOM     64  N   UNL A   1      43.213  34.756  31.546  1.00  0.00    -0.248 NA
ATOM     65  C   UNL A   1      41.903  35.327  33.391  1.00  0.00     0.031 C 
ATOM     66  C   UNL A   1      46.684  37.126  30.119  1.00  0.00     0.029 A 
ATOM     67  C   UNL A   1      45.605  36.399  30.593  1.00  0.00     0.049 A 
ATOM     68  H   UNL A   1      44.858  34.538  29.934  1.00  0.00     0.167 HD
ATOM     69  C   UNL A   1      43.668  35.956  32.075  1.00  0.00     0.074 A 
ATOM     70  C   UNL A   1      42.801  36.280  33.186  1.00  0.00     0.031 C 
ATOM     71  C   UNL A   1      44.714  36.722  31.677  1.00  0.00     0.037 A 
BRANCH  58  72
ATOM     72  C   UNL A   1      47.982  34.311  27.041  1.00  0.00     0.064 A 
ATOM     73  C   UNL A   1      48.000  35.163  25.927  1.00  0.00     0.173 A 
ATOM     74  C   UNL A   1      49.161  33.620  27.359  1.00  0.00     0.173 A 
ATOM     75  F   UNL A   1      46.896  35.839  25.577  1.00  0.00    -0.203 F 
ATOM     76  C   UNL A   1      49.151  35.309  25.156  1.00  0.00     0.198 A 
ATOM     77  C   UNL A   1      50.317  33.787  26.600  1.00  0.00     0.198 A 
ATOM     78  F   UNL A   1      49.198  32.796  28.418  1.00  0.00    -0.203 F 
ATOM     79  F   UNL A   1      49.136  36.105  24.078  1.00  0.00    -0.200 F 
ATOM     80  C   UNL A   1      50.310  34.629  25.498  1.00  0.00     0.200 A 
ATOM     81  F   UNL A   1      51.440  33.139  26.940  1.00  0.00    -0.200 F 
ATOM     82  F   UNL A   1      51.421  34.783  24.765  1.00  0.00    -0.200 F 
ENDBRANCH  58  72
BRANCH  59  83
ATOM     83  C   UNL A   1      40.144  33.013  33.085  1.00  0.00     0.064 A 
ATOM     84  C   UNL A   1      38.939  33.707  32.913  1.00  0.00     0.173 A 
ATOM     85  C   UNL A   1      40.248  32.158  34.191  1.00  0.00     0.173 A 
ATOM     86  F   UNL A   1      38.791  34.545  31.876  1.00  0.00    -0.203 F 
ATOM     87  C   UNL A   1      37.897  33.584  33.831  1.00  0.00     0.198 A 
ATOM     88  C   UNL A   1      39.197  32.012  35.094  1.00  0.00     0.198 A 
ATOM     89  F   UNL A   1      41.367  31.448  34.385  1.00  0.00    -0.203 F 
ATOM     90  F   UNL A   1      36.778  34.301  33.671  1.00  0.00    -0.200 F 
ATOM     91  C   UNL A   1      38.028  32.736  34.921  1.00  0.00     0.200 A 
ATOM     92  F   UNL A   1      39.318  31.172  36.131  1.00  0.00    -0.200 F 
ATOM     93  F   UNL A   1      37.028  32.620  35.805  1.00  0.00    -0.200 F 
ENDBRANCH  59  83
BRANCH  71  94
ATOM     94  C   UNL A   1      44.943  38.011  32.409  1.00  0.00     0.064 A 
ATOM     95  C   UNL A   1      45.810  38.091  33.509  1.00  0.00     0.173 A 
ATOM     96  C   UNL A   1      44.317  39.191  31.978  1.00  0.00     0.173 A 
ATOM     97  F   UNL A   1      46.421  36.989  33.969  1.00  0.00    -0.203 F 
ATOM     98  C   UNL A   1      46.021  39.300  34.166  1.00  0.00     0.198 A 
ATOM     99  C   UNL A   1      44.554  40.404  32.618  1.00  0.00     0.198 A 
ATOM    100  F   UNL A   1      43.485  39.169  30.925  1.00  0.00    -0.203 F 
ATOM    101  F   UNL A   1      46.817  39.346  35.244  1.00  0.00    -0.200 F 
ATOM    102  C   UNL A   1      45.400  40.456  33.715  1.00  0.00     0.200 A 
ATOM    103  F   UNL A   1      43.964  41.521  32.173  1.00  0.00    -0.200 F 
ATOM    104  F   UNL A   1      45.610  41.620  34.344  1.00  0.00    -0.200 F 
ENDBRANCH  71  94
ENDBRANCH  45  46
ENDBRANCH  37  40
ENDBRANCH  35  36
ENDBRANCH  34  35
ENDBRANCH  33  34
ENDBRANCH  32  33
ENDBRANCH   1  32
TORSDOF 18
ENDMDL
MODEL 2
REMARK VINA RESULT:     -10.9      0.380      6.981
REMARK SMILES COc1ccccc1N1C(=O)/C(=C\c2ccc(O[C@H](C)C(=O)NCCCCCCNC(=O)c3ccc(-c4c5nc(c(-c6c(F)c(F)c(F)c(F)c6F)c6ccc([nH]6)c(-c6c(F)c(F)c(F)c(F)c6F)c6nc(c(-c7c(F)c(F)c(F)c(F)c7F)c7ccc4[nH]7)C=C6)C=C5)cc3)cc2)SC1=S
REMARK SMILES IDX 25 1 24 2 23 3 21 4 22 5 19 7 20 8 18 9 17 10 14 11 15 12
REMARK SMILES IDX 97 13 16 14 96 15 13 16 9 17 10 18 99 19 11 20 12 21 98 22
REMARK SMILES IDX 100 23 8 24 3 25 4 26 5 27 7 28 6 29 2 30 1 31 26 32 27 33
REMARK SMILES IDX 28 34 29 35 30 36 31 37 32 39 33 40 34 41 95 42 35 43 94 44
REMARK SMILES IDX 36 45 37 46 38 47 88 48 39 49 93 50 87 51 89 52 40 53 92 54
REMARK SMILES IDX 86 55 85 56 41 58 73 59 53 60 72 61 54 62 57 63 71 64 90 65
REMARK SMILES IDX 55 66 56 67 70 69 91 70 58 71 42 72 43 73 51 74 44 75 45 76
REMARK SMILES IDX 49 77 52 78 46 79 47 80 50 81 48 82 74 83 75 84 83 85 76 86
REMARK SMILES IDX 77 87 81 88 84 89 78 90 79 91 82 92 80 93 59 94 60 95 68 96
REMARK SMILES IDX 61 97 62 98 66 99 69 100 63 101 64 102 67 103 65 104
REMARK H PARENT 23 6 30 38 89 57 57 68
REMARK Flexibility Score: inf
ROOT
ATOM      1  C   UNL A   1      35.938  23.270  26.057  1.00  0.00     0.021 C 
ENDROOT
BRANCH   1   2
ATOM      2  C   UNL A   1      34.701  24.065  25.666  1.00  0.00     0.116 C 
BRANCH   2   3
ATOM      3  N   UNL A   1      33.603  24.005  26.592  1.00  0.00    -0.353 N 
ATOM      4  C   UNL A   1      32.270  24.174  26.333  1.00  0.00     0.260 C 
ATOM      5  O   UNL A   1      31.491  23.888  27.250  1.00  0.00    -0.271 OA
ATOM      6  H   UNL A   1      33.839  23.820  27.531  1.00  0.00     0.163 HD
BRANCH   4   7
ATOM      7  C   UNL A   1      31.722  24.791  25.001  1.00  0.00     0.258 C 
ATOM      8  C   UNL A   1      31.320  23.701  24.008  1.00  0.00     0.064 C 
BRANCH   7   9
ATOM      9  O   UNL A   1      30.938  25.985  24.974  1.00  0.00    -0.481 OA
BRANCH   9  10
ATOM     10  C   UNL A   1      31.349  27.143  25.555  1.00  0.00     0.120 A 
ATOM     11  C   UNL A   1      32.289  29.592  26.563  1.00  0.00    -0.024 A 
ATOM     12  C   UNL A   1      31.743  28.632  27.423  1.00  0.00     0.012 A 
ATOM     13  C   UNL A   1      32.330  29.337  25.190  1.00  0.00     0.012 A 
ATOM     14  C   UNL A   1      31.222  27.441  26.910  1.00  0.00     0.047 A 
ATOM     15  C   UNL A   1      31.861  28.115  24.693  1.00  0.00     0.047 A 
BRANCH  11  16
ATOM     16  C   UNL A   1      32.644  30.908  27.102  1.00  0.00     0.029 C 
ATOM     17  N   UNL A   1      36.064  30.761  28.355  1.00  0.00    -0.257 N 
ATOM     18  C   UNL A   1      34.938  30.152  27.818  1.00  0.00     0.270 C 
ATOM     19  C   UNL A   1      36.000  32.122  28.584  1.00  0.00     0.153 C 
ATOM     20  O   UNL A   1      34.812  28.964  27.595  1.00  0.00    -0.268 OA
ATOM     21  C   UNL A   1      33.853  31.160  27.629  1.00  0.00     0.081 C 
ATOM     22  S   UNL A   1      34.370  32.700  28.197  1.00  0.00    -0.054 SA
ATOM     23  S   UNL A   1      37.223  33.171  29.027  1.00  0.00    -0.051 S 
BRANCH  17  24
ATOM     24  C   UNL A   1      37.138  29.910  28.726  1.00  0.00     0.093 A 
ATOM     25  C   UNL A   1      37.185  29.293  29.984  1.00  0.00     0.143 A 
ATOM     26  C   UNL A   1      38.185  28.359  30.269  1.00  0.00     0.048 A 
ATOM     27  C   UNL A   1      39.113  28.001  29.289  1.00  0.00     0.004 A 
ATOM     28  C   UNL A   1      38.076  29.537  27.747  1.00  0.00     0.031 A 
ATOM     29  C   UNL A   1      39.060  28.590  28.029  1.00  0.00     0.002 A 
BRANCH  25  30
ATOM     30  O   UNL A   1      36.272  29.548  30.974  1.00  0.00    -0.495 OA
ATOM     31  C   UNL A   1      36.761  30.492  31.927  1.00  0.00     0.278 C 
ENDBRANCH  25  30
ENDBRANCH  17  24
ENDBRANCH  11  16
ENDBRANCH   9  10
ENDBRANCH   7   9
ENDBRANCH   4   7
ENDBRANCH   2   3
ENDBRANCH   1   2
BRANCH   1  32
ATOM     32  C   UNL A   1      37.243  23.701  25.391  1.00  0.00     0.002 C 
BRANCH  32  33
ATOM     33  C   UNL A   1      38.503  23.632  26.262  1.00  0.00     0.002 C 
BRANCH  33  34
ATOM     34  C   UNL A   1      38.710  24.773  27.266  1.00  0.00     0.021 C 
BRANCH  34  35
ATOM     35  C   UNL A   1      40.157  25.208  27.495  1.00  0.00     0.116 C 
BRANCH  35  36
ATOM     36  N   UNL A   1      40.979  25.053  26.307  1.00  0.00    -0.352 N 
ATOM     37  C   UNL A   1      41.892  25.900  25.734  1.00  0.00     0.251 C 
ATOM     38  H   UNL A   1      40.863  24.196  25.836  1.00  0.00     0.163 HD
ATOM     39  O   UNL A   1      42.352  25.636  24.626  1.00  0.00    -0.269 OA
BRANCH  37  40
ATOM     40  C   UNL A   1      42.324  27.140  26.420  1.00  0.00     0.039 A 
ATOM     41  C   UNL A   1      41.898  28.370  25.908  1.00  0.00     0.014 A 
ATOM     42  C   UNL A   1      43.187  27.106  27.518  1.00  0.00     0.014 A 
ATOM     43  C   UNL A   1      42.293  29.560  26.524  1.00  0.00     0.010 A 
ATOM     44  C   UNL A   1      43.534  28.291  28.170  1.00  0.00     0.010 A 
ATOM     45  C   UNL A   1      43.092  29.529  27.679  1.00  0.00    -0.014 A 
BRANCH  45  46
ATOM     46  C   UNL A   1      43.471  30.782  28.383  1.00  0.00     0.031 A 
ATOM     47  C   UNL A   1      42.609  31.322  29.491  1.00  0.00     0.074 A 
ATOM     48  C   UNL A   1      44.560  31.466  27.980  1.00  0.00     0.049 A 
ATOM     49  N   UNL A   1      42.732  32.436  30.169  1.00  0.00    -0.248 NA
ATOM     50  C   UNL A   1      41.439  30.516  29.875  1.00  0.00     0.031 C 
ATOM     51  C   UNL A   1      45.454  31.065  26.893  1.00  0.00     0.029 A 
ATOM     52  N   UNL A   1      45.092  32.650  28.428  1.00  0.00    -0.354 N 
ATOM     53  C   UNL A   1      41.648  32.476  31.035  1.00  0.00     0.074 A 
ATOM     54  C   UNL A   1      40.858  31.292  30.779  1.00  0.00     0.031 C 
ATOM     55  C   UNL A   1      46.431  31.977  26.769  1.00  0.00     0.029 A 
ATOM     56  C   UNL A   1      46.214  33.046  27.739  1.00  0.00     0.049 A 
ATOM     57  H   UNL A   1      44.709  33.165  29.173  1.00  0.00     0.167 HD
ATOM     58  C   UNL A   1      41.349  33.410  31.969  1.00  0.00     0.037 A 
ATOM     59  C   UNL A   1      46.970  34.153  27.867  1.00  0.00     0.037 A 
ATOM     60  C   UNL A   1      42.165  34.561  32.257  1.00  0.00     0.049 A 
ATOM     61  C   UNL A   1      46.610  35.171  28.918  1.00  0.00     0.074 A 
ATOM     62  C   UNL A   1      41.992  35.513  33.247  1.00  0.00     0.029 A 
ATOM     63  N   UNL A   1      43.305  34.917  31.553  1.00  0.00    -0.354 N 
ATOM     64  N   UNL A   1      45.635  35.149  29.793  1.00  0.00    -0.248 NA
ATOM     65  C   UNL A   1      47.463  36.365  29.003  1.00  0.00     0.031 C 
ATOM     66  C   UNL A   1      43.004  36.470  33.115  1.00  0.00     0.029 A 
ATOM     67  C   UNL A   1      43.832  36.089  32.073  1.00  0.00     0.049 A 
ATOM     68  H   UNL A   1      43.684  34.413  30.798  1.00  0.00     0.167 HD
ATOM     69  C   UNL A   1      45.778  36.302  30.553  1.00  0.00     0.074 A 
ATOM     70  C   UNL A   1      46.943  36.994  30.048  1.00  0.00     0.031 C 
ATOM     71  C   UNL A   1      45.011  36.749  31.578  1.00  0.00     0.037 A 
BRANCH  58  72
ATOM     72  C   UNL A   1      40.090  33.234  32.764  1.00  0.00     0.064 A 
ATOM     73  C   UNL A   1      40.032  32.379  33.875  1.00  0.00     0.173 A 
ATOM     74  C   UNL A   1      38.949  33.992  32.459  1.00  0.00     0.173 A 
ATOM     75  F   UNL A   1      41.093  31.628  34.203  1.00  0.00    -0.203 F 
ATOM     76  C   UNL A   1      38.874  32.279  34.641  1.00  0.00     0.198 A 
ATOM     77  C   UNL A   1      37.800  33.908  33.243  1.00  0.00     0.198 A 
ATOM     78  F   UNL A   1      38.954  34.829  31.410  1.00  0.00    -0.203 F 
ATOM     79  F   UNL A   1      38.831  31.433  35.680  1.00  0.00    -0.200 F 
ATOM     80  C   UNL A   1      37.763  33.049  34.331  1.00  0.00     0.200 A 
ATOM     81  F   UNL A   1      36.733  34.662  32.948  1.00  0.00    -0.200 F 
ATOM     82  F   UNL A   1      36.655  32.964  35.080  1.00  0.00    -0.200 F 
ENDBRANCH  58  72
BRANCH  59  83
ATOM     83  C   UNL A   1      48.152  34.363  26.988  1.00  0.00     0.064 A 
ATOM     84  C   UNL A   1      49.394  33.792  27.300  1.00  0.00     0.173 A 
ATOM     85  C   UNL A   1      48.077  35.165  25.840  1.00  0.00     0.173 A 
ATOM     86  F   UNL A   1      49.522  33.025  28.392  1.00  0.00    -0.203 F 
ATOM     87  C   UNL A   1      50.521  34.046  26.521  1.00  0.00     0.198 A 
ATOM     88  C   UNL A   1      49.197  35.396  25.045  1.00  0.00     0.198 A 
ATOM     89  F   UNL A   1      46.908  35.709  25.480  1.00  0.00    -0.203 F 
ATOM     90  F   UNL A   1      51.706  33.532  26.874  1.00  0.00    -0.200 F 
ATOM     91  C   UNL A   1      50.422  34.848  25.394  1.00  0.00     0.200 A 
ATOM     92  F   UNL A   1      49.090  36.151  23.942  1.00  0.00    -0.200 F 
ATOM     93  F   UNL A   1      51.506  35.095  24.646  1.00  0.00    -0.200 F 
ENDBRANCH  59  83
BRANCH  71  94
ATOM     94  C   UNL A   1      45.440  38.016  32.258  1.00  0.00     0.064 A 
ATOM     95  C   UNL A   1      46.375  38.012  33.303  1.00  0.00     0.173 A 
ATOM     96  C   UNL A   1      44.936  39.254  31.830  1.00  0.00     0.173 A 
ATOM     97  F   UNL A   1      46.876  36.855  33.758  1.00  0.00    -0.203 F 
ATOM     98  C   UNL A   1      46.772  39.201  33.911  1.00  0.00     0.198 A 
ATOM     99  C   UNL A   1      45.358  40.443  32.420  1.00  0.00     0.198 A 
ATOM    100  F   UNL A   1      44.045  39.311  30.829  1.00  0.00    -0.203 F 
ATOM    101  F   UNL A   1      47.632  39.172  34.939  1.00  0.00    -0.200 F 
ATOM    102  C   UNL A   1      46.269  40.414  33.464  1.00  0.00     0.200 A 
ATOM    103  F   UNL A   1      44.881  41.613  31.977  1.00  0.00    -0.200 F 
ATOM    104  F   UNL A   1      46.657  41.557  34.045  1.00  0.00    -0.200 F 
ENDBRANCH  71  94
ENDBRANCH  45  46
ENDBRANCH  37  40
ENDBRANCH  35  36
ENDBRANCH  34  35
ENDBRANCH  33  34
ENDBRANCH  32  33
ENDBRANCH   1  32
TORSDOF 18
ENDMDL
MODEL 3
REMARK VINA RESULT:     -10.2      4.094      8.425
REMARK SMILES COc1ccccc1N1C(=O)/C(=C\c2ccc(O[C@H](C)C(=O)NCCCCCCNC(=O)c3ccc(-c4c5nc(c(-c6c(F)c(F)c(F)c(F)c6F)c6ccc([nH]6)c(-c6c(F)c(F)c(F)c(F)c6F)c6nc(c(-c7c(F)c(F)c(F)c(F)c7F)c7ccc4[nH]7)C=C6)C=C5)cc3)cc2)SC1=S
REMARK SMILES IDX 25 1 24 2 23 3 21 4 22 5 19 7 20 8 18 9 17 10 14 11 15 12
REMARK SMILES IDX 97 13 16 14 96 15 13 16 9 17 10 18 99 19 11 20 12 21 98 22
REMARK SMILES IDX 100 23 8 24 3 25 4 26 5 27 7 28 6 29 2 30 1 31 26 32 27 33
REMARK SMILES IDX 28 34 29 35 30 36 31 37 32 39 33 40 34 41 95 42 35 43 94 44
REMARK SMILES IDX 36 45 37 46 38 47 88 48 39 49 93 50 87 51 89 52 40 53 92 54
REMARK SMILES IDX 86 55 85 56 41 58 73 59 53 60 72 61 54 62 57 63 71 64 90 65
REMARK SMILES IDX 55 66 56 67 70 69 91 70 58 71 42 72 43 73 51 74 44 75 45 76
REMARK SMILES IDX 49 77 52 78 46 79 47 80 50 81 48 82 74 83 75 84 83 85 76 86
REMARK SMILES IDX 77 87 81 88 84 89 78 90 79 91 82 92 80 93 59 94 60 95 68 96
REMARK SMILES IDX 61 97 62 98 66 99 69 100 63 101 64 102 67 103 65 104
REMARK H PARENT 23 6 30 38 89 57 57 68
REMARK Flexibility Score: inf
ROOT
ATOM      1  C   UNL A   1      44.560  23.145  27.962  1.00  0.00     0.021 C 
ENDROOT
BRANCH   1   2
ATOM      2  C   UNL A   1      45.637  24.203  27.766  1.00  0.00     0.116 C 
BRANCH   2   3
ATOM      3  N   UNL A   1      46.162  24.318  26.432  1.00  0.00    -0.353 N 
ATOM      4  C   UNL A   1      46.082  25.389  25.584  1.00  0.00     0.260 C 
ATOM      5  O   UNL A   1      46.773  25.332  24.559  1.00  0.00    -0.271 OA
ATOM      6  H   UNL A   1      46.638  23.529  26.085  1.00  0.00     0.163 HD
BRANCH   4   7
ATOM      7  C   UNL A   1      45.106  26.595  25.806  1.00  0.00     0.258 C 
ATOM      8  C   UNL A   1      43.682  26.243  25.374  1.00  0.00     0.064 C 
BRANCH   7   9
ATOM      9  O   UNL A   1      45.223  27.482  26.920  1.00  0.00    -0.481 OA
BRANCH   9  10
ATOM     10  C   UNL A   1      45.101  28.830  26.796  1.00  0.00     0.120 A 
ATOM     11  C   UNL A   1      45.062  31.624  26.499  1.00  0.00    -0.024 A 
ATOM     12  C   UNL A   1      43.940  30.945  26.985  1.00  0.00     0.012 A 
ATOM     13  C   UNL A   1      46.194  30.895  26.126  1.00  0.00     0.012 A 
ATOM     14  C   UNL A   1      43.942  29.551  27.075  1.00  0.00     0.047 A 
ATOM     15  C   UNL A   1      46.209  29.503  26.277  1.00  0.00     0.047 A 
BRANCH  11  16
ATOM     16  C   UNL A   1      44.962  33.062  26.229  1.00  0.00     0.029 C 
ATOM     17  N   UNL A   1      46.635  34.863  28.920  1.00  0.00    -0.257 N 
ATOM     18  C   UNL A   1      46.167  33.686  28.351  1.00  0.00     0.270 C 
ATOM     19  C   UNL A   1      46.435  36.033  28.212  1.00  0.00     0.153 C 
ATOM     20  O   UNL A   1      46.223  32.583  28.856  1.00  0.00    -0.268 OA
ATOM     21  C   UNL A   1      45.497  33.979  27.049  1.00  0.00     0.081 C 
ATOM     22  S   UNL A   1      45.497  35.675  26.751  1.00  0.00    -0.054 SA
ATOM     23  S   UNL A   1      47.039  37.560  28.518  1.00  0.00    -0.051 S 
BRANCH  17  24
ATOM     24  C   UNL A   1      47.174  34.772  30.230  1.00  0.00     0.093 A 
ATOM     25  C   UNL A   1      48.524  34.462  30.449  1.00  0.00     0.143 A 
ATOM     26  C   UNL A   1      49.053  34.511  31.742  1.00  0.00     0.048 A 
ATOM     27  C   UNL A   1      48.254  34.913  32.814  1.00  0.00     0.004 A 
ATOM     28  C   UNL A   1      46.382  35.179  31.318  1.00  0.00     0.031 A 
ATOM     29  C   UNL A   1      46.918  35.246  32.603  1.00  0.00     0.002 A 
BRANCH  25  30
ATOM     30  O   UNL A   1      49.384  34.121  29.439  1.00  0.00    -0.495 OA
ATOM     31  C   UNL A   1      50.081  35.253  28.920  1.00  0.00     0.278 C 
ENDBRANCH  25  30
ENDBRANCH  17  24
ENDBRANCH  11  16
ENDBRANCH   9  10
ENDBRANCH   7   9
ENDBRANCH   4   7
ENDBRANCH   2   3
ENDBRANCH   1   2
BRANCH   1  32
ATOM     32  C   UNL A   1      43.119  23.647  27.910  1.00  0.00     0.002 C 
BRANCH  32  33
ATOM     33  C   UNL A   1      42.060  22.731  28.536  1.00  0.00     0.002 C 
BRANCH  33  34
ATOM     34  C   UNL A   1      41.428  21.680  27.616  1.00  0.00     0.021 C 
BRANCH  34  35
ATOM     35  C   UNL A   1      41.272  22.080  26.150  1.00  0.00     0.116 C 
BRANCH  35  36
ATOM     36  N   UNL A   1      39.880  22.216  25.755  1.00  0.00    -0.352 N 
ATOM     37  C   UNL A   1      38.948  23.168  26.075  1.00  0.00     0.251 C 
ATOM     38  H   UNL A   1      39.552  21.505  25.157  1.00  0.00     0.163 HD
ATOM     39  O   UNL A   1      37.772  22.994  25.764  1.00  0.00    -0.269 OA
BRANCH  37  40
ATOM     40  C   UNL A   1      39.330  24.401  26.802  1.00  0.00     0.039 A 
ATOM     41  C   UNL A   1      38.922  24.544  28.133  1.00  0.00     0.014 A 
ATOM     42  C   UNL A   1      40.026  25.436  26.174  1.00  0.00     0.014 A 
ATOM     43  C   UNL A   1      39.257  25.697  28.848  1.00  0.00     0.010 A 
ATOM     44  C   UNL A   1      40.412  26.561  26.905  1.00  0.00     0.010 A 
ATOM     45  C   UNL A   1      40.029  26.704  28.248  1.00  0.00    -0.014 A 
BRANCH  45  46
ATOM     46  C   UNL A   1      40.446  27.909  29.011  1.00  0.00     0.031 A 
ATOM     47  C   UNL A   1      41.829  27.997  29.597  1.00  0.00     0.074 A 
ATOM     48  C   UNL A   1      39.556  28.897  29.229  1.00  0.00     0.049 A 
ATOM     49  N   UNL A   1      42.349  28.929  30.357  1.00  0.00    -0.248 NA
ATOM     50  C   UNL A   1      42.743  26.880  29.312  1.00  0.00     0.031 C 
ATOM     51  C   UNL A   1      38.175  28.911  28.746  1.00  0.00     0.029 A 
ATOM     52  N   UNL A   1      39.675  30.074  29.926  1.00  0.00    -0.354 N 
ATOM     53  C   UNL A   1      43.634  28.499  30.660  1.00  0.00     0.074 A 
ATOM     54  C   UNL A   1      43.808  27.209  30.029  1.00  0.00     0.031 C 
ATOM     55  C   UNL A   1      37.580  30.046  29.147  1.00  0.00     0.029 A 
ATOM     56  C   UNL A   1      38.522  30.822  29.947  1.00  0.00     0.049 A 
ATOM     57  H   UNL A   1      40.508  30.356  30.368  1.00  0.00     0.167 HD
ATOM     58  C   UNL A   1      44.586  29.132  31.385  1.00  0.00     0.037 A 
ATOM     59  C   UNL A   1      38.254  31.994  30.554  1.00  0.00     0.037 A 
ATOM     60  C   UNL A   1      44.427  30.439  31.969  1.00  0.00     0.049 A 
ATOM     61  C   UNL A   1      39.337  32.672  31.352  1.00  0.00     0.074 A 
ATOM     62  C   UNL A   1      45.366  31.202  32.642  1.00  0.00     0.029 A 
ATOM     63  N   UNL A   1      43.253  31.176  31.949  1.00  0.00    -0.354 N 
ATOM     64  N   UNL A   1      40.577  32.298  31.552  1.00  0.00    -0.248 NA
ATOM     65  C   UNL A   1      38.983  33.942  32.004  1.00  0.00     0.031 C 
ATOM     66  C   UNL A   1      44.747  32.381  33.069  1.00  0.00     0.029 A 
ATOM     67  C   UNL A   1      43.437  32.374  32.621  1.00  0.00     0.049 A 
ATOM     68  H   UNL A   1      42.413  30.891  31.521  1.00  0.00     0.167 HD
ATOM     69  C   UNL A   1      41.158  33.300  32.318  1.00  0.00     0.074 A 
ATOM     70  C   UNL A   1      40.142  34.306  32.534  1.00  0.00     0.031 C 
ATOM     71  C   UNL A   1      42.423  33.379  32.801  1.00  0.00     0.037 A 
BRANCH  58  72
ATOM     72  C   UNL A   1      45.897  28.434  31.593  1.00  0.00     0.064 A 
ATOM     73  C   UNL A   1      46.100  27.550  32.663  1.00  0.00     0.173 A 
ATOM     74  C   UNL A   1      46.936  28.589  30.663  1.00  0.00     0.173 A 
ATOM     75  F   UNL A   1      45.139  27.373  33.582  1.00  0.00    -0.203 F 
ATOM     76  C   UNL A   1      47.300  26.859  32.803  1.00  0.00     0.198 A 
ATOM     77  C   UNL A   1      48.127  27.877  30.792  1.00  0.00     0.198 A 
ATOM     78  F   UNL A   1      46.791  29.419  29.618  1.00  0.00    -0.203 F 
ATOM     79  F   UNL A   1      47.483  26.043  33.850  1.00  0.00    -0.200 F 
ATOM     80  C   UNL A   1      48.309  27.016  31.863  1.00  0.00     0.200 A 
ATOM     81  F   UNL A   1      49.095  28.020  29.877  1.00  0.00    -0.200 F 
ATOM     82  F   UNL A   1      49.457  26.337  31.991  1.00  0.00    -0.200 F 
ENDBRANCH  58  72
BRANCH  59  83
ATOM     83  C   UNL A   1      36.907  32.615  30.430  1.00  0.00     0.064 A 
ATOM     84  C   UNL A   1      36.564  33.375  29.303  1.00  0.00     0.173 A 
ATOM     85  C   UNL A   1      35.949  32.494  31.446  1.00  0.00     0.173 A 
ATOM     86  F   UNL A   1      37.448  33.529  28.306  1.00  0.00    -0.203 F 
ATOM     87  C   UNL A   1      35.332  34.020  29.215  1.00  0.00     0.198 A 
ATOM     88  C   UNL A   1      34.706  33.115  31.347  1.00  0.00     0.198 A 
ATOM     89  F   UNL A   1      36.215  31.755  32.531  1.00  0.00    -0.203 F 
ATOM     90  F   UNL A   1      35.053  34.783  28.150  1.00  0.00    -0.200 F 
ATOM     91  C   UNL A   1      34.404  33.889  30.237  1.00  0.00     0.200 A 
ATOM     92  F   UNL A   1      33.803  32.965  32.326  1.00  0.00    -0.200 F 
ATOM     93  F   UNL A   1      33.220  34.512  30.154  1.00  0.00    -0.200 F 
ENDBRANCH  59  83
BRANCH  71  94
ATOM     94  C   UNL A   1      42.794  34.618  33.561  1.00  0.00     0.064 A 
ATOM     95  C   UNL A   1      42.809  34.647  34.963  1.00  0.00     0.173 A 
ATOM     96  C   UNL A   1      43.180  35.780  32.875  1.00  0.00     0.173 A 
ATOM     97  F   UNL A   1      42.436  33.567  35.665  1.00  0.00    -0.203 F 
ATOM     98  C   UNL A   1      43.172  35.802  35.650  1.00  0.00     0.198 A 
ATOM     99  C   UNL A   1      43.571  36.924  33.565  1.00  0.00     0.198 A 
ATOM    100  F   UNL A   1      43.190  35.801  31.533  1.00  0.00    -0.203 F 
ATOM    101  F   UNL A   1      43.135  35.823  36.990  1.00  0.00    -0.200 F 
ATOM    102  C   UNL A   1      43.560  36.937  34.951  1.00  0.00     0.200 A 
ATOM    103  F   UNL A   1      43.958  38.013  32.888  1.00  0.00    -0.200 F 
ATOM    104  F   UNL A   1      43.916  38.045  35.614  1.00  0.00    -0.200 F 
ENDBRANCH  71  94
ENDBRANCH  45  46
ENDBRANCH  37  40
ENDBRANCH  35  36
ENDBRANCH  34  35
ENDBRANCH  33  34
ENDBRANCH  32  33
ENDBRANCH   1  32
TORSDOF 18
ENDMDL
