MODEL 1
REMARK VINA RESULT:     -11.8      0.000      0.000
REMARK SMILES CC[C@H](C)c1ccccc1Oc1cccc(F)c1C(=O)NCCCCCCNC(=O)c1ccc(-c2c3nc(c(-c4c(F)c(F)c(F)c(F)c4F)c4ccc([nH]4)c(-c4c(F)c(F)c(F)c(F)c4F)c4nc(c(-c5c(F)c(F)c(F)c(F)c5F)c5ccc2[nH]5)C=C4)C=C3)cc1
REMARK SMILES IDX 23 1 22 2 21 3 19 4 20 5 18 7 12 8 13 9 14 10 16 11 15 12
REMARK SMILES IDX 17 13 11 14 10 15 5 16 6 17 7 18 9 19 8 20 3 21 4 22 2 23
REMARK SMILES IDX 1 24 24 25 25 26 26 27 27 28 28 29 29 30 30 32 31 33 32 34
REMARK SMILES IDX 93 35 33 36 92 37 34 38 35 39 36 40 86 41 37 42 91 43 85 44
REMARK SMILES IDX 87 45 38 46 90 47 84 48 83 49 39 51 71 52 51 53 70 54 52 55
REMARK SMILES IDX 55 56 69 57 88 58 53 59 54 60 68 62 89 63 56 64 40 65 41 66
REMARK SMILES IDX 49 67 42 68 43 69 47 70 50 71 44 72 45 73 48 74 46 75 72 76
REMARK SMILES IDX 73 77 81 78 74 79 75 80 79 81 82 82 76 83 77 84 80 85 78 86
REMARK SMILES IDX 57 87 58 88 66 89 59 90 60 91 64 92 67 93 61 94 62 95 65 96
REMARK SMILES IDX 63 97
REMARK H PARENT 21 6 28 31 87 50 55 61
REMARK Flexibility Score: inf
ROOT
ATOM      1  C   UNL A   1      33.543  29.696  26.475  1.00  0.00     0.021 C 
ENDROOT
BRANCH   1   2
ATOM      2  C   UNL A   1      33.985  28.239  26.483  1.00  0.00     0.116 C 
BRANCH   2   3
ATOM      3  N   UNL A   1      34.136  27.626  25.187  1.00  0.00    -0.352 N 
ATOM      4  C   UNL A   1      33.315  26.717  24.562  1.00  0.00     0.258 C 
ATOM      5  O   UNL A   1      33.470  26.542  23.353  1.00  0.00    -0.269 OA
ATOM      6  H   UNL A   1      34.936  27.895  24.681  1.00  0.00     0.163 HD
BRANCH   4   7
ATOM      7  C   UNL A   1      32.326  25.879  25.287  1.00  0.00     0.118 A 
ATOM      8  C   UNL A   1      32.562  24.729  26.050  1.00  0.00     0.143 A 
ATOM      9  C   UNL A   1      31.466  24.015  26.588  1.00  0.00     0.048 A 
ATOM     10  C   UNL A   1      30.164  24.493  26.500  1.00  0.00     0.007 A 
ATOM     11  C   UNL A   1      31.000  26.356  25.229  1.00  0.00     0.139 A 
ATOM     12  C   UNL A   1      29.935  25.688  25.840  1.00  0.00     0.040 A 
ATOM     13  F   UNL A   1      30.696  27.478  24.558  1.00  0.00    -0.206 F 
BRANCH   8  14
ATOM     14  O   UNL A   1      33.739  24.091  26.340  1.00  0.00    -0.456 OA
BRANCH  14  15
ATOM     15  C   UNL A   1      34.665  23.680  25.414  1.00  0.00     0.130 A 
ATOM     16  C   UNL A   1      34.491  22.996  24.199  1.00  0.00    -0.002 A 
ATOM     17  C   UNL A   1      35.671  22.486  23.603  1.00  0.00     0.008 A 
ATOM     18  C   UNL A   1      36.950  22.812  24.061  1.00  0.00     0.001 A 
ATOM     19  C   UNL A   1      35.956  24.102  25.798  1.00  0.00     0.047 A 
ATOM     20  C   UNL A   1      37.094  23.679  25.125  1.00  0.00     0.004 A 
BRANCH  16  21
ATOM     21  C   UNL A   1      33.145  22.837  23.471  1.00  0.00     0.019 C 
ATOM     22  C   UNL A   1      33.218  23.297  22.001  1.00  0.00     0.013 C 
BRANCH  21  23
ATOM     23  C   UNL A   1      32.563  21.394  23.537  1.00  0.00     0.005 C 
ATOM     24  C   UNL A   1      32.430  20.792  24.929  1.00  0.00     0.004 C 
ENDBRANCH  21  23
ENDBRANCH  16  21
ENDBRANCH  14  15
ENDBRANCH   8  14
ENDBRANCH   4   7
ENDBRANCH   2   3
ENDBRANCH   1   2
BRANCH   1  25
ATOM     25  C   UNL A   1      32.065  29.966  26.783  1.00  0.00     0.002 C 
BRANCH  25  26
ATOM     26  C   UNL A   1      31.326  30.991  25.911  1.00  0.00     0.002 C 
BRANCH  26  27
ATOM     27  C   UNL A   1      31.251  32.425  26.433  1.00  0.00     0.021 C 
BRANCH  27  28
ATOM     28  C   UNL A   1      32.481  32.953  27.156  1.00  0.00     0.116 C 
BRANCH  28  29
ATOM     29  N   UNL A   1      32.313  34.305  27.651  1.00  0.00    -0.352 N 
ATOM     30  C   UNL A   1      32.981  34.973  28.648  1.00  0.00     0.251 C 
ATOM     31  H   UNL A   1      31.611  34.828  27.200  1.00  0.00     0.163 HD
ATOM     32  O   UNL A   1      32.589  36.079  29.006  1.00  0.00    -0.269 OA
BRANCH  30  33
ATOM     33  C   UNL A   1      34.155  34.365  29.317  1.00  0.00     0.039 A 
ATOM     34  C   UNL A   1      33.939  33.533  30.422  1.00  0.00     0.014 A 
ATOM     35  C   UNL A   1      35.462  34.635  28.901  1.00  0.00     0.014 A 
ATOM     36  C   UNL A   1      35.022  32.940  31.074  1.00  0.00     0.010 A 
ATOM     37  C   UNL A   1      36.536  33.977  29.498  1.00  0.00     0.010 A 
ATOM     38  C   UNL A   1      36.329  33.135  30.602  1.00  0.00    -0.014 A 
BRANCH  38  39
ATOM     39  C   UNL A   1      37.495  32.501  31.270  1.00  0.00     0.031 A 
ATOM     40  C   UNL A   1      38.234  31.382  30.589  1.00  0.00     0.074 A 
ATOM     41  C   UNL A   1      37.858  32.894  32.505  1.00  0.00     0.049 A 
ATOM     42  N   UNL A   1      39.231  30.655  31.029  1.00  0.00    -0.248 NA
ATOM     43  C   UNL A   1      37.772  31.011  29.242  1.00  0.00     0.031 C 
ATOM     44  C   UNL A   1      37.201  33.944  33.286  1.00  0.00     0.029 A 
ATOM     45  N   UNL A   1      38.868  32.454  33.324  1.00  0.00    -0.354 N 
ATOM     46  C   UNL A   1      39.500  29.735  30.023  1.00  0.00     0.074 A 
ATOM     47  C   UNL A   1      38.525  29.954  28.977  1.00  0.00     0.031 C 
ATOM     48  C   UNL A   1      37.843  34.088  34.456  1.00  0.00     0.029 A 
ATOM     49  C   UNL A   1      38.932  33.117  34.525  1.00  0.00     0.049 A 
ATOM     50  H   UNL A   1      39.489  31.732  33.073  1.00  0.00     0.167 HD
ATOM     51  C   UNL A   1      40.489  28.810  29.963  1.00  0.00     0.037 A 
ATOM     52  C   UNL A   1      39.773  32.957  35.565  1.00  0.00     0.037 A 
ATOM     53  C   UNL A   1      41.475  28.613  30.993  1.00  0.00     0.049 A 
ATOM     54  C   UNL A   1      40.852  31.912  35.482  1.00  0.00     0.074 A 
ATOM     55  C   UNL A   1      42.546  27.737  31.009  1.00  0.00     0.029 A 
ATOM     56  N   UNL A   1      41.507  29.307  32.194  1.00  0.00    -0.354 N 
ATOM     57  N   UNL A   1      41.132  31.086  34.504  1.00  0.00    -0.248 NA
ATOM     58  C   UNL A   1      41.735  31.781  36.650  1.00  0.00     0.031 C 
ATOM     59  C   UNL A   1      43.203  27.872  32.237  1.00  0.00     0.029 A 
ATOM     60  C   UNL A   1      42.570  28.866  32.966  1.00  0.00     0.049 A 
ATOM     61  H   UNL A   1      40.871  30.009  32.458  1.00  0.00     0.167 HD
ATOM     62  C   UNL A   1      42.238  30.359  34.921  1.00  0.00     0.074 A 
ATOM     63  C   UNL A   1      42.586  30.851  36.238  1.00  0.00     0.031 C 
ATOM     64  C   UNL A   1      42.907  29.374  34.272  1.00  0.00     0.037 A 
BRANCH  51  65
ATOM     65  C   UNL A   1      40.550  27.944  28.736  1.00  0.00     0.064 A 
ATOM     66  C   UNL A   1      41.306  28.315  27.612  1.00  0.00     0.173 A 
ATOM     67  C   UNL A   1      39.856  26.727  28.685  1.00  0.00     0.173 A 
ATOM     68  F   UNL A   1      41.979  29.475  27.603  1.00  0.00    -0.203 F 
ATOM     69  C   UNL A   1      41.332  27.519  26.470  1.00  0.00     0.198 A 
ATOM     70  C   UNL A   1      39.911  25.918  27.553  1.00  0.00     0.198 A 
ATOM     71  F   UNL A   1      39.123  26.321  29.732  1.00  0.00    -0.203 F 
ATOM     72  F   UNL A   1      42.010  27.925  25.388  1.00  0.00    -0.200 F 
ATOM     73  C   UNL A   1      40.639  26.319  26.443  1.00  0.00     0.200 A 
ATOM     74  F   UNL A   1      39.251  24.751  27.532  1.00  0.00    -0.200 F 
ATOM     75  F   UNL A   1      40.664  25.553  25.344  1.00  0.00    -0.200 F 
ENDBRANCH  51  65
BRANCH  52  76
ATOM     76  C   UNL A   1      39.655  33.836  36.757  1.00  0.00     0.064 A 
ATOM     77  C   UNL A   1      38.848  33.464  37.842  1.00  0.00     0.173 A 
ATOM     78  C   UNL A   1      40.340  35.057  36.841  1.00  0.00     0.173 A 
ATOM     79  F   UNL A   1      38.157  32.316  37.798  1.00  0.00    -0.203 F 
ATOM     80  C   UNL A   1      38.717  34.287  38.957  1.00  0.00     0.198 A 
ATOM     81  C   UNL A   1      40.229  35.867  37.969  1.00  0.00     0.198 A 
ATOM     82  F   UNL A   1      41.127  35.456  35.832  1.00  0.00    -0.203 F 
ATOM     83  F   UNL A   1      37.906  33.927  39.961  1.00  0.00    -0.200 F 
ATOM     84  C   UNL A   1      39.412  35.486  39.024  1.00  0.00     0.200 A 
ATOM     85  F   UNL A   1      40.912  37.018  38.035  1.00  0.00    -0.200 F 
ATOM     86  F   UNL A   1      39.289  36.275  40.100  1.00  0.00    -0.200 F 
ENDBRANCH  52  76
BRANCH  64  87
ATOM     87  C   UNL A   1      44.106  28.791  34.960  1.00  0.00     0.064 A 
ATOM     88  C   UNL A   1      44.004  27.663  35.788  1.00  0.00     0.173 A 
ATOM     89  C   UNL A   1      45.380  29.344  34.757  1.00  0.00     0.173 A 
ATOM     90  F   UNL A   1      42.806  27.107  36.026  1.00  0.00    -0.203 F 
ATOM     91  C   UNL A   1      45.129  27.127  36.407  1.00  0.00     0.198 A 
ATOM     92  C   UNL A   1      46.506  28.787  35.355  1.00  0.00     0.198 A 
ATOM     93  F   UNL A   1      45.531  30.419  33.970  1.00  0.00    -0.203 F 
ATOM     94  F   UNL A   1      45.001  26.078  37.232  1.00  0.00    -0.200 F 
ATOM     95  C   UNL A   1      46.380  27.685  36.185  1.00  0.00     0.200 A 
ATOM     96  F   UNL A   1      47.716  29.320  35.128  1.00  0.00    -0.200 F 
ATOM     97  F   UNL A   1      47.463  27.162  36.777  1.00  0.00    -0.200 F 
ENDBRANCH  64  87
ENDBRANCH  38  39
ENDBRANCH  30  33
ENDBRANCH  28  29
ENDBRANCH  27  28
ENDBRANCH  26  27
ENDBRANCH  25  26
ENDBRANCH   1  25
TORSDOF 17
ENDMDL
MODEL 2
REMARK VINA RESULT:     -11.8      1.267      2.918
REMARK SMILES CC[C@H](C)c1ccccc1Oc1cccc(F)c1C(=O)NCCCCCCNC(=O)c1ccc(-c2c3nc(c(-c4c(F)c(F)c(F)c(F)c4F)c4ccc([nH]4)c(-c4c(F)c(F)c(F)c(F)c4F)c4nc(c(-c5c(F)c(F)c(F)c(F)c5F)c5ccc2[nH]5)C=C4)C=C3)cc1
REMARK SMILES IDX 23 1 22 2 21 3 19 4 20 5 18 7 12 8 13 9 14 10 16 11 15 12
REMARK SMILES IDX 17 13 11 14 10 15 5 16 6 17 7 18 9 19 8 20 3 21 4 22 2 23
REMARK SMILES IDX 1 24 24 25 25 26 26 27 27 28 28 29 29 30 30 32 31 33 32 34
REMARK SMILES IDX 93 35 33 36 92 37 34 38 35 39 36 40 86 41 37 42 91 43 85 44
REMARK SMILES IDX 87 45 38 46 90 47 84 48 83 49 39 51 71 52 51 53 70 54 52 55
REMARK SMILES IDX 55 56 69 57 88 58 53 59 54 60 68 62 89 63 56 64 40 65 41 66
REMARK SMILES IDX 49 67 42 68 43 69 47 70 50 71 44 72 45 73 48 74 46 75 72 76
REMARK SMILES IDX 73 77 81 78 74 79 75 80 79 81 82 82 76 83 77 84 80 85 78 86
REMARK SMILES IDX 57 87 58 88 66 89 59 90 60 91 64 92 67 93 61 94 62 95 65 96
REMARK SMILES IDX 63 97
REMARK H PARENT 21 6 28 31 87 50 55 61
REMARK Flexibility Score: inf
ROOT
ATOM      1  C   UNL A   1      31.465  28.090  26.741  1.00  0.00     0.021 C 
ENDROOT
BRANCH   1   2
ATOM      2  C   UNL A   1      32.131  26.747  26.476  1.00  0.00     0.116 C 
BRANCH   2   3
ATOM      3  N   UNL A   1      31.399  25.589  26.921  1.00  0.00    -0.352 N 
ATOM      4  C   UNL A   1      31.667  24.259  26.697  1.00  0.00     0.258 C 
ATOM      5  O   UNL A   1      31.087  23.431  27.401  1.00  0.00    -0.269 OA
ATOM      6  H   UNL A   1      30.595  25.776  27.458  1.00  0.00     0.163 HD
BRANCH   4   7
ATOM      7  C   UNL A   1      32.542  23.779  25.597  1.00  0.00     0.118 A 
ATOM      8  C   UNL A   1      32.266  23.745  24.225  1.00  0.00     0.143 A 
ATOM      9  C   UNL A   1      33.202  23.158  23.342  1.00  0.00     0.048 A 
ATOM     10  C   UNL A   1      34.454  22.735  23.774  1.00  0.00     0.007 A 
ATOM     11  C   UNL A   1      33.826  23.363  26.010  1.00  0.00     0.139 A 
ATOM     12  C   UNL A   1      34.777  22.867  25.114  1.00  0.00     0.040 A 
ATOM     13  F   UNL A   1      34.187  23.409  27.302  1.00  0.00    -0.206 F 
BRANCH   8  14
ATOM     14  O   UNL A   1      31.150  24.149  23.541  1.00  0.00    -0.456 OA
BRANCH  14  15
ATOM     15  C   UNL A   1      30.758  25.453  23.367  1.00  0.00     0.130 A 
ATOM     16  C   UNL A   1      31.481  26.564  22.903  1.00  0.00    -0.002 A 
ATOM     17  C   UNL A   1      30.864  27.825  23.090  1.00  0.00     0.008 A 
ATOM     18  C   UNL A   1      29.537  27.962  23.508  1.00  0.00     0.001 A 
ATOM     19  C   UNL A   1      29.386  25.591  23.672  1.00  0.00     0.047 A 
ATOM     20  C   UNL A   1      28.774  26.835  23.736  1.00  0.00     0.004 A 
BRANCH  16  21
ATOM     21  C   UNL A   1      32.830  26.482  22.166  1.00  0.00     0.019 C 
ATOM     22  C   UNL A   1      32.700  25.809  20.784  1.00  0.00     0.013 C 
BRANCH  21  23
ATOM     23  C   UNL A   1      33.543  27.858  22.010  1.00  0.00     0.005 C 
ATOM     24  C   UNL A   1      34.229  28.398  23.257  1.00  0.00     0.004 C 
ENDBRANCH  21  23
ENDBRANCH  16  21
ENDBRANCH  14  15
ENDBRANCH   8  14
ENDBRANCH   4   7
ENDBRANCH   2   3
ENDBRANCH   1   2
BRANCH   1  25
ATOM     25  C   UNL A   1      32.276  29.342  26.380  1.00  0.00     0.002 C 
BRANCH  25  26
ATOM     26  C   UNL A   1      31.540  30.499  25.691  1.00  0.00     0.002 C 
BRANCH  26  27
ATOM     27  C   UNL A   1      31.360  31.787  26.492  1.00  0.00     0.021 C 
BRANCH  27  28
ATOM     28  C   UNL A   1      32.623  32.417  27.062  1.00  0.00     0.116 C 
BRANCH  28  29
ATOM     29  N   UNL A   1      32.430  33.787  27.493  1.00  0.00    -0.352 N 
ATOM     30  C   UNL A   1      33.082  34.512  28.460  1.00  0.00     0.251 C 
ATOM     31  H   UNL A   1      31.721  34.276  27.017  1.00  0.00     0.163 HD
ATOM     32  O   UNL A   1      32.671  35.627  28.764  1.00  0.00    -0.269 OA
BRANCH  30  33
ATOM     33  C   UNL A   1      34.264  33.956  29.161  1.00  0.00     0.039 A 
ATOM     34  C   UNL A   1      34.064  32.964  30.126  1.00  0.00     0.014 A 
ATOM     35  C   UNL A   1      35.557  34.427  28.912  1.00  0.00     0.014 A 
ATOM     36  C   UNL A   1      35.155  32.414  30.803  1.00  0.00     0.010 A 
ATOM     37  C   UNL A   1      36.652  33.820  29.526  1.00  0.00     0.010 A 
ATOM     38  C   UNL A   1      36.462  32.819  30.490  1.00  0.00    -0.014 A 
BRANCH  38  39
ATOM     39  C   UNL A   1      37.638  32.236  31.185  1.00  0.00     0.031 A 
ATOM     40  C   UNL A   1      38.460  31.173  30.509  1.00  0.00     0.074 A 
ATOM     41  C   UNL A   1      37.939  32.625  32.438  1.00  0.00     0.049 A 
ATOM     42  N   UNL A   1      39.481  30.493  30.970  1.00  0.00    -0.248 NA
ATOM     43  C   UNL A   1      38.063  30.803  29.142  1.00  0.00     0.031 C 
ATOM     44  C   UNL A   1      37.201  33.621  33.215  1.00  0.00     0.029 A 
ATOM     45  N   UNL A   1      38.945  32.225  33.283  1.00  0.00    -0.354 N 
ATOM     46  C   UNL A   1      39.833  29.609  29.957  1.00  0.00     0.074 A 
ATOM     47  C   UNL A   1      38.881  29.794  28.884  1.00  0.00     0.031 C 
ATOM     48  C   UNL A   1      37.795  33.778  34.409  1.00  0.00     0.029 A 
ATOM     49  C   UNL A   1      38.933  32.867  34.497  1.00  0.00     0.049 A 
ATOM     50  H   UNL A   1      39.612  31.543  33.040  1.00  0.00     0.167 HD
ATOM     51  C   UNL A   1      40.873  28.741  29.914  1.00  0.00     0.037 A 
ATOM     52  C   UNL A   1      39.748  32.733  35.561  1.00  0.00     0.037 A 
ATOM     53  C   UNL A   1      41.834  28.578  30.973  1.00  0.00     0.049 A 
ATOM     54  C   UNL A   1      40.885  31.750  35.496  1.00  0.00     0.074 A 
ATOM     55  C   UNL A   1      42.951  27.762  31.009  1.00  0.00     0.029 A 
ATOM     56  N   UNL A   1      41.789  29.250  32.187  1.00  0.00    -0.354 N 
ATOM     57  N   UNL A   1      41.241  30.960  34.513  1.00  0.00    -0.248 NA
ATOM     58  C   UNL A   1      41.735  31.644  36.690  1.00  0.00     0.031 C 
ATOM     59  C   UNL A   1      43.559  27.909  32.261  1.00  0.00     0.029 A 
ATOM     60  C   UNL A   1      42.849  28.852  32.986  1.00  0.00     0.049 A 
ATOM     61  H   UNL A   1      41.107  29.910  32.441  1.00  0.00     0.167 HD
ATOM     62  C   UNL A   1      42.372  30.287  34.954  1.00  0.00     0.074 A 
ATOM     63  C   UNL A   1      42.650  30.771  36.291  1.00  0.00     0.031 C 
ATOM     64  C   UNL A   1      43.115  29.352  34.311  1.00  0.00     0.037 A 
BRANCH  51  65
ATOM     65  C   UNL A   1      41.022  27.904  28.675  1.00  0.00     0.064 A 
ATOM     66  C   UNL A   1      41.864  28.294  27.621  1.00  0.00     0.173 A 
ATOM     67  C   UNL A   1      40.324  26.694  28.542  1.00  0.00     0.173 A 
ATOM     68  F   UNL A   1      42.544  29.448  27.692  1.00  0.00    -0.203 F 
ATOM     69  C   UNL A   1      41.971  27.525  26.465  1.00  0.00     0.198 A 
ATOM     70  C   UNL A   1      40.459  25.911  27.397  1.00  0.00     0.198 A 
ATOM     71  F   UNL A   1      39.511  26.270  29.520  1.00  0.00    -0.203 F 
ATOM     72  F   UNL A   1      42.733  27.950  25.448  1.00  0.00    -0.200 F 
ATOM     73  C   UNL A   1      41.273  26.332  26.357  1.00  0.00     0.200 A 
ATOM     74  F   UNL A   1      39.795  24.751  27.298  1.00  0.00    -0.200 F 
ATOM     75  F   UNL A   1      41.377  25.593  25.244  1.00  0.00    -0.200 F 
ENDBRANCH  51  65
BRANCH  52  76
ATOM     76  C   UNL A   1      39.542  33.581  36.764  1.00  0.00     0.064 A 
ATOM     77  C   UNL A   1      40.147  34.841  36.863  1.00  0.00     0.173 A 
ATOM     78  C   UNL A   1      38.742  33.154  37.835  1.00  0.00     0.173 A 
ATOM     79  F   UNL A   1      40.938  35.282  35.874  1.00  0.00    -0.203 F 
ATOM     80  C   UNL A   1      39.975  35.636  37.994  1.00  0.00     0.198 A 
ATOM     81  C   UNL A   1      38.549  33.962  38.953  1.00  0.00     0.198 A 
ATOM     82  F   UNL A   1      38.138  31.958  37.788  1.00  0.00    -0.203 F 
ATOM     83  F   UNL A   1      40.599  36.819  38.079  1.00  0.00    -0.200 F 
ATOM     84  C   UNL A   1      39.171  35.200  39.036  1.00  0.00     0.200 A 
ATOM     85  F   UNL A   1      37.761  33.542  39.953  1.00  0.00    -0.200 F 
ATOM     86  F   UNL A   1      39.002  35.967  40.121  1.00  0.00    -0.200 F 
ENDBRANCH  52  76
BRANCH  64  87
ATOM     87  C   UNL A   1      44.321  28.822  35.028  1.00  0.00     0.064 A 
ATOM     88  C   UNL A   1      44.255  27.675  35.833  1.00  0.00     0.173 A 
ATOM     89  C   UNL A   1      45.569  29.448  34.877  1.00  0.00     0.173 A 
ATOM     90  F   UNL A   1      43.083  27.050  36.022  1.00  0.00    -0.203 F 
ATOM     91  C   UNL A   1      45.387  27.189  36.480  1.00  0.00     0.198 A 
ATOM     92  C   UNL A   1      46.704  28.942  35.502  1.00  0.00     0.198 A 
ATOM     93  F   UNL A   1      45.686  30.544  34.114  1.00  0.00    -0.203 F 
ATOM     94  F   UNL A   1      45.291  26.119  37.282  1.00  0.00    -0.200 F 
ATOM     95  C   UNL A   1      46.612  27.818  36.308  1.00  0.00     0.200 A 
ATOM     96  F   UNL A   1      47.889  29.544  35.324  1.00  0.00    -0.200 F 
ATOM     97  F   UNL A   1      47.703  27.344  36.927  1.00  0.00    -0.200 F 
ENDBRANCH  64  87
ENDBRANCH  38  39
ENDBRANCH  30  33
ENDBRANCH  28  29
ENDBRANCH  27  28
ENDBRANCH  26  27
ENDBRANCH  25  26
ENDBRANCH   1  25
TORSDOF 17
ENDMDL
MODEL 3
REMARK VINA RESULT:     -11.6      1.396      3.058
REMARK SMILES CC[C@H](C)c1ccccc1Oc1cccc(F)c1C(=O)NCCCCCCNC(=O)c1ccc(-c2c3nc(c(-c4c(F)c(F)c(F)c(F)c4F)c4ccc([nH]4)c(-c4c(F)c(F)c(F)c(F)c4F)c4nc(c(-c5c(F)c(F)c(F)c(F)c5F)c5ccc2[nH]5)C=C4)C=C3)cc1
REMARK SMILES IDX 23 1 22 2 21 3 19 4 20 5 18 7 12 8 13 9 14 10 16 11 15 12
REMARK SMILES IDX 17 13 11 14 10 15 5 16 6 17 7 18 9 19 8 20 3 21 4 22 2 23
REMARK SMILES IDX 1 24 24 25 25 26 26 27 27 28 28 29 29 30 30 32 31 33 32 34
REMARK SMILES IDX 93 35 33 36 92 37 34 38 35 39 36 40 86 41 37 42 91 43 85 44
REMARK SMILES IDX 87 45 38 46 90 47 84 48 83 49 39 51 71 52 51 53 70 54 52 55
REMARK SMILES IDX 55 56 69 57 88 58 53 59 54 60 68 62 89 63 56 64 40 65 41 66
REMARK SMILES IDX 49 67 42 68 43 69 47 70 50 71 44 72 45 73 48 74 46 75 72 76
REMARK SMILES IDX 73 77 81 78 74 79 75 80 79 81 82 82 76 83 77 84 80 85 78 86
REMARK SMILES IDX 57 87 58 88 66 89 59 90 60 91 64 92 67 93 61 94 62 95 65 96
REMARK SMILES IDX 63 97
REMARK H PARENT 21 6 28 31 87 50 55 61
REMARK Flexibility Score: inf
ROOT
ATOM      1  C   UNL A   1      31.941  28.557  27.229  1.00  0.00     0.021 C 
ENDROOT
BRANCH   1   2
ATOM      2  C   UNL A   1      32.205  27.121  26.797  1.00  0.00     0.116 C 
BRANCH   2   3
ATOM      3  N   UNL A   1      31.050  26.261  26.755  1.00  0.00    -0.352 N 
ATOM      4  C   UNL A   1      30.977  24.930  26.415  1.00  0.00     0.258 C 
ATOM      5  O   UNL A   1      29.954  24.316  26.721  1.00  0.00    -0.269 OA
ATOM      6  H   UNL A   1      30.197  26.684  27.003  1.00  0.00     0.163 HD
BRANCH   4   7
ATOM      7  C   UNL A   1      32.023  24.233  25.623  1.00  0.00     0.118 A 
ATOM      8  C   UNL A   1      32.361  24.427  24.278  1.00  0.00     0.143 A 
ATOM      9  C   UNL A   1      33.331  23.590  23.679  1.00  0.00     0.048 A 
ATOM     10  C   UNL A   1      34.064  22.667  24.417  1.00  0.00     0.007 A 
ATOM     11  C   UNL A   1      32.792  23.306  26.358  1.00  0.00     0.139 A 
ATOM     12  C   UNL A   1      33.810  22.547  25.774  1.00  0.00     0.040 A 
ATOM     13  F   UNL A   1      32.563  23.096  27.664  1.00  0.00    -0.206 F 
BRANCH   8  14
ATOM     14  O   UNL A   1      31.844  25.298  23.357  1.00  0.00    -0.456 OA
BRANCH  14  15
ATOM     15  C   UNL A   1      32.189  26.622  23.240  1.00  0.00     0.130 A 
ATOM     16  C   UNL A   1      31.425  27.724  22.821  1.00  0.00    -0.002 A 
ATOM     17  C   UNL A   1      32.149  28.913  22.560  1.00  0.00     0.008 A 
ATOM     18  C   UNL A   1      33.497  29.066  22.895  1.00  0.00     0.001 A 
ATOM     19  C   UNL A   1      33.513  26.820  23.686  1.00  0.00     0.047 A 
ATOM     20  C   UNL A   1      34.165  28.034  23.523  1.00  0.00     0.004 A 
BRANCH  16  21
ATOM     21  C   UNL A   1      29.891  27.729  22.700  1.00  0.00     0.019 C 
ATOM     22  C   UNL A   1      29.217  26.872  23.790  1.00  0.00     0.013 C 
BRANCH  21  23
ATOM     23  C   UNL A   1      29.266  29.156  22.699  1.00  0.00     0.005 C 
ATOM     24  C   UNL A   1      27.765  29.226  22.945  1.00  0.00     0.004 C 
ENDBRANCH  21  23
ENDBRANCH  16  21
ENDBRANCH  14  15
ENDBRANCH   8  14
ENDBRANCH   4   7
ENDBRANCH   2   3
ENDBRANCH   1   2
BRANCH   1  25
ATOM     25  C   UNL A   1      32.394  29.659  26.262  1.00  0.00     0.002 C 
BRANCH  25  26
ATOM     26  C   UNL A   1      31.333  30.643  25.750  1.00  0.00     0.002 C 
BRANCH  26  27
ATOM     27  C   UNL A   1      31.214  31.982  26.479  1.00  0.00     0.021 C 
BRANCH  27  28
ATOM     28  C   UNL A   1      32.489  32.540  27.093  1.00  0.00     0.116 C 
BRANCH  28  29
ATOM     29  N   UNL A   1      32.364  33.925  27.501  1.00  0.00    -0.352 N 
ATOM     30  C   UNL A   1      33.070  34.640  28.437  1.00  0.00     0.251 C 
ATOM     31  H   UNL A   1      31.663  34.434  27.033  1.00  0.00     0.163 HD
ATOM     32  O   UNL A   1      32.714  35.777  28.730  1.00  0.00    -0.269 OA
BRANCH  30  33
ATOM     33  C   UNL A   1      34.246  34.048  29.118  1.00  0.00     0.039 A 
ATOM     34  C   UNL A   1      34.032  33.055  30.080  1.00  0.00     0.014 A 
ATOM     35  C   UNL A   1      35.548  34.486  28.855  1.00  0.00     0.014 A 
ATOM     36  C   UNL A   1      35.117  32.472  30.739  1.00  0.00     0.010 A 
ATOM     37  C   UNL A   1      36.634  33.846  29.450  1.00  0.00     0.010 A 
ATOM     38  C   UNL A   1      36.430  32.845  30.411  1.00  0.00    -0.014 A 
BRANCH  38  39
ATOM     39  C   UNL A   1      37.599  32.226  31.087  1.00  0.00     0.031 A 
ATOM     40  C   UNL A   1      38.386  31.149  30.392  1.00  0.00     0.074 A 
ATOM     41  C   UNL A   1      37.925  32.596  32.340  1.00  0.00     0.049 A 
ATOM     42  N   UNL A   1      39.395  30.439  30.835  1.00  0.00    -0.248 NA
ATOM     43  C   UNL A   1      37.963  30.801  29.026  1.00  0.00     0.031 C 
ATOM     44  C   UNL A   1      37.221  33.604  33.134  1.00  0.00     0.029 A 
ATOM     45  N   UNL A   1      38.930  32.164  33.169  1.00  0.00    -0.354 N 
ATOM     46  C   UNL A   1      39.712  29.556  29.810  1.00  0.00     0.074 A 
ATOM     47  C   UNL A   1      38.753  29.775  28.750  1.00  0.00     0.031 C 
ATOM     48  C   UNL A   1      37.833  33.735  34.322  1.00  0.00     0.029 A 
ATOM     49  C   UNL A   1      38.949  32.795  34.389  1.00  0.00     0.049 A 
ATOM     50  H   UNL A   1      39.577  31.467  32.912  1.00  0.00     0.167 HD
ATOM     51  C   UNL A   1      40.729  28.662  29.747  1.00  0.00     0.037 A 
ATOM     52  C   UNL A   1      39.772  32.631  35.441  1.00  0.00     0.037 A 
ATOM     53  C   UNL A   1      41.699  28.466  30.793  1.00  0.00     0.049 A 
ATOM     54  C   UNL A   1      40.883  31.620  35.354  1.00  0.00     0.074 A 
ATOM     55  C   UNL A   1      42.795  27.622  30.808  1.00  0.00     0.029 A 
ATOM     56  N   UNL A   1      41.685  29.128  32.013  1.00  0.00    -0.354 N 
ATOM     57  N   UNL A   1      41.208  30.830  34.360  1.00  0.00    -0.248 NA
ATOM     58  C   UNL A   1      41.745  31.483  36.537  1.00  0.00     0.031 C 
ATOM     59  C   UNL A   1      43.421  27.742  32.054  1.00  0.00     0.029 A 
ATOM     60  C   UNL A   1      42.744  28.696  32.796  1.00  0.00     0.049 A 
ATOM     61  H   UNL A   1      41.023  29.803  32.281  1.00  0.00     0.167 HD
ATOM     62  C   UNL A   1      42.327  30.125  34.782  1.00  0.00     0.074 A 
ATOM     63  C   UNL A   1      42.632  30.591  36.119  1.00  0.00     0.031 C 
ATOM     64  C   UNL A   1      43.038  29.178  34.121  1.00  0.00     0.037 A 
BRANCH  51  65
ATOM     65  C   UNL A   1      40.843  27.833  28.499  1.00  0.00     0.064 A 
ATOM     66  C   UNL A   1      40.193  26.594  28.379  1.00  0.00     0.173 A 
ATOM     67  C   UNL A   1      41.599  28.285  27.407  1.00  0.00     0.173 A 
ATOM     68  F   UNL A   1      39.467  26.110  29.397  1.00  0.00    -0.203 F 
ATOM     69  C   UNL A   1      40.330  25.821  27.228  1.00  0.00     0.198 A 
ATOM     70  C   UNL A   1      41.706  27.523  26.246  1.00  0.00     0.198 A 
ATOM     71  F   UNL A   1      42.235  29.464  27.466  1.00  0.00    -0.203 F 
ATOM     72  F   UNL A   1      39.751  24.614  27.162  1.00  0.00    -0.200 F 
ATOM     73  C   UNL A   1      41.081  26.289  26.161  1.00  0.00     0.200 A 
ATOM     74  F   UNL A   1      42.422  27.982  25.209  1.00  0.00    -0.200 F 
ATOM     75  F   UNL A   1      41.212  25.544  25.055  1.00  0.00    -0.200 F 
ENDBRANCH  51  65
BRANCH  52  76
ATOM     76  C   UNL A   1      39.603  33.473  36.654  1.00  0.00     0.064 A 
ATOM     77  C   UNL A   1      40.321  34.667  36.802  1.00  0.00     0.173 A 
ATOM     78  C   UNL A   1      38.725  33.106  37.685  1.00  0.00     0.173 A 
ATOM     79  F   UNL A   1      41.188  35.047  35.853  1.00  0.00    -0.203 F 
ATOM     80  C   UNL A   1      40.182  35.455  37.943  1.00  0.00     0.198 A 
ATOM     81  C   UNL A   1      38.567  33.909  38.813  1.00  0.00     0.198 A 
ATOM     82  F   UNL A   1      38.011  31.975  37.590  1.00  0.00    -0.203 F 
ATOM     83  F   UNL A   1      40.913  36.570  38.076  1.00  0.00    -0.200 F 
ATOM     84  C   UNL A   1      39.301  35.079  38.945  1.00  0.00     0.200 A 
ATOM     85  F   UNL A   1      37.704  33.549  39.773  1.00  0.00    -0.200 F 
ATOM     86  F   UNL A   1      39.163  35.840  40.040  1.00  0.00    -0.200 F 
ENDBRANCH  52  76
BRANCH  64  87
ATOM     87  C   UNL A   1      44.239  28.611  34.820  1.00  0.00     0.064 A 
ATOM     88  C   UNL A   1      44.159  27.444  35.594  1.00  0.00     0.173 A 
ATOM     89  C   UNL A   1      45.495  29.223  34.680  1.00  0.00     0.173 A 
ATOM     90  F   UNL A   1      42.978  26.832  35.771  1.00  0.00    -0.203 F 
ATOM     91  C   UNL A   1      45.287  26.926  36.223  1.00  0.00     0.198 A 
ATOM     92  C   UNL A   1      46.626  28.684  35.287  1.00  0.00     0.198 A 
ATOM     93  F   UNL A   1      45.626  30.337  33.946  1.00  0.00    -0.203 F 
ATOM     94  F   UNL A   1      45.177  25.836  36.997  1.00  0.00    -0.200 F 
ATOM     95  C   UNL A   1      46.520  27.541  36.064  1.00  0.00     0.200 A 
ATOM     96  F   UNL A   1      47.819  29.273  35.121  1.00  0.00    -0.200 F 
ATOM     97  F   UNL A   1      47.605  27.035  36.665  1.00  0.00    -0.200 F 
ENDBRANCH  64  87
ENDBRANCH  38  39
ENDBRANCH  30  33
ENDBRANCH  28  29
ENDBRANCH  27  28
ENDBRANCH  26  27
ENDBRANCH  25  26
ENDBRANCH   1  25
TORSDOF 17
ENDMDL
