MODEL 1
REMARK VINA RESULT:     -14.3      0.000      0.000
REMARK SMILES O=C(CC[C@@]1(c2ccccc2)NC(=O)N(CC(=O)Nc2cccc(F)c2)C1=O)NCCCCCCNC(=O)c1ccc(-c2c3nc(c(-c4c(F)c(F)c(F)c(F)c4F)c4ccc([nH]4)c(-c4c(F)c(F)c(F)c(F)c4F)c4nc(c(-c5c(F)c(F)c(F)c(F)c5F)c5ccc2[nH]5)C=C4)C=C3)cc1
REMARK SMILES IDX 31 1 30 2 29 3 1 4 2 5 3 7 4 8 5 9 12 10 27 11 13 12 15 14
REMARK SMILES IDX 28 15 14 16 6 17 7 18 11 19 8 20 10 21 9 22 16 23 17 24
REMARK SMILES IDX 18 25 19 26 20 28 21 29 26 30 22 31 24 32 23 33 25 34 32 35
REMARK SMILES IDX 33 36 34 37 35 38 36 39 37 40 38 42 39 43 40 44 101 45 41 46
REMARK SMILES IDX 100 47 42 48 43 49 44 50 94 51 45 52 99 53 93 54 95 55 46 56
REMARK SMILES IDX 98 57 92 58 91 59 47 61 79 62 59 63 78 64 60 65 63 66 77 67
REMARK SMILES IDX 96 68 61 69 62 70 76 72 97 73 64 74 48 75 49 76 57 77 50 78
REMARK SMILES IDX 51 79 55 80 58 81 52 82 53 83 56 84 54 85 80 86 81 87 89 88
REMARK SMILES IDX 82 89 83 90 87 91 90 92 84 93 85 94 88 95 86 96 65 97 66 98
REMARK SMILES IDX 74 99 67 100 68 101 72 102 75 103 69 104 70 105 73 106
REMARK SMILES IDX 71 107
REMARK H PARENT 29 6 12 13 19 27 36 41 95 60 63 71
REMARK Flexibility Score: inf
ROOT
ATOM      1  C   UNL A   1      32.779  28.372  27.271  1.00  0.00     0.021 C 
ENDROOT
BRANCH   1   2
ATOM      2  C   UNL A   1      31.426  27.657  26.993  1.00  0.00     0.116 C 
BRANCH   2   3
ATOM      3  N   UNL A   1      31.096  26.674  25.902  1.00  0.00    -0.356 N 
ATOM      4  O   UNL A   1      29.753  24.925  26.637  1.00  0.00    -0.275 OA
ATOM      5  C   UNL A   1      30.365  25.519  25.763  1.00  0.00     0.220 C 
ATOM      6  H   UNL A   1      31.523  26.929  25.052  1.00  0.00     0.163 HD
BRANCH   5   7
ATOM      7  C   UNL A   1      30.408  24.795  24.431  1.00  0.00     0.103 C 
BRANCH   7   8
ATOM      8  C   UNL A   1      31.199  23.491  24.399  1.00  0.00     0.053 C 
BRANCH   8   9
ATOM      9  C   UNL A   1      32.578  23.537  23.675  1.00  0.00     0.147 C 
ATOM     10  N   UNL A   1      32.345  23.515  22.259  1.00  0.00    -0.319 N 
ATOM     11  C   UNL A   1      33.226  24.974  23.750  1.00  0.00     0.261 C 
ATOM     12  C   UNL A   1      32.867  24.621  21.643  1.00  0.00     0.325 C 
ATOM     13  H   UNL A   1      31.867  22.795  21.788  1.00  0.00     0.166 HD
ATOM     14  N   UNL A   1      33.007  25.624  22.546  1.00  0.00    -0.252 N 
ATOM     15  O   UNL A   1      33.756  25.450  24.745  1.00  0.00    -0.271 OA
ATOM     16  O   UNL A   1      33.193  24.531  20.477  1.00  0.00    -0.248 OA
BRANCH   9  17
ATOM     17  C   UNL A   1      33.477  22.328  24.006  1.00  0.00    -0.013 A 
ATOM     18  C   UNL A   1      32.933  21.030  24.186  1.00  0.00     0.007 A 
ATOM     19  C   UNL A   1      34.850  22.472  24.253  1.00  0.00     0.007 A 
ATOM     20  C   UNL A   1      33.701  19.956  24.643  1.00  0.00     0.000 A 
ATOM     21  C   UNL A   1      35.624  21.393  24.707  1.00  0.00     0.000 A 
ATOM     22  C   UNL A   1      35.049  20.141  24.910  1.00  0.00     0.000 A 
ENDBRANCH   9  17
BRANCH  14  23
ATOM     23  C   UNL A   1      33.159  27.108  22.295  1.00  0.00     0.230 C 
BRANCH  23  24
ATOM     24  C   UNL A   1      32.722  28.610  22.951  1.00  0.00     0.244 C 
ATOM     25  O   UNL A   1      33.731  29.341  23.145  1.00  0.00    -0.273 OA
ATOM     26  N   UNL A   1      31.594  29.413  23.048  1.00  0.00    -0.324 N 
ATOM     27  H   UNL A   1      31.907  30.341  23.153  1.00  0.00     0.170 HD
BRANCH  26  28
ATOM     28  C   UNL A   1      30.157  29.446  23.060  1.00  0.00     0.044 A 
ATOM     29  C   UNL A   1      29.492  28.205  22.990  1.00  0.00     0.026 A 
ATOM     30  C   UNL A   1      29.326  30.569  23.020  1.00  0.00     0.065 A 
ATOM     31  C   UNL A   1      28.090  28.097  23.117  1.00  0.00     0.005 A 
ATOM     32  C   UNL A   1      27.936  30.468  23.182  1.00  0.00     0.125 A 
ATOM     33  C   UNL A   1      27.311  29.237  23.267  1.00  0.00     0.039 A 
ATOM     34  F   UNL A   1      27.198  31.584  23.289  1.00  0.00    -0.207 F 
ENDBRANCH  26  28
ENDBRANCH  23  24
ENDBRANCH  14  23
ENDBRANCH   8   9
ENDBRANCH   7   8
ENDBRANCH   5   7
ENDBRANCH   2   3
ENDBRANCH   1   2
BRANCH   1  35
ATOM     35  C   UNL A   1      33.096  29.874  27.153  1.00  0.00     0.002 C 
BRANCH  35  36
ATOM     36  C   UNL A   1      32.189  30.709  26.262  1.00  0.00     0.002 C 
BRANCH  36  37
ATOM     37  C   UNL A   1      31.732  32.002  26.926  1.00  0.00     0.021 C 
BRANCH  37  38
ATOM     38  C   UNL A   1      32.847  32.840  27.541  1.00  0.00     0.116 C 
BRANCH  38  39
ATOM     39  N   UNL A   1      32.487  34.234  27.781  1.00  0.00    -0.352 N 
ATOM     40  C   UNL A   1      33.062  35.085  28.695  1.00  0.00     0.251 C 
ATOM     41  H   UNL A   1      31.758  34.603  27.232  1.00  0.00     0.163 HD
ATOM     42  O   UNL A   1      32.671  36.234  28.874  1.00  0.00    -0.269 OA
BRANCH  40  43
ATOM     43  C   UNL A   1      34.178  34.541  29.478  1.00  0.00     0.039 A 
ATOM     44  C   UNL A   1      33.906  33.729  30.580  1.00  0.00     0.014 A 
ATOM     45  C   UNL A   1      35.469  34.665  28.958  1.00  0.00     0.014 A 
ATOM     46  C   UNL A   1      34.941  32.983  31.140  1.00  0.00     0.010 A 
ATOM     47  C   UNL A   1      36.477  33.863  29.469  1.00  0.00     0.010 A 
ATOM     48  C   UNL A   1      36.223  33.022  30.568  1.00  0.00    -0.014 A 
BRANCH  48  49
ATOM     49  C   UNL A   1      37.350  32.250  31.140  1.00  0.00     0.031 A 
ATOM     50  C   UNL A   1      37.825  32.602  32.522  1.00  0.00     0.074 A 
ATOM     51  C   UNL A   1      37.983  31.315  30.405  1.00  0.00     0.049 A 
ATOM     52  N   UNL A   1      38.873  32.169  33.174  1.00  0.00    -0.248 NA
ATOM     53  C   UNL A   1      37.042  33.617  33.247  1.00  0.00     0.031 C 
ATOM     54  C   UNL A   1      37.638  30.934  29.035  1.00  0.00     0.029 A 
ATOM     55  N   UNL A   1      39.064  30.527  30.707  1.00  0.00    -0.354 N 
ATOM     56  C   UNL A   1      38.893  32.889  34.361  1.00  0.00     0.074 A 
ATOM     57  C   UNL A   1      37.792  33.823  34.318  1.00  0.00     0.031 C 
ATOM     58  C   UNL A   1      38.481  29.970  28.621  1.00  0.00     0.029 A 
ATOM     59  C   UNL A   1      39.441  29.689  29.684  1.00  0.00     0.049 A 
ATOM     60  H   UNL A   1      39.527  30.558  31.575  1.00  0.00     0.167 HD
ATOM     61  C   UNL A   1      39.739  32.758  35.408  1.00  0.00     0.037 A 
ATOM     62  C   UNL A   1      40.450  28.799  29.623  1.00  0.00     0.037 A 
ATOM     63  C   UNL A   1      40.781  31.772  35.468  1.00  0.00     0.049 A 
ATOM     64  C   UNL A   1      41.343  28.635  30.828  1.00  0.00     0.074 A 
ATOM     65  C   UNL A   1      41.643  31.490  36.511  1.00  0.00     0.029 A 
ATOM     66  N   UNL A   1      41.086  30.892  34.441  1.00  0.00    -0.354 N 
ATOM     67  N   UNL A   1      41.311  29.271  31.974  1.00  0.00    -0.248 NA
ATOM     68  C   UNL A   1      42.404  27.623  30.735  1.00  0.00     0.031 C 
ATOM     69  C   UNL A   1      42.491  30.457  36.104  1.00  0.00     0.029 A 
ATOM     70  C   UNL A   1      42.129  30.068  34.824  1.00  0.00     0.049 A 
ATOM     71  H   UNL A   1      40.630  30.859  33.569  1.00  0.00     0.167 HD
ATOM     72  C   UNL A   1      42.316  28.711  32.751  1.00  0.00     0.074 A 
ATOM     73  C   UNL A   1      42.936  27.677  31.948  1.00  0.00     0.031 C 
ATOM     74  C   UNL A   1      42.696  29.022  34.013  1.00  0.00     0.037 A 
BRANCH  61  75
ATOM     75  C   UNL A   1      39.556  33.682  36.573  1.00  0.00     0.064 A 
ATOM     76  C   UNL A   1      40.133  34.960  36.597  1.00  0.00     0.173 A 
ATOM     77  C   UNL A   1      38.765  33.298  37.666  1.00  0.00     0.173 A 
ATOM     78  F   UNL A   1      40.912  35.368  35.583  1.00  0.00    -0.203 F 
ATOM     79  C   UNL A   1      39.946  35.811  37.683  1.00  0.00     0.198 A 
ATOM     80  C   UNL A   1      38.555  34.163  38.737  1.00  0.00     0.198 A 
ATOM     81  F   UNL A   1      38.190  32.086  37.693  1.00  0.00    -0.203 F 
ATOM     82  F   UNL A   1      40.547  37.009  37.704  1.00  0.00    -0.200 F 
ATOM     83  C   UNL A   1      39.150  35.416  38.747  1.00  0.00     0.200 A 
ATOM     84  F   UNL A   1      37.776  33.784  39.760  1.00  0.00    -0.200 F 
ATOM     85  F   UNL A   1      38.962  36.240  39.787  1.00  0.00    -0.200 F 
ENDBRANCH  61  75
BRANCH  62  86
ATOM     86  C   UNL A   1      40.661  27.973  28.405  1.00  0.00     0.064 A 
ATOM     87  C   UNL A   1      41.434  28.452  27.336  1.00  0.00     0.173 A 
ATOM     88  C   UNL A   1      40.071  26.709  28.263  1.00  0.00     0.173 A 
ATOM     89  F   UNL A   1      42.005  29.662  27.415  1.00  0.00    -0.203 F 
ATOM     90  C   UNL A   1      41.580  27.715  26.162  1.00  0.00     0.198 A 
ATOM     91  C   UNL A   1      40.242  25.960  27.099  1.00  0.00     0.198 A 
ATOM     92  F   UNL A   1      39.327  26.198  29.255  1.00  0.00    -0.203 F 
ATOM     93  F   UNL A   1      42.276  28.224  25.137  1.00  0.00    -0.200 F 
ATOM     94  C   UNL A   1      40.985  26.469  26.045  1.00  0.00     0.200 A 
ATOM     95  F   UNL A   1      39.676  24.749  26.995  1.00  0.00    -0.200 F 
ATOM     96  F   UNL A   1      41.120  25.762  24.914  1.00  0.00    -0.200 F 
ENDBRANCH  62  86
BRANCH  74  97
ATOM     97  C   UNL A   1      43.789  28.201  34.628  1.00  0.00     0.064 A 
ATOM     98  C   UNL A   1      45.126  28.620  34.606  1.00  0.00     0.173 A 
ATOM     99  C   UNL A   1      43.476  27.016  35.313  1.00  0.00     0.173 A 
ATOM    100  F   UNL A   1      45.471  29.739  33.953  1.00  0.00    -0.203 F 
ATOM    101  C   UNL A   1      46.116  27.872  35.236  1.00  0.00     0.198 A 
ATOM    102  C   UNL A   1      44.465  26.287  35.965  1.00  0.00     0.198 A 
ATOM    103  F   UNL A   1      42.209  26.581  35.369  1.00  0.00    -0.203 F 
ATOM    104  F   UNL A   1      47.394  28.271  35.174  1.00  0.00    -0.200 F 
ATOM    105  C   UNL A   1      45.784  26.713  35.922  1.00  0.00     0.200 A 
ATOM    106  F   UNL A   1      44.141  25.175  36.641  1.00  0.00    -0.200 F 
ATOM    107  F   UNL A   1      46.738  26.004  36.541  1.00  0.00    -0.200 F 
ENDBRANCH  74  97
ENDBRANCH  48  49
ENDBRANCH  40  43
ENDBRANCH  38  39
ENDBRANCH  37  38
ENDBRANCH  36  37
ENDBRANCH  35  36
ENDBRANCH   1  35
TORSDOF 19
ENDMDL
MODEL 2
REMARK VINA RESULT:     -14.0      1.208      7.033
REMARK SMILES O=C(CC[C@@]1(c2ccccc2)NC(=O)N(CC(=O)Nc2cccc(F)c2)C1=O)NCCCCCCNC(=O)c1ccc(-c2c3nc(c(-c4c(F)c(F)c(F)c(F)c4F)c4ccc([nH]4)c(-c4c(F)c(F)c(F)c(F)c4F)c4nc(c(-c5c(F)c(F)c(F)c(F)c5F)c5ccc2[nH]5)C=C4)C=C3)cc1
REMARK SMILES IDX 31 1 30 2 29 3 1 4 2 5 3 7 4 8 5 9 12 10 27 11 13 12 15 14
REMARK SMILES IDX 28 15 14 16 6 17 7 18 11 19 8 20 10 21 9 22 16 23 17 24
REMARK SMILES IDX 18 25 19 26 20 28 21 29 26 30 22 31 24 32 23 33 25 34 32 35
REMARK SMILES IDX 33 36 34 37 35 38 36 39 37 40 38 42 39 43 40 44 101 45 41 46
REMARK SMILES IDX 100 47 42 48 43 49 44 50 94 51 45 52 99 53 93 54 95 55 46 56
REMARK SMILES IDX 98 57 92 58 91 59 47 61 79 62 59 63 78 64 60 65 63 66 77 67
REMARK SMILES IDX 96 68 61 69 62 70 76 72 97 73 64 74 48 75 49 76 57 77 50 78
REMARK SMILES IDX 51 79 55 80 58 81 52 82 53 83 56 84 54 85 80 86 81 87 89 88
REMARK SMILES IDX 82 89 83 90 87 91 90 92 84 93 85 94 88 95 86 96 65 97 66 98
REMARK SMILES IDX 74 99 67 100 68 101 72 102 75 103 69 104 70 105 73 106
REMARK SMILES IDX 71 107
REMARK H PARENT 29 6 12 13 19 27 36 41 95 60 63 71
REMARK Flexibility Score: inf
ROOT
ATOM      1  C   UNL A   1      31.687  27.848  26.222  1.00  0.00     0.021 C 
ENDROOT
BRANCH   1   2
ATOM      2  C   UNL A   1      30.929  26.503  26.407  1.00  0.00     0.116 C 
BRANCH   2   3
ATOM      3  N   UNL A   1      31.487  25.106  26.384  1.00  0.00    -0.356 N 
ATOM      4  O   UNL A   1      30.043  23.540  27.314  1.00  0.00    -0.275 OA
ATOM      5  C   UNL A   1      31.088  23.847  26.762  1.00  0.00     0.220 C 
ATOM      6  H   UNL A   1      32.389  25.090  25.990  1.00  0.00     0.163 HD
BRANCH   5   7
ATOM      7  C   UNL A   1      32.076  22.705  26.622  1.00  0.00     0.103 C 
BRANCH   7   8
ATOM      8  C   UNL A   1      33.551  23.092  26.580  1.00  0.00     0.053 C 
BRANCH   8   9
ATOM      9  C   UNL A   1      34.218  23.122  25.171  1.00  0.00     0.147 C 
ATOM     10  N   UNL A   1      33.462  22.270  24.297  1.00  0.00    -0.319 N 
ATOM     11  C   UNL A   1      33.932  24.481  24.422  1.00  0.00     0.261 C 
ATOM     12  C   UNL A   1      32.975  22.957  23.217  1.00  0.00     0.325 C 
ATOM     13  H   UNL A   1      33.311  21.311  24.455  1.00  0.00     0.166 HD
ATOM     14  N   UNL A   1      32.910  24.281  23.509  1.00  0.00    -0.252 N 
ATOM     15  O   UNL A   1      34.476  25.547  24.679  1.00  0.00    -0.271 OA
ATOM     16  O   UNL A   1      32.767  22.343  22.190  1.00  0.00    -0.248 OA
BRANCH   9  17
ATOM     17  C   UNL A   1      35.668  22.597  25.176  1.00  0.00    -0.013 A 
ATOM     18  C   UNL A   1      35.968  21.253  24.839  1.00  0.00     0.007 A 
ATOM     19  C   UNL A   1      36.739  23.387  25.618  1.00  0.00     0.007 A 
ATOM     20  C   UNL A   1      37.248  20.713  24.992  1.00  0.00     0.000 A 
ATOM     21  C   UNL A   1      38.026  22.847  25.767  1.00  0.00     0.000 A 
ATOM     22  C   UNL A   1      38.277  21.512  25.463  1.00  0.00     0.000 A 
ENDBRANCH   9  17
BRANCH  14  23
ATOM     23  C   UNL A   1      32.103  25.361  22.824  1.00  0.00     0.230 C 
BRANCH  23  24
ATOM     24  C   UNL A   1      32.218  26.976  22.318  1.00  0.00     0.244 C 
ATOM     25  O   UNL A   1      33.315  27.201  21.737  1.00  0.00    -0.273 OA
ATOM     26  N   UNL A   1      31.374  28.046  22.055  1.00  0.00    -0.324 N 
ATOM     27  H   UNL A   1      31.840  28.634  21.417  1.00  0.00     0.170 HD
BRANCH  26  28
ATOM     28  C   UNL A   1      30.098  28.648  22.332  1.00  0.00     0.044 A 
ATOM     29  C   UNL A   1      29.930  29.990  21.939  1.00  0.00     0.026 A 
ATOM     30  C   UNL A   1      29.031  28.100  23.050  1.00  0.00     0.065 A 
ATOM     31  C   UNL A   1      28.688  30.653  22.045  1.00  0.00     0.005 A 
ATOM     32  C   UNL A   1      27.784  28.738  23.127  1.00  0.00     0.125 A 
ATOM     33  C   UNL A   1      27.591  30.002  22.596  1.00  0.00     0.039 A 
ATOM     34  F   UNL A   1      26.748  28.104  23.696  1.00  0.00    -0.207 F 
ENDBRANCH  26  28
ENDBRANCH  23  24
ENDBRANCH  14  23
ENDBRANCH   8   9
ENDBRANCH   7   8
ENDBRANCH   5   7
ENDBRANCH   2   3
ENDBRANCH   1   2
BRANCH   1  35
ATOM     35  C   UNL A   1      31.777  29.026  27.210  1.00  0.00     0.002 C 
BRANCH  35  36
ATOM     36  C   UNL A   1      32.821  30.095  26.927  1.00  0.00     0.002 C 
BRANCH  36  37
ATOM     37  C   UNL A   1      32.262  31.509  27.012  1.00  0.00     0.021 C 
BRANCH  37  38
ATOM     38  C   UNL A   1      33.242  32.560  27.524  1.00  0.00     0.116 C 
BRANCH  38  39
ATOM     39  N   UNL A   1      32.662  33.888  27.696  1.00  0.00    -0.352 N 
ATOM     40  C   UNL A   1      33.043  34.838  28.614  1.00  0.00     0.251 C 
ATOM     41  H   UNL A   1      31.922  34.128  27.093  1.00  0.00     0.163 HD
ATOM     42  O   UNL A   1      32.473  35.917  28.731  1.00  0.00    -0.269 OA
BRANCH  40  43
ATOM     43  C   UNL A   1      34.177  34.488  29.479  1.00  0.00     0.039 A 
ATOM     44  C   UNL A   1      33.936  33.833  30.688  1.00  0.00     0.014 A 
ATOM     45  C   UNL A   1      35.467  34.616  28.956  1.00  0.00     0.014 A 
ATOM     46  C   UNL A   1      35.006  33.247  31.361  1.00  0.00     0.010 A 
ATOM     47  C   UNL A   1      36.513  33.965  29.590  1.00  0.00     0.010 A 
ATOM     48  C   UNL A   1      36.292  33.283  30.800  1.00  0.00    -0.014 A 
BRANCH  48  49
ATOM     49  C   UNL A   1      37.455  32.678  31.491  1.00  0.00     0.031 A 
ATOM     50  C   UNL A   1      38.160  31.530  30.823  1.00  0.00     0.074 A 
ATOM     51  C   UNL A   1      37.813  33.091  32.721  1.00  0.00     0.049 A 
ATOM     52  N   UNL A   1      39.103  30.753  31.288  1.00  0.00    -0.248 NA
ATOM     53  C   UNL A   1      37.706  31.180  29.467  1.00  0.00     0.031 C 
ATOM     54  C   UNL A   1      37.162  34.159  33.483  1.00  0.00     0.029 A 
ATOM     55  N   UNL A   1      38.807  32.647  33.556  1.00  0.00    -0.354 N 
ATOM     56  C   UNL A   1      39.321  29.803  30.299  1.00  0.00     0.074 A 
ATOM     57  C   UNL A   1      38.378  30.063  29.236  1.00  0.00     0.031 C 
ATOM     58  C   UNL A   1      37.788  34.300  34.666  1.00  0.00     0.029 A 
ATOM     59  C   UNL A   1      38.860  33.313  34.757  1.00  0.00     0.049 A 
ATOM     60  H   UNL A   1      39.425  31.919  33.317  1.00  0.00     0.167 HD
ATOM     61  C   UNL A   1      40.249  28.820  30.269  1.00  0.00     0.037 A 
ATOM     62  C   UNL A   1      39.686  33.138  35.807  1.00  0.00     0.037 A 
ATOM     63  C   UNL A   1      41.230  28.622  31.299  1.00  0.00     0.049 A 
ATOM     64  C   UNL A   1      40.747  32.071  35.721  1.00  0.00     0.074 A 
ATOM     65  C   UNL A   1      42.270  27.714  31.335  1.00  0.00     0.029 A 
ATOM     66  N   UNL A   1      41.297  29.364  32.468  1.00  0.00    -0.354 N 
ATOM     67  N   UNL A   1      40.991  31.222  34.752  1.00  0.00    -0.248 NA
ATOM     68  C   UNL A   1      41.655  31.943  36.870  1.00  0.00     0.031 C 
ATOM     69  C   UNL A   1      42.953  27.886  32.542  1.00  0.00     0.029 A 
ATOM     70  C   UNL A   1      42.361  28.930  33.237  1.00  0.00     0.049 A 
ATOM     71  H   UNL A   1      40.680  30.090  32.715  1.00  0.00     0.167 HD
ATOM     72  C   UNL A   1      42.100  30.490  35.153  1.00  0.00     0.074 A 
ATOM     73  C   UNL A   1      42.487  30.999  36.453  1.00  0.00     0.031 C 
ATOM     74  C   UNL A   1      42.742  29.486  34.509  1.00  0.00     0.037 A 
BRANCH  61  75
ATOM     75  C   UNL A   1      40.259  27.906  29.081  1.00  0.00     0.064 A 
ATOM     76  C   UNL A   1      41.009  28.201  27.932  1.00  0.00     0.173 A 
ATOM     77  C   UNL A   1      39.538  26.704  29.104  1.00  0.00     0.173 A 
ATOM     78  F   UNL A   1      41.702  29.347  27.854  1.00  0.00    -0.203 F 
ATOM     79  C   UNL A   1      41.016  27.337  26.840  1.00  0.00     0.198 A 
ATOM     80  C   UNL A   1      39.572  25.828  28.022  1.00  0.00     0.198 A 
ATOM     81  F   UNL A   1      38.805  26.374  30.179  1.00  0.00    -0.203 F 
ATOM     82  F   UNL A   1      41.701  27.663  25.735  1.00  0.00    -0.200 F 
ATOM     83  C   UNL A   1      40.305  26.148  26.889  1.00  0.00     0.200 A 
ATOM     84  F   UNL A   1      38.893  24.673  28.076  1.00  0.00    -0.200 F 
ATOM     85  F   UNL A   1      40.322  25.312  25.842  1.00  0.00    -0.200 F 
ENDBRANCH  61  75
BRANCH  62  86
ATOM     86  C   UNL A   1      39.574  34.002  37.012  1.00  0.00     0.064 A 
ATOM     87  C   UNL A   1      38.824  33.590  38.125  1.00  0.00     0.173 A 
ATOM     88  C   UNL A   1      40.179  35.266  37.071  1.00  0.00     0.173 A 
ATOM     89  F   UNL A   1      38.210  32.397  38.111  1.00  0.00    -0.203 F 
ATOM     90  C   UNL A   1      38.654  34.420  39.231  1.00  0.00     0.198 A 
ATOM     91  C   UNL A   1      40.033  36.083  38.191  1.00  0.00     0.198 A 
ATOM     92  F   UNL A   1      40.913  35.707  36.040  1.00  0.00    -0.203 F 
ATOM     93  F   UNL A   1      37.884  34.023  40.252  1.00  0.00    -0.200 F 
ATOM     94  C   UNL A   1      39.261  35.666  39.265  1.00  0.00     0.200 A 
ATOM     95  F   UNL A   1      40.632  37.282  38.225  1.00  0.00    -0.200 F 
ATOM     96  F   UNL A   1      39.094  36.467  40.325  1.00  0.00    -0.200 F 
ENDBRANCH  62  86
BRANCH  74  97
ATOM     97  C   UNL A   1      43.962  28.912  35.166  1.00  0.00     0.064 A 
ATOM     98  C   UNL A   1      45.240  29.433  34.926  1.00  0.00     0.173 A 
ATOM     99  C   UNL A   1      43.832  27.877  36.105  1.00  0.00     0.173 A 
ATOM    100  F   UNL A   1      45.411  30.414  34.028  1.00  0.00    -0.203 F 
ATOM    101  C   UNL A   1      46.351  28.925  35.593  1.00  0.00     0.198 A 
ATOM    102  C   UNL A   1      44.941  27.392  36.789  1.00  0.00     0.198 A 
ATOM    103  F   UNL A   1      42.626  27.354  36.374  1.00  0.00    -0.203 F 
ATOM    104  F   UNL A   1      47.570  29.412  35.324  1.00  0.00    -0.200 F 
ATOM    105  C   UNL A   1      46.200  27.913  36.529  1.00  0.00     0.200 A 
ATOM    106  F   UNL A   1      44.792  26.424  37.705  1.00  0.00    -0.200 F 
ATOM    107  F   UNL A   1      47.270  27.437  37.181  1.00  0.00    -0.200 F 
ENDBRANCH  74  97
ENDBRANCH  48  49
ENDBRANCH  40  43
ENDBRANCH  38  39
ENDBRANCH  37  38
ENDBRANCH  36  37
ENDBRANCH  35  36
ENDBRANCH   1  35
TORSDOF 19
ENDMDL
MODEL 3
REMARK VINA RESULT:     -13.9      2.174      4.881
REMARK SMILES O=C(CC[C@@]1(c2ccccc2)NC(=O)N(CC(=O)Nc2cccc(F)c2)C1=O)NCCCCCCNC(=O)c1ccc(-c2c3nc(c(-c4c(F)c(F)c(F)c(F)c4F)c4ccc([nH]4)c(-c4c(F)c(F)c(F)c(F)c4F)c4nc(c(-c5c(F)c(F)c(F)c(F)c5F)c5ccc2[nH]5)C=C4)C=C3)cc1
REMARK SMILES IDX 31 1 30 2 29 3 1 4 2 5 3 7 4 8 5 9 12 10 27 11 13 12 15 14
REMARK SMILES IDX 28 15 14 16 6 17 7 18 11 19 8 20 10 21 9 22 16 23 17 24
REMARK SMILES IDX 18 25 19 26 20 28 21 29 26 30 22 31 24 32 23 33 25 34 32 35
REMARK SMILES IDX 33 36 34 37 35 38 36 39 37 40 38 42 39 43 40 44 101 45 41 46
REMARK SMILES IDX 100 47 42 48 43 49 44 50 94 51 45 52 99 53 93 54 95 55 46 56
REMARK SMILES IDX 98 57 92 58 91 59 47 61 79 62 59 63 78 64 60 65 63 66 77 67
REMARK SMILES IDX 96 68 61 69 62 70 76 72 97 73 64 74 48 75 49 76 57 77 50 78
REMARK SMILES IDX 51 79 55 80 58 81 52 82 53 83 56 84 54 85 80 86 81 87 89 88
REMARK SMILES IDX 82 89 83 90 87 91 90 92 84 93 85 94 88 95 86 96 65 97 66 98
REMARK SMILES IDX 74 99 67 100 68 101 72 102 75 103 69 104 70 105 73 106
REMARK SMILES IDX 71 107
REMARK H PARENT 29 6 12 13 19 27 36 41 95 60 63 71
REMARK Flexibility Score: inf
ROOT
ATOM      1  C   UNL A   1      35.604  31.508  27.697  1.00  0.00     0.021 C 
ENDROOT
BRANCH   1   2
ATOM      2  C   UNL A   1      34.762  30.260  28.084  1.00  0.00     0.116 C 
BRANCH   2   3
ATOM      3  N   UNL A   1      33.543  29.706  27.397  1.00  0.00    -0.356 N 
ATOM      4  O   UNL A   1      34.063  28.168  25.733  1.00  0.00    -0.275 OA
ATOM      5  C   UNL A   1      33.261  28.799  26.404  1.00  0.00     0.220 C 
ATOM      6  H   UNL A   1      32.719  30.104  27.759  1.00  0.00     0.163 HD
BRANCH   5   7
ATOM      7  C   UNL A   1      31.819  28.635  25.966  1.00  0.00     0.103 C 
BRANCH   7   8
ATOM      8  C   UNL A   1      31.435  27.267  25.411  1.00  0.00     0.053 C 
BRANCH   8   9
ATOM      9  C   UNL A   1      31.277  27.169  23.864  1.00  0.00     0.147 C 
ATOM     10  N   UNL A   1      32.533  27.513  23.260  1.00  0.00    -0.319 N 
ATOM     11  C   UNL A   1      31.228  25.667  23.379  1.00  0.00     0.261 C 
ATOM     12  C   UNL A   1      33.021  26.492  22.489  1.00  0.00     0.325 C 
ATOM     13  H   UNL A   1      32.988  28.377  23.385  1.00  0.00     0.166 HD
ATOM     14  N   UNL A   1      32.473  25.316  22.887  1.00  0.00    -0.252 N 
ATOM     15  O   UNL A   1      30.262  24.925  23.504  1.00  0.00    -0.271 OA
ATOM     16  O   UNL A   1      33.756  26.771  21.562  1.00  0.00    -0.248 OA
BRANCH   9  17
ATOM     17  C   UNL A   1      30.220  28.139  23.300  1.00  0.00    -0.013 A 
ATOM     18  C   UNL A   1      28.832  27.902  23.471  1.00  0.00     0.007 A 
ATOM     19  C   UNL A   1      30.574  29.236  22.500  1.00  0.00     0.007 A 
ATOM     20  C   UNL A   1      27.859  28.676  22.834  1.00  0.00     0.000 A 
ATOM     21  C   UNL A   1      29.597  30.017  21.864  1.00  0.00     0.000 A 
ATOM     22  C   UNL A   1      28.243  29.732  22.023  1.00  0.00     0.000 A 
ENDBRANCH   9  17
BRANCH  14  23
ATOM     23  C   UNL A   1      32.966  23.909  22.630  1.00  0.00     0.230 C 
BRANCH  23  24
ATOM     24  C   UNL A   1      33.425  22.500  23.454  1.00  0.00     0.244 C 
ATOM     25  O   UNL A   1      32.625  21.551  23.227  1.00  0.00    -0.273 OA
ATOM     26  N   UNL A   1      34.563  21.962  24.039  1.00  0.00    -0.324 N 
ATOM     27  H   UNL A   1      34.458  20.982  24.031  1.00  0.00     0.170 HD
BRANCH  26  28
ATOM     28  C   UNL A   1      35.830  22.248  24.654  1.00  0.00     0.044 A 
ATOM     29  C   UNL A   1      36.034  23.568  25.105  1.00  0.00     0.026 A 
ATOM     30  C   UNL A   1      36.939  21.404  24.763  1.00  0.00     0.065 A 
ATOM     31  C   UNL A   1      37.184  23.942  25.833  1.00  0.00     0.005 A 
ATOM     32  C   UNL A   1      38.068  21.758  25.516  1.00  0.00     0.125 A 
ATOM     33  C   UNL A   1      38.186  23.014  26.086  1.00  0.00     0.039 A 
ATOM     34  F   UNL A   1      39.041  20.857  25.717  1.00  0.00    -0.207 F 
ENDBRANCH  26  28
ENDBRANCH  23  24
ENDBRANCH  14  23
ENDBRANCH   8   9
ENDBRANCH   7   8
ENDBRANCH   5   7
ENDBRANCH   2   3
ENDBRANCH   1   2
BRANCH   1  35
ATOM     35  C   UNL A   1      35.418  32.959  28.177  1.00  0.00     0.002 C 
BRANCH  35  36
ATOM     36  C   UNL A   1      34.409  33.202  29.288  1.00  0.00     0.002 C 
BRANCH  36  37
ATOM     37  C   UNL A   1      33.431  34.325  28.969  1.00  0.00     0.021 C 
BRANCH  37  38
ATOM     38  C   UNL A   1      33.711  35.645  29.680  1.00  0.00     0.116 C 
BRANCH  38  39
ATOM     39  N   UNL A   1      32.637  36.089  30.564  1.00  0.00    -0.352 N 
ATOM     40  C   UNL A   1      32.544  35.867  31.917  1.00  0.00     0.251 C 
ATOM     41  H   UNL A   1      31.905  36.598  30.148  1.00  0.00     0.163 HD
ATOM     42  O   UNL A   1      31.583  36.230  32.587  1.00  0.00    -0.269 OA
BRANCH  40  43
ATOM     43  C   UNL A   1      33.662  35.145  32.537  1.00  0.00     0.039 A 
ATOM     44  C   UNL A   1      33.484  33.817  32.926  1.00  0.00     0.014 A 
ATOM     45  C   UNL A   1      34.927  35.737  32.503  1.00  0.00     0.014 A 
ATOM     46  C   UNL A   1      34.605  33.049  33.238  1.00  0.00     0.010 A 
ATOM     47  C   UNL A   1      36.042  34.949  32.739  1.00  0.00     0.010 A 
ATOM     48  C   UNL A   1      35.889  33.603  33.115  1.00  0.00    -0.014 A 
BRANCH  48  49
ATOM     49  C   UNL A   1      37.103  32.820  33.445  1.00  0.00     0.031 A 
ATOM     50  C   UNL A   1      37.809  33.113  34.740  1.00  0.00     0.074 A 
ATOM     51  C   UNL A   1      37.606  31.932  32.567  1.00  0.00     0.049 A 
ATOM     52  N   UNL A   1      38.956  32.666  35.179  1.00  0.00    -0.248 NA
ATOM     53  C   UNL A   1      37.156  34.080  35.639  1.00  0.00     0.031 C 
ATOM     54  C   UNL A   1      37.032  31.611  31.259  1.00  0.00     0.029 A 
ATOM     55  N   UNL A   1      38.728  31.147  32.637  1.00  0.00    -0.354 N 
ATOM     56  C   UNL A   1      39.176  33.328  36.379  1.00  0.00     0.074 A 
ATOM     57  C   UNL A   1      38.079  34.247  36.574  1.00  0.00     0.031 C 
ATOM     58  C   UNL A   1      37.796  30.681  30.659  1.00  0.00     0.029 A 
ATOM     59  C   UNL A   1      38.928  30.365  31.525  1.00  0.00     0.049 A 
ATOM     60  H   UNL A   1      39.334  31.143  33.413  1.00  0.00     0.167 HD
ATOM     61  C   UNL A   1      40.192  33.160  37.256  1.00  0.00     0.037 A 
ATOM     62  C   UNL A   1      39.918  29.494  31.246  1.00  0.00     0.037 A 
ATOM     63  C   UNL A   1      41.236  32.189  37.087  1.00  0.00     0.049 A 
ATOM     64  C   UNL A   1      41.006  29.287  32.269  1.00  0.00     0.074 A 
ATOM     65  C   UNL A   1      42.267  31.871  37.950  1.00  0.00     0.029 A 
ATOM     66  N   UNL A   1      41.364  31.364  35.980  1.00  0.00    -0.354 N 
ATOM     67  N   UNL A   1      41.169  29.866  33.434  1.00  0.00    -0.248 NA
ATOM     68  C   UNL A   1      42.042  28.296  31.944  1.00  0.00     0.031 C 
ATOM     69  C   UNL A   1      43.038  30.871  37.352  1.00  0.00     0.029 A 
ATOM     70  C   UNL A   1      42.463  30.539  36.136  1.00  0.00     0.049 A 
ATOM     71  H   UNL A   1      40.764  31.365  35.200  1.00  0.00     0.167 HD
ATOM     72  C   UNL A   1      42.298  29.285  33.997  1.00  0.00     0.074 A 
ATOM     73  C   UNL A   1      42.776  28.300  33.048  1.00  0.00     0.031 C 
ATOM     74  C   UNL A   1      42.888  29.541  35.189  1.00  0.00     0.037 A 
BRANCH  61  75
ATOM     75  C   UNL A   1      40.207  34.025  38.480  1.00  0.00     0.064 A 
ATOM     76  C   UNL A   1      40.891  35.250  38.508  1.00  0.00     0.173 A 
ATOM     77  C   UNL A   1      39.501  33.641  39.629  1.00  0.00     0.173 A 
ATOM     78  F   UNL A   1      41.595  35.654  37.441  1.00  0.00    -0.203 F 
ATOM     79  C   UNL A   1      40.887  36.046  39.650  1.00  0.00     0.198 A 
ATOM     80  C   UNL A   1      39.475  34.454  40.759  1.00  0.00     0.198 A 
ATOM     81  F   UNL A   1      38.830  32.479  39.656  1.00  0.00    -0.203 F 
ATOM     82  F   UNL A   1      41.588  37.189  39.669  1.00  0.00    -0.200 F 
ATOM     83  C   UNL A   1      40.173  35.653  40.771  1.00  0.00     0.200 A 
ATOM     84  F   UNL A   1      38.774  34.078  41.838  1.00  0.00    -0.200 F 
ATOM     85  F   UNL A   1      40.162  36.425  41.865  1.00  0.00    -0.200 F 
ENDBRANCH  61  75
BRANCH  62  86
ATOM     86  C   UNL A   1      39.919  28.730  29.971  1.00  0.00     0.064 A 
ATOM     87  C   UNL A   1      39.347  27.451  29.899  1.00  0.00     0.173 A 
ATOM     88  C   UNL A   1      40.519  29.238  28.809  1.00  0.00     0.173 A 
ATOM     89  F   UNL A   1      38.777  26.912  30.987  1.00  0.00    -0.203 F 
ATOM     90  C   UNL A   1      39.404  26.697  28.728  1.00  0.00     0.198 A 
ATOM     91  C   UNL A   1      40.550  28.495  27.630  1.00  0.00     0.198 A 
ATOM     92  F   UNL A   1      41.075  30.458  28.819  1.00  0.00    -0.203 F 
ATOM     93  F   UNL A   1      38.901  25.456  28.707  1.00  0.00    -0.200 F 
ATOM     94  C   UNL A   1      40.004  27.220  27.593  1.00  0.00     0.200 A 
ATOM     95  F   UNL A   1      41.119  29.010  26.531  1.00  0.00    -0.200 F 
ATOM     96  F   UNL A   1      40.065  26.494  26.469  1.00  0.00    -0.200 F 
ENDBRANCH  62  86
BRANCH  74  97
ATOM     97  C   UNL A   1      44.076  28.708  35.564  1.00  0.00     0.064 A 
ATOM     98  C   UNL A   1      45.381  29.096  35.232  1.00  0.00     0.173 A 
ATOM     99  C   UNL A   1      43.905  27.546  36.332  1.00  0.00     0.173 A 
ATOM    100  F   UNL A   1      45.590  30.193  34.489  1.00  0.00    -0.203 F 
ATOM    101  C   UNL A   1      46.474  28.339  35.643  1.00  0.00     0.198 A 
ATOM    102  C   UNL A   1      45.001  26.809  36.765  1.00  0.00     0.198 A 
ATOM    103  F   UNL A   1      42.674  27.142  36.682  1.00  0.00    -0.203 F 
ATOM    104  F   UNL A   1      47.712  28.707  35.285  1.00  0.00    -0.200 F 
ATOM    105  C   UNL A   1      46.284  27.203  36.416  1.00  0.00     0.200 A 
ATOM    106  F   UNL A   1      44.818  25.719  37.524  1.00  0.00    -0.200 F 
ATOM    107  F   UNL A   1      47.341  26.485  36.823  1.00  0.00    -0.200 F 
ENDBRANCH  74  97
ENDBRANCH  48  49
ENDBRANCH  40  43
ENDBRANCH  38  39
ENDBRANCH  37  38
ENDBRANCH  36  37
ENDBRANCH  35  36
ENDBRANCH   1  35
TORSDOF 19
ENDMDL
