MODEL 1
REMARK VINA RESULT:     -12.4      0.000      0.000
REMARK SMILES O=C(/C=C/c1ccc(S(=O)(=O)Nc2ccc3c(c2)OCCO3)cc1)NCCCCCCNC(=O)c1ccc(-c2c3nc(c(-c4c(F)c(F)c(F)c(F)c4F)c4ccc([nH]4)c(-c4c(F)c(F)c(F)c(F)c4F)c4nc(c(-c5c(F)c(F)c(F)c(F)c5F)c5ccc2[nH]5)C=C4)C=C3)cc1
REMARK SMILES IDX 27 1 26 2 25 3 1 4 2 5 3 7 4 8 5 9 6 10 24 11 7 12 23 13
REMARK SMILES IDX 8 14 9 15 10 16 11 17 12 18 13 20 14 21 18 22 15 23 17 24
REMARK SMILES IDX 16 25 19 26 22 27 20 28 21 29 28 30 29 31 30 32 31 33 32 34
REMARK SMILES IDX 33 35 34 37 35 38 36 39 97 40 37 41 96 42 38 43 39 44 40 45
REMARK SMILES IDX 90 46 41 47 95 48 89 49 91 50 42 51 94 52 88 53 87 54 43 56
REMARK SMILES IDX 75 57 55 58 74 59 56 60 59 61 73 62 92 63 57 64 58 65 72 67
REMARK SMILES IDX 93 68 60 69 44 70 45 71 53 72 46 73 47 74 51 75 54 76 48 77
REMARK SMILES IDX 49 78 52 79 50 80 76 81 77 82 85 83 78 84 79 85 83 86 86 87
REMARK SMILES IDX 80 88 81 89 84 90 82 91 61 92 62 93 70 94 63 95 64 96 68 97
REMARK SMILES IDX 71 98 65 99 66 100 69 101 67 102
REMARK H PARENT 25 6 12 19 32 36 91 55 59 66
REMARK Flexibility Score: inf
ROOT
ATOM      1  C   UNL A   1      34.657  33.413  28.136  1.00  0.00     0.021 C 
ENDROOT
BRANCH   1   2
ATOM      2  C   UNL A   1      34.868  32.345  29.209  1.00  0.00     0.116 C 
BRANCH   2   3
ATOM      3  N   UNL A   1      34.404  31.041  28.775  1.00  0.00    -0.353 N 
ATOM      4  O   UNL A   1      36.297  30.501  27.594  1.00  0.00    -0.270 OA
ATOM      5  C   UNL A   1      35.158  30.237  27.960  1.00  0.00     0.243 C 
ATOM      6  H   UNL A   1      33.521  30.725  29.073  1.00  0.00     0.163 HD
BRANCH   5   7
ATOM      7  C   UNL A   1      34.552  28.935  27.573  1.00  0.00     0.072 C 
ATOM      8  C   UNL A   1      33.546  28.769  26.698  1.00  0.00     0.014 C 
BRANCH   8   9
ATOM      9  C   UNL A   1      32.984  27.467  26.271  1.00  0.00    -0.025 A 
ATOM     10  C   UNL A   1      33.826  26.553  25.617  1.00  0.00     0.009 A 
ATOM     11  C   UNL A   1      31.655  27.078  26.506  1.00  0.00     0.009 A 
ATOM     12  C   UNL A   1      33.338  25.322  25.152  1.00  0.00     0.023 A 
ATOM     13  C   UNL A   1      31.177  25.826  26.087  1.00  0.00     0.023 A 
ATOM     14  C   UNL A   1      32.003  24.966  25.367  1.00  0.00     0.087 A 
BRANCH  14  15
ATOM     15  S   UNL A   1      31.412  23.421  24.692  1.00  0.00     0.261 S 
ATOM     16  O   UNL A   1      30.654  22.768  25.749  1.00  0.00    -0.201 OA
ATOM     17  O   UNL A   1      30.796  23.708  23.422  1.00  0.00    -0.201 OA
BRANCH  15  18
ATOM     18  N   UNL A   1      32.740  22.361  24.392  1.00  0.00    -0.279 N 
ATOM     19  H   UNL A   1      33.672  22.678  24.427  1.00  0.00     0.180 HD
BRANCH  18  20
ATOM     20  C   UNL A   1      32.425  20.996  24.090  1.00  0.00     0.053 A 
ATOM     21  C   UNL A   1      32.151  20.689  22.752  1.00  0.00     0.031 A 
ATOM     22  C   UNL A   1      32.527  19.992  25.047  1.00  0.00     0.077 A 
ATOM     23  C   UNL A   1      32.197  19.364  22.327  1.00  0.00     0.052 A 
ATOM     24  C   UNL A   1      32.643  18.679  24.612  1.00  0.00     0.163 A 
ATOM     25  C   UNL A   1      32.539  18.380  23.248  1.00  0.00     0.161 A 
ATOM     26  O   UNL A   1      32.999  17.760  25.564  1.00  0.00    -0.486 OA
ATOM     27  O   UNL A   1      32.883  17.147  22.752  1.00  0.00    -0.486 OA
ATOM     28  C   UNL A   1      33.375  16.491  25.016  1.00  0.00     0.271 C 
ATOM     29  C   UNL A   1      33.909  16.607  23.596  1.00  0.00     0.271 C 
ENDBRANCH  18  20
ENDBRANCH  15  18
ENDBRANCH  14  15
ENDBRANCH   8   9
ENDBRANCH   5   7
ENDBRANCH   2   3
ENDBRANCH   1   2
BRANCH   1  30
ATOM     30  C   UNL A   1      34.980  34.843  28.588  1.00  0.00     0.002 C 
BRANCH  30  31
ATOM     31  C   UNL A   1      34.119  35.943  27.961  1.00  0.00     0.002 C 
BRANCH  31  32
ATOM     32  C   UNL A   1      32.974  36.462  28.834  1.00  0.00     0.021 C 
BRANCH  32  33
ATOM     33  C   UNL A   1      33.378  36.920  30.233  1.00  0.00     0.116 C 
BRANCH  33  34
ATOM     34  N   UNL A   1      32.391  36.573  31.245  1.00  0.00    -0.352 N 
ATOM     35  C   UNL A   1      32.425  35.589  32.204  1.00  0.00     0.251 C 
ATOM     36  H   UNL A   1      31.576  37.125  31.241  1.00  0.00     0.163 HD
ATOM     37  O   UNL A   1      31.426  35.353  32.878  1.00  0.00    -0.269 OA
BRANCH  35  38
ATOM     38  C   UNL A   1      33.652  34.790  32.409  1.00  0.00     0.039 A 
ATOM     39  C   UNL A   1      34.893  35.394  32.178  1.00  0.00     0.014 A 
ATOM     40  C   UNL A   1      33.589  33.456  32.818  1.00  0.00     0.014 A 
ATOM     41  C   UNL A   1      36.069  34.685  32.433  1.00  0.00     0.010 A 
ATOM     42  C   UNL A   1      34.761  32.770  33.132  1.00  0.00     0.010 A 
ATOM     43  C   UNL A   1      36.011  33.381  32.952  1.00  0.00    -0.014 A 
BRANCH  43  44
ATOM     44  C   UNL A   1      37.246  32.656  33.345  1.00  0.00     0.031 A 
ATOM     45  C   UNL A   1      37.966  33.006  34.616  1.00  0.00     0.074 A 
ATOM     46  C   UNL A   1      37.762  31.733  32.513  1.00  0.00     0.049 A 
ATOM     47  N   UNL A   1      39.094  32.534  35.085  1.00  0.00    -0.248 NA
ATOM     48  C   UNL A   1      37.351  34.042  35.457  1.00  0.00     0.031 C 
ATOM     49  C   UNL A   1      37.189  31.346  31.223  1.00  0.00     0.029 A 
ATOM     50  N   UNL A   1      38.896  30.967  32.616  1.00  0.00    -0.354 N 
ATOM     51  C   UNL A   1      39.328  33.221  36.267  1.00  0.00     0.074 A 
ATOM     52  C   UNL A   1      38.252  34.179  36.418  1.00  0.00     0.031 C 
ATOM     53  C   UNL A   1      37.968  30.409  30.660  1.00  0.00     0.029 A 
ATOM     54  C   UNL A   1      39.113  30.155  31.530  1.00  0.00     0.049 A 
ATOM     55  H   UNL A   1      39.499  30.997  33.395  1.00  0.00     0.167 HD
ATOM     56  C   UNL A   1      40.335  33.053  37.158  1.00  0.00     0.037 A 
ATOM     57  C   UNL A   1      40.124  29.309  31.258  1.00  0.00     0.037 A 
ATOM     58  C   UNL A   1      41.396  32.091  37.013  1.00  0.00     0.049 A 
ATOM     59  C   UNL A   1      41.233  29.141  32.258  1.00  0.00     0.074 A 
ATOM     60  C   UNL A   1      42.423  31.797  37.893  1.00  0.00     0.029 A 
ATOM     61  N   UNL A   1      41.572  31.271  35.906  1.00  0.00    -0.354 N 
ATOM     62  N   UNL A   1      41.404  29.741  33.411  1.00  0.00    -0.248 NA
ATOM     63  C   UNL A   1      42.287  28.175  31.922  1.00  0.00     0.031 C 
ATOM     64  C   UNL A   1      43.246  30.832  37.300  1.00  0.00     0.029 A 
ATOM     65  C   UNL A   1      42.707  30.491  36.070  1.00  0.00     0.049 A 
ATOM     66  H   UNL A   1      40.979  31.247  35.122  1.00  0.00     0.167 HD
ATOM     67  C   UNL A   1      42.574  29.220  33.944  1.00  0.00     0.074 A 
ATOM     68  C   UNL A   1      43.062  28.237  32.997  1.00  0.00     0.031 C 
ATOM     69  C   UNL A   1      43.189  29.528  35.112  1.00  0.00     0.037 A 
BRANCH  56  70
ATOM     70  C   UNL A   1      40.333  33.935  38.373  1.00  0.00     0.064 A 
ATOM     71  C   UNL A   1      39.602  33.599  39.524  1.00  0.00     0.173 A 
ATOM     72  C   UNL A   1      41.080  35.123  38.396  1.00  0.00     0.173 A 
ATOM     73  F   UNL A   1      38.863  32.481  39.551  1.00  0.00    -0.203 F 
ATOM     74  C   UNL A   1      39.588  34.438  40.635  1.00  0.00     0.198 A 
ATOM     75  C   UNL A   1      41.088  35.944  39.521  1.00  0.00     0.198 A 
ATOM     76  F   UNL A   1      41.802  35.487  37.325  1.00  0.00    -0.203 F 
ATOM     77  F   UNL A   1      38.837  34.124  41.700  1.00  0.00    -0.200 F 
ATOM     78  C   UNL A   1      40.336  35.606  40.635  1.00  0.00     0.200 A 
ATOM     79  F   UNL A   1      41.820  37.066  39.523  1.00  0.00    -0.200 F 
ATOM     80  F   UNL A   1      40.322  36.412  41.705  1.00  0.00    -0.200 F 
ENDBRANCH  56  70
BRANCH  57  81
ATOM     81  C   UNL A   1      40.116  28.547  29.985  1.00  0.00     0.064 A 
ATOM     82  C   UNL A   1      40.784  29.031  28.852  1.00  0.00     0.173 A 
ATOM     83  C   UNL A   1      39.467  27.307  29.883  1.00  0.00     0.173 A 
ATOM     84  F   UNL A   1      41.401  30.221  28.897  1.00  0.00    -0.203 F 
ATOM     85  C   UNL A   1      40.799  28.305  27.663  1.00  0.00     0.198 A 
ATOM     86  C   UNL A   1      39.504  26.572  28.701  1.00  0.00     0.198 A 
ATOM     87  F   UNL A   1      38.819  26.800  30.942  1.00  0.00    -0.203 F 
ATOM     88  F   UNL A   1      41.422  28.803  26.585  1.00  0.00    -0.200 F 
ATOM     89  C   UNL A   1      40.167  27.074  27.590  1.00  0.00     0.200 A 
ATOM     90  F   UNL A   1      38.905  25.375  28.640  1.00  0.00    -0.200 F 
ATOM     91  F   UNL A   1      40.194  26.370  26.450  1.00  0.00    -0.200 F 
ENDBRANCH  57  81
BRANCH  69  92
ATOM     92  C   UNL A   1      44.457  28.793  35.433  1.00  0.00     0.064 A 
ATOM     93  C   UNL A   1      44.445  27.596  36.164  1.00  0.00     0.173 A 
ATOM     94  C   UNL A   1      45.694  29.271  34.975  1.00  0.00     0.173 A 
ATOM     95  F   UNL A   1      43.289  27.107  36.638  1.00  0.00    -0.203 F 
ATOM     96  C   UNL A   1      45.627  26.916  36.443  1.00  0.00     0.198 A 
ATOM     97  C   UNL A   1      46.871  28.574  35.233  1.00  0.00     0.198 A 
ATOM     98  F   UNL A   1      45.760  30.410  34.270  1.00  0.00    -0.203 F 
ATOM     99  F   UNL A   1      45.596  25.796  37.178  1.00  0.00    -0.200 F 
ATOM    100  C   UNL A   1      46.838  27.400  35.970  1.00  0.00     0.200 A 
ATOM    101  F   UNL A   1      48.039  29.038  34.767  1.00  0.00    -0.200 F 
ATOM    102  F   UNL A   1      47.974  26.741  36.235  1.00  0.00    -0.200 F 
ENDBRANCH  69  92
ENDBRANCH  43  44
ENDBRANCH  35  38
ENDBRANCH  33  34
ENDBRANCH  32  33
ENDBRANCH  31  32
ENDBRANCH  30  31
ENDBRANCH   1  30
TORSDOF 17
ENDMDL
MODEL 2
REMARK VINA RESULT:     -12.1      1.630      3.113
REMARK SMILES O=C(/C=C/c1ccc(S(=O)(=O)Nc2ccc3c(c2)OCCO3)cc1)NCCCCCCNC(=O)c1ccc(-c2c3nc(c(-c4c(F)c(F)c(F)c(F)c4F)c4ccc([nH]4)c(-c4c(F)c(F)c(F)c(F)c4F)c4nc(c(-c5c(F)c(F)c(F)c(F)c5F)c5ccc2[nH]5)C=C4)C=C3)cc1
REMARK SMILES IDX 27 1 26 2 25 3 1 4 2 5 3 7 4 8 5 9 6 10 24 11 7 12 23 13
REMARK SMILES IDX 8 14 9 15 10 16 11 17 12 18 13 20 14 21 18 22 15 23 17 24
REMARK SMILES IDX 16 25 19 26 22 27 20 28 21 29 28 30 29 31 30 32 31 33 32 34
REMARK SMILES IDX 33 35 34 37 35 38 36 39 97 40 37 41 96 42 38 43 39 44 40 45
REMARK SMILES IDX 90 46 41 47 95 48 89 49 91 50 42 51 94 52 88 53 87 54 43 56
REMARK SMILES IDX 75 57 55 58 74 59 56 60 59 61 73 62 92 63 57 64 58 65 72 67
REMARK SMILES IDX 93 68 60 69 44 70 45 71 53 72 46 73 47 74 51 75 54 76 48 77
REMARK SMILES IDX 49 78 52 79 50 80 76 81 77 82 85 83 78 84 79 85 83 86 86 87
REMARK SMILES IDX 80 88 81 89 84 90 82 91 61 92 62 93 70 94 63 95 64 96 68 97
REMARK SMILES IDX 71 98 65 99 66 100 69 101 67 102
REMARK H PARENT 25 6 12 19 32 36 91 55 59 66
REMARK Flexibility Score: inf
ROOT
ATOM      1  C   UNL A   1      35.110  32.182  28.087  1.00  0.00     0.021 C 
ENDROOT
BRANCH   1   2
ATOM      2  C   UNL A   1      33.736  31.563  27.833  1.00  0.00     0.116 C 
BRANCH   2   3
ATOM      3  N   UNL A   1      33.836  30.192  27.368  1.00  0.00    -0.353 N 
ATOM      4  O   UNL A   1      32.297  30.407  25.677  1.00  0.00    -0.270 OA
ATOM      5  C   UNL A   1      33.067  29.718  26.338  1.00  0.00     0.243 C 
ATOM      6  H   UNL A   1      34.474  29.585  27.806  1.00  0.00     0.163 HD
BRANCH   5   7
ATOM      7  C   UNL A   1      33.254  28.287  25.978  1.00  0.00     0.072 C 
ATOM      8  C   UNL A   1      33.052  27.240  26.796  1.00  0.00     0.014 C 
BRANCH   8   9
ATOM      9  C   UNL A   1      33.183  25.815  26.417  1.00  0.00    -0.025 A 
ATOM     10  C   UNL A   1      34.308  25.416  25.679  1.00  0.00     0.009 A 
ATOM     11  C   UNL A   1      32.255  24.825  26.779  1.00  0.00     0.009 A 
ATOM     12  C   UNL A   1      34.464  24.087  25.256  1.00  0.00     0.023 A 
ATOM     13  C   UNL A   1      32.434  23.485  26.401  1.00  0.00     0.023 A 
ATOM     14  C   UNL A   1      33.512  23.122  25.598  1.00  0.00     0.087 A 
BRANCH  14  15
ATOM     15  S   UNL A   1      33.719  21.460  24.975  1.00  0.00     0.261 S 
ATOM     16  O   UNL A   1      35.144  21.278  24.740  1.00  0.00    -0.201 OA
ATOM     17  O   UNL A   1      33.005  20.572  25.857  1.00  0.00    -0.201 OA
BRANCH  15  18
ATOM     18  N   UNL A   1      33.001  21.321  23.412  1.00  0.00    -0.279 N 
ATOM     19  H   UNL A   1      32.987  20.466  22.925  1.00  0.00     0.180 HD
BRANCH  18  20
ATOM     20  C   UNL A   1      32.426  22.511  22.855  1.00  0.00     0.053 A 
ATOM     21  C   UNL A   1      31.113  22.819  23.232  1.00  0.00     0.031 A 
ATOM     22  C   UNL A   1      33.177  23.398  22.092  1.00  0.00     0.077 A 
ATOM     23  C   UNL A   1      30.626  24.108  23.035  1.00  0.00     0.052 A 
ATOM     24  C   UNL A   1      32.719  24.702  21.960  1.00  0.00     0.163 A 
ATOM     25  C   UNL A   1      31.473  25.064  22.486  1.00  0.00     0.161 A 
ATOM     26  O   UNL A   1      33.606  25.600  21.428  1.00  0.00    -0.486 OA
ATOM     27  O   UNL A   1      31.088  26.377  22.590  1.00  0.00    -0.486 OA
ATOM     28  C   UNL A   1      33.190  26.963  21.572  1.00  0.00     0.271 C 
ATOM     29  C   UNL A   1      32.273  27.167  22.768  1.00  0.00     0.271 C 
ENDBRANCH  18  20
ENDBRANCH  15  18
ENDBRANCH  14  15
ENDBRANCH   8   9
ENDBRANCH   5   7
ENDBRANCH   2   3
ENDBRANCH   1   2
BRANCH   1  30
ATOM     30  C   UNL A   1      35.183  33.084  29.325  1.00  0.00     0.002 C 
BRANCH  30  31
ATOM     31  C   UNL A   1      35.182  34.590  29.045  1.00  0.00     0.002 C 
BRANCH  31  32
ATOM     32  C   UNL A   1      33.803  35.250  28.987  1.00  0.00     0.021 C 
BRANCH  32  33
ATOM     33  C   UNL A   1      33.630  36.479  29.877  1.00  0.00     0.116 C 
BRANCH  33  34
ATOM     34  N   UNL A   1      32.539  36.335  30.829  1.00  0.00    -0.352 N 
ATOM     35  C   UNL A   1      32.482  35.614  31.997  1.00  0.00     0.251 C 
ATOM     36  H   UNL A   1      31.718  36.828  30.602  1.00  0.00     0.163 HD
ATOM     37  O   UNL A   1      31.417  35.496  32.596  1.00  0.00    -0.269 OA
BRANCH  35  38
ATOM     38  C   UNL A   1      33.695  34.951  32.523  1.00  0.00     0.039 A 
ATOM     39  C   UNL A   1      33.607  33.617  32.936  1.00  0.00     0.014 A 
ATOM     40  C   UNL A   1      34.911  35.634  32.619  1.00  0.00     0.014 A 
ATOM     41  C   UNL A   1      34.752  32.947  33.369  1.00  0.00     0.010 A 
ATOM     42  C   UNL A   1      36.065  34.947  32.991  1.00  0.00     0.010 A 
ATOM     43  C   UNL A   1      35.998  33.595  33.361  1.00  0.00    -0.014 A 
BRANCH  43  44
ATOM     44  C   UNL A   1      37.246  32.865  33.700  1.00  0.00     0.031 A 
ATOM     45  C   UNL A   1      38.004  33.188  34.955  1.00  0.00     0.074 A 
ATOM     46  C   UNL A   1      37.738  31.961  32.831  1.00  0.00     0.049 A 
ATOM     47  N   UNL A   1      39.147  32.708  35.378  1.00  0.00    -0.248 NA
ATOM     48  C   UNL A   1      37.412  34.203  35.838  1.00  0.00     0.031 C 
ATOM     49  C   UNL A   1      37.126  31.602  31.551  1.00  0.00     0.029 A 
ATOM     50  N   UNL A   1      38.876  31.197  32.882  1.00  0.00    -0.354 N 
ATOM     51  C   UNL A   1      39.415  33.369  36.569  1.00  0.00     0.074 A 
ATOM     52  C   UNL A   1      38.343  34.320  36.774  1.00  0.00     0.031 C 
ATOM     53  C   UNL A   1      37.890  30.681  30.943  1.00  0.00     0.029 A 
ATOM     54  C   UNL A   1      39.061  30.410  31.772  1.00  0.00     0.049 A 
ATOM     55  H   UNL A   1      39.502  31.211  33.643  1.00  0.00     0.167 HD
ATOM     56  C   UNL A   1      40.450  33.184  37.424  1.00  0.00     0.037 A 
ATOM     57  C   UNL A   1      40.065  29.574  31.450  1.00  0.00     0.037 A 
ATOM     58  C   UNL A   1      41.508  32.228  37.224  1.00  0.00     0.049 A 
ATOM     59  C   UNL A   1      41.205  29.386  32.411  1.00  0.00     0.074 A 
ATOM     60  C   UNL A   1      42.562  31.917  38.066  1.00  0.00     0.029 A 
ATOM     61  N   UNL A   1      41.651  31.434  36.095  1.00  0.00    -0.354 N 
ATOM     62  N   UNL A   1      41.410  29.960  33.572  1.00  0.00    -0.248 NA
ATOM     63  C   UNL A   1      42.250  28.430  32.022  1.00  0.00     0.031 C 
ATOM     64  C   UNL A   1      43.368  30.968  37.426  1.00  0.00     0.029 A 
ATOM     65  C   UNL A   1      42.792  30.654  36.206  1.00  0.00     0.049 A 
ATOM     66  H   UNL A   1      41.034  31.426  35.329  1.00  0.00     0.167 HD
ATOM     67  C   UNL A   1      42.597  29.430  34.057  1.00  0.00     0.074 A 
ATOM     68  C   UNL A   1      43.057  28.470  33.074  1.00  0.00     0.031 C 
ATOM     69  C   UNL A   1      43.246  29.714  35.212  1.00  0.00     0.037 A 
BRANCH  56  70
ATOM     70  C   UNL A   1      40.483  34.038  38.658  1.00  0.00     0.064 A 
ATOM     71  C   UNL A   1      41.178  35.257  38.690  1.00  0.00     0.173 A 
ATOM     72  C   UNL A   1      39.801  33.643  39.819  1.00  0.00     0.173 A 
ATOM     73  F   UNL A   1      41.854  35.677  37.611  1.00  0.00    -0.203 F 
ATOM     74  C   UNL A   1      41.220  36.029  39.849  1.00  0.00     0.198 A 
ATOM     75  C   UNL A   1      39.821  34.432  40.967  1.00  0.00     0.198 A 
ATOM     76  F   UNL A   1      39.115  32.490  39.841  1.00  0.00    -0.203 F 
ATOM     77  F   UNL A   1      41.938  37.161  39.872  1.00  0.00    -0.200 F 
ATOM     78  C   UNL A   1      40.538  35.618  40.984  1.00  0.00     0.200 A 
ATOM     79  F   UNL A   1      39.151  34.039  42.059  1.00  0.00    -0.200 F 
ATOM     80  F   UNL A   1      40.580  36.361  42.098  1.00  0.00    -0.200 F 
ENDBRANCH  56  70
BRANCH  57  81
ATOM     81  C   UNL A   1      40.020  28.840  30.161  1.00  0.00     0.064 A 
ATOM     82  C   UNL A   1      40.593  29.383  29.003  1.00  0.00     0.173 A 
ATOM     83  C   UNL A   1      39.431  27.570  30.066  1.00  0.00     0.173 A 
ATOM     84  F   UNL A   1      41.149  30.603  29.041  1.00  0.00    -0.203 F 
ATOM     85  C   UNL A   1      40.573  28.686  27.797  1.00  0.00     0.198 A 
ATOM     86  C   UNL A   1      39.434  26.864  28.866  1.00  0.00     0.198 A 
ATOM     87  F   UNL A   1      38.875  27.006  31.149  1.00  0.00    -0.203 F 
ATOM     88  F   UNL A   1      41.103  29.240  26.697  1.00  0.00    -0.200 F 
ATOM     89  C   UNL A   1      40.002  27.424  27.731  1.00  0.00     0.200 A 
ATOM     90  F   UNL A   1      38.895  25.639  28.810  1.00  0.00    -0.200 F 
ATOM     91  F   UNL A   1      39.997  26.749  26.574  1.00  0.00    -0.200 F 
ENDBRANCH  57  81
BRANCH  69  92
ATOM     92  C   UNL A   1      44.525  28.976  35.477  1.00  0.00     0.064 A 
ATOM     93  C   UNL A   1      45.768  29.500  35.091  1.00  0.00     0.173 A 
ATOM     94  C   UNL A   1      44.513  27.748  36.157  1.00  0.00     0.173 A 
ATOM     95  F   UNL A   1      45.830  30.662  34.423  1.00  0.00    -0.203 F 
ATOM     96  C   UNL A   1      46.949  28.813  35.355  1.00  0.00     0.198 A 
ATOM     97  C   UNL A   1      45.699  27.076  36.444  1.00  0.00     0.198 A 
ATOM     98  F   UNL A   1      43.352  27.204  36.551  1.00  0.00    -0.203 F 
ATOM     99  F   UNL A   1      48.120  29.312  34.939  1.00  0.00    -0.200 F 
ATOM    100  C   UNL A   1      46.914  27.606  36.038  1.00  0.00     0.200 A 
ATOM    101  F   UNL A   1      45.664  25.915  37.113  1.00  0.00    -0.200 F 
ATOM    102  F   UNL A   1      48.053  26.948  36.297  1.00  0.00    -0.200 F 
ENDBRANCH  69  92
ENDBRANCH  43  44
ENDBRANCH  35  38
ENDBRANCH  33  34
ENDBRANCH  32  33
ENDBRANCH  31  32
ENDBRANCH  30  31
ENDBRANCH   1  30
TORSDOF 17
ENDMDL
MODEL 3
REMARK VINA RESULT:     -12.1      1.354      2.610
REMARK SMILES O=C(/C=C/c1ccc(S(=O)(=O)Nc2ccc3c(c2)OCCO3)cc1)NCCCCCCNC(=O)c1ccc(-c2c3nc(c(-c4c(F)c(F)c(F)c(F)c4F)c4ccc([nH]4)c(-c4c(F)c(F)c(F)c(F)c4F)c4nc(c(-c5c(F)c(F)c(F)c(F)c5F)c5ccc2[nH]5)C=C4)C=C3)cc1
REMARK SMILES IDX 27 1 26 2 25 3 1 4 2 5 3 7 4 8 5 9 6 10 24 11 7 12 23 13
REMARK SMILES IDX 8 14 9 15 10 16 11 17 12 18 13 20 14 21 18 22 15 23 17 24
REMARK SMILES IDX 16 25 19 26 22 27 20 28 21 29 28 30 29 31 30 32 31 33 32 34
REMARK SMILES IDX 33 35 34 37 35 38 36 39 97 40 37 41 96 42 38 43 39 44 40 45
REMARK SMILES IDX 90 46 41 47 95 48 89 49 91 50 42 51 94 52 88 53 87 54 43 56
REMARK SMILES IDX 75 57 55 58 74 59 56 60 59 61 73 62 92 63 57 64 58 65 72 67
REMARK SMILES IDX 93 68 60 69 44 70 45 71 53 72 46 73 47 74 51 75 54 76 48 77
REMARK SMILES IDX 49 78 52 79 50 80 76 81 77 82 85 83 78 84 79 85 83 86 86 87
REMARK SMILES IDX 80 88 81 89 84 90 82 91 61 92 62 93 70 94 63 95 64 96 68 97
REMARK SMILES IDX 71 98 65 99 66 100 69 101 67 102
REMARK H PARENT 25 6 12 19 32 36 91 55 59 66
REMARK Flexibility Score: inf
ROOT
ATOM      1  C   UNL A   1      35.759  33.087  28.735  1.00  0.00     0.021 C 
ENDROOT
BRANCH   1   2
ATOM      2  C   UNL A   1      34.653  32.156  29.232  1.00  0.00     0.116 C 
BRANCH   2   3
ATOM      3  N   UNL A   1      34.395  31.073  28.301  1.00  0.00    -0.353 N 
ATOM      4  O   UNL A   1      36.033  29.679  29.104  1.00  0.00    -0.270 OA
ATOM      5  C   UNL A   1      35.146  29.928  28.295  1.00  0.00     0.243 C 
ATOM      6  H   UNL A   1      33.660  31.166  27.654  1.00  0.00     0.163 HD
BRANCH   5   7
ATOM      7  C   UNL A   1      34.788  28.908  27.273  1.00  0.00     0.072 C 
ATOM      8  C   UNL A   1      34.015  29.118  26.194  1.00  0.00     0.014 C 
BRANCH   8   9
ATOM      9  C   UNL A   1      33.708  28.117  25.148  1.00  0.00    -0.025 A 
ATOM     10  C   UNL A   1      33.807  26.754  25.471  1.00  0.00     0.009 A 
ATOM     11  C   UNL A   1      33.294  28.451  23.848  1.00  0.00     0.009 A 
ATOM     12  C   UNL A   1      33.569  25.761  24.508  1.00  0.00     0.023 A 
ATOM     13  C   UNL A   1      33.007  27.459  22.897  1.00  0.00     0.023 A 
ATOM     14  C   UNL A   1      33.190  26.115  23.209  1.00  0.00     0.087 A 
BRANCH  14  15
ATOM     15  S   UNL A   1      32.971  24.817  22.001  1.00  0.00     0.261 S 
ATOM     16  O   UNL A   1      32.611  25.469  20.751  1.00  0.00    -0.201 OA
ATOM     17  O   UNL A   1      34.125  23.958  22.071  1.00  0.00    -0.201 OA
BRANCH  15  18
ATOM     18  N   UNL A   1      31.593  23.861  22.405  1.00  0.00    -0.279 N 
ATOM     19  H   UNL A   1      30.737  23.961  21.927  1.00  0.00     0.180 HD
BRANCH  18  20
ATOM     20  C   UNL A   1      31.750  22.913  23.469  1.00  0.00     0.053 A 
ATOM     21  C   UNL A   1      32.274  21.660  23.132  1.00  0.00     0.031 A 
ATOM     22  C   UNL A   1      31.533  23.263  24.798  1.00  0.00     0.077 A 
ATOM     23  C   UNL A   1      32.788  20.838  24.131  1.00  0.00     0.052 A 
ATOM     24  C   UNL A   1      32.109  22.478  25.787  1.00  0.00     0.163 A 
ATOM     25  C   UNL A   1      32.786  21.302  25.442  1.00  0.00     0.161 A 
ATOM     26  O   UNL A   1      32.090  22.998  27.054  1.00  0.00    -0.486 OA
ATOM     27  O   UNL A   1      33.567  20.628  26.347  1.00  0.00    -0.486 OA
ATOM     28  C   UNL A   1      32.932  22.289  27.971  1.00  0.00     0.271 C 
ATOM     29  C   UNL A   1      34.090  21.590  27.275  1.00  0.00     0.271 C 
ENDBRANCH  18  20
ENDBRANCH  15  18
ENDBRANCH  14  15
ENDBRANCH   8   9
ENDBRANCH   5   7
ENDBRANCH   2   3
ENDBRANCH   1   2
BRANCH   1  30
ATOM     30  C   UNL A   1      35.434  34.581  28.852  1.00  0.00     0.002 C 
BRANCH  30  31
ATOM     31  C   UNL A   1      34.208  35.053  28.063  1.00  0.00     0.002 C 
BRANCH  31  32
ATOM     32  C   UNL A   1      33.016  35.509  28.907  1.00  0.00     0.021 C 
BRANCH  32  33
ATOM     33  C   UNL A   1      33.330  36.572  29.958  1.00  0.00     0.116 C 
BRANCH  33  34
ATOM     34  N   UNL A   1      32.471  36.475  31.129  1.00  0.00    -0.352 N 
ATOM     35  C   UNL A   1      32.619  35.721  32.267  1.00  0.00     0.251 C 
ATOM     36  H   UNL A   1      31.662  37.036  31.101  1.00  0.00     0.163 HD
ATOM     37  O   UNL A   1      31.708  35.661  33.088  1.00  0.00    -0.269 OA
BRANCH  35  38
ATOM     38  C   UNL A   1      33.862  34.953  32.496  1.00  0.00     0.039 A 
ATOM     39  C   UNL A   1      35.090  35.615  32.389  1.00  0.00     0.014 A 
ATOM     40  C   UNL A   1      33.826  33.591  32.807  1.00  0.00     0.014 A 
ATOM     41  C   UNL A   1      36.274  34.932  32.671  1.00  0.00     0.010 A 
ATOM     42  C   UNL A   1      35.003  32.927  33.149  1.00  0.00     0.010 A 
ATOM     43  C   UNL A   1      36.237  33.593  33.093  1.00  0.00    -0.014 A 
BRANCH  43  44
ATOM     44  C   UNL A   1      37.472  32.886  33.515  1.00  0.00     0.031 A 
ATOM     45  C   UNL A   1      38.126  33.205  34.829  1.00  0.00     0.074 A 
ATOM     46  C   UNL A   1      38.050  32.008  32.673  1.00  0.00     0.049 A 
ATOM     47  N   UNL A   1      39.244  32.745  35.330  1.00  0.00    -0.248 NA
ATOM     48  C   UNL A   1      37.445  34.193  35.679  1.00  0.00     0.031 C 
ATOM     49  C   UNL A   1      37.545  31.655  31.345  1.00  0.00     0.029 A 
ATOM     50  N   UNL A   1      39.199  31.268  32.799  1.00  0.00    -0.354 N 
ATOM     51  C   UNL A   1      39.406  33.392  36.547  1.00  0.00     0.074 A 
ATOM     52  C   UNL A   1      38.299  34.316  36.684  1.00  0.00     0.031 C 
ATOM     53  C   UNL A   1      38.374  30.762  30.784  1.00  0.00     0.029 A 
ATOM     54  C   UNL A   1      39.485  30.504  31.695  1.00  0.00     0.049 A 
ATOM     55  H   UNL A   1      39.765  31.284  33.605  1.00  0.00     0.167 HD
ATOM     56  C   UNL A   1      40.378  33.217  37.475  1.00  0.00     0.037 A 
ATOM     57  C   UNL A   1      40.530  29.696  31.438  1.00  0.00     0.037 A 
ATOM     58  C   UNL A   1      41.470  32.288  37.343  1.00  0.00     0.049 A 
ATOM     59  C   UNL A   1      41.598  29.518  32.480  1.00  0.00     0.074 A 
ATOM     60  C   UNL A   1      42.465  31.988  38.257  1.00  0.00     0.029 A 
ATOM     61  N   UNL A   1      41.717  31.517  36.216  1.00  0.00    -0.354 N 
ATOM     62  N   UNL A   1      41.702  30.078  33.661  1.00  0.00    -0.248 NA
ATOM     63  C   UNL A   1      42.693  28.593  32.157  1.00  0.00     0.031 C 
ATOM     64  C   UNL A   1      43.339  31.068  37.667  1.00  0.00     0.029 A 
ATOM     65  C   UNL A   1      42.865  30.760  36.402  1.00  0.00     0.049 A 
ATOM     66  H   UNL A   1      41.160  31.507  35.405  1.00  0.00     0.167 HD
ATOM     67  C   UNL A   1      42.861  29.568  34.227  1.00  0.00     0.074 A 
ATOM     68  C   UNL A   1      43.417  28.634  33.268  1.00  0.00     0.031 C 
ATOM     69  C   UNL A   1      43.415  29.847  35.432  1.00  0.00     0.037 A 
BRANCH  56  70
ATOM     70  C   UNL A   1      40.297  34.052  38.721  1.00  0.00     0.064 A 
ATOM     71  C   UNL A   1      40.924  35.304  38.808  1.00  0.00     0.173 A 
ATOM     72  C   UNL A   1      39.573  33.602  39.836  1.00  0.00     0.173 A 
ATOM     73  F   UNL A   1      41.637  35.776  37.775  1.00  0.00    -0.203 F 
ATOM     74  C   UNL A   1      40.862  36.058  39.978  1.00  0.00     0.198 A 
ATOM     75  C   UNL A   1      39.488  34.373  40.994  1.00  0.00     0.198 A 
ATOM     76  F   UNL A   1      38.949  32.415  39.804  1.00  0.00    -0.203 F 
ATOM     77  F   UNL A   1      41.517  37.225  40.056  1.00  0.00    -0.200 F 
ATOM     78  C   UNL A   1      40.140  35.594  41.067  1.00  0.00     0.200 A 
ATOM     79  F   UNL A   1      38.780  33.928  42.041  1.00  0.00    -0.200 F 
ATOM     80  F   UNL A   1      40.081  36.320  42.191  1.00  0.00    -0.200 F 
ENDBRANCH  56  70
BRANCH  57  81
ATOM     81  C   UNL A   1      40.600  28.983  30.138  1.00  0.00     0.064 A 
ATOM     82  C   UNL A   1      39.904  27.783  29.937  1.00  0.00     0.173 A 
ATOM     83  C   UNL A   1      41.336  29.501  29.063  1.00  0.00     0.173 A 
ATOM     84  F   UNL A   1      39.203  27.240  30.943  1.00  0.00    -0.203 F 
ATOM     85  C   UNL A   1      39.948  27.125  28.710  1.00  0.00     0.198 A 
ATOM     86  C   UNL A   1      41.359  28.854  27.829  1.00  0.00     0.198 A 
ATOM     87  F   UNL A   1      42.014  30.650  29.205  1.00  0.00    -0.203 F 
ATOM     88  F   UNL A   1      39.297  25.964  28.552  1.00  0.00    -0.200 F 
ATOM     89  C   UNL A   1      40.668  27.664  27.655  1.00  0.00     0.200 A 
ATOM     90  F   UNL A   1      42.044  29.388  26.808  1.00  0.00    -0.200 F 
ATOM     91  F   UNL A   1      40.698  27.038  26.472  1.00  0.00    -0.200 F 
ENDBRANCH  57  81
BRANCH  69  92
ATOM     92  C   UNL A   1      44.687  29.133  35.783  1.00  0.00     0.064 A 
ATOM     93  C   UNL A   1      45.942  29.678  35.472  1.00  0.00     0.173 A 
ATOM     94  C   UNL A   1      44.653  27.909  36.469  1.00  0.00     0.173 A 
ATOM     95  F   UNL A   1      46.026  30.838  34.802  1.00  0.00    -0.203 F 
ATOM     96  C   UNL A   1      47.116  29.014  35.816  1.00  0.00     0.198 A 
ATOM     97  C   UNL A   1      45.830  27.261  36.834  1.00  0.00     0.198 A 
ATOM     98  F   UNL A   1      43.480  27.347  36.791  1.00  0.00    -0.203 F 
ATOM     99  F   UNL A   1      48.303  29.532  35.472  1.00  0.00    -0.200 F 
ATOM    100  C   UNL A   1      47.060  27.811  36.503  1.00  0.00     0.200 A 
ATOM    101  F   UNL A   1      45.774  26.103  37.508  1.00  0.00    -0.200 F 
ATOM    102  F   UNL A   1      48.191  27.175  36.838  1.00  0.00    -0.200 F 
ENDBRANCH  69  92
ENDBRANCH  43  44
ENDBRANCH  35  38
ENDBRANCH  33  34
ENDBRANCH  32  33
ENDBRANCH  31  32
ENDBRANCH  30  31
ENDBRANCH   1  30
TORSDOF 17
ENDMDL
