MODEL 1
REMARK VINA RESULT:     -13.7      0.000      0.000
REMARK SMILES CS(=O)(=O)c1ccc(-c2cc(Cl)cc3c2O[C@H](C(F)(F)F)C(C(=O)NCCCCCCNC(=O)c2ccc(-c4c5nc(c(-c6c(F)c(F)c(F)c(F)c6F)c6ccc([nH]6)c(-c6c(F)c(F)c(F)c(F)c6F)c6nc(c(-c7c(F)c(F)c(F)c(F)c7F)c7ccc4[nH]7)C=C6)C=C5)cc2)=C3)cc1
REMARK SMILES IDX 28 1 27 2 26 3 25 4 23 5 24 6 22 8 9 9 10 10 15 11 11 12
REMARK SMILES IDX 14 13 16 14 12 15 13 16 98 17 17 18 8 19 5 20 6 21 100 22
REMARK SMILES IDX 7 23 99 24 2 25 1 26 3 27 4 28 18 29 19 30 20 31 21 32 29 33
REMARK SMILES IDX 30 34 31 35 32 36 33 37 34 39 35 40 36 41 97 42 37 43 96 44
REMARK SMILES IDX 38 45 39 46 40 47 90 48 41 49 95 50 89 51 91 52 42 53 94 54
REMARK SMILES IDX 88 55 87 56 43 58 75 59 55 60 74 61 56 62 59 63 73 64 92 65
REMARK SMILES IDX 57 66 58 67 72 69 93 70 60 71 44 72 45 73 53 74 46 75 47 76
REMARK SMILES IDX 51 77 54 78 48 79 49 80 52 81 50 82 76 83 77 84 85 85 78 86
REMARK SMILES IDX 79 87 83 88 86 89 80 90 81 91 84 92 82 93 61 94 62 95 70 96
REMARK SMILES IDX 63 97 64 98 68 99 71 100 65 101 66 102 69 103 67 104
REMARK H PARENT 25 7 32 38 91 57 59 68
REMARK Flexibility Score: inf
ROOT
ATOM      1  C   UNL A   1      35.555  20.734  25.337  1.00  0.00     0.002 C 
ENDROOT
BRANCH   1   2
ATOM      2  C   UNL A   1      34.764  19.588  24.684  1.00  0.00     0.021 C 
BRANCH   2   3
ATOM      3  C   UNL A   1      33.266  19.865  24.494  1.00  0.00     0.116 C 
BRANCH   3   4
ATOM      4  N   UNL A   1      33.075  20.875  23.472  1.00  0.00    -0.352 N 
ATOM      5  C   UNL A   1      32.274  21.961  23.611  1.00  0.00     0.251 C 
ATOM      6  O   UNL A   1      31.404  22.199  22.783  1.00  0.00    -0.270 OA
ATOM      7  H   UNL A   1      33.559  20.766  22.622  1.00  0.00     0.163 HD
BRANCH   5   8
ATOM      8  C   UNL A   1      32.633  22.904  24.712  1.00  0.00     0.067 C 
ATOM      9  C   UNL A   1      30.986  26.305  23.225  1.00  0.00     0.026 A 
ATOM     10  C   UNL A   1      31.299  26.309  21.839  1.00  0.00     0.033 A 
ATOM     11  C   UNL A   1      31.688  25.379  24.014  1.00  0.00     0.135 A 
ATOM     12  C   UNL A   1      32.381  25.605  21.313  1.00  0.00     0.042 A 
ATOM     13  C   UNL A   1      32.857  24.773  23.487  1.00  0.00     0.019 A 
ATOM     14  O   UNL A   1      31.262  24.955  25.269  1.00  0.00    -0.475 OA
ATOM     15  Cl  UNL A   1      32.689  25.650  19.624  1.00  0.00    -0.084 Cl
ATOM     16  C   UNL A   1      33.220  24.902  22.151  1.00  0.00     0.032 A 
ATOM     17  C   UNL A   1      33.570  23.798  24.341  1.00  0.00     0.025 C 
ATOM     18  C   UNL A   1      31.451  23.481  25.478  1.00  0.00     0.314 C 
BRANCH   9  19
ATOM     19  C   UNL A   1      30.167  27.472  23.663  1.00  0.00    -0.015 A 
ATOM     20  C   UNL A   1      28.859  29.943  23.197  1.00  0.00     0.067 A 
ATOM     21  C   UNL A   1      28.146  28.744  23.108  1.00  0.00     0.021 A 
ATOM     22  C   UNL A   1      30.176  29.933  23.652  1.00  0.00     0.021 A 
ATOM     23  C   UNL A   1      28.788  27.523  23.365  1.00  0.00     0.010 A 
ATOM     24  C   UNL A   1      30.817  28.703  23.896  1.00  0.00     0.010 A 
BRANCH  20  25
ATOM     25  S   UNL A   1      28.049  31.409  22.584  1.00  0.00     0.175 S 
ATOM     26  C   UNL A   1      29.158  32.777  22.745  1.00  0.00     0.163 C 
ATOM     27  O   UNL A   1      26.927  31.656  23.467  1.00  0.00    -0.224 OA
ATOM     28  O   UNL A   1      27.847  31.193  21.162  1.00  0.00    -0.224 OA
ENDBRANCH  20  25
ENDBRANCH   9  19
BRANCH  18  29
ATOM     29  C   UNL A   1      31.639  23.112  26.969  1.00  0.00     0.429 C 
ATOM     30  F   UNL A   1      32.501  22.088  27.150  1.00  0.00    -0.167 F 
ATOM     31  F   UNL A   1      32.094  24.169  27.683  1.00  0.00    -0.167 F 
ATOM     32  F   UNL A   1      30.471  22.739  27.561  1.00  0.00    -0.167 F 
ENDBRANCH  18  29
ENDBRANCH   5   8
ENDBRANCH   3   4
ENDBRANCH   2   3
ENDBRANCH   1   2
BRANCH   1  33
ATOM     33  C   UNL A   1      36.950  20.972  24.753  1.00  0.00     0.002 C 
BRANCH  33  34
ATOM     34  C   UNL A   1      37.945  19.841  25.011  1.00  0.00     0.021 C 
BRANCH  34  35
ATOM     35  C   UNL A   1      39.199  20.263  25.767  1.00  0.00     0.116 C 
BRANCH  35  36
ATOM     36  N   UNL A   1      40.179  19.192  25.862  1.00  0.00    -0.352 N 
ATOM     37  C   UNL A   1      41.532  19.279  26.067  1.00  0.00     0.251 C 
ATOM     38  H   UNL A   1      39.821  18.279  25.766  1.00  0.00     0.163 HD
ATOM     39  O   UNL A   1      42.245  18.284  25.957  1.00  0.00    -0.269 OA
BRANCH  37  40
ATOM     40  C   UNL A   1      42.136  20.586  26.395  1.00  0.00     0.039 A 
ATOM     41  C   UNL A   1      42.656  21.368  25.360  1.00  0.00     0.014 A 
ATOM     42  C   UNL A   1      42.172  21.045  27.714  1.00  0.00     0.014 A 
ATOM     43  C   UNL A   1      43.157  22.638  25.644  1.00  0.00     0.010 A 
ATOM     44  C   UNL A   1      42.596  22.342  27.982  1.00  0.00     0.010 A 
ATOM     45  C   UNL A   1      43.098  23.150  26.951  1.00  0.00    -0.014 A 
BRANCH  45  46
ATOM     46  C   UNL A   1      43.559  24.527  27.257  1.00  0.00     0.031 A 
ATOM     47  C   UNL A   1      42.591  25.549  27.782  1.00  0.00     0.074 A 
ATOM     48  C   UNL A   1      44.835  24.874  27.002  1.00  0.00     0.049 A 
ATOM     49  N   UNL A   1      42.787  26.815  28.052  1.00  0.00    -0.248 NA
ATOM     50  C   UNL A   1      41.211  25.094  28.005  1.00  0.00     0.031 C 
ATOM     51  C   UNL A   1      45.854  23.988  26.438  1.00  0.00     0.029 A 
ATOM     52  N   UNL A   1      45.488  26.070  27.170  1.00  0.00    -0.354 N 
ATOM     53  C   UNL A   1      41.558  27.306  28.469  1.00  0.00     0.074 A 
ATOM     54  C   UNL A   1      40.607  26.222  28.347  1.00  0.00     0.031 C 
ATOM     55  C   UNL A   1      47.007  24.665  26.321  1.00  0.00     0.029 A 
ATOM     56  C   UNL A   1      46.800  26.041  26.762  1.00  0.00     0.049 A 
ATOM     57  H   UNL A   1      45.058  26.872  27.546  1.00  0.00     0.167 HD
ATOM     58  C   UNL A   1      41.252  28.540  28.937  1.00  0.00     0.037 A 
ATOM     59  C   UNL A   1      47.727  27.017  26.736  1.00  0.00     0.037 A 
ATOM     60  C   UNL A   1      42.204  29.614  29.059  1.00  0.00     0.049 A 
ATOM     61  C   UNL A   1      47.366  28.385  27.246  1.00  0.00     0.074 A 
ATOM     62  C   UNL A   1      42.012  30.887  29.566  1.00  0.00     0.029 A 
ATOM     63  N   UNL A   1      43.531  29.541  28.657  1.00  0.00    -0.354 N 
ATOM     64  N   UNL A   1      46.218  28.819  27.708  1.00  0.00    -0.248 NA
ATOM     65  C   UNL A   1      48.431  29.396  27.242  1.00  0.00     0.031 C 
ATOM     66  C   UNL A   1      43.205  31.602  29.417  1.00  0.00     0.029 A 
ATOM     67  C   UNL A   1      44.161  30.756  28.878  1.00  0.00     0.049 A 
ATOM     68  H   UNL A   1      43.962  28.745  28.270  1.00  0.00     0.167 HD
ATOM     69  C   UNL A   1      46.427  30.143  28.071  1.00  0.00     0.074 A 
ATOM     70  C   UNL A   1      47.819  30.435  27.792  1.00  0.00     0.031 C 
ATOM     71  C   UNL A   1      45.547  31.035  28.590  1.00  0.00     0.037 A 
BRANCH  58  72
ATOM     72  C   UNL A   1      39.827  28.790  29.345  1.00  0.00     0.064 A 
ATOM     73  C   UNL A   1      39.378  28.531  30.651  1.00  0.00     0.173 A 
ATOM     74  C   UNL A   1      38.898  29.295  28.424  1.00  0.00     0.173 A 
ATOM     75  F   UNL A   1      40.221  28.039  31.570  1.00  0.00    -0.203 F 
ATOM     76  C   UNL A   1      38.044  28.725  31.003  1.00  0.00     0.198 A 
ATOM     77  C   UNL A   1      37.574  29.523  28.791  1.00  0.00     0.198 A 
ATOM     78  F   UNL A   1      39.272  29.568  27.165  1.00  0.00    -0.203 F 
ATOM     79  F   UNL A   1      37.626  28.403  32.236  1.00  0.00    -0.200 F 
ATOM     80  C   UNL A   1      37.145  29.225  30.075  1.00  0.00     0.200 A 
ATOM     81  F   UNL A   1      36.709  30.022  27.896  1.00  0.00    -0.200 F 
ATOM     82  F   UNL A   1      35.862  29.409  30.415  1.00  0.00    -0.200 F 
ENDBRANCH  58  72
BRANCH  59  83
ATOM     83  C   UNL A   1      49.088  26.722  26.216  1.00  0.00     0.064 A 
ATOM     84  C   UNL A   1      50.066  26.141  27.034  1.00  0.00     0.173 A 
ATOM     85  C   UNL A   1      49.429  26.994  24.883  1.00  0.00     0.173 A 
ATOM     86  F   UNL A   1      49.793  25.878  28.320  1.00  0.00    -0.203 F 
ATOM     87  C   UNL A   1      51.339  25.857  26.542  1.00  0.00     0.198 A 
ATOM     88  C   UNL A   1      50.692  26.681  24.384  1.00  0.00     0.198 A 
ATOM     89  F   UNL A   1      48.527  27.542  24.056  1.00  0.00    -0.203 F 
ATOM     90  F   UNL A   1      52.268  25.337  27.357  1.00  0.00    -0.200 F 
ATOM     91  C   UNL A   1      51.648  26.119  25.217  1.00  0.00     0.200 A 
ATOM     92  F   UNL A   1      50.980  26.919  23.098  1.00  0.00    -0.200 F 
ATOM     93  F   UNL A   1      52.868  25.833  24.741  1.00  0.00    -0.200 F 
ENDBRANCH  59  83
BRANCH  71  94
ATOM     94  C   UNL A   1      46.067  32.407  28.915  1.00  0.00     0.064 A 
ATOM     95  C   UNL A   1      46.011  33.458  27.988  1.00  0.00     0.173 A 
ATOM     96  C   UNL A   1      46.593  32.682  30.187  1.00  0.00     0.173 A 
ATOM     97  F   UNL A   1      45.532  33.245  26.753  1.00  0.00    -0.203 F 
ATOM     98  C   UNL A   1      46.486  34.726  28.313  1.00  0.00     0.198 A 
ATOM     99  C   UNL A   1      47.035  33.959  30.520  1.00  0.00     0.198 A 
ATOM    100  F   UNL A   1      46.664  31.715  31.115  1.00  0.00    -0.203 F 
ATOM    101  F   UNL A   1      46.471  35.701  27.394  1.00  0.00    -0.200 F 
ATOM    102  C   UNL A   1      46.990  34.977  29.581  1.00  0.00     0.200 A 
ATOM    103  F   UNL A   1      47.506  34.204  31.751  1.00  0.00    -0.200 F 
ATOM    104  F   UNL A   1      47.439  36.201  29.895  1.00  0.00    -0.200 F 
ENDBRANCH  71  94
ENDBRANCH  45  46
ENDBRANCH  37  40
ENDBRANCH  35  36
ENDBRANCH  34  35
ENDBRANCH  33  34
ENDBRANCH   1  33
TORSDOF 16
ENDMDL
MODEL 2
REMARK VINA RESULT:     -13.7      5.653     11.223
REMARK SMILES CS(=O)(=O)c1ccc(-c2cc(Cl)cc3c2O[C@H](C(F)(F)F)C(C(=O)NCCCCCCNC(=O)c2ccc(-c4c5nc(c(-c6c(F)c(F)c(F)c(F)c6F)c6ccc([nH]6)c(-c6c(F)c(F)c(F)c(F)c6F)c6nc(c(-c7c(F)c(F)c(F)c(F)c7F)c7ccc4[nH]7)C=C6)C=C5)cc2)=C3)cc1
REMARK SMILES IDX 28 1 27 2 26 3 25 4 23 5 24 6 22 8 9 9 10 10 15 11 11 12
REMARK SMILES IDX 14 13 16 14 12 15 13 16 98 17 17 18 8 19 5 20 6 21 100 22
REMARK SMILES IDX 7 23 99 24 2 25 1 26 3 27 4 28 18 29 19 30 20 31 21 32 29 33
REMARK SMILES IDX 30 34 31 35 32 36 33 37 34 39 35 40 36 41 97 42 37 43 96 44
REMARK SMILES IDX 38 45 39 46 40 47 90 48 41 49 95 50 89 51 91 52 42 53 94 54
REMARK SMILES IDX 88 55 87 56 43 58 75 59 55 60 74 61 56 62 59 63 73 64 92 65
REMARK SMILES IDX 57 66 58 67 72 69 93 70 60 71 44 72 45 73 53 74 46 75 47 76
REMARK SMILES IDX 51 77 54 78 48 79 49 80 52 81 50 82 76 83 77 84 85 85 78 86
REMARK SMILES IDX 79 87 83 88 86 89 80 90 81 91 84 92 82 93 61 94 62 95 70 96
REMARK SMILES IDX 63 97 64 98 68 99 71 100 65 101 66 102 69 103 67 104
REMARK H PARENT 25 7 32 38 91 57 59 68
REMARK Flexibility Score: inf
ROOT
ATOM      1  C   UNL A   1      31.740  29.754  25.343  1.00  0.00     0.002 C 
ENDROOT
BRANCH   1   2
ATOM      2  C   UNL A   1      30.557  30.113  24.428  1.00  0.00     0.021 C 
BRANCH   2   3
ATOM      3  C   UNL A   1      30.118  28.993  23.473  1.00  0.00     0.116 C 
BRANCH   3   4
ATOM      4  N   UNL A   1      29.843  27.784  24.221  1.00  0.00    -0.352 N 
ATOM      5  C   UNL A   1      30.318  26.555  23.891  1.00  0.00     0.251 C 
ATOM      6  O   UNL A   1      29.550  25.611  23.755  1.00  0.00    -0.270 OA
ATOM      7  H   UNL A   1      29.275  27.857  25.022  1.00  0.00     0.163 HD
BRANCH   5   8
ATOM      8  C   UNL A   1      31.803  26.409  23.879  1.00  0.00     0.067 C 
ATOM      9  C   UNL A   1      32.071  22.402  24.481  1.00  0.00     0.026 A 
ATOM     10  C   UNL A   1      31.101  22.098  25.473  1.00  0.00     0.033 A 
ATOM     11  C   UNL A   1      32.371  23.764  24.307  1.00  0.00     0.135 A 
ATOM     12  C   UNL A   1      30.627  23.048  26.375  1.00  0.00     0.042 A 
ATOM     13  C   UNL A   1      31.978  24.687  25.310  1.00  0.00     0.019 A 
ATOM     14  O   UNL A   1      32.970  24.283  23.164  1.00  0.00    -0.475 OA
ATOM     15  Cl  UNL A   1      29.445  22.605  27.539  1.00  0.00    -0.084 Cl
ATOM     16  C   UNL A   1      31.131  24.331  26.354  1.00  0.00     0.032 A 
ATOM     17  C   UNL A   1      32.303  26.114  25.095  1.00  0.00     0.025 C 
ATOM     18  C   UNL A   1      32.361  25.582  22.728  1.00  0.00     0.314 C 
BRANCH   9  19
ATOM     19  C   UNL A   1      32.816  21.212  23.978  1.00  0.00    -0.015 A 
ATOM     20  C   UNL A   1      33.651  18.509  24.153  1.00  0.00     0.067 A 
ATOM     21  C   UNL A   1      32.533  18.850  23.387  1.00  0.00     0.021 A 
ATOM     22  C   UNL A   1      34.437  19.512  24.716  1.00  0.00     0.021 A 
ATOM     23  C   UNL A   1      32.136  20.191  23.279  1.00  0.00     0.010 A 
ATOM     24  C   UNL A   1      34.026  20.856  24.613  1.00  0.00     0.010 A 
BRANCH  20  25
ATOM     25  S   UNL A   1      33.914  16.773  24.466  1.00  0.00     0.175 S 
ATOM     26  C   UNL A   1      32.583  16.170  25.462  1.00  0.00     0.163 C 
ATOM     27  O   UNL A   1      35.124  16.678  25.258  1.00  0.00    -0.224 OA
ATOM     28  O   UNL A   1      33.811  16.110  23.177  1.00  0.00    -0.224 OA
ENDBRANCH  20  25
ENDBRANCH   9  19
BRANCH  18  29
ATOM     29  C   UNL A   1      33.358  26.476  21.954  1.00  0.00     0.429 C 
ATOM     30  F   UNL A   1      33.111  27.795  22.112  1.00  0.00    -0.167 F 
ATOM     31  F   UNL A   1      34.633  26.244  22.346  1.00  0.00    -0.167 F 
ATOM     32  F   UNL A   1      33.332  26.240  20.614  1.00  0.00    -0.167 F 
ENDBRANCH  18  29
ENDBRANCH   5   8
ENDBRANCH   3   4
ENDBRANCH   2   3
ENDBRANCH   1   2
BRANCH   1  33
ATOM     33  C   UNL A   1      31.705  30.404  26.729  1.00  0.00     0.002 C 
BRANCH  33  34
ATOM     34  C   UNL A   1      31.522  31.921  26.712  1.00  0.00     0.021 C 
BRANCH  34  35
ATOM     35  C   UNL A   1      32.750  32.711  27.147  1.00  0.00     0.116 C 
BRANCH  35  36
ATOM     36  N   UNL A   1      32.427  34.078  27.526  1.00  0.00    -0.352 N 
ATOM     37  C   UNL A   1      32.972  34.847  28.523  1.00  0.00     0.251 C 
ATOM     38  H   UNL A   1      31.721  34.511  26.994  1.00  0.00     0.163 HD
ATOM     39  O   UNL A   1      32.472  35.929  28.820  1.00  0.00    -0.269 OA
BRANCH  37  40
ATOM     40  C   UNL A   1      34.152  34.352  29.260  1.00  0.00     0.039 A 
ATOM     41  C   UNL A   1      33.958  33.639  30.446  1.00  0.00     0.014 A 
ATOM     42  C   UNL A   1      35.443  34.575  28.773  1.00  0.00     0.014 A 
ATOM     43  C   UNL A   1      35.057  33.098  31.111  1.00  0.00     0.010 A 
ATOM     44  C   UNL A   1      36.529  33.966  29.393  1.00  0.00     0.010 A 
ATOM     45  C   UNL A   1      36.348  33.226  30.571  1.00  0.00    -0.014 A 
BRANCH  45  46
ATOM     46  C   UNL A   1      37.520  32.594  31.226  1.00  0.00     0.031 A 
ATOM     47  C   UNL A   1      38.245  31.464  30.552  1.00  0.00     0.074 A 
ATOM     48  C   UNL A   1      37.892  32.994  32.456  1.00  0.00     0.049 A 
ATOM     49  N   UNL A   1      39.249  30.745  30.987  1.00  0.00    -0.248 NA
ATOM     50  C   UNL A   1      37.756  31.069  29.222  1.00  0.00     0.031 C 
ATOM     51  C   UNL A   1      37.231  34.041  33.238  1.00  0.00     0.029 A 
ATOM     52  N   UNL A   1      38.906  32.559  33.272  1.00  0.00    -0.354 N 
ATOM     53  C   UNL A   1      39.506  29.814  29.991  1.00  0.00     0.074 A 
ATOM     54  C   UNL A   1      38.508  30.010  28.962  1.00  0.00     0.031 C 
ATOM     55  C   UNL A   1      37.867  34.177  34.413  1.00  0.00     0.029 A 
ATOM     56  C   UNL A   1      38.951  33.203  34.485  1.00  0.00     0.049 A 
ATOM     57  H   UNL A   1      39.541  31.852  33.014  1.00  0.00     0.167 HD
ATOM     58  C   UNL A   1      40.499  28.895  29.925  1.00  0.00     0.037 A 
ATOM     59  C   UNL A   1      39.767  33.021  35.540  1.00  0.00     0.037 A 
ATOM     60  C   UNL A   1      41.492  28.708  30.951  1.00  0.00     0.049 A 
ATOM     61  C   UNL A   1      40.856  31.986  35.455  1.00  0.00     0.074 A 
ATOM     62  C   UNL A   1      42.570  27.840  30.962  1.00  0.00     0.029 A 
ATOM     63  N   UNL A   1      41.520  29.394  32.157  1.00  0.00    -0.354 N 
ATOM     64  N   UNL A   1      41.137  31.161  34.476  1.00  0.00    -0.248 NA
ATOM     65  C   UNL A   1      41.748  31.866  36.615  1.00  0.00     0.031 C 
ATOM     66  C   UNL A   1      43.216  27.961  32.198  1.00  0.00     0.029 A 
ATOM     67  C   UNL A   1      42.580  28.950  32.932  1.00  0.00     0.049 A 
ATOM     68  H   UNL A   1      40.881  30.094  32.424  1.00  0.00     0.167 HD
ATOM     69  C   UNL A   1      42.249  30.439  34.890  1.00  0.00     0.074 A 
ATOM     70  C   UNL A   1      42.602  30.940  36.203  1.00  0.00     0.031 C 
ATOM     71  C   UNL A   1      42.918  29.454  34.241  1.00  0.00     0.037 A 
BRANCH  58  72
ATOM     72  C   UNL A   1      40.553  28.023  28.701  1.00  0.00     0.064 A 
ATOM     73  C   UNL A   1      39.847  26.812  28.627  1.00  0.00     0.173 A 
ATOM     74  C   UNL A   1      41.317  28.402  27.587  1.00  0.00     0.173 A 
ATOM     75  F   UNL A   1      39.108  26.395  29.666  1.00  0.00    -0.203 F 
ATOM     76  C   UNL A   1      39.941  25.992  27.505  1.00  0.00     0.198 A 
ATOM     77  C   UNL A   1      41.378  27.598  26.452  1.00  0.00     0.198 A 
ATOM     78  F   UNL A   1      42.006  29.553  27.597  1.00  0.00    -0.203 F 
ATOM     79  F   UNL A   1      39.314  24.807  27.488  1.00  0.00    -0.200 F 
ATOM     80  C   UNL A   1      40.703  26.388  26.416  1.00  0.00     0.200 A 
ATOM     81  F   UNL A   1      42.102  27.990  25.393  1.00  0.00    -0.200 F 
ATOM     82  F   UNL A   1      40.794  25.598  25.338  1.00  0.00    -0.200 F 
ENDBRANCH  58  72
BRANCH  59  83
ATOM     83  C   UNL A   1      39.584  33.849  36.760  1.00  0.00     0.064 A 
ATOM     84  C   UNL A   1      40.155  35.125  36.862  1.00  0.00     0.173 A 
ATOM     85  C   UNL A   1      38.815  33.390  37.840  1.00  0.00     0.173 A 
ATOM     86  F   UNL A   1      40.914  35.601  35.864  1.00  0.00    -0.203 F 
ATOM     87  C   UNL A   1      39.976  35.904  38.004  1.00  0.00     0.198 A 
ATOM     88  C   UNL A   1      38.611  34.182  38.968  1.00  0.00     0.198 A 
ATOM     89  F   UNL A   1      38.241  32.180  37.789  1.00  0.00    -0.203 F 
ATOM     90  F   UNL A   1      40.565  37.104  38.092  1.00  0.00    -0.200 F 
ATOM     91  C   UNL A   1      39.198  35.436  39.051  1.00  0.00     0.200 A 
ATOM     92  F   UNL A   1      37.842  33.734  39.969  1.00  0.00    -0.200 F 
ATOM     93  F   UNL A   1      39.014  36.191  40.143  1.00  0.00    -0.200 F 
ENDBRANCH  59  83
BRANCH  71  94
ATOM     94  C   UNL A   1      44.117  28.867  34.929  1.00  0.00     0.064 A 
ATOM     95  C   UNL A   1      44.004  27.797  35.830  1.00  0.00     0.173 A 
ATOM     96  C   UNL A   1      45.404  29.356  34.652  1.00  0.00     0.173 A 
ATOM     97  F   UNL A   1      42.797  27.302  36.142  1.00  0.00    -0.203 F 
ATOM     98  C   UNL A   1      45.130  27.259  36.447  1.00  0.00     0.198 A 
ATOM     99  C   UNL A   1      46.530  28.792  35.244  1.00  0.00     0.198 A 
ATOM    100  F   UNL A   1      45.571  30.373  33.792  1.00  0.00    -0.203 F 
ATOM    101  F   UNL A   1      44.992  26.272  37.345  1.00  0.00    -0.200 F 
ATOM    102  C   UNL A   1      46.391  27.750  36.148  1.00  0.00     0.200 A 
ATOM    103  F   UNL A   1      47.750  29.258  34.941  1.00  0.00    -0.200 F 
ATOM    104  F   UNL A   1      47.475  27.224  36.737  1.00  0.00    -0.200 F 
ENDBRANCH  71  94
ENDBRANCH  45  46
ENDBRANCH  37  40
ENDBRANCH  35  36
ENDBRANCH  34  35
ENDBRANCH  33  34
ENDBRANCH   1  33
TORSDOF 16
ENDMDL
MODEL 3
REMARK VINA RESULT:     -13.7      5.775     11.309
REMARK SMILES CS(=O)(=O)c1ccc(-c2cc(Cl)cc3c2O[C@H](C(F)(F)F)C(C(=O)NCCCCCCNC(=O)c2ccc(-c4c5nc(c(-c6c(F)c(F)c(F)c(F)c6F)c6ccc([nH]6)c(-c6c(F)c(F)c(F)c(F)c6F)c6nc(c(-c7c(F)c(F)c(F)c(F)c7F)c7ccc4[nH]7)C=C6)C=C5)cc2)=C3)cc1
REMARK SMILES IDX 28 1 27 2 26 3 25 4 23 5 24 6 22 8 9 9 10 10 15 11 11 12
REMARK SMILES IDX 14 13 16 14 12 15 13 16 98 17 17 18 8 19 5 20 6 21 100 22
REMARK SMILES IDX 7 23 99 24 2 25 1 26 3 27 4 28 18 29 19 30 20 31 21 32 29 33
REMARK SMILES IDX 30 34 31 35 32 36 33 37 34 39 35 40 36 41 97 42 37 43 96 44
REMARK SMILES IDX 38 45 39 46 40 47 90 48 41 49 95 50 89 51 91 52 42 53 94 54
REMARK SMILES IDX 88 55 87 56 43 58 75 59 55 60 74 61 56 62 59 63 73 64 92 65
REMARK SMILES IDX 57 66 58 67 72 69 93 70 60 71 44 72 45 73 53 74 46 75 47 76
REMARK SMILES IDX 51 77 54 78 48 79 49 80 52 81 50 82 76 83 77 84 85 85 78 86
REMARK SMILES IDX 79 87 83 88 86 89 80 90 81 91 84 92 82 93 61 94 62 95 70 96
REMARK SMILES IDX 63 97 64 98 68 99 71 100 65 101 66 102 69 103 67 104
REMARK H PARENT 25 7 32 38 91 57 59 68
REMARK Flexibility Score: inf
ROOT
ATOM      1  C   UNL A   1      31.786  29.817  25.909  1.00  0.00     0.002 C 
ENDROOT
BRANCH   1   2
ATOM      2  C   UNL A   1      31.905  29.110  24.548  1.00  0.00     0.021 C 
BRANCH   2   3
ATOM      3  C   UNL A   1      33.336  29.001  24.001  1.00  0.00     0.116 C 
BRANCH   3   4
ATOM      4  N   UNL A   1      33.982  27.820  24.535  1.00  0.00    -0.352 N 
ATOM      5  C   UNL A   1      33.328  26.685  24.893  1.00  0.00     0.251 C 
ATOM      6  O   UNL A   1      33.474  26.213  26.013  1.00  0.00    -0.270 OA
ATOM      7  H   UNL A   1      34.960  27.841  24.646  1.00  0.00     0.163 HD
BRANCH   5   8
ATOM      8  C   UNL A   1      32.582  25.989  23.803  1.00  0.00     0.067 C 
ATOM      9  C   UNL A   1      33.566  22.149  24.687  1.00  0.00     0.026 A 
ATOM     10  C   UNL A   1      34.948  22.175  25.019  1.00  0.00     0.033 A 
ATOM     11  C   UNL A   1      33.058  23.304  24.068  1.00  0.00     0.135 A 
ATOM     12  C   UNL A   1      35.808  23.176  24.573  1.00  0.00     0.042 A 
ATOM     13  C   UNL A   1      33.967  24.244  23.517  1.00  0.00     0.019 A 
ATOM     14  O   UNL A   1      31.706  23.627  24.028  1.00  0.00    -0.475 OA
ATOM     15  Cl  UNL A   1      37.464  23.143  25.027  1.00  0.00    -0.084 Cl
ATOM     16  C   UNL A   1      35.337  24.171  23.744  1.00  0.00     0.032 A 
ATOM     17  C   UNL A   1      33.401  25.453  22.878  1.00  0.00     0.025 C 
ATOM     18  C   UNL A   1      31.450  25.085  24.272  1.00  0.00     0.314 C 
BRANCH   9  19
ATOM     19  C   UNL A   1      32.942  20.799  24.796  1.00  0.00    -0.015 A 
ATOM     20  C   UNL A   1      33.015  17.972  24.604  1.00  0.00     0.067 A 
ATOM     21  C   UNL A   1      33.243  18.599  25.833  1.00  0.00     0.021 A 
ATOM     22  C   UNL A   1      32.615  18.729  23.505  1.00  0.00     0.021 A 
ATOM     23  C   UNL A   1      33.180  19.996  25.932  1.00  0.00     0.010 A 
ATOM     24  C   UNL A   1      32.566  20.133  23.609  1.00  0.00     0.010 A 
BRANCH  20  25
ATOM     25  S   UNL A   1      33.391  16.232  24.506  1.00  0.00     0.175 S 
ATOM     26  C   UNL A   1      34.860  15.917  25.440  1.00  0.00     0.163 C 
ATOM     27  O   UNL A   1      33.696  15.956  23.116  1.00  0.00    -0.224 OA
ATOM     28  O   UNL A   1      32.306  15.545  25.183  1.00  0.00    -0.224 OA
ENDBRANCH  20  25
ENDBRANCH   9  19
BRANCH  18  29
ATOM     29  C   UNL A   1      30.149  25.581  23.597  1.00  0.00     0.429 C 
ATOM     30  F   UNL A   1      30.352  26.641  22.784  1.00  0.00    -0.167 F 
ATOM     31  F   UNL A   1      29.572  24.600  22.862  1.00  0.00    -0.167 F 
ATOM     32  F   UNL A   1      29.210  25.967  24.503  1.00  0.00    -0.167 F 
ENDBRANCH  18  29
ENDBRANCH   5   8
ENDBRANCH   3   4
ENDBRANCH   2   3
ENDBRANCH   1   2
BRANCH   1  33
ATOM     33  C   UNL A   1      31.291  31.263  25.844  1.00  0.00     0.002 C 
BRANCH  33  34
ATOM     34  C   UNL A   1      31.418  32.036  27.156  1.00  0.00     0.021 C 
BRANCH  34  35
ATOM     35  C   UNL A   1      32.695  32.858  27.285  1.00  0.00     0.116 C 
BRANCH  35  36
ATOM     36  N   UNL A   1      32.430  34.249  27.618  1.00  0.00    -0.352 N 
ATOM     37  C   UNL A   1      33.006  35.027  28.590  1.00  0.00     0.251 C 
ATOM     38  H   UNL A   1      31.744  34.694  27.069  1.00  0.00     0.163 HD
ATOM     39  O   UNL A   1      32.552  36.138  28.850  1.00  0.00    -0.269 OA
BRANCH  37  40
ATOM     40  C   UNL A   1      34.162  34.507  29.346  1.00  0.00     0.039 A 
ATOM     41  C   UNL A   1      33.941  33.893  30.582  1.00  0.00     0.014 A 
ATOM     42  C   UNL A   1      35.457  34.608  28.830  1.00  0.00     0.014 A 
ATOM     43  C   UNL A   1      35.012  33.327  31.271  1.00  0.00     0.010 A 
ATOM     44  C   UNL A   1      36.510  33.972  29.479  1.00  0.00     0.010 A 
ATOM     45  C   UNL A   1      36.300  33.330  30.709  1.00  0.00    -0.014 A 
BRANCH  45  46
ATOM     46  C   UNL A   1      37.438  32.668  31.394  1.00  0.00     0.031 A 
ATOM     47  C   UNL A   1      38.126  31.495  30.755  1.00  0.00     0.074 A 
ATOM     48  C   UNL A   1      37.810  33.082  32.619  1.00  0.00     0.049 A 
ATOM     49  N   UNL A   1      39.096  30.749  31.219  1.00  0.00    -0.248 NA
ATOM     50  C   UNL A   1      37.639  31.089  29.428  1.00  0.00     0.031 C 
ATOM     51  C   UNL A   1      37.182  34.172  33.368  1.00  0.00     0.029 A 
ATOM     52  N   UNL A   1      38.796  32.627  33.458  1.00  0.00    -0.354 N 
ATOM     53  C   UNL A   1      39.328  29.785  30.248  1.00  0.00     0.074 A 
ATOM     54  C   UNL A   1      38.351  29.996  29.202  1.00  0.00     0.031 C 
ATOM     55  C   UNL A   1      37.807  34.310  34.548  1.00  0.00     0.029 A 
ATOM     56  C   UNL A   1      38.852  33.297  34.656  1.00  0.00     0.049 A 
ATOM     57  H   UNL A   1      39.406  31.890  33.224  1.00  0.00     0.167 HD
ATOM     58  C   UNL A   1      40.286  28.827  30.215  1.00  0.00     0.037 A 
ATOM     59  C   UNL A   1      39.647  33.107  35.726  1.00  0.00     0.037 A 
ATOM     60  C   UNL A   1      41.258  28.625  31.259  1.00  0.00     0.049 A 
ATOM     61  C   UNL A   1      40.696  32.029  35.678  1.00  0.00     0.074 A 
ATOM     62  C   UNL A   1      42.301  27.717  31.304  1.00  0.00     0.029 A 
ATOM     63  N   UNL A   1      41.298  29.338  32.449  1.00  0.00    -0.354 N 
ATOM     64  N   UNL A   1      40.956  31.171  34.722  1.00  0.00    -0.248 NA
ATOM     65  C   UNL A   1      41.568  31.902  36.852  1.00  0.00     0.031 C 
ATOM     66  C   UNL A   1      42.935  27.840  32.545  1.00  0.00     0.029 A 
ATOM     67  C   UNL A   1      42.330  28.871  33.248  1.00  0.00     0.049 A 
ATOM     68  H   UNL A   1      40.684  30.068  32.692  1.00  0.00     0.167 HD
ATOM     69  C   UNL A   1      42.034  30.416  35.167  1.00  0.00     0.074 A 
ATOM     70  C   UNL A   1      42.390  30.934  36.473  1.00  0.00     0.031 C 
ATOM     71  C   UNL A   1      42.671  29.391  34.549  1.00  0.00     0.037 A 
BRANCH  58  72
ATOM     72  C   UNL A   1      40.320  27.926  29.013  1.00  0.00     0.064 A 
ATOM     73  C   UNL A   1      41.065  28.252  27.867  1.00  0.00     0.173 A 
ATOM     74  C   UNL A   1      39.602  26.721  29.003  1.00  0.00     0.173 A 
ATOM     75  F   UNL A   1      41.762  29.397  27.818  1.00  0.00    -0.203 F 
ATOM     76  C   UNL A   1      41.051  27.430  26.743  1.00  0.00     0.198 A 
ATOM     77  C   UNL A   1      39.622  25.882  27.891  1.00  0.00     0.198 A 
ATOM     78  F   UNL A   1      38.880  26.353  30.071  1.00  0.00    -0.203 F 
ATOM     79  F   UNL A   1      41.713  27.799  25.637  1.00  0.00    -0.200 F 
ATOM     80  C   UNL A   1      40.334  26.243  26.757  1.00  0.00     0.200 A 
ATOM     81  F   UNL A   1      38.942  24.727  27.912  1.00  0.00    -0.200 F 
ATOM     82  F   UNL A   1      40.321  25.454  25.675  1.00  0.00    -0.200 F 
ENDBRANCH  58  72
BRANCH  59  83
ATOM     83  C   UNL A   1      39.482  33.970  36.924  1.00  0.00     0.064 A 
ATOM     84  C   UNL A   1      38.740  33.538  38.032  1.00  0.00     0.173 A 
ATOM     85  C   UNL A   1      40.084  35.235  36.996  1.00  0.00     0.173 A 
ATOM     86  F   UNL A   1      38.130  32.344  38.005  1.00  0.00    -0.203 F 
ATOM     87  C   UNL A   1      38.594  34.345  39.159  1.00  0.00     0.198 A 
ATOM     88  C   UNL A   1      39.964  36.027  38.135  1.00  0.00     0.198 A 
ATOM     89  F   UNL A   1      40.812  35.691  35.967  1.00  0.00    -0.203 F 
ATOM     90  F   UNL A   1      37.846  33.924  40.188  1.00  0.00    -0.200 F 
ATOM     91  C   UNL A   1      39.212  35.584  39.213  1.00  0.00     0.200 A 
ATOM     92  F   UNL A   1      40.579  37.216  38.191  1.00  0.00    -0.200 F 
ATOM     93  F   UNL A   1      39.083  36.353  40.302  1.00  0.00    -0.200 F 
ENDBRANCH  59  83
BRANCH  71  94
ATOM     94  C   UNL A   1      43.838  28.774  35.266  1.00  0.00     0.064 A 
ATOM     95  C   UNL A   1      45.153  29.218  35.059  1.00  0.00     0.173 A 
ATOM     96  C   UNL A   1      43.633  27.749  36.204  1.00  0.00     0.173 A 
ATOM     97  F   UNL A   1      45.406  30.184  34.163  1.00  0.00    -0.203 F 
ATOM     98  C   UNL A   1      46.220  28.641  35.743  1.00  0.00     0.198 A 
ATOM     99  C   UNL A   1      44.698  27.199  36.911  1.00  0.00     0.198 A 
ATOM    100  F   UNL A   1      42.395  27.291  36.446  1.00  0.00    -0.203 F 
ATOM    101  F   UNL A   1      47.472  29.046  35.491  1.00  0.00    -0.200 F 
ATOM    102  C   UNL A   1      45.991  27.639  36.674  1.00  0.00     0.200 A 
ATOM    103  F   UNL A   1      44.473  26.242  37.822  1.00  0.00    -0.200 F 
ATOM    104  F   UNL A   1      47.019  27.091  37.338  1.00  0.00    -0.200 F 
ENDBRANCH  71  94
ENDBRANCH  45  46
ENDBRANCH  37  40
ENDBRANCH  35  36
ENDBRANCH  34  35
ENDBRANCH  33  34
ENDBRANCH   1  33
TORSDOF 16
ENDMDL
