MODEL 1
REMARK VINA RESULT:     -12.2      0.000      0.000
REMARK SMILES Cc1ccc(C(=O)[C@@H]2CCC[C@H]2C(=O)NCCCCCCNC(=O)c2ccc(-c3c4nc(c(-c5c(F)c(F)c(F)c(F)c5F)c5ccc([nH]5)c(-c5c(F)c(F)c(F)c(F)c5F)c5nc(c(-c6c(F)c(F)c(F)c(F)c6F)c6ccc3[nH]6)C=C5)C=C4)cc2)c(C)c1
REMARK SMILES IDX 18 1 17 2 16 3 15 4 13 5 14 6 12 8 8 9 9 10 10 11 11 12 6 13
REMARK SMILES IDX 7 14 5 15 1 16 2 17 3 18 90 19 4 20 88 21 89 22 19 23 20 24
REMARK SMILES IDX 21 25 22 26 23 27 24 29 25 30 26 31 87 32 27 33 86 34 28 35
REMARK SMILES IDX 29 36 30 37 80 38 31 39 85 40 79 41 81 42 32 43 84 44 78 45
REMARK SMILES IDX 77 46 33 48 65 49 45 50 64 51 46 52 49 53 63 54 82 55 47 56
REMARK SMILES IDX 48 57 62 59 83 60 50 61 34 62 35 63 43 64 36 65 37 66 41 67
REMARK SMILES IDX 44 68 38 69 39 70 42 71 40 72 66 73 67 74 75 75 68 76 69 77
REMARK SMILES IDX 73 78 76 79 70 80 71 81 74 82 72 83 51 84 52 85 60 86 53 87
REMARK SMILES IDX 54 88 58 89 61 90 55 91 56 92 59 93 57 94
REMARK H PARENT 15 7 22 28 81 47 49 58
REMARK Flexibility Score: inf
ROOT
ATOM      1  C   UNL A   1      32.038  29.495  26.585  1.00  0.00     0.002 C 
ENDROOT
BRANCH   1   2
ATOM      2  C   UNL A   1      33.443  29.048  26.160  1.00  0.00     0.021 C 
BRANCH   2   3
ATOM      3  C   UNL A   1      33.768  27.591  26.491  1.00  0.00     0.116 C 
BRANCH   3   4
ATOM      4  N   UNL A   1      32.562  26.847  26.790  1.00  0.00    -0.356 N 
ATOM      5  C   UNL A   1      32.129  25.626  26.390  1.00  0.00     0.223 C 
ATOM      6  O   UNL A   1      30.995  25.291  26.741  1.00  0.00    -0.275 OA
ATOM      7  H   UNL A   1      31.942  27.314  27.395  1.00  0.00     0.163 HD
BRANCH   5   8
ATOM      8  C   UNL A   1      32.981  24.665  25.575  1.00  0.00     0.089 C 
ATOM      9  C   UNL A   1      33.940  25.320  24.579  1.00  0.00     0.073 C 
ATOM     10  C   UNL A   1      35.093  24.327  24.438  1.00  0.00     0.013 C 
ATOM     11  C   UNL A   1      35.218  23.664  25.799  1.00  0.00     0.002 C 
ATOM     12  C   UNL A   1      33.840  23.737  26.447  1.00  0.00     0.014 C 
BRANCH   9  13
ATOM     13  C   UNL A   1      33.420  25.757  23.210  1.00  0.00     0.167 C 
ATOM     14  O   UNL A   1      33.790  25.134  22.212  1.00  0.00    -0.294 OA
BRANCH  13  15
ATOM     15  C   UNL A   1      32.419  26.854  23.027  1.00  0.00     0.021 A 
ATOM     16  C   UNL A   1      29.471  29.892  22.158  1.00  0.00     0.044 C 
ATOM     17  C   UNL A   1      30.487  28.841  22.492  1.00  0.00    -0.051 A 
ATOM     18  C   UNL A   1      30.092  27.544  22.813  1.00  0.00     0.004 A 
ATOM     19  C   UNL A   1      31.853  29.140  22.434  1.00  0.00     0.007 A 
ATOM     20  C   UNL A   1      31.048  26.559  23.064  1.00  0.00     0.012 A 
ATOM     21  C   UNL A   1      32.832  28.166  22.715  1.00  0.00    -0.040 A 
ATOM     22  C   UNL A   1      34.276  28.578  22.599  1.00  0.00     0.045 C 
ENDBRANCH  13  15
ENDBRANCH   9  13
ENDBRANCH   5   8
ENDBRANCH   3   4
ENDBRANCH   2   3
ENDBRANCH   1   2
BRANCH   1  23
ATOM     23  C   UNL A   1      31.411  30.593  25.719  1.00  0.00     0.002 C 
BRANCH  23  24
ATOM     24  C   UNL A   1      31.252  31.953  26.404  1.00  0.00     0.021 C 
BRANCH  24  25
ATOM     25  C   UNL A   1      32.497  32.456  27.126  1.00  0.00     0.116 C 
BRANCH  25  26
ATOM     26  N   UNL A   1      32.379  33.849  27.518  1.00  0.00    -0.352 N 
ATOM     27  C   UNL A   1      33.068  34.542  28.476  1.00  0.00     0.251 C 
ATOM     28  H   UNL A   1      31.707  34.370  27.022  1.00  0.00     0.163 HD
ATOM     29  O   UNL A   1      32.708  35.678  28.788  1.00  0.00    -0.269 OA
BRANCH  27  30
ATOM     30  C   UNL A   1      34.237  33.938  29.150  1.00  0.00     0.039 A 
ATOM     31  C   UNL A   1      35.516  34.382  28.798  1.00  0.00     0.014 A 
ATOM     32  C   UNL A   1      34.089  32.901  30.078  1.00  0.00     0.014 A 
ATOM     33  C   UNL A   1      36.641  33.802  29.387  1.00  0.00     0.010 A 
ATOM     34  C   UNL A   1      35.209  32.371  30.716  1.00  0.00     0.010 A 
ATOM     35  C   UNL A   1      36.495  32.797  30.357  1.00  0.00    -0.014 A 
BRANCH  35  36
ATOM     36  C   UNL A   1      37.685  32.138  30.948  1.00  0.00     0.031 A 
ATOM     37  C   UNL A   1      38.138  32.510  32.333  1.00  0.00     0.074 A 
ATOM     38  C   UNL A   1      38.369  31.222  30.237  1.00  0.00     0.049 A 
ATOM     39  N   UNL A   1      39.152  32.056  33.025  1.00  0.00    -0.248 NA
ATOM     40  C   UNL A   1      37.360  33.550  33.024  1.00  0.00     0.031 C 
ATOM     41  C   UNL A   1      38.050  30.804  28.872  1.00  0.00     0.029 A 
ATOM     42  N   UNL A   1      39.471  30.475  30.567  1.00  0.00    -0.354 N 
ATOM     43  C   UNL A   1      39.139  32.763  34.221  1.00  0.00     0.074 A 
ATOM     44  C   UNL A   1      38.054  33.716  34.138  1.00  0.00     0.031 C 
ATOM     45  C   UNL A   1      38.918  29.849  28.493  1.00  0.00     0.029 A 
ATOM     46  C   UNL A   1      39.864  29.608  29.579  1.00  0.00     0.049 A 
ATOM     47  H   UNL A   1      39.936  30.553  31.432  1.00  0.00     0.167 HD
ATOM     48  C   UNL A   1      39.941  32.613  35.303  1.00  0.00     0.037 A 
ATOM     49  C   UNL A   1      40.868  28.711  29.559  1.00  0.00     0.037 A 
ATOM     50  C   UNL A   1      41.002  31.646  35.394  1.00  0.00     0.049 A 
ATOM     51  C   UNL A   1      41.738  28.555  30.776  1.00  0.00     0.074 A 
ATOM     52  C   UNL A   1      41.850  31.387  36.457  1.00  0.00     0.029 A 
ATOM     53  N   UNL A   1      41.358  30.771  34.378  1.00  0.00    -0.354 N 
ATOM     54  N   UNL A   1      41.682  29.189  31.922  1.00  0.00    -0.248 NA
ATOM     55  C   UNL A   1      42.804  27.547  30.700  1.00  0.00     0.031 C 
ATOM     56  C   UNL A   1      42.738  30.376  36.072  1.00  0.00     0.029 A 
ATOM     57  C   UNL A   1      42.417  29.976  34.785  1.00  0.00     0.049 A 
ATOM     58  H   UNL A   1      40.921  30.722  33.496  1.00  0.00     0.167 HD
ATOM     59  C   UNL A   1      42.676  28.633  32.715  1.00  0.00     0.074 A 
ATOM     60  C   UNL A   1      43.316  27.605  31.921  1.00  0.00     0.031 C 
ATOM     61  C   UNL A   1      43.027  28.944  33.987  1.00  0.00     0.037 A 
BRANCH  48  62
ATOM     62  C   UNL A   1      39.689  33.516  36.475  1.00  0.00     0.064 A 
ATOM     63  C   UNL A   1      40.327  34.762  36.591  1.00  0.00     0.173 A 
ATOM     64  C   UNL A   1      38.800  33.139  37.491  1.00  0.00     0.173 A 
ATOM     65  F   UNL A   1      41.198  35.164  35.653  1.00  0.00    -0.203 F 
ATOM     66  C   UNL A   1      40.109  35.579  37.697  1.00  0.00     0.198 A 
ATOM     67  C   UNL A   1      38.561  33.973  38.581  1.00  0.00     0.198 A 
ATOM     68  F   UNL A   1      38.160  31.962  37.428  1.00  0.00    -0.203 F 
ATOM     69  F   UNL A   1      40.774  36.737  37.813  1.00  0.00    -0.200 F 
ATOM     70  C   UNL A   1      39.223  35.186  38.688  1.00  0.00     0.200 A 
ATOM     71  F   UNL A   1      37.697  33.597  39.533  1.00  0.00    -0.200 F 
ATOM     72  F   UNL A   1      39.016  35.973  39.753  1.00  0.00    -0.200 F 
ENDBRANCH  48  62
BRANCH  49  73
ATOM     73  C   UNL A   1      41.065  27.848  28.367  1.00  0.00     0.064 A 
ATOM     74  C   UNL A   1      41.911  28.254  27.325  1.00  0.00     0.173 A 
ATOM     75  C   UNL A   1      40.419  26.611  28.241  1.00  0.00     0.173 A 
ATOM     76  F   UNL A   1      42.536  29.438  27.393  1.00  0.00    -0.203 F 
ATOM     77  C   UNL A   1      42.089  27.461  26.193  1.00  0.00     0.198 A 
ATOM     78  C   UNL A   1      40.616  25.809  27.119  1.00  0.00     0.198 A 
ATOM     79  F   UNL A   1      39.603  26.179  29.213  1.00  0.00    -0.203 F 
ATOM     80  F   UNL A   1      42.872  27.891  25.194  1.00  0.00    -0.200 F 
ATOM     81  C   UNL A   1      41.445  26.237  26.093  1.00  0.00     0.200 A 
ATOM     82  F   UNL A   1      40.003  24.622  27.031  1.00  0.00    -0.200 F 
ATOM     83  F   UNL A   1      41.619  25.474  25.005  1.00  0.00    -0.200 F 
ENDBRANCH  49  73
BRANCH  61  84
ATOM     84  C   UNL A   1      44.117  28.128  34.615  1.00  0.00     0.064 A 
ATOM     85  C   UNL A   1      43.851  26.910  35.257  1.00  0.00     0.173 A 
ATOM     86  C   UNL A   1      45.451  28.559  34.547  1.00  0.00     0.173 A 
ATOM     87  F   UNL A   1      42.590  26.463  35.361  1.00  0.00    -0.203 F 
ATOM     88  C   UNL A   1      44.878  26.168  35.835  1.00  0.00     0.198 A 
ATOM     89  C   UNL A   1      46.478  27.800  35.101  1.00  0.00     0.198 A 
ATOM     90  F   UNL A   1      45.758  29.714  33.938  1.00  0.00    -0.203 F 
ATOM     91  F   UNL A   1      44.595  25.031  36.487  1.00  0.00    -0.200 F 
ATOM     92  C   UNL A   1      46.189  26.610  35.751  1.00  0.00     0.200 A 
ATOM     93  F   UNL A   1      47.745  28.224  35.011  1.00  0.00    -0.200 F 
ATOM     94  F   UNL A   1      47.176  25.893  36.307  1.00  0.00    -0.200 F 
ENDBRANCH  61  84
ENDBRANCH  35  36
ENDBRANCH  27  30
ENDBRANCH  25  26
ENDBRANCH  24  25
ENDBRANCH  23  24
ENDBRANCH   1  23
TORSDOF 15
ENDMDL
MODEL 2
REMARK VINA RESULT:     -12.1      0.218      1.951
REMARK SMILES Cc1ccc(C(=O)[C@@H]2CCC[C@H]2C(=O)NCCCCCCNC(=O)c2ccc(-c3c4nc(c(-c5c(F)c(F)c(F)c(F)c5F)c5ccc([nH]5)c(-c5c(F)c(F)c(F)c(F)c5F)c5nc(c(-c6c(F)c(F)c(F)c(F)c6F)c6ccc3[nH]6)C=C5)C=C4)cc2)c(C)c1
REMARK SMILES IDX 18 1 17 2 16 3 15 4 13 5 14 6 12 8 8 9 9 10 10 11 11 12 6 13
REMARK SMILES IDX 7 14 5 15 1 16 2 17 3 18 90 19 4 20 88 21 89 22 19 23 20 24
REMARK SMILES IDX 21 25 22 26 23 27 24 29 25 30 26 31 87 32 27 33 86 34 28 35
REMARK SMILES IDX 29 36 30 37 80 38 31 39 85 40 79 41 81 42 32 43 84 44 78 45
REMARK SMILES IDX 77 46 33 48 65 49 45 50 64 51 46 52 49 53 63 54 82 55 47 56
REMARK SMILES IDX 48 57 62 59 83 60 50 61 34 62 35 63 43 64 36 65 37 66 41 67
REMARK SMILES IDX 44 68 38 69 39 70 42 71 40 72 66 73 67 74 75 75 68 76 69 77
REMARK SMILES IDX 73 78 76 79 70 80 71 81 74 82 72 83 51 84 52 85 60 86 53 87
REMARK SMILES IDX 54 88 58 89 61 90 55 91 56 92 59 93 57 94
REMARK H PARENT 15 7 22 28 81 47 49 58
REMARK Flexibility Score: inf
ROOT
ATOM      1  C   UNL A   1      31.776  29.337  26.745  1.00  0.00     0.002 C 
ENDROOT
BRANCH   1   2
ATOM      2  C   UNL A   1      33.267  28.978  26.792  1.00  0.00     0.021 C 
BRANCH   2   3
ATOM      3  C   UNL A   1      33.575  27.518  26.459  1.00  0.00     0.116 C 
BRANCH   3   4
ATOM      4  N   UNL A   1      32.470  26.659  26.829  1.00  0.00    -0.356 N 
ATOM      5  C   UNL A   1      32.139  25.399  26.455  1.00  0.00     0.223 C 
ATOM      6  O   UNL A   1      31.067  24.953  26.873  1.00  0.00    -0.275 OA
ATOM      7  H   UNL A   1      31.844  27.063  27.471  1.00  0.00     0.163 HD
BRANCH   5   8
ATOM      8  C   UNL A   1      33.032  24.524  25.587  1.00  0.00     0.089 C 
ATOM      9  C   UNL A   1      33.903  25.272  24.577  1.00  0.00     0.073 C 
ATOM     10  C   UNL A   1      35.122  24.373  24.373  1.00  0.00     0.013 C 
ATOM     11  C   UNL A   1      35.344  23.691  25.712  1.00  0.00     0.002 C 
ATOM     12  C   UNL A   1      33.987  23.644  26.407  1.00  0.00     0.014 C 
BRANCH   9  13
ATOM     13  C   UNL A   1      33.304  25.700  23.238  1.00  0.00     0.167 C 
ATOM     14  O   UNL A   1      33.648  25.097  22.218  1.00  0.00    -0.294 OA
BRANCH  13  15
ATOM     15  C   UNL A   1      32.258  26.762  23.111  1.00  0.00     0.021 A 
ATOM     16  C   UNL A   1      29.181  29.712  22.400  1.00  0.00     0.044 C 
ATOM     17  C   UNL A   1      30.242  28.690  22.679  1.00  0.00    -0.051 A 
ATOM     18  C   UNL A   1      29.903  27.366  22.949  1.00  0.00     0.004 A 
ATOM     19  C   UNL A   1      31.594  29.046  22.620  1.00  0.00     0.007 A 
ATOM     20  C   UNL A   1      30.901  26.411  23.149  1.00  0.00     0.012 A 
ATOM     21  C   UNL A   1      32.614  28.101  22.850  1.00  0.00    -0.040 A 
ATOM     22  C   UNL A   1      34.039  28.576  22.737  1.00  0.00     0.045 C 
ENDBRANCH  13  15
ENDBRANCH   9  13
ENDBRANCH   5   8
ENDBRANCH   3   4
ENDBRANCH   2   3
ENDBRANCH   1   2
BRANCH   1  23
ATOM     23  C   UNL A   1      31.404  30.464  25.775  1.00  0.00     0.002 C 
BRANCH  23  24
ATOM     24  C   UNL A   1      31.269  31.851  26.408  1.00  0.00     0.021 C 
BRANCH  24  25
ATOM     25  C   UNL A   1      32.579  32.472  26.877  1.00  0.00     0.116 C 
BRANCH  25  26
ATOM     26  N   UNL A   1      32.403  33.832  27.354  1.00  0.00    -0.352 N 
ATOM     27  C   UNL A   1      33.033  34.480  28.382  1.00  0.00     0.251 C 
ATOM     28  H   UNL A   1      31.733  34.365  26.868  1.00  0.00     0.163 HD
ATOM     29  O   UNL A   1      32.625  35.581  28.753  1.00  0.00    -0.269 OA
BRANCH  27  30
ATOM     30  C   UNL A   1      34.194  33.866  29.061  1.00  0.00     0.039 A 
ATOM     31  C   UNL A   1      35.479  34.274  28.687  1.00  0.00     0.014 A 
ATOM     32  C   UNL A   1      34.032  32.856  30.015  1.00  0.00     0.014 A 
ATOM     33  C   UNL A   1      36.597  33.684  29.280  1.00  0.00     0.010 A 
ATOM     34  C   UNL A   1      35.146  32.317  30.656  1.00  0.00     0.010 A 
ATOM     35  C   UNL A   1      36.438  32.706  30.275  1.00  0.00    -0.014 A 
BRANCH  35  36
ATOM     36  C   UNL A   1      37.619  32.035  30.872  1.00  0.00     0.031 A 
ATOM     37  C   UNL A   1      38.068  32.402  32.259  1.00  0.00     0.074 A 
ATOM     38  C   UNL A   1      38.297  31.113  30.164  1.00  0.00     0.049 A 
ATOM     39  N   UNL A   1      39.075  31.939  32.956  1.00  0.00    -0.248 NA
ATOM     40  C   UNL A   1      37.297  33.450  32.947  1.00  0.00     0.031 C 
ATOM     41  C   UNL A   1      37.982  30.699  28.797  1.00  0.00     0.029 A 
ATOM     42  N   UNL A   1      39.390  30.356  30.499  1.00  0.00    -0.354 N 
ATOM     43  C   UNL A   1      39.062  32.646  34.152  1.00  0.00     0.074 A 
ATOM     44  C   UNL A   1      37.987  33.609  34.064  1.00  0.00     0.031 C 
ATOM     45  C   UNL A   1      38.842  29.736  28.422  1.00  0.00     0.029 A 
ATOM     46  C   UNL A   1      39.781  29.486  29.512  1.00  0.00     0.049 A 
ATOM     47  H   UNL A   1      39.852  30.429  31.366  1.00  0.00     0.167 HD
ATOM     48  C   UNL A   1      39.857  32.487  35.238  1.00  0.00     0.037 A 
ATOM     49  C   UNL A   1      40.776  28.580  29.497  1.00  0.00     0.037 A 
ATOM     50  C   UNL A   1      40.909  31.511  35.334  1.00  0.00     0.049 A 
ATOM     51  C   UNL A   1      41.639  28.415  30.718  1.00  0.00     0.074 A 
ATOM     52  C   UNL A   1      41.750  31.243  36.401  1.00  0.00     0.029 A 
ATOM     53  N   UNL A   1      41.262  30.633  34.319  1.00  0.00    -0.354 N 
ATOM     54  N   UNL A   1      41.583  29.049  31.864  1.00  0.00    -0.248 NA
ATOM     55  C   UNL A   1      42.696  27.396  30.647  1.00  0.00     0.031 C 
ATOM     56  C   UNL A   1      42.630  30.224  36.020  1.00  0.00     0.029 A 
ATOM     57  C   UNL A   1      42.311  29.828  34.731  1.00  0.00     0.049 A 
ATOM     58  H   UNL A   1      40.829  30.589  33.435  1.00  0.00     0.167 HD
ATOM     59  C   UNL A   1      42.568  28.483  32.662  1.00  0.00     0.074 A 
ATOM     60  C   UNL A   1      43.202  27.449  31.871  1.00  0.00     0.031 C 
ATOM     61  C   UNL A   1      42.915  28.791  33.936  1.00  0.00     0.037 A 
BRANCH  48  62
ATOM     62  C   UNL A   1      39.609  33.392  36.409  1.00  0.00     0.064 A 
ATOM     63  C   UNL A   1      38.769  33.009  37.467  1.00  0.00     0.173 A 
ATOM     64  C   UNL A   1      40.219  34.653  36.481  1.00  0.00     0.173 A 
ATOM     65  F   UNL A   1      38.150  31.819  37.441  1.00  0.00    -0.203 F 
ATOM     66  C   UNL A   1      38.523  33.868  38.534  1.00  0.00     0.198 A 
ATOM     67  C   UNL A   1      39.993  35.498  37.565  1.00  0.00     0.198 A 
ATOM     68  F   UNL A   1      41.033  35.068  35.500  1.00  0.00    -0.203 F 
ATOM     69  F   UNL A   1      37.671  33.503  39.504  1.00  0.00    -0.200 F 
ATOM     70  C   UNL A   1      39.138  35.110  38.585  1.00  0.00     0.200 A 
ATOM     71  F   UNL A   1      40.597  36.693  37.618  1.00  0.00    -0.200 F 
ATOM     72  F   UNL A   1      38.898  35.936  39.613  1.00  0.00    -0.200 F 
ENDBRANCH  48  62
BRANCH  49  73
ATOM     73  C   UNL A   1      40.971  27.715  28.305  1.00  0.00     0.064 A 
ATOM     74  C   UNL A   1      40.304  26.487  28.198  1.00  0.00     0.173 A 
ATOM     75  C   UNL A   1      41.822  28.091  27.257  1.00  0.00     0.173 A 
ATOM     76  F   UNL A   1      39.495  26.077  29.185  1.00  0.00    -0.203 F 
ATOM     77  C   UNL A   1      40.494  25.659  27.094  1.00  0.00     0.198 A 
ATOM     78  C   UNL A   1      41.993  27.273  26.142  1.00  0.00     0.198 A 
ATOM     79  F   UNL A   1      42.480  29.259  27.312  1.00  0.00    -0.203 F 
ATOM     80  F   UNL A   1      39.875  24.472  27.036  1.00  0.00    -0.200 F 
ATOM     81  C   UNL A   1      41.335  26.055  26.065  1.00  0.00     0.200 A 
ATOM     82  F   UNL A   1      42.797  27.663  25.144  1.00  0.00    -0.200 F 
ATOM     83  F   UNL A   1      41.516  25.259  25.002  1.00  0.00    -0.200 F 
ENDBRANCH  49  73
BRANCH  61  84
ATOM     84  C   UNL A   1      43.995  27.963  34.569  1.00  0.00     0.064 A 
ATOM     85  C   UNL A   1      45.342  28.350  34.528  1.00  0.00     0.173 A 
ATOM     86  C   UNL A   1      43.670  26.780  35.250  1.00  0.00     0.173 A 
ATOM     87  F   UNL A   1      45.704  29.466  33.876  1.00  0.00    -0.203 F 
ATOM     88  C   UNL A   1      46.328  27.567  35.121  1.00  0.00     0.198 A 
ATOM     89  C   UNL A   1      44.655  26.015  35.866  1.00  0.00     0.198 A 
ATOM     90  F   UNL A   1      42.394  26.370  35.323  1.00  0.00    -0.203 F 
ATOM     91  F   UNL A   1      47.615  27.930  35.027  1.00  0.00    -0.200 F 
ATOM     92  C   UNL A   1      45.984  26.404  35.793  1.00  0.00     0.200 A 
ATOM     93  F   UNL A   1      44.320  24.896  36.523  1.00  0.00    -0.200 F 
ATOM     94  F   UNL A   1      46.935  25.653  36.364  1.00  0.00    -0.200 F 
ENDBRANCH  61  84
ENDBRANCH  35  36
ENDBRANCH  27  30
ENDBRANCH  25  26
ENDBRANCH  24  25
ENDBRANCH  23  24
ENDBRANCH   1  23
TORSDOF 15
ENDMDL
MODEL 3
REMARK VINA RESULT:     -12.0      1.040      7.409
REMARK SMILES Cc1ccc(C(=O)[C@@H]2CCC[C@H]2C(=O)NCCCCCCNC(=O)c2ccc(-c3c4nc(c(-c5c(F)c(F)c(F)c(F)c5F)c5ccc([nH]5)c(-c5c(F)c(F)c(F)c(F)c5F)c5nc(c(-c6c(F)c(F)c(F)c(F)c6F)c6ccc3[nH]6)C=C5)C=C4)cc2)c(C)c1
REMARK SMILES IDX 18 1 17 2 16 3 15 4 13 5 14 6 12 8 8 9 9 10 10 11 11 12 6 13
REMARK SMILES IDX 7 14 5 15 1 16 2 17 3 18 90 19 4 20 88 21 89 22 19 23 20 24
REMARK SMILES IDX 21 25 22 26 23 27 24 29 25 30 26 31 87 32 27 33 86 34 28 35
REMARK SMILES IDX 29 36 30 37 80 38 31 39 85 40 79 41 81 42 32 43 84 44 78 45
REMARK SMILES IDX 77 46 33 48 65 49 45 50 64 51 46 52 49 53 63 54 82 55 47 56
REMARK SMILES IDX 48 57 62 59 83 60 50 61 34 62 35 63 43 64 36 65 37 66 41 67
REMARK SMILES IDX 44 68 38 69 39 70 42 71 40 72 66 73 67 74 75 75 68 76 69 77
REMARK SMILES IDX 73 78 76 79 70 80 71 81 74 82 72 83 51 84 52 85 60 86 53 87
REMARK SMILES IDX 54 88 58 89 61 90 55 91 56 92 59 93 57 94
REMARK H PARENT 15 7 22 28 81 47 49 58
REMARK Flexibility Score: inf
ROOT
ATOM      1  C   UNL A   1      31.493  29.900  25.767  1.00  0.00     0.002 C 
ENDROOT
BRANCH   1   2
ATOM      2  C   UNL A   1      31.780  29.319  27.157  1.00  0.00     0.021 C 
BRANCH   2   3
ATOM      3  C   UNL A   1      32.339  27.895  27.141  1.00  0.00     0.116 C 
BRANCH   3   4
ATOM      4  N   UNL A   1      31.269  26.919  27.141  1.00  0.00    -0.356 N 
ATOM      5  C   UNL A   1      31.008  25.864  26.331  1.00  0.00     0.223 C 
ATOM      6  O   UNL A   1      29.950  25.258  26.523  1.00  0.00    -0.275 OA
ATOM      7  H   UNL A   1      30.611  27.044  27.861  1.00  0.00     0.163 HD
BRANCH   5   8
ATOM      8  C   UNL A   1      31.961  25.391  25.243  1.00  0.00     0.089 C 
ATOM      9  C   UNL A   1      32.258  26.409  24.142  1.00  0.00     0.073 C 
ATOM     10  C   UNL A   1      33.653  26.041  23.637  1.00  0.00     0.013 C 
ATOM     11  C   UNL A   1      34.388  25.502  24.853  1.00  0.00     0.002 C 
ATOM     12  C   UNL A   1      33.324  24.944  25.793  1.00  0.00     0.014 C 
BRANCH   9  13
ATOM     13  C   UNL A   1      31.277  26.570  22.981  1.00  0.00     0.167 C 
ATOM     14  O   UNL A   1      31.198  25.665  22.146  1.00  0.00    -0.294 OA
BRANCH  13  15
ATOM     15  C   UNL A   1      30.349  27.736  22.849  1.00  0.00     0.021 A 
ATOM     16  C   UNL A   1      27.823  31.241  22.768  1.00  0.00     0.044 C 
ATOM     17  C   UNL A   1      28.695  30.021  22.763  1.00  0.00    -0.051 A 
ATOM     18  C   UNL A   1      30.010  30.087  22.310  1.00  0.00     0.004 A 
ATOM     19  C   UNL A   1      28.210  28.808  23.266  1.00  0.00     0.007 A 
ATOM     20  C   UNL A   1      30.831  28.960  22.365  1.00  0.00     0.012 A 
ATOM     21  C   UNL A   1      29.015  27.652  23.301  1.00  0.00    -0.040 A 
ATOM     22  C   UNL A   1      28.411  26.402  23.885  1.00  0.00     0.045 C 
ENDBRANCH  13  15
ENDBRANCH   9  13
ENDBRANCH   5   8
ENDBRANCH   3   4
ENDBRANCH   2   3
ENDBRANCH   1   2
BRANCH   1  23
ATOM     23  C   UNL A   1      31.172  31.399  25.738  1.00  0.00     0.002 C 
BRANCH  23  24
ATOM     24  C   UNL A   1      31.389  32.139  27.060  1.00  0.00     0.021 C 
BRANCH  24  25
ATOM     25  C   UNL A   1      32.687  32.934  27.144  1.00  0.00     0.116 C 
BRANCH  25  26
ATOM     26  N   UNL A   1      32.467  34.298  27.590  1.00  0.00    -0.352 N 
ATOM     27  C   UNL A   1      33.017  34.963  28.653  1.00  0.00     0.251 C 
ATOM     28  H   UNL A   1      31.830  34.821  27.051  1.00  0.00     0.163 HD
ATOM     29  O   UNL A   1      32.576  36.065  28.980  1.00  0.00    -0.269 OA
BRANCH  27  30
ATOM     30  C   UNL A   1      34.130  34.366  29.421  1.00  0.00     0.039 A 
ATOM     31  C   UNL A   1      35.433  34.514  28.935  1.00  0.00     0.014 A 
ATOM     32  C   UNL A   1      33.899  33.615  30.579  1.00  0.00     0.014 A 
ATOM     33  C   UNL A   1      36.501  33.927  29.615  1.00  0.00     0.010 A 
ATOM     34  C   UNL A   1      34.972  33.088  31.295  1.00  0.00     0.010 A 
ATOM     35  C   UNL A   1      36.279  33.215  30.805  1.00  0.00    -0.014 A 
BRANCH  35  36
ATOM     36  C   UNL A   1      37.400  32.543  31.505  1.00  0.00     0.031 A 
ATOM     37  C   UNL A   1      38.137  31.417  30.833  1.00  0.00     0.074 A 
ATOM     38  C   UNL A   1      37.745  32.928  32.748  1.00  0.00     0.049 A 
ATOM     39  N   UNL A   1      39.138  30.698  31.275  1.00  0.00    -0.248 NA
ATOM     40  C   UNL A   1      37.669  31.030  29.493  1.00  0.00     0.031 C 
ATOM     41  C   UNL A   1      37.084  33.982  33.518  1.00  0.00     0.029 A 
ATOM     42  N   UNL A   1      38.740  32.480  33.579  1.00  0.00    -0.354 N 
ATOM     43  C   UNL A   1      39.407  29.772  30.275  1.00  0.00     0.074 A 
ATOM     44  C   UNL A   1      38.429  29.980  29.230  1.00  0.00     0.031 C 
ATOM     45  C   UNL A   1      37.713  34.122  34.698  1.00  0.00     0.029 A 
ATOM     46  C   UNL A   1      38.804  33.153  34.773  1.00  0.00     0.049 A 
ATOM     47  H   UNL A   1      39.350  31.745  33.342  1.00  0.00     0.167 HD
ATOM     48  C   UNL A   1      40.398  28.849  30.220  1.00  0.00     0.037 A 
ATOM     49  C   UNL A   1      39.656  33.012  35.805  1.00  0.00     0.037 A 
ATOM     50  C   UNL A   1      41.387  28.662  31.248  1.00  0.00     0.049 A 
ATOM     51  C   UNL A   1      40.755  31.988  35.716  1.00  0.00     0.074 A 
ATOM     52  C   UNL A   1      42.454  27.781  31.275  1.00  0.00     0.029 A 
ATOM     53  N   UNL A   1      41.430  29.378  32.436  1.00  0.00    -0.354 N 
ATOM     54  N   UNL A   1      41.036  31.155  34.743  1.00  0.00    -0.248 NA
ATOM     55  C   UNL A   1      41.665  31.895  36.866  1.00  0.00     0.031 C 
ATOM     56  C   UNL A   1      43.125  27.943  32.493  1.00  0.00     0.029 A 
ATOM     57  C   UNL A   1      42.501  28.954  33.206  1.00  0.00     0.049 A 
ATOM     58  H   UNL A   1      40.793  30.084  32.694  1.00  0.00     0.167 HD
ATOM     59  C   UNL A   1      42.172  30.468  35.144  1.00  0.00     0.074 A 
ATOM     60  C   UNL A   1      42.534  30.985  36.448  1.00  0.00     0.031 C 
ATOM     61  C   UNL A   1      42.856  29.496  34.492  1.00  0.00     0.037 A 
BRANCH  48  62
ATOM     62  C   UNL A   1      40.459  27.979  28.999  1.00  0.00     0.064 A 
ATOM     63  C   UNL A   1      41.228  28.336  27.880  1.00  0.00     0.173 A 
ATOM     64  C   UNL A   1      39.746  26.772  28.945  1.00  0.00     0.173 A 
ATOM     65  F   UNL A   1      41.918  29.487  27.875  1.00  0.00    -0.203 F 
ATOM     66  C   UNL A   1      41.254  27.536  26.742  1.00  0.00     0.198 A 
ATOM     67  C   UNL A   1      39.799  25.958  27.815  1.00  0.00     0.198 A 
ATOM     68  F   UNL A   1      38.999  26.380  29.987  1.00  0.00    -0.203 F 
ATOM     69  F   UNL A   1      41.950  27.927  25.664  1.00  0.00    -0.200 F 
ATOM     70  C   UNL A   1      40.543  26.346  26.711  1.00  0.00     0.200 A 
ATOM     71  F   UNL A   1      39.120  24.804  27.791  1.00  0.00    -0.200 F 
ATOM     72  F   UNL A   1      40.568  25.577  25.614  1.00  0.00    -0.200 F 
ENDBRANCH  48  62
BRANCH  49  73
ATOM     73  C   UNL A   1      39.542  33.904  36.987  1.00  0.00     0.064 A 
ATOM     74  C   UNL A   1      40.151  35.166  36.989  1.00  0.00     0.173 A 
ATOM     75  C   UNL A   1      38.831  33.519  38.131  1.00  0.00     0.173 A 
ATOM     76  F   UNL A   1      40.859  35.569  35.924  1.00  0.00    -0.203 F 
ATOM     77  C   UNL A   1      40.068  36.004  38.099  1.00  0.00     0.198 A 
ATOM     78  C   UNL A   1      38.727  34.367  39.232  1.00  0.00     0.198 A 
ATOM     79  F   UNL A   1      38.227  32.322  38.175  1.00  0.00    -0.203 F 
ATOM     80  F   UNL A   1      40.693  37.189  38.090  1.00  0.00    -0.200 F 
ATOM     81  C   UNL A   1      39.351  35.606  39.218  1.00  0.00     0.200 A 
ATOM     82  F   UNL A   1      38.025  33.985  40.306  1.00  0.00    -0.200 F 
ATOM     83  F   UNL A   1      39.269  36.412  40.284  1.00  0.00    -0.200 F 
ENDBRANCH  49  73
BRANCH  61  84
ATOM     84  C   UNL A   1      44.094  28.969  35.155  1.00  0.00     0.064 A 
ATOM     85  C   UNL A   1      45.357  29.530  34.916  1.00  0.00     0.173 A 
ATOM     86  C   UNL A   1      44.010  27.903  36.064  1.00  0.00     0.173 A 
ATOM     87  F   UNL A   1      45.491  30.541  34.043  1.00  0.00    -0.203 F 
ATOM     88  C   UNL A   1      46.493  29.025  35.541  1.00  0.00     0.198 A 
ATOM     89  C   UNL A   1      45.144  27.419  36.708  1.00  0.00     0.198 A 
ATOM     90  F   UNL A   1      42.823  27.335  36.332  1.00  0.00    -0.203 F 
ATOM     91  F   UNL A   1      47.697  29.545  35.260  1.00  0.00    -0.200 F 
ATOM     92  C   UNL A   1      46.385  27.975  36.440  1.00  0.00     0.200 A 
ATOM     93  F   UNL A   1      45.037  26.411  37.584  1.00  0.00    -0.200 F 
ATOM     94  F   UNL A   1      47.481  27.491  37.041  1.00  0.00    -0.200 F 
ENDBRANCH  61  84
ENDBRANCH  35  36
ENDBRANCH  27  30
ENDBRANCH  25  26
ENDBRANCH  24  25
ENDBRANCH  23  24
ENDBRANCH   1  23
TORSDOF 15
ENDMDL
