MODEL 1
REMARK VINA RESULT:     -13.8      0.000      0.000
REMARK SMILES CCCOC(=O)c1c(NC(=O)[C@@H]2CC=CC[C@H]2C(=O)NCCCCCCNC(=O)c2ccc(-c3c4nc(c(-c5c(F)c(F)c(F)c(F)c5F)c5ccc([nH]5)c(-c5c(F)c(F)c(F)c(F)c5F)c5nc(c(-c6c(F)c(F)c(F)c(F)c6F)c6ccc3[nH]6)C=C5)C=C4)cc2)sc2c1CCCC2
REMARK SMILES IDX 21 1 20 2 18 3 19 4 17 6 12 7 13 8 14 9 16 10 15 11 10 12
REMARK SMILES IDX 9 13 11 15 8 16 7 17 95 18 93 19 94 20 96 21 99 22 97 23
REMARK SMILES IDX 98 24 5 25 6 26 4 27 3 28 2 29 1 30 22 31 23 32 24 33 25 34
REMARK SMILES IDX 26 35 27 36 28 37 29 39 30 40 31 41 92 42 32 43 91 44 33 45
REMARK SMILES IDX 34 46 35 47 85 48 36 49 90 50 84 51 86 52 37 53 89 54 83 55
REMARK SMILES IDX 82 56 38 58 70 59 50 60 69 61 51 62 54 63 68 64 87 65 52 66
REMARK SMILES IDX 53 67 67 69 88 70 55 71 39 72 40 73 48 74 41 75 42 76 46 77
REMARK SMILES IDX 49 78 43 79 44 80 47 81 45 82 71 83 72 84 80 85 73 86 74 87
REMARK SMILES IDX 78 88 81 89 75 90 76 91 79 92 77 93 56 94 57 95 65 96 58 97
REMARK SMILES IDX 59 98 63 99 66 100 60 101 61 102 64 103 62 104
REMARK H PARENT 20 5 9 14 27 38 86 57 54 68
REMARK Flexibility Score: inf
ROOT
ATOM      1  C   UNL A   1      34.651  23.523  26.447  1.00  0.00     0.116 C 
ENDROOT
BRANCH   1   2
ATOM      2  N   UNL A   1      34.403  24.756  25.345  1.00  0.00    -0.356 N 
ATOM      3  C   UNL A   1      34.096  26.099  24.992  1.00  0.00     0.224 C 
ATOM      4  O   UNL A   1      34.375  26.261  23.780  1.00  0.00    -0.275 OA
ATOM      5  H   UNL A   1      34.545  24.318  24.475  1.00  0.00     0.163 HD
BRANCH   3   6
ATOM      6  C   UNL A   1      33.391  27.558  25.723  1.00  0.00     0.095 C 
ATOM      7  C   UNL A   1      32.496  28.442  24.825  1.00  0.00     0.095 C 
ATOM      8  C   UNL A   1      32.453  29.946  25.248  1.00  0.00     0.041 C 
ATOM      9  C   UNL A   1      32.192  30.177  26.695  1.00  0.00    -0.030 C 
ATOM     10  C   UNL A   1      32.752  27.808  27.157  1.00  0.00     0.041 C 
ATOM     11  C   UNL A   1      32.335  29.188  27.571  1.00  0.00    -0.030 C 
BRANCH   7  12
ATOM     12  C   UNL A   1      32.857  28.449  23.378  1.00  0.00     0.229 C 
ATOM     13  N   UNL A   1      31.914  27.963  22.540  1.00  0.00    -0.317 N 
ATOM     14  H   UNL A   1      31.783  28.468  21.704  1.00  0.00     0.170 HD
ATOM     15  O   UNL A   1      33.834  29.048  22.933  1.00  0.00    -0.274 OA
BRANCH  13  16
ATOM     16  C   UNL A   1      31.115  26.861  22.703  1.00  0.00     0.110 A 
ATOM     17  C   UNL A   1      30.103  26.453  23.582  1.00  0.00     0.098 A 
ATOM     18  C   UNL A   1      30.683  25.110  24.048  1.00  0.00    -0.017 A 
ATOM     19  S   UNL A   1      31.774  25.584  21.788  1.00  0.00    -0.122 S 
ATOM     20  C   UNL A   1      31.430  24.513  23.036  1.00  0.00     0.011 A 
ATOM     21  C   UNL A   1      30.848  24.437  25.403  1.00  0.00     0.038 C 
ATOM     22  C   UNL A   1      32.064  23.155  23.079  1.00  0.00     0.047 C 
ATOM     23  C   UNL A   1      31.251  22.943  25.420  1.00  0.00     0.005 C 
ATOM     24  C   UNL A   1      31.289  22.277  24.052  1.00  0.00     0.006 C 
BRANCH  17  25
ATOM     25  C   UNL A   1      28.673  27.163  23.591  1.00  0.00     0.341 C 
ATOM     26  O   UNL A   1      27.739  26.439  23.949  1.00  0.00    -0.246 OA
BRANCH  25  27
ATOM     27  O   UNL A   1      28.264  28.489  23.227  1.00  0.00    -0.462 OA
BRANCH  27  28
ATOM     28  C   UNL A   1      27.749  29.974  22.572  1.00  0.00     0.233 C 
BRANCH  28  29
ATOM     29  C   UNL A   1      27.668  31.426  23.299  1.00  0.00     0.038 C 
ATOM     30  C   UNL A   1      28.676  32.584  23.076  1.00  0.00     0.007 C 
ENDBRANCH  28  29
ENDBRANCH  27  28
ENDBRANCH  25  27
ENDBRANCH  17  25
ENDBRANCH  13  16
ENDBRANCH   7  12
ENDBRANCH   3   6
ENDBRANCH   1   2
BRANCH   1  31
ATOM     31  C   UNL A   1      35.118  21.970  26.181  1.00  0.00     0.021 C 
BRANCH  31  32
ATOM     32  C   UNL A   1      35.723  21.542  24.810  1.00  0.00     0.002 C 
BRANCH  32  33
ATOM     33  C   UNL A   1      37.259  21.575  24.692  1.00  0.00     0.002 C 
BRANCH  33  34
ATOM     34  C   UNL A   1      38.057  20.319  25.058  1.00  0.00     0.021 C 
BRANCH  34  35
ATOM     35  C   UNL A   1      39.351  20.503  25.854  1.00  0.00     0.116 C 
BRANCH  35  36
ATOM     36  N   UNL A   1      40.252  19.357  25.828  1.00  0.00    -0.352 N 
ATOM     37  C   UNL A   1      41.606  19.301  26.120  1.00  0.00     0.251 C 
ATOM     38  H   UNL A   1      39.840  18.501  25.565  1.00  0.00     0.163 HD
ATOM     39  O   UNL A   1      42.237  18.278  26.049  1.00  0.00    -0.269 OA
BRANCH  37  40
ATOM     40  C   UNL A   1      42.265  20.570  26.495  1.00  0.00     0.039 A 
ATOM     41  C   UNL A   1      42.692  21.433  25.484  1.00  0.00     0.014 A 
ATOM     42  C   UNL A   1      42.308  20.947  27.838  1.00  0.00     0.014 A 
ATOM     43  C   UNL A   1      43.078  22.730  25.819  1.00  0.00     0.010 A 
ATOM     44  C   UNL A   1      42.624  22.260  28.159  1.00  0.00     0.010 A 
ATOM     45  C   UNL A   1      43.000  23.167  27.152  1.00  0.00    -0.014 A 
BRANCH  45  46
ATOM     46  C   UNL A   1      43.318  24.568  27.516  1.00  0.00     0.031 A 
ATOM     47  C   UNL A   1      44.750  25.015  27.539  1.00  0.00     0.074 A 
ATOM     48  C   UNL A   1      42.331  25.408  27.886  1.00  0.00     0.049 A 
ATOM     49  N   UNL A   1      45.253  26.173  27.882  1.00  0.00    -0.248 NA
ATOM     50  C   UNL A   1      45.759  24.012  27.159  1.00  0.00     0.031 C 
ATOM     51  C   UNL A   1      40.909  25.064  27.969  1.00  0.00     0.029 A 
ATOM     52  N   UNL A   1      42.373  26.726  28.268  1.00  0.00    -0.354 N 
ATOM     53  C   UNL A   1      46.629  26.029  27.776  1.00  0.00     0.074 A 
ATOM     54  C   UNL A   1      46.888  24.658  27.403  1.00  0.00     0.031 C 
ATOM     55  C   UNL A   1      40.214  26.150  28.349  1.00  0.00     0.029 A 
ATOM     56  C   UNL A   1      41.139  27.258  28.558  1.00  0.00     0.049 A 
ATOM     57  H   UNL A   1      43.209  27.242  28.328  1.00  0.00     0.167 HD
ATOM     58  C   UNL A   1      47.590  26.968  27.938  1.00  0.00     0.037 A 
ATOM     59  C   UNL A   1      40.801  28.504  28.944  1.00  0.00     0.037 A 
ATOM     60  C   UNL A   1      47.320  28.341  28.268  1.00  0.00     0.049 A 
ATOM     61  C   UNL A   1      41.887  29.539  29.084  1.00  0.00     0.074 A 
ATOM     62  C   UNL A   1      48.212  29.389  28.404  1.00  0.00     0.029 A 
ATOM     63  N   UNL A   1      46.053  28.855  28.507  1.00  0.00    -0.354 N 
ATOM     64  N   UNL A   1      43.181  29.412  28.904  1.00  0.00    -0.248 NA
ATOM     65  C   UNL A   1      41.467  30.894  29.466  1.00  0.00     0.031 C 
ATOM     66  C   UNL A   1      47.487  30.534  28.751  1.00  0.00     0.029 A 
ATOM     67  C   UNL A   1      46.140  30.206  28.793  1.00  0.00     0.049 A 
ATOM     68  H   UNL A   1      45.218  28.336  28.477  1.00  0.00     0.167 HD
ATOM     69  C   UNL A   1      43.722  30.671  29.121  1.00  0.00     0.074 A 
ATOM     70  C   UNL A   1      42.616  31.554  29.429  1.00  0.00     0.031 C 
ATOM     71  C   UNL A   1      45.018  31.064  29.075  1.00  0.00     0.037 A 
BRANCH  58  72
ATOM     72  C   UNL A   1      49.013  26.541  27.736  1.00  0.00     0.064 A 
ATOM     73  C   UNL A   1      49.555  26.392  26.450  1.00  0.00     0.173 A 
ATOM     74  C   UNL A   1      49.848  26.287  28.833  1.00  0.00     0.173 A 
ATOM     75  F   UNL A   1      48.793  26.606  25.367  1.00  0.00    -0.203 F 
ATOM     76  C   UNL A   1      50.870  25.973  26.270  1.00  0.00     0.198 A 
ATOM     77  C   UNL A   1      51.172  25.898  28.649  1.00  0.00     0.198 A 
ATOM     78  F   UNL A   1      49.381  26.417  30.084  1.00  0.00    -0.203 F 
ATOM     79  F   UNL A   1      51.347  25.783  25.032  1.00  0.00    -0.200 F 
ATOM     80  C   UNL A   1      51.679  25.732  27.369  1.00  0.00     0.200 A 
ATOM     81  F   UNL A   1      51.957  25.675  29.713  1.00  0.00    -0.200 F 
ATOM     82  F   UNL A   1      52.946  25.332  27.195  1.00  0.00    -0.200 F 
ENDBRANCH  58  72
BRANCH  59  83
ATOM     83  C   UNL A   1      39.377  28.860  29.180  1.00  0.00     0.064 A 
ATOM     84  C   UNL A   1      38.576  29.351  28.138  1.00  0.00     0.173 A 
ATOM     85  C   UNL A   1      38.792  28.745  30.449  1.00  0.00     0.173 A 
ATOM     86  F   UNL A   1      39.094  29.498  26.909  1.00  0.00    -0.203 F 
ATOM     87  C   UNL A   1      37.257  29.740  28.362  1.00  0.00     0.198 A 
ATOM     88  C   UNL A   1      37.463  29.108  30.666  1.00  0.00     0.198 A 
ATOM     89  F   UNL A   1      39.510  28.276  31.480  1.00  0.00    -0.203 F 
ATOM     90  F   UNL A   1      36.532  30.255  27.358  1.00  0.00    -0.200 F 
ATOM     91  C   UNL A   1      36.700  29.615  29.625  1.00  0.00     0.200 A 
ATOM     92  F   UNL A   1      36.925  28.975  31.885  1.00  0.00    -0.200 F 
ATOM     93  F   UNL A   1      35.432  29.992  29.841  1.00  0.00    -0.200 F 
ENDBRANCH  59  83
BRANCH  71  94
ATOM     94  C   UNL A   1      45.306  32.514  29.324  1.00  0.00     0.064 A 
ATOM     95  C   UNL A   1      45.598  32.995  30.607  1.00  0.00     0.173 A 
ATOM     96  C   UNL A   1      45.341  33.422  28.254  1.00  0.00     0.173 A 
ATOM     97  F   UNL A   1      45.562  32.166  31.662  1.00  0.00    -0.203 F 
ATOM     98  C   UNL A   1      45.897  34.338  30.816  1.00  0.00     0.198 A 
ATOM     99  C   UNL A   1      45.667  34.758  28.462  1.00  0.00     0.198 A 
ATOM    100  F   UNL A   1      45.075  33.007  27.006  1.00  0.00    -0.203 F 
ATOM    101  F   UNL A   1      46.134  34.785  32.057  1.00  0.00    -0.200 F 
ATOM    102  C   UNL A   1      45.939  35.216  29.742  1.00  0.00     0.200 A 
ATOM    103  F   UNL A   1      45.720  35.603  27.423  1.00  0.00    -0.200 F 
ATOM    104  F   UNL A   1      46.237  36.507  29.943  1.00  0.00    -0.200 F 
ENDBRANCH  71  94
ENDBRANCH  45  46
ENDBRANCH  37  40
ENDBRANCH  35  36
ENDBRANCH  34  35
ENDBRANCH  33  34
ENDBRANCH  32  33
ENDBRANCH  31  32
ENDBRANCH   1  31
TORSDOF 19
ENDMDL
MODEL 2
REMARK VINA RESULT:     -13.7      0.842      6.966
REMARK SMILES CCCOC(=O)c1c(NC(=O)[C@@H]2CC=CC[C@H]2C(=O)NCCCCCCNC(=O)c2ccc(-c3c4nc(c(-c5c(F)c(F)c(F)c(F)c5F)c5ccc([nH]5)c(-c5c(F)c(F)c(F)c(F)c5F)c5nc(c(-c6c(F)c(F)c(F)c(F)c6F)c6ccc3[nH]6)C=C5)C=C4)cc2)sc2c1CCCC2
REMARK SMILES IDX 21 1 20 2 18 3 19 4 17 6 12 7 13 8 14 9 16 10 15 11 10 12
REMARK SMILES IDX 9 13 11 15 8 16 7 17 95 18 93 19 94 20 96 21 99 22 97 23
REMARK SMILES IDX 98 24 5 25 6 26 4 27 3 28 2 29 1 30 22 31 23 32 24 33 25 34
REMARK SMILES IDX 26 35 27 36 28 37 29 39 30 40 31 41 92 42 32 43 91 44 33 45
REMARK SMILES IDX 34 46 35 47 85 48 36 49 90 50 84 51 86 52 37 53 89 54 83 55
REMARK SMILES IDX 82 56 38 58 70 59 50 60 69 61 51 62 54 63 68 64 87 65 52 66
REMARK SMILES IDX 53 67 67 69 88 70 55 71 39 72 40 73 48 74 41 75 42 76 46 77
REMARK SMILES IDX 49 78 43 79 44 80 47 81 45 82 71 83 72 84 80 85 73 86 74 87
REMARK SMILES IDX 78 88 81 89 75 90 76 91 79 92 77 93 56 94 57 95 65 96 58 97
REMARK SMILES IDX 59 98 63 99 66 100 60 101 61 102 64 103 62 104
REMARK H PARENT 20 5 9 14 27 38 86 57 54 68
REMARK Flexibility Score: inf
ROOT
ATOM      1  C   UNL A   1      34.385  23.775  26.414  1.00  0.00     0.116 C 
ENDROOT
BRANCH   1   2
ATOM      2  N   UNL A   1      34.197  25.039  25.335  1.00  0.00    -0.356 N 
ATOM      3  C   UNL A   1      33.908  26.391  25.003  1.00  0.00     0.224 C 
ATOM      4  O   UNL A   1      34.254  26.587  23.815  1.00  0.00    -0.275 OA
ATOM      5  H   UNL A   1      34.388  24.625  24.462  1.00  0.00     0.163 HD
BRANCH   3   6
ATOM      6  C   UNL A   1      33.163  27.829  25.735  1.00  0.00     0.095 C 
ATOM      7  C   UNL A   1      32.242  28.687  24.838  1.00  0.00     0.095 C 
ATOM      8  C   UNL A   1      32.157  30.189  25.262  1.00  0.00     0.041 C 
ATOM      9  C   UNL A   1      31.890  30.413  26.709  1.00  0.00    -0.030 C 
ATOM     10  C   UNL A   1      32.518  28.061  27.170  1.00  0.00     0.041 C 
ATOM     11  C   UNL A   1      32.062  29.428  27.585  1.00  0.00    -0.030 C 
BRANCH   7  12
ATOM     12  C   UNL A   1      32.601  28.704  23.391  1.00  0.00     0.229 C 
ATOM     13  N   UNL A   1      31.668  28.201  22.553  1.00  0.00    -0.317 N 
ATOM     14  H   UNL A   1      31.526  28.704  21.718  1.00  0.00     0.170 HD
ATOM     15  O   UNL A   1      33.565  29.325  22.946  1.00  0.00    -0.274 OA
BRANCH  13  16
ATOM     16  C   UNL A   1      30.893  27.082  22.715  1.00  0.00     0.110 A 
ATOM     17  C   UNL A   1      29.888  26.652  23.592  1.00  0.00     0.098 A 
ATOM     18  C   UNL A   1      30.496  25.322  24.059  1.00  0.00    -0.017 A 
ATOM     19  S   UNL A   1      31.580  25.819  21.801  1.00  0.00    -0.122 S 
ATOM     20  C   UNL A   1      31.258  24.741  23.048  1.00  0.00     0.011 A 
ATOM     21  C   UNL A   1      30.673  24.653  25.414  1.00  0.00     0.038 C 
ATOM     22  C   UNL A   1      31.921  23.397  23.092  1.00  0.00     0.047 C 
ATOM     23  C   UNL A   1      31.108  23.167  25.432  1.00  0.00     0.005 C 
ATOM     24  C   UNL A   1      31.163  22.502  24.064  1.00  0.00     0.006 C 
BRANCH  17  25
ATOM     25  C   UNL A   1      28.443  27.331  23.598  1.00  0.00     0.341 C 
ATOM     26  O   UNL A   1      27.522  26.582  23.937  1.00  0.00    -0.246 OA
BRANCH  25  27
ATOM     27  O   UNL A   1      28.008  28.653  23.249  1.00  0.00    -0.462 OA
BRANCH  27  28
ATOM     28  C   UNL A   1      27.580  30.174  22.615  1.00  0.00     0.233 C 
BRANCH  28  29
ATOM     29  C   UNL A   1      27.738  31.638  23.304  1.00  0.00     0.038 C 
ATOM     30  C   UNL A   1      28.759  32.718  22.861  1.00  0.00     0.007 C 
ENDBRANCH  28  29
ENDBRANCH  27  28
ENDBRANCH  25  27
ENDBRANCH  17  25
ENDBRANCH  13  16
ENDBRANCH   7  12
ENDBRANCH   3   6
ENDBRANCH   1   2
BRANCH   1  31
ATOM     31  C   UNL A   1      35.470  22.540  26.389  1.00  0.00     0.021 C 
BRANCH  31  32
ATOM     32  C   UNL A   1      35.868  21.855  25.047  1.00  0.00     0.002 C 
BRANCH  32  33
ATOM     33  C   UNL A   1      37.373  21.802  24.717  1.00  0.00     0.002 C 
BRANCH  33  34
ATOM     34  C   UNL A   1      38.149  20.513  25.006  1.00  0.00     0.021 C 
BRANCH  34  35
ATOM     35  C   UNL A   1      39.406  20.618  25.872  1.00  0.00     0.116 C 
BRANCH  35  36
ATOM     36  N   UNL A   1      40.210  19.402  25.931  1.00  0.00    -0.352 N 
ATOM     37  C   UNL A   1      41.564  19.259  26.193  1.00  0.00     0.251 C 
ATOM     38  H   UNL A   1      39.721  18.564  25.760  1.00  0.00     0.163 HD
ATOM     39  O   UNL A   1      42.106  18.184  26.202  1.00  0.00    -0.269 OA
BRANCH  37  40
ATOM     40  C   UNL A   1      42.336  20.497  26.430  1.00  0.00     0.039 A 
ATOM     41  C   UNL A   1      42.734  21.265  25.334  1.00  0.00     0.014 A 
ATOM     42  C   UNL A   1      42.517  20.950  27.738  1.00  0.00     0.014 A 
ATOM     43  C   UNL A   1      43.234  22.548  25.551  1.00  0.00     0.010 A 
ATOM     44  C   UNL A   1      42.947  22.253  27.946  1.00  0.00     0.010 A 
ATOM     45  C   UNL A   1      43.297  23.068  26.855  1.00  0.00    -0.014 A 
BRANCH  45  46
ATOM     46  C   UNL A   1      43.738  24.462  27.100  1.00  0.00     0.031 A 
ATOM     47  C   UNL A   1      42.746  25.470  27.603  1.00  0.00     0.074 A 
ATOM     48  C   UNL A   1      45.001  24.830  26.808  1.00  0.00     0.049 A 
ATOM     49  N   UNL A   1      42.904  26.749  27.828  1.00  0.00    -0.248 NA
ATOM     50  C   UNL A   1      41.381  24.981  27.853  1.00  0.00     0.031 C 
ATOM     51  C   UNL A   1      46.033  23.953  26.248  1.00  0.00     0.029 A 
ATOM     52  N   UNL A   1      45.634  26.041  26.936  1.00  0.00    -0.354 N 
ATOM     53  C   UNL A   1      41.659  27.214  28.227  1.00  0.00     0.074 A 
ATOM     54  C   UNL A   1      40.741  26.101  28.149  1.00  0.00     0.031 C 
ATOM     55  C   UNL A   1      47.175  24.648  26.107  1.00  0.00     0.029 A 
ATOM     56  C   UNL A   1      46.951  26.022  26.544  1.00  0.00     0.049 A 
ATOM     57  H   UNL A   1      45.185  26.849  27.277  1.00  0.00     0.167 HD
ATOM     58  C   UNL A   1      41.320  28.452  28.655  1.00  0.00     0.037 A 
ATOM     59  C   UNL A   1      47.871  27.007  26.546  1.00  0.00     0.037 A 
ATOM     60  C   UNL A   1      42.249  29.543  28.769  1.00  0.00     0.049 A 
ATOM     61  C   UNL A   1      47.475  28.367  27.061  1.00  0.00     0.074 A 
ATOM     62  C   UNL A   1      42.026  30.823  29.243  1.00  0.00     0.029 A 
ATOM     63  N   UNL A   1      43.587  29.473  28.409  1.00  0.00    -0.354 N 
ATOM     64  N   UNL A   1      46.312  28.776  27.510  1.00  0.00    -0.248 NA
ATOM     65  C   UNL A   1      48.522  29.398  27.083  1.00  0.00     0.031 C 
ATOM     66  C   UNL A   1      43.225  31.537  29.145  1.00  0.00     0.029 A 
ATOM     67  C   UNL A   1      44.203  30.689  28.647  1.00  0.00     0.049 A 
ATOM     68  H   UNL A   1      44.032  28.677  28.041  1.00  0.00     0.167 HD
ATOM     69  C   UNL A   1      46.495  30.097  27.894  1.00  0.00     0.074 A 
ATOM     70  C   UNL A   1      47.885  30.417  27.642  1.00  0.00     0.031 C 
ATOM     71  C   UNL A   1      45.594  30.971  28.406  1.00  0.00     0.037 A 
BRANCH  58  72
ATOM     72  C   UNL A   1      39.891  28.676  29.053  1.00  0.00     0.064 A 
ATOM     73  C   UNL A   1      38.943  29.150  28.132  1.00  0.00     0.173 A 
ATOM     74  C   UNL A   1      39.460  28.408  30.359  1.00  0.00     0.173 A 
ATOM     75  F   UNL A   1      39.308  29.439  26.874  1.00  0.00    -0.203 F 
ATOM     76  C   UNL A   1      37.624  29.377  28.514  1.00  0.00     0.198 A 
ATOM     77  C   UNL A   1      38.132  28.606  30.729  1.00  0.00     0.198 A 
ATOM     78  F   UNL A   1      40.325  27.951  31.277  1.00  0.00    -0.203 F 
ATOM     79  F   UNL A   1      36.751  29.883  27.632  1.00  0.00    -0.200 F 
ATOM     80  C   UNL A   1      37.218  29.100  29.811  1.00  0.00     0.200 A 
ATOM     81  F   UNL A   1      37.739  28.328  31.980  1.00  0.00    -0.200 F 
ATOM     82  F   UNL A   1      35.947  29.315  30.177  1.00  0.00    -0.200 F 
ENDBRANCH  58  72
BRANCH  59  83
ATOM     83  C   UNL A   1      49.262  26.741  26.093  1.00  0.00     0.064 A 
ATOM     84  C   UNL A   1      49.649  27.002  24.770  1.00  0.00     0.173 A 
ATOM     85  C   UNL A   1      50.224  26.198  26.957  1.00  0.00     0.173 A 
ATOM     86  F   UNL A   1      48.760  27.502  23.900  1.00  0.00    -0.203 F 
ATOM     87  C   UNL A   1      50.934  26.702  24.321  1.00  0.00     0.198 A 
ATOM     88  C   UNL A   1      51.518  25.926  26.513  1.00  0.00     0.198 A 
ATOM     89  F   UNL A   1      49.909  25.935  28.233  1.00  0.00    -0.203 F 
ATOM     90  F   UNL A   1      51.260  26.914  23.037  1.00  0.00    -0.200 F 
ATOM     91  C   UNL A   1      51.869  26.168  25.194  1.00  0.00     0.200 A 
ATOM     92  F   UNL A   1      52.422  25.420  27.363  1.00  0.00    -0.200 F 
ATOM     93  F   UNL A   1      53.104  25.877  24.762  1.00  0.00    -0.200 F 
ENDBRANCH  59  83
BRANCH  71  94
ATOM     94  C   UNL A   1      46.092  32.340  28.763  1.00  0.00     0.064 A 
ATOM     95  C   UNL A   1      46.050  33.398  27.845  1.00  0.00     0.173 A 
ATOM     96  C   UNL A   1      46.566  32.605  30.057  1.00  0.00     0.173 A 
ATOM     97  F   UNL A   1      45.618  33.188  26.592  1.00  0.00    -0.203 F 
ATOM     98  C   UNL A   1      46.483  34.671  28.204  1.00  0.00     0.198 A 
ATOM     99  C   UNL A   1      46.971  33.885  30.421  1.00  0.00     0.198 A 
ATOM    100  F   UNL A   1      46.617  31.625  30.972  1.00  0.00    -0.203 F 
ATOM    101  F   UNL A   1      46.472  35.660  27.300  1.00  0.00    -0.200 F 
ATOM    102  C   UNL A   1      46.935  34.915  29.494  1.00  0.00     0.200 A 
ATOM    103  F   UNL A   1      47.396  34.122  31.669  1.00  0.00    -0.200 F 
ATOM    104  F   UNL A   1      47.343  36.143  29.840  1.00  0.00    -0.200 F 
ENDBRANCH  71  94
ENDBRANCH  45  46
ENDBRANCH  37  40
ENDBRANCH  35  36
ENDBRANCH  34  35
ENDBRANCH  33  34
ENDBRANCH  32  33
ENDBRANCH  31  32
ENDBRANCH   1  31
TORSDOF 19
ENDMDL
MODEL 3
REMARK VINA RESULT:     -12.9      5.186      9.710
REMARK SMILES CCCOC(=O)c1c(NC(=O)[C@@H]2CC=CC[C@H]2C(=O)NCCCCCCNC(=O)c2ccc(-c3c4nc(c(-c5c(F)c(F)c(F)c(F)c5F)c5ccc([nH]5)c(-c5c(F)c(F)c(F)c(F)c5F)c5nc(c(-c6c(F)c(F)c(F)c(F)c6F)c6ccc3[nH]6)C=C5)C=C4)cc2)sc2c1CCCC2
REMARK SMILES IDX 21 1 20 2 18 3 19 4 17 6 12 7 13 8 14 9 16 10 15 11 10 12
REMARK SMILES IDX 9 13 11 15 8 16 7 17 95 18 93 19 94 20 96 21 99 22 97 23
REMARK SMILES IDX 98 24 5 25 6 26 4 27 3 28 2 29 1 30 22 31 23 32 24 33 25 34
REMARK SMILES IDX 26 35 27 36 28 37 29 39 30 40 31 41 92 42 32 43 91 44 33 45
REMARK SMILES IDX 34 46 35 47 85 48 36 49 90 50 84 51 86 52 37 53 89 54 83 55
REMARK SMILES IDX 82 56 38 58 70 59 50 60 69 61 51 62 54 63 68 64 87 65 52 66
REMARK SMILES IDX 53 67 67 69 88 70 55 71 39 72 40 73 48 74 41 75 42 76 46 77
REMARK SMILES IDX 49 78 43 79 44 80 47 81 45 82 71 83 72 84 80 85 73 86 74 87
REMARK SMILES IDX 78 88 81 89 75 90 76 91 79 92 77 93 56 94 57 95 65 96 58 97
REMARK SMILES IDX 59 98 63 99 66 100 60 101 61 102 64 103 62 104
REMARK H PARENT 20 5 9 14 27 38 86 57 54 68
REMARK Flexibility Score: inf
ROOT
ATOM      1  C   UNL A   1      45.758  27.803  25.483  1.00  0.00     0.116 C 
ENDROOT
BRANCH   1   2
ATOM      2  N   UNL A   1      45.045  27.677  26.990  1.00  0.00    -0.356 N 
ATOM      3  C   UNL A   1      43.936  27.737  27.878  1.00  0.00     0.224 C 
ATOM      4  O   UNL A   1      44.273  27.213  28.965  1.00  0.00    -0.275 OA
ATOM      5  H   UNL A   1      45.794  27.427  27.578  1.00  0.00     0.163 HD
BRANCH   3   6
ATOM      6  C   UNL A   1      42.277  28.377  27.922  1.00  0.00     0.095 C 
ATOM      7  C   UNL A   1      41.282  27.846  26.865  1.00  0.00     0.095 C 
ATOM      8  C   UNL A   1      40.129  28.842  26.517  1.00  0.00     0.041 C 
ATOM      9  C   UNL A   1      39.432  29.423  27.697  1.00  0.00    -0.030 C 
ATOM     10  C   UNL A   1      41.309  28.697  29.142  1.00  0.00     0.041 C 
ATOM     11  C   UNL A   1      39.983  29.356  28.904  1.00  0.00    -0.030 C 
BRANCH   7  12
ATOM     12  C   UNL A   1      41.887  27.469  25.555  1.00  0.00     0.229 C 
ATOM     13  N   UNL A   1      41.732  26.176  25.192  1.00  0.00    -0.317 N 
ATOM     14  H   UNL A   1      41.511  26.021  24.245  1.00  0.00     0.170 HD
ATOM     15  O   UNL A   1      42.304  28.296  24.745  1.00  0.00    -0.274 OA
BRANCH  13  16
ATOM     16  C   UNL A   1      41.840  25.054  25.972  1.00  0.00     0.110 A 
ATOM     17  C   UNL A   1      41.202  24.530  27.104  1.00  0.00     0.098 A 
ATOM     18  C   UNL A   1      42.419  24.305  28.013  1.00  0.00    -0.017 A 
ATOM     19  S   UNL A   1      43.331  24.306  25.628  1.00  0.00    -0.122 S 
ATOM     20  C   UNL A   1      43.547  23.985  27.262  1.00  0.00     0.011 A 
ATOM     21  C   UNL A   1      42.725  24.608  29.473  1.00  0.00     0.038 C 
ATOM     22  C   UNL A   1      44.893  23.598  27.797  1.00  0.00     0.047 C 
ATOM     23  C   UNL A   1      43.996  23.974  30.087  1.00  0.00     0.005 C 
ATOM     24  C   UNL A   1      44.719  22.987  29.182  1.00  0.00     0.006 C 
BRANCH  17  25
ATOM     25  C   UNL A   1      39.690  24.022  27.046  1.00  0.00     0.341 C 
ATOM     26  O   UNL A   1      38.948  24.509  27.905  1.00  0.00    -0.246 OA
BRANCH  25  27
ATOM     27  O   UNL A   1      39.033  23.072  26.194  1.00  0.00    -0.462 OA
BRANCH  27  28
ATOM     28  C   UNL A   1      38.186  21.836  25.386  1.00  0.00     0.233 C 
BRANCH  28  29
ATOM     29  C   UNL A   1      36.799  21.945  24.544  1.00  0.00     0.038 C 
ATOM     30  C   UNL A   1      36.624  22.753  23.231  1.00  0.00     0.007 C 
ENDBRANCH  28  29
ENDBRANCH  27  28
ENDBRANCH  25  27
ENDBRANCH  17  25
ENDBRANCH  13  16
ENDBRANCH   7  12
ENDBRANCH   3   6
ENDBRANCH   1   2
BRANCH   1  31
ATOM     31  C   UNL A   1      47.347  27.959  25.095  1.00  0.00     0.021 C 
BRANCH  31  32
ATOM     32  C   UNL A   1      48.075  26.862  24.259  1.00  0.00     0.002 C 
BRANCH  32  33
ATOM     33  C   UNL A   1      49.279  26.169  24.927  1.00  0.00     0.002 C 
BRANCH  33  34
ATOM     34  C   UNL A   1      50.695  26.572  24.502  1.00  0.00     0.021 C 
BRANCH  34  35
ATOM     35  C   UNL A   1      51.505  27.445  25.462  1.00  0.00     0.116 C 
BRANCH  35  36
ATOM     36  N   UNL A   1      52.611  26.762  26.123  1.00  0.00    -0.352 N 
ATOM     37  C   UNL A   1      52.702  26.302  27.428  1.00  0.00     0.251 C 
ATOM     38  H   UNL A   1      53.406  26.605  25.563  1.00  0.00     0.163 HD
ATOM     39  O   UNL A   1      53.688  25.756  27.850  1.00  0.00    -0.269 OA
BRANCH  37  40
ATOM     40  C   UNL A   1      51.537  26.541  28.306  1.00  0.00     0.039 A 
ATOM     41  C   UNL A   1      51.553  27.643  29.164  1.00  0.00     0.014 A 
ATOM     42  C   UNL A   1      50.392  25.758  28.152  1.00  0.00     0.014 A 
ATOM     43  C   UNL A   1      50.373  28.021  29.803  1.00  0.00     0.010 A 
ATOM     44  C   UNL A   1      49.204  26.180  28.734  1.00  0.00     0.010 A 
ATOM     45  C   UNL A   1      49.181  27.321  29.553  1.00  0.00    -0.014 A 
BRANCH  45  46
ATOM     46  C   UNL A   1      47.898  27.763  30.151  1.00  0.00     0.031 A 
ATOM     47  C   UNL A   1      47.295  26.966  31.271  1.00  0.00     0.074 A 
ATOM     48  C   UNL A   1      47.251  28.831  29.643  1.00  0.00     0.049 A 
ATOM     49  N   UNL A   1      46.159  27.141  31.896  1.00  0.00    -0.248 NA
ATOM     50  C   UNL A   1      48.057  25.793  31.728  1.00  0.00     0.031 C 
ATOM     51  C   UNL A   1      47.706  29.640  28.510  1.00  0.00     0.029 A 
ATOM     52  N   UNL A   1      46.067  29.419  30.012  1.00  0.00    -0.354 N 
ATOM     53  C   UNL A   1      46.066  26.093  32.800  1.00  0.00     0.074 A 
ATOM     54  C   UNL A   1      47.223  25.250  32.600  1.00  0.00     0.031 C 
ATOM     55  C   UNL A   1      46.827  30.633  28.295  1.00  0.00     0.029 A 
ATOM     56  C   UNL A   1      45.736  30.519  29.257  1.00  0.00     0.049 A 
ATOM     57  H   UNL A   1      45.507  29.084  30.749  1.00  0.00     0.167 HD
ATOM     58  C   UNL A   1      45.118  25.872  33.740  1.00  0.00     0.037 A 
ATOM     59  C   UNL A   1      44.672  31.342  29.343  1.00  0.00     0.037 A 
ATOM     60  C   UNL A   1      43.993  26.738  33.961  1.00  0.00     0.049 A 
ATOM     61  C   UNL A   1      43.650  31.094  30.421  1.00  0.00     0.074 A 
ATOM     62  C   UNL A   1      43.001  26.642  34.920  1.00  0.00     0.029 A 
ATOM     63  N   UNL A   1      43.716  27.871  33.208  1.00  0.00    -0.354 N 
ATOM     64  N   UNL A   1      43.612  30.143  31.324  1.00  0.00    -0.248 NA
ATOM     65  C   UNL A   1      42.529  32.041  30.502  1.00  0.00     0.031 C 
ATOM     66  C   UNL A   1      42.109  27.703  34.732  1.00  0.00     0.029 A 
ATOM     67  C   UNL A   1      42.567  28.481  33.679  1.00  0.00     0.049 A 
ATOM     68  H   UNL A   1      44.258  28.193  32.452  1.00  0.00     0.167 HD
ATOM     69  C   UNL A   1      42.486  30.393  32.095  1.00  0.00     0.074 A 
ATOM     70  C   UNL A   1      41.877  31.596  31.567  1.00  0.00     0.031 C 
ATOM     71  C   UNL A   1      41.996  29.691  33.146  1.00  0.00     0.037 A 
BRANCH  58  72
ATOM     72  C   UNL A   1      45.278  24.662  34.611  1.00  0.00     0.064 A 
ATOM     73  C   UNL A   1      44.774  23.410  34.222  1.00  0.00     0.173 A 
ATOM     74  C   UNL A   1      45.949  24.745  35.838  1.00  0.00     0.173 A 
ATOM     75  F   UNL A   1      44.109  23.281  33.064  1.00  0.00    -0.203 F 
ATOM     76  C   UNL A   1      44.907  22.296  35.045  1.00  0.00     0.198 A 
ATOM     77  C   UNL A   1      46.108  23.622  36.645  1.00  0.00     0.198 A 
ATOM     78  F   UNL A   1      46.452  25.916  36.256  1.00  0.00    -0.203 F 
ATOM     79  F   UNL A   1      44.368  21.126  34.677  1.00  0.00    -0.200 F 
ATOM     80  C   UNL A   1      45.579  22.401  36.253  1.00  0.00     0.200 A 
ATOM     81  F   UNL A   1      46.765  23.722  37.809  1.00  0.00    -0.200 F 
ATOM     82  F   UNL A   1      45.710  21.327  37.044  1.00  0.00    -0.200 F 
ENDBRANCH  58  72
BRANCH  59  83
ATOM     83  C   UNL A   1      44.538  32.500  28.419  1.00  0.00     0.064 A 
ATOM     84  C   UNL A   1      44.842  33.800  28.848  1.00  0.00     0.173 A 
ATOM     85  C   UNL A   1      44.081  32.340  27.103  1.00  0.00     0.173 A 
ATOM     86  F   UNL A   1      45.265  34.009  30.104  1.00  0.00    -0.203 F 
ATOM     87  C   UNL A   1      44.666  34.898  28.008  1.00  0.00     0.198 A 
ATOM     88  C   UNL A   1      43.932  33.436  26.254  1.00  0.00     0.198 A 
ATOM     89  F   UNL A   1      43.781  31.118  26.640  1.00  0.00    -0.203 F 
ATOM     90  F   UNL A   1      44.915  36.135  28.462  1.00  0.00    -0.200 F 
ATOM     91  C   UNL A   1      44.214  34.715  26.710  1.00  0.00     0.200 A 
ATOM     92  F   UNL A   1      43.506  33.254  24.997  1.00  0.00    -0.200 F 
ATOM     93  F   UNL A   1      44.042  35.771  25.903  1.00  0.00    -0.200 F 
ENDBRANCH  59  83
BRANCH  71  94
ATOM     94  C   UNL A   1      40.765  30.225  33.815  1.00  0.00     0.064 A 
ATOM     95  C   UNL A   1      40.844  31.075  34.926  1.00  0.00     0.173 A 
ATOM     96  C   UNL A   1      39.494  29.923  33.302  1.00  0.00     0.173 A 
ATOM     97  F   UNL A   1      42.038  31.379  35.460  1.00  0.00    -0.203 F 
ATOM     98  C   UNL A   1      39.693  31.590  35.514  1.00  0.00     0.198 A 
ATOM     99  C   UNL A   1      38.347  30.462  33.875  1.00  0.00     0.198 A 
ATOM    100  F   UNL A   1      39.369  29.120  32.235  1.00  0.00    -0.203 F 
ATOM    101  F   UNL A   1      39.788  32.368  36.601  1.00  0.00    -0.200 F 
ATOM    102  C   UNL A   1      38.446  31.290  34.983  1.00  0.00     0.200 A 
ATOM    103  F   UNL A   1      37.144  30.182  33.354  1.00  0.00    -0.200 F 
ATOM    104  F   UNL A   1      37.340  31.794  35.545  1.00  0.00    -0.200 F 
ENDBRANCH  71  94
ENDBRANCH  45  46
ENDBRANCH  37  40
ENDBRANCH  35  36
ENDBRANCH  34  35
ENDBRANCH  33  34
ENDBRANCH  32  33
ENDBRANCH  31  32
ENDBRANCH   1  31
TORSDOF 19
ENDMDL
