MODEL 1
REMARK VINA RESULT:     -13.1      0.000      0.000
REMARK SMILES CC(C)(C)c1cc2c(cc1Cl)C=C(C(=O)NCCCCCCNC(=O)c1ccc(-c3c4nc(c(-c5c(F)c(F)c(F)c(F)c5F)c5ccc([nH]5)c(-c5c(F)c(F)c(F)c(F)c5F)c5nc(c(-c6c(F)c(F)c(F)c(F)c6F)c6ccc3[nH]6)C=C5)C=C4)cc1)[C@H](C(F)(F)F)O2
REMARK SMILES IDX 20 1 19 2 18 3 17 4 16 5 14 6 15 7 13 9 5 10 6 11 10 12 7 13
REMARK SMILES IDX 9 14 11 15 8 16 94 17 12 18 89 19 2 20 1 21 3 22 4 23 90 24
REMARK SMILES IDX 91 25 92 26 93 27 21 28 22 29 23 30 24 31 25 33 26 34 27 35
REMARK SMILES IDX 88 36 28 37 87 38 29 39 30 40 31 41 81 42 32 43 86 44 80 45
REMARK SMILES IDX 82 46 33 47 85 48 79 49 78 50 34 52 66 53 46 54 65 55 47 56
REMARK SMILES IDX 50 57 64 58 83 59 48 60 49 61 63 63 84 64 51 65 35 66 36 67
REMARK SMILES IDX 44 68 37 69 38 70 42 71 45 72 39 73 40 74 43 75 41 76 67 77
REMARK SMILES IDX 68 78 76 79 69 80 70 81 74 82 77 83 71 84 72 85 75 86 73 87
REMARK SMILES IDX 52 88 53 89 61 90 54 91 55 92 59 93 62 94 56 95 57 96 60 97
REMARK SMILES IDX 58 98
REMARK H PARENT 16 8 23 32 82 51 50 62
REMARK Flexibility Score: inf
ROOT
ATOM      1  C   UNL A   1      31.548  30.649  26.389  1.00  0.00     0.002 C 
ENDROOT
BRANCH   1   2
ATOM      2  C   UNL A   1      32.971  30.080  26.418  1.00  0.00     0.002 C 
BRANCH   2   3
ATOM      3  C   UNL A   1      33.153  28.792  27.227  1.00  0.00     0.021 C 
BRANCH   3   4
ATOM      4  C   UNL A   1      33.962  27.708  26.515  1.00  0.00     0.116 C 
BRANCH   4   5
ATOM      5  N   UNL A   1      33.836  27.806  25.072  1.00  0.00    -0.352 N 
ATOM      6  C   UNL A   1      33.573  26.981  24.033  1.00  0.00     0.251 C 
ATOM      7  O   UNL A   1      33.560  27.531  22.926  1.00  0.00    -0.270 OA
ATOM      8  H   UNL A   1      33.983  28.729  24.765  1.00  0.00     0.163 HD
BRANCH   6   9
ATOM      9  C   UNL A   1      33.300  25.514  24.127  1.00  0.00     0.067 C 
ATOM     10  C   UNL A   1      33.836  20.450  24.447  1.00  0.00    -0.020 A 
ATOM     11  C   UNL A   1      32.773  21.358  24.206  1.00  0.00     0.053 A 
ATOM     12  C   UNL A   1      35.105  21.036  24.648  1.00  0.00     0.045 A 
ATOM     13  C   UNL A   1      32.957  22.739  24.145  1.00  0.00     0.128 A 
ATOM     14  C   UNL A   1      35.284  22.434  24.575  1.00  0.00     0.032 A 
ATOM     15  Cl  UNL A   1      36.556  20.174  25.016  1.00  0.00    -0.084 Cl
ATOM     16  C   UNL A   1      34.214  23.289  24.321  1.00  0.00     0.019 A 
ATOM     17  O   UNL A   1      31.850  23.484  23.866  1.00  0.00    -0.475 OA
ATOM     18  C   UNL A   1      34.391  24.729  24.208  1.00  0.00     0.025 C 
ATOM     19  C   UNL A   1      31.927  24.904  24.169  1.00  0.00     0.314 C 
BRANCH  10  20
ATOM     20  C   UNL A   1      33.459  18.948  24.483  1.00  0.00    -0.012 C 
ATOM     21  C   UNL A   1      32.430  18.633  23.361  1.00  0.00     0.016 C 
ATOM     22  C   UNL A   1      32.809  18.643  25.854  1.00  0.00     0.016 C 
ATOM     23  C   UNL A   1      34.590  17.920  24.290  1.00  0.00     0.016 C 
ENDBRANCH  10  20
BRANCH  19  24
ATOM     24  C   UNL A   1      31.178  25.177  25.485  1.00  0.00     0.429 C 
ATOM     25  F   UNL A   1      31.982  25.104  26.570  1.00  0.00    -0.167 F 
ATOM     26  F   UNL A   1      30.593  26.396  25.515  1.00  0.00    -0.167 F 
ATOM     27  F   UNL A   1      30.183  24.268  25.659  1.00  0.00    -0.167 F 
ENDBRANCH  19  24
ENDBRANCH   6   9
ENDBRANCH   4   5
ENDBRANCH   3   4
ENDBRANCH   2   3
ENDBRANCH   1   2
BRANCH   1  28
ATOM     28  C   UNL A   1      31.438  32.168  26.542  1.00  0.00     0.021 C 
BRANCH  28  29
ATOM     29  C   UNL A   1      32.596  32.827  27.284  1.00  0.00     0.116 C 
BRANCH  29  30
ATOM     30  N   UNL A   1      32.322  34.212  27.630  1.00  0.00    -0.352 N 
ATOM     31  C   UNL A   1      32.926  35.011  28.570  1.00  0.00     0.251 C 
ATOM     32  H   UNL A   1      31.600  34.640  27.115  1.00  0.00     0.163 HD
ATOM     33  O   UNL A   1      32.463  36.114  28.840  1.00  0.00    -0.269 OA
BRANCH  31  34
ATOM     34  C   UNL A   1      34.120  34.518  29.287  1.00  0.00     0.039 A 
ATOM     35  C   UNL A   1      35.393  34.650  28.729  1.00  0.00     0.014 A 
ATOM     36  C   UNL A   1      33.956  33.891  30.527  1.00  0.00     0.014 A 
ATOM     37  C   UNL A   1      36.478  34.018  29.329  1.00  0.00     0.010 A 
ATOM     38  C   UNL A   1      35.060  33.320  31.165  1.00  0.00     0.010 A 
ATOM     39  C   UNL A   1      36.321  33.336  30.546  1.00  0.00    -0.014 A 
BRANCH  39  40
ATOM     40  C   UNL A   1      37.477  32.619  31.143  1.00  0.00     0.031 A 
ATOM     41  C   UNL A   1      37.954  32.961  32.528  1.00  0.00     0.074 A 
ATOM     42  C   UNL A   1      38.065  31.622  30.455  1.00  0.00     0.049 A 
ATOM     43  N   UNL A   1      38.950  32.451  33.210  1.00  0.00    -0.248 NA
ATOM     44  C   UNL A   1      37.218  34.015  33.244  1.00  0.00     0.031 C 
ATOM     45  C   UNL A   1      37.678  31.183  29.115  1.00  0.00     0.029 A 
ATOM     46  N   UNL A   1      39.094  30.783  30.797  1.00  0.00    -0.354 N 
ATOM     47  C   UNL A   1      38.970  33.131  34.421  1.00  0.00     0.074 A 
ATOM     48  C   UNL A   1      37.905  34.110  34.374  1.00  0.00     0.031 C 
ATOM     49  C   UNL A   1      38.427  30.126  28.767  1.00  0.00     0.029 A 
ATOM     50  C   UNL A   1      39.385  29.850  29.833  1.00  0.00     0.049 A 
ATOM     51  H   UNL A   1      39.579  30.844  31.652  1.00  0.00     0.167 HD
ATOM     52  C   UNL A   1      39.792  32.944  35.480  1.00  0.00     0.037 A 
ATOM     53  C   UNL A   1      40.326  28.890  29.804  1.00  0.00     0.037 A 
ATOM     54  C   UNL A   1      40.836  31.953  35.536  1.00  0.00     0.049 A 
ATOM     55  C   UNL A   1      41.260  28.740  30.971  1.00  0.00     0.074 A 
ATOM     56  C   UNL A   1      41.709  31.676  36.574  1.00  0.00     0.029 A 
ATOM     57  N   UNL A   1      41.144  31.073  34.509  1.00  0.00    -0.354 N 
ATOM     58  N   UNL A   1      41.275  29.396  32.106  1.00  0.00    -0.248 NA
ATOM     59  C   UNL A   1      42.316  27.727  30.847  1.00  0.00     0.031 C 
ATOM     60  C   UNL A   1      42.569  30.653  36.161  1.00  0.00     0.029 A 
ATOM     61  C   UNL A   1      42.207  30.266  34.881  1.00  0.00     0.049 A 
ATOM     62  H   UNL A   1      40.675  31.029  33.644  1.00  0.00     0.167 HD
ATOM     63  C   UNL A   1      42.339  28.877  32.831  1.00  0.00     0.074 A 
ATOM     64  C   UNL A   1      42.927  27.831  32.019  1.00  0.00     0.031 C 
ATOM     65  C   UNL A   1      42.790  29.240  34.056  1.00  0.00     0.037 A 
BRANCH  52  66
ATOM     66  C   UNL A   1      39.607  33.835  36.673  1.00  0.00     0.064 A 
ATOM     67  C   UNL A   1      38.815  33.445  37.764  1.00  0.00     0.173 A 
ATOM     68  C   UNL A   1      40.275  35.066  36.753  1.00  0.00     0.173 A 
ATOM     69  F   UNL A   1      38.146  32.283  37.731  1.00  0.00    -0.203 F 
ATOM     70  C   UNL A   1      38.688  34.264  38.884  1.00  0.00     0.198 A 
ATOM     71  C   UNL A   1      40.164  35.870  37.884  1.00  0.00     0.198 A 
ATOM     72  F   UNL A   1      41.049  35.482  35.739  1.00  0.00    -0.203 F 
ATOM     73  F   UNL A   1      37.899  33.887  39.899  1.00  0.00    -0.200 F 
ATOM     74  C   UNL A   1      39.368  35.471  38.946  1.00  0.00     0.200 A 
ATOM     75  F   UNL A   1      40.830  37.033  37.948  1.00  0.00    -0.200 F 
ATOM     76  F   UNL A   1      39.252  36.251  40.030  1.00  0.00    -0.200 F 
ENDBRANCH  52  66
BRANCH  53  77
ATOM     77  C   UNL A   1      40.427  27.998  28.622  1.00  0.00     0.064 A 
ATOM     78  C   UNL A   1      41.194  28.367  27.508  1.00  0.00     0.173 A 
ATOM     79  C   UNL A   1      39.787  26.750  28.593  1.00  0.00     0.173 A 
ATOM     80  F   UNL A   1      41.805  29.560  27.482  1.00  0.00    -0.203 F 
ATOM     81  C   UNL A   1      41.314  27.521  26.407  1.00  0.00     0.198 A 
ATOM     82  C   UNL A   1      39.929  25.895  27.503  1.00  0.00     0.198 A 
ATOM     83  F   UNL A   1      39.043  26.354  29.636  1.00  0.00    -0.203 F 
ATOM     84  F   UNL A   1      42.030  27.908  25.344  1.00  0.00    -0.200 F 
ATOM     85  C   UNL A   1      40.689  26.282  26.410  1.00  0.00     0.200 A 
ATOM     86  F   UNL A   1      39.335  24.693  27.516  1.00  0.00    -0.200 F 
ATOM     87  F   UNL A   1      40.818  25.463  25.357  1.00  0.00    -0.200 F 
ENDBRANCH  53  77
BRANCH  65  88
ATOM     88  C   UNL A   1      43.984  28.508  34.592  1.00  0.00     0.064 A 
ATOM     89  C   UNL A   1      43.841  27.299  35.289  1.00  0.00     0.173 A 
ATOM     90  C   UNL A   1      45.281  28.991  34.366  1.00  0.00     0.173 A 
ATOM     91  F   UNL A   1      42.620  26.805  35.543  1.00  0.00    -0.203 F 
ATOM     92  C   UNL A   1      44.957  26.608  35.755  1.00  0.00     0.198 A 
ATOM     93  C   UNL A   1      46.394  28.284  34.811  1.00  0.00     0.198 A 
ATOM     94  F   UNL A   1      45.468  30.140  33.699  1.00  0.00    -0.203 F 
ATOM     95  F   UNL A   1      44.797  25.474  36.449  1.00  0.00    -0.200 F 
ATOM     96  C   UNL A   1      46.231  27.096  35.508  1.00  0.00     0.200 A 
ATOM     97  F   UNL A   1      47.625  28.751  34.563  1.00  0.00    -0.200 F 
ATOM     98  F   UNL A   1      47.304  26.425  35.949  1.00  0.00    -0.200 F 
ENDBRANCH  65  88
ENDBRANCH  39  40
ENDBRANCH  31  34
ENDBRANCH  29  30
ENDBRANCH  28  29
ENDBRANCH   1  28
TORSDOF 15
ENDMDL
MODEL 2
REMARK VINA RESULT:     -12.9      0.626      2.045
REMARK SMILES CC(C)(C)c1cc2c(cc1Cl)C=C(C(=O)NCCCCCCNC(=O)c1ccc(-c3c4nc(c(-c5c(F)c(F)c(F)c(F)c5F)c5ccc([nH]5)c(-c5c(F)c(F)c(F)c(F)c5F)c5nc(c(-c6c(F)c(F)c(F)c(F)c6F)c6ccc3[nH]6)C=C5)C=C4)cc1)[C@H](C(F)(F)F)O2
REMARK SMILES IDX 20 1 19 2 18 3 17 4 16 5 14 6 15 7 13 9 5 10 6 11 10 12 7 13
REMARK SMILES IDX 9 14 11 15 8 16 94 17 12 18 89 19 2 20 1 21 3 22 4 23 90 24
REMARK SMILES IDX 91 25 92 26 93 27 21 28 22 29 23 30 24 31 25 33 26 34 27 35
REMARK SMILES IDX 88 36 28 37 87 38 29 39 30 40 31 41 81 42 32 43 86 44 80 45
REMARK SMILES IDX 82 46 33 47 85 48 79 49 78 50 34 52 66 53 46 54 65 55 47 56
REMARK SMILES IDX 50 57 64 58 83 59 48 60 49 61 63 63 84 64 51 65 35 66 36 67
REMARK SMILES IDX 44 68 37 69 38 70 42 71 45 72 39 73 40 74 43 75 41 76 67 77
REMARK SMILES IDX 68 78 76 79 69 80 70 81 74 82 77 83 71 84 72 85 75 86 73 87
REMARK SMILES IDX 52 88 53 89 61 90 54 91 55 92 59 93 62 94 56 95 57 96 60 97
REMARK SMILES IDX 58 98
REMARK H PARENT 16 8 23 32 82 51 50 62
REMARK Flexibility Score: inf
ROOT
ATOM      1  C   UNL A   1      31.751  30.528  26.806  1.00  0.00     0.002 C 
ENDROOT
BRANCH   1   2
ATOM      2  C   UNL A   1      31.686  29.809  25.454  1.00  0.00     0.002 C 
BRANCH   2   3
ATOM      3  C   UNL A   1      32.055  28.323  25.476  1.00  0.00     0.021 C 
BRANCH   3   4
ATOM      4  C   UNL A   1      33.501  28.024  25.080  1.00  0.00     0.116 C 
BRANCH   4   5
ATOM      5  N   UNL A   1      33.652  27.924  23.639  1.00  0.00    -0.352 N 
ATOM      6  C   UNL A   1      33.598  26.960  22.692  1.00  0.00     0.251 C 
ATOM      7  O   UNL A   1      33.791  27.357  21.537  1.00  0.00    -0.270 OA
ATOM      8  H   UNL A   1      33.847  28.803  23.241  1.00  0.00     0.163 HD
BRANCH   6   9
ATOM      9  C   UNL A   1      33.322  25.510  22.934  1.00  0.00     0.067 C 
ATOM     10  C   UNL A   1      33.790  20.585  24.181  1.00  0.00    -0.020 A 
ATOM     11  C   UNL A   1      32.832  21.389  23.511  1.00  0.00     0.053 A 
ATOM     12  C   UNL A   1      34.942  21.261  24.639  1.00  0.00     0.045 A 
ATOM     13  C   UNL A   1      33.014  22.754  23.289  1.00  0.00     0.128 A 
ATOM     14  C   UNL A   1      35.121  22.641  24.402  1.00  0.00     0.032 A 
ATOM     15  Cl  UNL A   1      36.234  20.542  25.532  1.00  0.00    -0.084 Cl
ATOM     16  C   UNL A   1      34.162  23.390  23.725  1.00  0.00     0.019 A 
ATOM     17  O   UNL A   1      32.027  23.389  22.596  1.00  0.00    -0.475 OA
ATOM     18  C   UNL A   1      34.351  24.805  23.441  1.00  0.00     0.025 C 
ATOM     19  C   UNL A   1      32.000  24.840  22.681  1.00  0.00     0.314 C 
BRANCH  10  20
ATOM     20  C   UNL A   1      33.432  19.087  24.345  1.00  0.00    -0.012 C 
ATOM     21  C   UNL A   1      32.427  18.659  23.239  1.00  0.00     0.016 C 
ATOM     22  C   UNL A   1      32.762  18.895  25.726  1.00  0.00     0.016 C 
ATOM     23  C   UNL A   1      34.580  18.062  24.262  1.00  0.00     0.016 C 
ENDBRANCH  10  20
BRANCH  19  24
ATOM     24  C   UNL A   1      30.902  25.264  23.672  1.00  0.00     0.429 C 
ATOM     25  F   UNL A   1      30.416  26.500  23.417  1.00  0.00    -0.167 F 
ATOM     26  F   UNL A   1      29.844  24.422  23.677  1.00  0.00    -0.167 F 
ATOM     27  F   UNL A   1      31.391  25.277  24.940  1.00  0.00    -0.167 F 
ENDBRANCH  19  24
ENDBRANCH   6   9
ENDBRANCH   4   5
ENDBRANCH   3   4
ENDBRANCH   2   3
ENDBRANCH   1   2
BRANCH   1  28
ATOM     28  C   UNL A   1      31.599  32.050  26.755  1.00  0.00     0.021 C 
BRANCH  28  29
ATOM     29  C   UNL A   1      32.814  32.837  27.233  1.00  0.00     0.116 C 
BRANCH  29  30
ATOM     30  N   UNL A   1      32.477  34.187  27.651  1.00  0.00    -0.352 N 
ATOM     31  C   UNL A   1      33.020  34.948  28.659  1.00  0.00     0.251 C 
ATOM     32  H   UNL A   1      31.756  34.620  27.139  1.00  0.00     0.163 HD
ATOM     33  O   UNL A   1      32.507  36.015  28.978  1.00  0.00    -0.269 OA
BRANCH  31  34
ATOM     34  C   UNL A   1      34.209  34.455  29.385  1.00  0.00     0.039 A 
ATOM     35  C   UNL A   1      35.494  34.688  28.891  1.00  0.00     0.014 A 
ATOM     36  C   UNL A   1      34.028  33.727  30.565  1.00  0.00     0.014 A 
ATOM     37  C   UNL A   1      36.584  34.061  29.487  1.00  0.00     0.010 A 
ATOM     38  C   UNL A   1      35.133  33.159  31.204  1.00  0.00     0.010 A 
ATOM     39  C   UNL A   1      36.414  33.280  30.641  1.00  0.00    -0.014 A 
BRANCH  39  40
ATOM     40  C   UNL A   1      37.580  32.572  31.229  1.00  0.00     0.031 A 
ATOM     41  C   UNL A   1      38.058  32.911  32.614  1.00  0.00     0.074 A 
ATOM     42  C   UNL A   1      38.176  31.586  30.533  1.00  0.00     0.049 A 
ATOM     43  N   UNL A   1      39.062  32.407  33.290  1.00  0.00    -0.248 NA
ATOM     44  C   UNL A   1      37.314  33.951  33.340  1.00  0.00     0.031 C 
ATOM     45  C   UNL A   1      37.789  31.151  29.191  1.00  0.00     0.029 A 
ATOM     46  N   UNL A   1      39.216  30.756  30.866  1.00  0.00    -0.354 N 
ATOM     47  C   UNL A   1      39.079  33.079  34.505  1.00  0.00     0.074 A 
ATOM     48  C   UNL A   1      38.004  34.047  34.468  1.00  0.00     0.031 C 
ATOM     49  C   UNL A   1      38.548  30.104  28.834  1.00  0.00     0.029 A 
ATOM     50  C   UNL A   1      39.513  29.832  29.895  1.00  0.00     0.049 A 
ATOM     51  H   UNL A   1      39.704  30.816  31.720  1.00  0.00     0.167 HD
ATOM     52  C   UNL A   1      39.908  32.894  35.560  1.00  0.00     0.037 A 
ATOM     53  C   UNL A   1      40.465  28.882  29.857  1.00  0.00     0.037 A 
ATOM     54  C   UNL A   1      40.962  31.915  35.605  1.00  0.00     0.049 A 
ATOM     55  C   UNL A   1      41.404  28.734  31.019  1.00  0.00     0.074 A 
ATOM     56  C   UNL A   1      41.842  31.641  36.639  1.00  0.00     0.029 A 
ATOM     57  N   UNL A   1      41.276  31.045  34.572  1.00  0.00    -0.354 N 
ATOM     58  N   UNL A   1      41.417  29.383  32.158  1.00  0.00    -0.248 NA
ATOM     59  C   UNL A   1      42.471  27.734  30.885  1.00  0.00     0.031 C 
ATOM     60  C   UNL A   1      42.711  30.630  36.217  1.00  0.00     0.029 A 
ATOM     61  C   UNL A   1      42.349  30.246  34.935  1.00  0.00     0.049 A 
ATOM     62  H   UNL A   1      40.805  31.000  33.708  1.00  0.00     0.167 HD
ATOM     63  C   UNL A   1      42.488  28.871  32.876  1.00  0.00     0.074 A 
ATOM     64  C   UNL A   1      43.085  27.838  32.056  1.00  0.00     0.031 C 
ATOM     65  C   UNL A   1      42.940  29.232  34.101  1.00  0.00     0.037 A 
BRANCH  52  66
ATOM     66  C   UNL A   1      39.718  33.776  36.759  1.00  0.00     0.064 A 
ATOM     67  C   UNL A   1      40.325  35.038  36.845  1.00  0.00     0.173 A 
ATOM     68  C   UNL A   1      38.873  33.380  37.807  1.00  0.00     0.173 A 
ATOM     69  F   UNL A   1      41.153  35.457  35.876  1.00  0.00    -0.203 F 
ATOM     70  C   UNL A   1      40.104  35.864  37.945  1.00  0.00     0.198 A 
ATOM     71  C   UNL A   1      38.636  34.220  38.893  1.00  0.00     0.198 A 
ATOM     72  F   UNL A   1      38.264  32.186  37.769  1.00  0.00    -0.203 F 
ATOM     73  F   UNL A   1      40.722  37.051  38.022  1.00  0.00    -0.200 F 
ATOM     74  C   UNL A   1      39.255  35.458  38.963  1.00  0.00     0.200 A 
ATOM     75  F   UNL A   1      37.806  33.830  39.871  1.00  0.00    -0.200 F 
ATOM     76  F   UNL A   1      39.035  36.260  40.014  1.00  0.00    -0.200 F 
ENDBRANCH  52  66
BRANCH  53  77
ATOM     77  C   UNL A   1      40.571  27.998  28.668  1.00  0.00     0.064 A 
ATOM     78  C   UNL A   1      39.882  26.779  28.617  1.00  0.00     0.173 A 
ATOM     79  C   UNL A   1      41.335  28.367  27.551  1.00  0.00     0.173 A 
ATOM     80  F   UNL A   1      39.156  26.376  29.670  1.00  0.00    -0.203 F 
ATOM     81  C   UNL A   1      39.956  25.959  27.493  1.00  0.00     0.198 A 
ATOM     82  C   UNL A   1      41.389  27.558  26.419  1.00  0.00     0.198 A 
ATOM     83  F   UNL A   1      42.012  29.524  27.555  1.00  0.00    -0.203 F 
ATOM     84  F   UNL A   1      39.310  24.786  27.479  1.00  0.00    -0.200 F 
ATOM     85  C   UNL A   1      40.702  26.354  26.392  1.00  0.00     0.200 A 
ATOM     86  F   UNL A   1      42.099  27.950  25.352  1.00  0.00    -0.200 F 
ATOM     87  F   UNL A   1      40.761  25.572  25.305  1.00  0.00    -0.200 F 
ENDBRANCH  53  77
BRANCH  65  88
ATOM     88  C   UNL A   1      44.144  28.509  34.629  1.00  0.00     0.064 A 
ATOM     89  C   UNL A   1      45.437  29.020  34.442  1.00  0.00     0.173 A 
ATOM     90  C   UNL A   1      44.002  27.326  35.367  1.00  0.00     0.173 A 
ATOM     91  F   UNL A   1      45.624  30.142  33.729  1.00  0.00    -0.203 F 
ATOM     92  C   UNL A   1      46.547  28.361  34.963  1.00  0.00     0.198 A 
ATOM     93  C   UNL A   1      45.112  26.683  35.907  1.00  0.00     0.198 A 
ATOM     94  F   UNL A   1      42.785  26.801  35.576  1.00  0.00    -0.203 F 
ATOM     95  F   UNL A   1      47.776  28.846  34.742  1.00  0.00    -0.200 F 
ATOM     96  C   UNL A   1      46.383  27.198  35.701  1.00  0.00     0.200 A 
ATOM     97  F   UNL A   1      44.951  25.567  36.630  1.00  0.00    -0.200 F 
ATOM     98  F   UNL A   1      47.451  26.570  36.210  1.00  0.00    -0.200 F 
ENDBRANCH  65  88
ENDBRANCH  39  40
ENDBRANCH  31  34
ENDBRANCH  29  30
ENDBRANCH  28  29
ENDBRANCH   1  28
TORSDOF 15
ENDMDL
MODEL 3
REMARK VINA RESULT:     -12.8      0.480      7.313
REMARK SMILES CC(C)(C)c1cc2c(cc1Cl)C=C(C(=O)NCCCCCCNC(=O)c1ccc(-c3c4nc(c(-c5c(F)c(F)c(F)c(F)c5F)c5ccc([nH]5)c(-c5c(F)c(F)c(F)c(F)c5F)c5nc(c(-c6c(F)c(F)c(F)c(F)c6F)c6ccc3[nH]6)C=C5)C=C4)cc1)[C@H](C(F)(F)F)O2
REMARK SMILES IDX 20 1 19 2 18 3 17 4 16 5 14 6 15 7 13 9 5 10 6 11 10 12 7 13
REMARK SMILES IDX 9 14 11 15 8 16 94 17 12 18 89 19 2 20 1 21 3 22 4 23 90 24
REMARK SMILES IDX 91 25 92 26 93 27 21 28 22 29 23 30 24 31 25 33 26 34 27 35
REMARK SMILES IDX 88 36 28 37 87 38 29 39 30 40 31 41 81 42 32 43 86 44 80 45
REMARK SMILES IDX 82 46 33 47 85 48 79 49 78 50 34 52 66 53 46 54 65 55 47 56
REMARK SMILES IDX 50 57 64 58 83 59 48 60 49 61 63 63 84 64 51 65 35 66 36 67
REMARK SMILES IDX 44 68 37 69 38 70 42 71 45 72 39 73 40 74 43 75 41 76 67 77
REMARK SMILES IDX 68 78 76 79 69 80 70 81 74 82 77 83 71 84 72 85 75 86 73 87
REMARK SMILES IDX 52 88 53 89 61 90 54 91 55 92 59 93 62 94 56 95 57 96 60 97
REMARK SMILES IDX 58 98
REMARK H PARENT 16 8 23 32 82 51 50 62
REMARK Flexibility Score: inf
ROOT
ATOM      1  C   UNL A   1      31.535  30.736  26.598  1.00  0.00     0.002 C 
ENDROOT
BRANCH   1   2
ATOM      2  C   UNL A   1      32.890  30.024  26.513  1.00  0.00     0.002 C 
BRANCH   2   3
ATOM      3  C   UNL A   1      32.965  28.657  27.198  1.00  0.00     0.021 C 
BRANCH   3   4
ATOM      4  C   UNL A   1      33.900  27.659  26.516  1.00  0.00     0.116 C 
BRANCH   4   5
ATOM      5  N   UNL A   1      33.820  27.751  25.070  1.00  0.00    -0.352 N 
ATOM      6  C   UNL A   1      33.586  26.924  24.026  1.00  0.00     0.251 C 
ATOM      7  O   UNL A   1      33.610  27.469  22.917  1.00  0.00    -0.270 OA
ATOM      8  H   UNL A   1      33.980  28.673  24.764  1.00  0.00     0.163 HD
BRANCH   6   9
ATOM      9  C   UNL A   1      33.304  25.458  24.117  1.00  0.00     0.067 C 
ATOM     10  C   UNL A   1      33.806  20.391  24.444  1.00  0.00    -0.020 A 
ATOM     11  C   UNL A   1      32.751  21.306  24.191  1.00  0.00     0.053 A 
ATOM     12  C   UNL A   1      35.076  20.970  24.660  1.00  0.00     0.045 A 
ATOM     13  C   UNL A   1      32.945  22.685  24.132  1.00  0.00     0.128 A 
ATOM     14  C   UNL A   1      35.264  22.367  24.589  1.00  0.00     0.032 A 
ATOM     15  Cl  UNL A   1      36.519  20.099  25.045  1.00  0.00    -0.084 Cl
ATOM     16  C   UNL A   1      34.202  23.228  24.322  1.00  0.00     0.019 A 
ATOM     17  O   UNL A   1      31.845  23.436  23.840  1.00  0.00    -0.475 OA
ATOM     18  C   UNL A   1      34.389  24.666  24.210  1.00  0.00     0.025 C 
ATOM     19  C   UNL A   1      31.926  24.856  24.143  1.00  0.00     0.314 C 
BRANCH  10  20
ATOM     20  C   UNL A   1      33.420  18.892  24.477  1.00  0.00    -0.012 C 
ATOM     21  C   UNL A   1      32.755  18.546  25.838  1.00  0.00     0.016 C 
ATOM     22  C   UNL A   1      34.712  18.054  24.327  1.00  0.00     0.016 C 
ATOM     23  C   UNL A   1      32.434  18.381  23.408  1.00  0.00     0.016 C 
ENDBRANCH  10  20
BRANCH  19  24
ATOM     24  C   UNL A   1      31.164  25.134  25.450  1.00  0.00     0.429 C 
ATOM     25  F   UNL A   1      30.199  24.219  25.698  1.00  0.00    -0.167 F 
ATOM     26  F   UNL A   1      31.970  25.155  26.536  1.00  0.00    -0.167 F 
ATOM     27  F   UNL A   1      30.561  26.350  25.395  1.00  0.00    -0.167 F 
ENDBRANCH  19  24
ENDBRANCH   6   9
ENDBRANCH   4   5
ENDBRANCH   3   4
ENDBRANCH   2   3
ENDBRANCH   1   2
BRANCH   1  28
ATOM     28  C   UNL A   1      31.583  32.264  26.539  1.00  0.00     0.021 C 
BRANCH  28  29
ATOM     29  C   UNL A   1      32.689  32.907  27.368  1.00  0.00     0.116 C 
BRANCH  29  30
ATOM     30  N   UNL A   1      32.410  34.297  27.690  1.00  0.00    -0.352 N 
ATOM     31  C   UNL A   1      32.973  35.098  28.654  1.00  0.00     0.251 C 
ATOM     32  H   UNL A   1      31.718  34.727  27.137  1.00  0.00     0.163 HD
ATOM     33  O   UNL A   1      32.507  36.207  28.893  1.00  0.00    -0.269 OA
BRANCH  31  34
ATOM     34  C   UNL A   1      34.125  34.600  29.434  1.00  0.00     0.039 A 
ATOM     35  C   UNL A   1      35.416  34.633  28.901  1.00  0.00     0.014 A 
ATOM     36  C   UNL A   1      33.903  34.070  30.708  1.00  0.00     0.014 A 
ATOM     37  C   UNL A   1      36.454  33.994  29.571  1.00  0.00     0.010 A 
ATOM     38  C   UNL A   1      34.963  33.493  31.413  1.00  0.00     0.010 A 
ATOM     39  C   UNL A   1      36.237  33.406  30.827  1.00  0.00    -0.014 A 
BRANCH  39  40
ATOM     40  C   UNL A   1      37.343  32.680  31.501  1.00  0.00     0.031 A 
ATOM     41  C   UNL A   1      38.052  31.552  30.801  1.00  0.00     0.074 A 
ATOM     42  C   UNL A   1      37.744  33.071  32.724  1.00  0.00     0.049 A 
ATOM     43  N   UNL A   1      39.033  30.797  31.232  1.00  0.00    -0.248 NA
ATOM     44  C   UNL A   1      37.603  31.227  29.438  1.00  0.00     0.031 C 
ATOM     45  C   UNL A   1      37.152  34.165  33.494  1.00  0.00     0.029 A 
ATOM     46  N   UNL A   1      38.759  32.612  33.524  1.00  0.00    -0.354 N 
ATOM     47  C   UNL A   1      39.304  29.902  30.205  1.00  0.00     0.074 A 
ATOM     48  C   UNL A   1      38.367  30.186  29.139  1.00  0.00     0.031 C 
ATOM     49  C   UNL A   1      37.842  34.323  34.633  1.00  0.00     0.029 A 
ATOM     50  C   UNL A   1      38.887  33.307  34.702  1.00  0.00     0.049 A 
ATOM     51  H   UNL A   1      39.341  31.855  33.279  1.00  0.00     0.167 HD
ATOM     52  C   UNL A   1      40.256  28.940  30.153  1.00  0.00     0.037 A 
ATOM     53  C   UNL A   1      39.740  33.135  35.727  1.00  0.00     0.037 A 
ATOM     54  C   UNL A   1      41.203  28.674  31.205  1.00  0.00     0.049 A 
ATOM     55  C   UNL A   1      40.752  32.027  35.665  1.00  0.00     0.074 A 
ATOM     56  C   UNL A   1      42.217  27.733  31.235  1.00  0.00     0.029 A 
ATOM     57  N   UNL A   1      41.253  29.355  32.411  1.00  0.00    -0.354 N 
ATOM     58  N   UNL A   1      40.991  31.181  34.694  1.00  0.00    -0.248 NA
ATOM     59  C   UNL A   1      41.602  31.841  36.849  1.00  0.00     0.031 C 
ATOM     60  C   UNL A   1      42.858  27.820  32.475  1.00  0.00     0.029 A 
ATOM     61  C   UNL A   1      42.269  28.842  33.202  1.00  0.00     0.049 A 
ATOM     62  H   UNL A   1      40.656  30.096  32.668  1.00  0.00     0.167 HD
ATOM     63  C   UNL A   1      42.016  30.362  35.145  1.00  0.00     0.074 A 
ATOM     64  C   UNL A   1      42.374  30.832  36.468  1.00  0.00     0.031 C 
ATOM     65  C   UNL A   1      42.602  29.312  34.522  1.00  0.00     0.037 A 
BRANCH  52  66
ATOM     66  C   UNL A   1      40.323  28.091  28.918  1.00  0.00     0.064 A 
ATOM     67  C   UNL A   1      41.121  28.453  27.822  1.00  0.00     0.173 A 
ATOM     68  C   UNL A   1      39.628  26.875  28.851  1.00  0.00     0.173 A 
ATOM     69  F   UNL A   1      41.795  29.613  27.831  1.00  0.00    -0.203 F 
ATOM     70  C   UNL A   1      41.208  27.633  26.699  1.00  0.00     0.198 A 
ATOM     71  C   UNL A   1      39.737  26.046  27.737  1.00  0.00     0.198 A 
ATOM     72  F   UNL A   1      38.855  26.481  29.875  1.00  0.00    -0.203 F 
ATOM     73  F   UNL A   1      41.950  28.015  25.650  1.00  0.00    -0.200 F 
ATOM     74  C   UNL A   1      40.522  26.428  26.661  1.00  0.00     0.200 A 
ATOM     75  F   UNL A   1      39.082  24.877  27.705  1.00  0.00    -0.200 F 
ATOM     76  F   UNL A   1      40.617  25.636  25.583  1.00  0.00    -0.200 F 
ENDBRANCH  52  66
BRANCH  53  77
ATOM     77  C   UNL A   1      39.667  34.042  36.901  1.00  0.00     0.064 A 
ATOM     78  C   UNL A   1      38.885  33.711  38.016  1.00  0.00     0.173 A 
ATOM     79  C   UNL A   1      40.398  35.239  36.945  1.00  0.00     0.173 A 
ATOM     80  F   UNL A   1      38.152  32.588  38.009  1.00  0.00    -0.203 F 
ATOM     81  C   UNL A   1      38.835  34.545  39.130  1.00  0.00     0.198 A 
ATOM     82  C   UNL A   1      40.366  36.059  38.070  1.00  0.00     0.198 A 
ATOM     83  F   UNL A   1      41.160  35.598  35.902  1.00  0.00    -0.203 F 
ATOM     84  F   UNL A   1      38.059  34.220  40.173  1.00  0.00    -0.200 F 
ATOM     85  C   UNL A   1      39.583  35.713  39.160  1.00  0.00     0.200 A 
ATOM     86  F   UNL A   1      41.101  37.179  38.100  1.00  0.00    -0.200 F 
ATOM     87  F   UNL A   1      39.546  36.507  40.239  1.00  0.00    -0.200 F 
ENDBRANCH  53  77
BRANCH  65  88
ATOM     88  C   UNL A   1      43.688  28.592  35.265  1.00  0.00     0.064 A 
ATOM     89  C   UNL A   1      45.035  28.950  35.110  1.00  0.00     0.173 A 
ATOM     90  C   UNL A   1      43.377  27.570  36.174  1.00  0.00     0.173 A 
ATOM     91  F   UNL A   1      45.383  29.911  34.240  1.00  0.00    -0.203 F 
ATOM     92  C   UNL A   1      46.034  28.299  35.829  1.00  0.00     0.198 A 
ATOM     93  C   UNL A   1      44.376  26.939  36.909  1.00  0.00     0.198 A 
ATOM     94  F   UNL A   1      42.103  27.196  36.361  1.00  0.00    -0.203 F 
ATOM     95  F   UNL A   1      47.318  28.633  35.639  1.00  0.00    -0.200 F 
ATOM     96  C   UNL A   1      45.704  27.301  36.733  1.00  0.00     0.200 A 
ATOM     97  F   UNL A   1      44.055  25.983  37.791  1.00  0.00    -0.200 F 
ATOM     98  F   UNL A   1      46.666  26.682  37.430  1.00  0.00    -0.200 F 
ENDBRANCH  65  88
ENDBRANCH  39  40
ENDBRANCH  31  34
ENDBRANCH  29  30
ENDBRANCH  28  29
ENDBRANCH   1  28
TORSDOF 15
ENDMDL
