MODEL 1
REMARK VINA RESULT:     -12.8      0.000      0.000
REMARK SMILES CC1(C)[C@H](C(=O)NCCCCCCNC(=O)c2ccc(-c3c4nc(c(-c5c(F)c(F)c(F)c(F)c5F)c5ccc([nH]5)c(-c5c(F)c(F)c(F)c(F)c5F)c5nc(c(-c6c(F)c(F)c(F)c(F)c6F)c6ccc3[nH]6)C=C5)C=C4)cc2)[C@H]1C(=O)Nc1ccccc1C(=O)Nc1nccs1
REMARK SMILES IDX 9 1 8 2 7 3 5 4 6 5 4 7 1 8 2 9 3 10 80 11 81 12 82 13 83 14
REMARK SMILES IDX 84 16 85 17 89 18 86 19 88 20 87 21 90 22 91 23 92 24 93 26
REMARK SMILES IDX 94 27 97 28 95 29 96 30 10 31 11 32 12 33 13 34 14 35 15 36
REMARK SMILES IDX 16 38 17 39 18 40 79 41 19 42 78 43 20 44 21 45 22 46 72 47
REMARK SMILES IDX 23 48 77 49 71 50 73 51 24 52 76 53 70 54 69 55 25 57 57 58
REMARK SMILES IDX 37 59 56 60 38 61 41 62 55 63 74 64 39 65 40 66 54 68 75 69
REMARK SMILES IDX 42 70 26 71 27 72 35 73 28 74 29 75 33 76 36 77 30 78 31 79
REMARK SMILES IDX 34 80 32 81 58 82 59 83 67 84 60 85 61 86 65 87 68 88 62 89
REMARK SMILES IDX 63 90 66 91 64 92 43 93 44 94 52 95 45 96 46 97 50 98 53 99
REMARK SMILES IDX 47 100 48 101 51 102 49 103
REMARK H PARENT 7 6 83 15 92 25 14 37 73 56 41 67
REMARK Flexibility Score: inf
ROOT
ATOM      1  C   UNL A   1      32.316  28.532  26.747  1.00  0.00     0.021 C 
ENDROOT
BRANCH   1   2
ATOM      2  C   UNL A   1      33.603  28.278  25.967  1.00  0.00     0.116 C 
BRANCH   2   3
ATOM      3  N   UNL A   1      33.955  26.894  26.080  1.00  0.00    -0.356 N 
ATOM      4  C   UNL A   1      33.343  25.788  25.588  1.00  0.00     0.224 C 
ATOM      5  O   UNL A   1      33.622  24.717  26.114  1.00  0.00    -0.275 OA
ATOM      6  H   UNL A   1      34.773  26.718  26.599  1.00  0.00     0.163 HD
BRANCH   4   7
ATOM      7  C   UNL A   1      32.459  25.759  24.415  1.00  0.00     0.098 C 
ATOM      8  C   UNL A   1      31.144  27.356  23.049  1.00  0.00     0.013 C 
ATOM      9  C   UNL A   1      32.388  26.496  23.122  1.00  0.00    -0.011 C 
ATOM     10  C   UNL A   1      33.519  27.212  22.397  1.00  0.00     0.013 C 
ATOM     11  C   UNL A   1      32.595  24.958  23.135  1.00  0.00     0.098 C 
BRANCH  11  12
ATOM     12  C   UNL A   1      32.009  23.623  23.384  1.00  0.00     0.228 C 
ATOM     13  O   UNL A   1      30.792  23.513  23.223  1.00  0.00    -0.274 OA
ATOM     14  N   UNL A   1      32.699  22.498  23.694  1.00  0.00    -0.325 N 
ATOM     15  H   UNL A   1      32.147  21.684  23.713  1.00  0.00     0.169 HD
BRANCH  14  16
ATOM     16  C   UNL A   1      34.040  22.275  23.992  1.00  0.00     0.054 A 
ATOM     17  C   UNL A   1      34.901  22.859  23.042  1.00  0.00     0.027 A 
ATOM     18  C   UNL A   1      34.567  21.618  25.112  1.00  0.00     0.063 A 
ATOM     19  C   UNL A   1      36.255  23.008  23.304  1.00  0.00     0.002 A 
ATOM     20  C   UNL A   1      35.944  21.797  25.363  1.00  0.00     0.016 A 
ATOM     21  C   UNL A   1      36.769  22.520  24.494  1.00  0.00     0.001 A 
BRANCH  18  22
ATOM     22  C   UNL A   1      33.826  20.797  26.133  1.00  0.00     0.259 C 
ATOM     23  O   UNL A   1      33.917  21.116  27.324  1.00  0.00    -0.269 OA
ATOM     24  N   UNL A   1      32.986  19.756  25.850  1.00  0.00    -0.298 N 
ATOM     25  H   UNL A   1      32.290  19.569  26.522  1.00  0.00     0.172 HD
BRANCH  24  26
ATOM     26  C   UNL A   1      32.990  18.949  24.758  1.00  0.00     0.189 A 
ATOM     27  N   UNL A   1      32.436  19.130  23.587  1.00  0.00    -0.229 NA
ATOM     28  S   UNL A   1      33.817  17.473  25.001  1.00  0.00    -0.105 S 
ATOM     29  C   UNL A   1      32.582  17.973  22.846  1.00  0.00     0.125 A 
ATOM     30  C   UNL A   1      33.242  16.938  23.476  1.00  0.00     0.088 A 
ENDBRANCH  24  26
ENDBRANCH  18  22
ENDBRANCH  14  16
ENDBRANCH  11  12
ENDBRANCH   4   7
ENDBRANCH   2   3
ENDBRANCH   1   2
BRANCH   1  31
ATOM     31  C   UNL A   1      32.173  29.989  27.194  1.00  0.00     0.002 C 
BRANCH  31  32
ATOM     32  C   UNL A   1      31.479  30.886  26.167  1.00  0.00     0.002 C 
BRANCH  32  33
ATOM     33  C   UNL A   1      31.358  32.350  26.601  1.00  0.00     0.021 C 
BRANCH  33  34
ATOM     34  C   UNL A   1      32.634  32.911  27.216  1.00  0.00     0.116 C 
BRANCH  34  35
ATOM     35  N   UNL A   1      32.460  34.297  27.618  1.00  0.00    -0.352 N 
ATOM     36  C   UNL A   1      33.010  34.963  28.679  1.00  0.00     0.251 C 
ATOM     37  H   UNL A   1      31.859  34.830  27.048  1.00  0.00     0.163 HD
ATOM     38  O   UNL A   1      32.550  36.039  29.044  1.00  0.00    -0.269 OA
BRANCH  36  39
ATOM     39  C   UNL A   1      34.166  34.375  29.381  1.00  0.00     0.039 A 
ATOM     40  C   UNL A   1      33.948  33.653  30.555  1.00  0.00     0.014 A 
ATOM     41  C   UNL A   1      35.463  34.552  28.888  1.00  0.00     0.014 A 
ATOM     42  C   UNL A   1      35.031  33.074  31.216  1.00  0.00     0.010 A 
ATOM     43  C   UNL A   1      36.530  33.905  29.501  1.00  0.00     0.010 A 
ATOM     44  C   UNL A   1      36.326  33.174  30.680  1.00  0.00    -0.014 A 
BRANCH  44  45
ATOM     45  C   UNL A   1      37.481  32.532  31.352  1.00  0.00     0.031 A 
ATOM     46  C   UNL A   1      38.211  31.401  30.682  1.00  0.00     0.074 A 
ATOM     47  C   UNL A   1      37.840  32.937  32.584  1.00  0.00     0.049 A 
ATOM     48  N   UNL A   1      39.216  30.688  31.124  1.00  0.00    -0.248 NA
ATOM     49  C   UNL A   1      37.733  30.999  29.350  1.00  0.00     0.031 C 
ATOM     50  C   UNL A   1      37.176  33.992  33.354  1.00  0.00     0.029 A 
ATOM     51  N   UNL A   1      38.848  32.509  33.410  1.00  0.00    -0.354 N 
ATOM     52  C   UNL A   1      39.480  29.752  30.133  1.00  0.00     0.074 A 
ATOM     53  C   UNL A   1      38.493  29.945  29.094  1.00  0.00     0.031 C 
ATOM     54  C   UNL A   1      37.812  34.148  34.525  1.00  0.00     0.029 A 
ATOM     55  C   UNL A   1      38.899  33.177  34.609  1.00  0.00     0.049 A 
ATOM     56  H   UNL A   1      39.476  31.791  33.167  1.00  0.00     0.167 HD
ATOM     57  C   UNL A   1      40.473  28.832  30.083  1.00  0.00     0.037 A 
ATOM     58  C   UNL A   1      39.727  33.019  35.659  1.00  0.00     0.037 A 
ATOM     59  C   UNL A   1      41.463  28.658  31.114  1.00  0.00     0.049 A 
ATOM     60  C   UNL A   1      40.813  31.981  35.581  1.00  0.00     0.074 A 
ATOM     61  C   UNL A   1      42.542  27.793  31.135  1.00  0.00     0.029 A 
ATOM     62  N   UNL A   1      41.490  29.361  32.309  1.00  0.00    -0.354 N 
ATOM     63  N   UNL A   1      41.100  31.151  34.607  1.00  0.00    -0.248 NA
ATOM     64  C   UNL A   1      41.701  31.865  36.746  1.00  0.00     0.031 C 
ATOM     65  C   UNL A   1      43.187  27.930  32.368  1.00  0.00     0.029 A 
ATOM     66  C   UNL A   1      42.553  28.929  33.087  1.00  0.00     0.049 A 
ATOM     67  H   UNL A   1      40.850  30.063  32.567  1.00  0.00     0.167 HD
ATOM     68  C   UNL A   1      42.216  30.440  35.026  1.00  0.00     0.074 A 
ATOM     69  C   UNL A   1      42.567  30.950  36.336  1.00  0.00     0.031 C 
ATOM     70  C   UNL A   1      42.892  29.455  34.386  1.00  0.00     0.037 A 
BRANCH  57  71
ATOM     71  C   UNL A   1      40.538  27.941  28.875  1.00  0.00     0.064 A 
ATOM     72  C   UNL A   1      39.786  26.759  28.786  1.00  0.00     0.173 A 
ATOM     73  C   UNL A   1      41.332  28.295  27.772  1.00  0.00     0.173 A 
ATOM     74  F   UNL A   1      39.020  26.368  29.815  1.00  0.00    -0.203 F 
ATOM     75  C   UNL A   1      39.849  25.951  27.653  1.00  0.00     0.198 A 
ATOM     76  C   UNL A   1      41.364  27.503  26.627  1.00  0.00     0.198 A 
ATOM     77  F   UNL A   1      42.068  29.416  27.800  1.00  0.00    -0.203 F 
ATOM     78  F   UNL A   1      39.161  24.802  27.614  1.00  0.00    -0.200 F 
ATOM     79  C   UNL A   1      40.630  26.329  26.571  1.00  0.00     0.200 A 
ATOM     80  F   UNL A   1      42.108  27.878  25.577  1.00  0.00    -0.200 F 
ATOM     81  F   UNL A   1      40.680  25.556  25.478  1.00  0.00    -0.200 F 
ENDBRANCH  57  71
BRANCH  58  82
ATOM     82  C   UNL A   1      39.574  33.875  36.865  1.00  0.00     0.064 A 
ATOM     83  C   UNL A   1      38.820  33.447  37.966  1.00  0.00     0.173 A 
ATOM     84  C   UNL A   1      40.164  35.146  36.936  1.00  0.00     0.173 A 
ATOM     85  F   UNL A   1      38.220  32.247  37.940  1.00  0.00    -0.203 F 
ATOM     86  C   UNL A   1      38.635  34.266  39.077  1.00  0.00     0.198 A 
ATOM     87  C   UNL A   1      40.007  35.951  38.063  1.00  0.00     0.198 A 
ATOM     88  F   UNL A   1      40.903  35.602  35.914  1.00  0.00    -0.203 F 
ATOM     89  F   UNL A   1      37.860  33.853  40.090  1.00  0.00    -0.200 F 
ATOM     90  C   UNL A   1      39.233  35.516  39.127  1.00  0.00     0.200 A 
ATOM     91  F   UNL A   1      40.603  37.150  38.113  1.00  0.00    -0.200 F 
ATOM     92  F   UNL A   1      39.057  36.304  40.196  1.00  0.00    -0.200 F 
ENDBRANCH  58  82
BRANCH  70  93
ATOM     93  C   UNL A   1      44.108  28.896  35.071  1.00  0.00     0.064 A 
ATOM     94  C   UNL A   1      44.032  27.792  35.933  1.00  0.00     0.173 A 
ATOM     95  C   UNL A   1      45.373  29.459  34.837  1.00  0.00     0.173 A 
ATOM     96  F   UNL A   1      42.847  27.225  36.201  1.00  0.00    -0.203 F 
ATOM     97  C   UNL A   1      45.171  27.297  36.563  1.00  0.00     0.198 A 
ATOM     98  C   UNL A   1      46.514  28.937  35.439  1.00  0.00     0.198 A 
ATOM     99  F   UNL A   1      45.504  30.510  34.014  1.00  0.00    -0.203 F 
ATOM    100  F   UNL A   1      45.065  26.280  37.431  1.00  0.00    -0.200 F 
ATOM    101  C   UNL A   1      46.410  27.864  36.310  1.00  0.00     0.200 A 
ATOM    102  F   UNL A   1      47.713  29.476  35.178  1.00  0.00    -0.200 F 
ATOM    103  F   UNL A   1      47.505  27.382  36.914  1.00  0.00    -0.200 F 
ENDBRANCH  70  93
ENDBRANCH  44  45
ENDBRANCH  36  39
ENDBRANCH  34  35
ENDBRANCH  33  34
ENDBRANCH  32  33
ENDBRANCH  31  32
ENDBRANCH   1  31
TORSDOF 17
ENDMDL
MODEL 2
REMARK VINA RESULT:     -12.8      0.522      7.189
REMARK SMILES CC1(C)[C@H](C(=O)NCCCCCCNC(=O)c2ccc(-c3c4nc(c(-c5c(F)c(F)c(F)c(F)c5F)c5ccc([nH]5)c(-c5c(F)c(F)c(F)c(F)c5F)c5nc(c(-c6c(F)c(F)c(F)c(F)c6F)c6ccc3[nH]6)C=C5)C=C4)cc2)[C@H]1C(=O)Nc1ccccc1C(=O)Nc1nccs1
REMARK SMILES IDX 9 1 8 2 7 3 5 4 6 5 4 7 1 8 2 9 3 10 80 11 81 12 82 13 83 14
REMARK SMILES IDX 84 16 85 17 89 18 86 19 88 20 87 21 90 22 91 23 92 24 93 26
REMARK SMILES IDX 94 27 97 28 95 29 96 30 10 31 11 32 12 33 13 34 14 35 15 36
REMARK SMILES IDX 16 38 17 39 18 40 79 41 19 42 78 43 20 44 21 45 22 46 72 47
REMARK SMILES IDX 23 48 77 49 71 50 73 51 24 52 76 53 70 54 69 55 25 57 57 58
REMARK SMILES IDX 37 59 56 60 38 61 41 62 55 63 74 64 39 65 40 66 54 68 75 69
REMARK SMILES IDX 42 70 26 71 27 72 35 73 28 74 29 75 33 76 36 77 30 78 31 79
REMARK SMILES IDX 34 80 32 81 58 82 59 83 67 84 60 85 61 86 65 87 68 88 62 89
REMARK SMILES IDX 63 90 66 91 64 92 43 93 44 94 52 95 45 96 46 97 50 98 53 99
REMARK SMILES IDX 47 100 48 101 51 102 49 103
REMARK H PARENT 7 6 83 15 92 25 14 37 73 56 41 67
REMARK Flexibility Score: inf
ROOT
ATOM      1  C   UNL A   1      32.300  28.674  26.664  1.00  0.00     0.021 C 
ENDROOT
BRANCH   1   2
ATOM      2  C   UNL A   1      33.570  28.440  25.851  1.00  0.00     0.116 C 
BRANCH   2   3
ATOM      3  N   UNL A   1      33.955  27.066  25.967  1.00  0.00    -0.356 N 
ATOM      4  C   UNL A   1      33.359  25.942  25.498  1.00  0.00     0.224 C 
ATOM      5  O   UNL A   1      33.673  24.883  26.027  1.00  0.00    -0.275 OA
ATOM      6  H   UNL A   1      34.788  26.913  26.469  1.00  0.00     0.163 HD
BRANCH   4   7
ATOM      7  C   UNL A   1      32.450  25.882  24.345  1.00  0.00     0.098 C 
ATOM      8  C   UNL A   1      31.139  27.449  22.939  1.00  0.00     0.013 C 
ATOM      9  C   UNL A   1      32.367  26.566  23.024  1.00  0.00    -0.011 C 
ATOM     10  C   UNL A   1      33.497  27.226  22.247  1.00  0.00     0.013 C 
ATOM     11  C   UNL A   1      32.543  25.026  23.099  1.00  0.00     0.098 C 
BRANCH  11  12
ATOM     12  C   UNL A   1      31.934  23.715  23.417  1.00  0.00     0.228 C 
ATOM     13  O   UNL A   1      30.709  23.631  23.304  1.00  0.00    -0.274 OA
ATOM     14  N   UNL A   1      32.608  22.585  23.740  1.00  0.00    -0.325 N 
ATOM     15  H   UNL A   1      32.037  21.786  23.808  1.00  0.00     0.169 HD
BRANCH  14  16
ATOM     16  C   UNL A   1      33.953  22.337  23.996  1.00  0.00     0.054 A 
ATOM     17  C   UNL A   1      34.798  22.981  23.070  1.00  0.00     0.027 A 
ATOM     18  C   UNL A   1      34.498  21.606  25.059  1.00  0.00     0.063 A 
ATOM     19  C   UNL A   1      36.157  23.108  23.314  1.00  0.00     0.002 A 
ATOM     20  C   UNL A   1      35.881  21.763  25.295  1.00  0.00     0.016 A 
ATOM     21  C   UNL A   1      36.693  22.540  24.460  1.00  0.00     0.001 A 
BRANCH  18  22
ATOM     22  C   UNL A   1      33.774  20.722  26.039  1.00  0.00     0.259 C 
ATOM     23  O   UNL A   1      33.799  21.024  27.237  1.00  0.00    -0.269 OA
ATOM     24  N   UNL A   1      33.013  19.635  25.707  1.00  0.00    -0.298 N 
ATOM     25  H   UNL A   1      32.306  19.392  26.348  1.00  0.00     0.172 HD
BRANCH  24  26
ATOM     26  C   UNL A   1      33.109  18.849  24.603  1.00  0.00     0.189 A 
ATOM     27  N   UNL A   1      32.323  18.780  23.561  1.00  0.00    -0.229 NA
ATOM     28  S   UNL A   1      34.444  17.784  24.636  1.00  0.00    -0.105 S 
ATOM     29  C   UNL A   1      32.740  17.731  22.763  1.00  0.00     0.125 A 
ATOM     30  C   UNL A   1      33.833  17.027  23.223  1.00  0.00     0.088 A 
ENDBRANCH  24  26
ENDBRANCH  18  22
ENDBRANCH  14  16
ENDBRANCH  11  12
ENDBRANCH   4   7
ENDBRANCH   2   3
ENDBRANCH   1   2
BRANCH   1  31
ATOM     31  C   UNL A   1      32.142  30.130  27.109  1.00  0.00     0.002 C 
BRANCH  31  32
ATOM     32  C   UNL A   1      31.349  30.995  26.128  1.00  0.00     0.002 C 
BRANCH  32  33
ATOM     33  C   UNL A   1      31.341  32.486  26.478  1.00  0.00     0.021 C 
BRANCH  33  34
ATOM     34  C   UNL A   1      32.613  32.956  27.172  1.00  0.00     0.116 C 
BRANCH  34  35
ATOM     35  N   UNL A   1      32.475  34.319  27.658  1.00  0.00    -0.352 N 
ATOM     36  C   UNL A   1      33.068  34.914  28.739  1.00  0.00     0.251 C 
ATOM     37  H   UNL A   1      31.868  34.894  27.138  1.00  0.00     0.163 HD
ATOM     38  O   UNL A   1      32.638  35.974  29.179  1.00  0.00    -0.269 OA
BRANCH  36  39
ATOM     39  C   UNL A   1      34.233  34.267  29.371  1.00  0.00     0.039 A 
ATOM     40  C   UNL A   1      34.022  33.378  30.426  1.00  0.00     0.014 A 
ATOM     41  C   UNL A   1      35.530  34.553  28.933  1.00  0.00     0.014 A 
ATOM     42  C   UNL A   1      35.115  32.745  31.018  1.00  0.00     0.010 A 
ATOM     43  C   UNL A   1      36.609  33.858  29.467  1.00  0.00     0.010 A 
ATOM     44  C   UNL A   1      36.413  32.960  30.526  1.00  0.00    -0.014 A 
BRANCH  44  45
ATOM     45  C   UNL A   1      37.579  32.264  31.121  1.00  0.00     0.031 A 
ATOM     46  C   UNL A   1      38.072  32.653  32.488  1.00  0.00     0.074 A 
ATOM     47  C   UNL A   1      38.220  31.317  30.411  1.00  0.00     0.049 A 
ATOM     48  N   UNL A   1      39.096  32.190  33.160  1.00  0.00    -0.248 NA
ATOM     49  C   UNL A   1      37.334  33.720  33.181  1.00  0.00     0.031 C 
ATOM     50  C   UNL A   1      37.863  30.890  29.057  1.00  0.00     0.029 A 
ATOM     51  N   UNL A   1      39.309  30.544  30.726  1.00  0.00    -0.354 N 
ATOM     52  C   UNL A   1      39.128  32.916  34.344  1.00  0.00     0.074 A 
ATOM     53  C   UNL A   1      38.063  33.891  34.274  1.00  0.00     0.031 C 
ATOM     54  C   UNL A   1      38.698  29.913  28.669  1.00  0.00     0.029 A 
ATOM     55  C   UNL A   1      39.674  29.675  29.728  1.00  0.00     0.049 A 
ATOM     56  H   UNL A   1      39.783  30.606  31.587  1.00  0.00     0.167 HD
ATOM     57  C   UNL A   1      39.958  32.764  35.405  1.00  0.00     0.037 A 
ATOM     58  C   UNL A   1      40.688  28.791  29.672  1.00  0.00     0.037 A 
ATOM     59  C   UNL A   1      41.006  31.780  35.474  1.00  0.00     0.049 A 
ATOM     60  C   UNL A   1      41.601  28.652  30.860  1.00  0.00     0.074 A 
ATOM     61  C   UNL A   1      41.865  31.508  36.524  1.00  0.00     0.029 A 
ATOM     62  N   UNL A   1      41.340  30.908  34.447  1.00  0.00    -0.354 N 
ATOM     63  N   UNL A   1      41.578  29.292  32.004  1.00  0.00    -0.248 NA
ATOM     64  C   UNL A   1      42.677  27.658  30.753  1.00  0.00     0.031 C 
ATOM     65  C   UNL A   1      42.757  30.513  36.111  1.00  0.00     0.029 A 
ATOM     66  C   UNL A   1      42.411  30.116  34.829  1.00  0.00     0.049 A 
ATOM     67  H   UNL A   1      40.884  30.859  33.576  1.00  0.00     0.167 HD
ATOM     68  C   UNL A   1      42.609  28.757  32.763  1.00  0.00     0.074 A 
ATOM     69  C   UNL A   1      43.228  27.726  31.956  1.00  0.00     0.031 C 
ATOM     70  C   UNL A   1      43.009  29.087  34.016  1.00  0.00     0.037 A 
BRANCH  57  71
ATOM     71  C   UNL A   1      39.767  33.685  36.576  1.00  0.00     0.064 A 
ATOM     72  C   UNL A   1      40.405  34.933  36.648  1.00  0.00     0.173 A 
ATOM     73  C   UNL A   1      38.900  33.333  37.623  1.00  0.00     0.173 A 
ATOM     74  F   UNL A   1      41.253  35.314  35.681  1.00  0.00    -0.203 F 
ATOM     75  C   UNL A   1      40.207  35.779  37.736  1.00  0.00     0.198 A 
ATOM     76  C   UNL A   1      38.677  34.198  38.692  1.00  0.00     0.198 A 
ATOM     77  F   UNL A   1      38.260  32.155  37.604  1.00  0.00    -0.203 F 
ATOM     78  F   UNL A   1      40.868  36.943  37.806  1.00  0.00    -0.200 F 
ATOM     79  C   UNL A   1      39.336  35.415  38.752  1.00  0.00     0.200 A 
ATOM     80  F   UNL A   1      37.822  33.851  39.664  1.00  0.00    -0.200 F 
ATOM     81  F   UNL A   1      39.137  36.236  39.791  1.00  0.00    -0.200 F 
ENDBRANCH  57  71
BRANCH  58  82
ATOM     82  C   UNL A   1      40.882  27.955  28.458  1.00  0.00     0.064 A 
ATOM     83  C   UNL A   1      41.662  28.407  27.385  1.00  0.00     0.173 A 
ATOM     84  C   UNL A   1      40.279  26.694  28.337  1.00  0.00     0.173 A 
ATOM     85  F   UNL A   1      42.246  29.613  27.443  1.00  0.00    -0.203 F 
ATOM     86  C   UNL A   1      41.807  27.647  26.227  1.00  0.00     0.198 A 
ATOM     87  C   UNL A   1      40.452  25.919  27.192  1.00  0.00     0.198 A 
ATOM     88  F   UNL A   1      39.528  26.209  29.337  1.00  0.00    -0.203 F 
ATOM     89  F   UNL A   1      42.510  28.130  25.193  1.00  0.00    -0.200 F 
ATOM     90  C   UNL A   1      41.205  26.400  26.133  1.00  0.00     0.200 A 
ATOM     91  F   UNL A   1      39.884  24.708  27.115  1.00  0.00    -0.200 F 
ATOM     92  F   UNL A   1      41.345  25.668  25.020  1.00  0.00    -0.200 F 
ENDBRANCH  58  82
BRANCH  70  93
ATOM     93  C   UNL A   1      44.139  28.294  34.610  1.00  0.00     0.064 A 
ATOM     94  C   UNL A   1      45.473  28.718  34.516  1.00  0.00     0.173 A 
ATOM     95  C   UNL A   1      43.877  27.104  35.308  1.00  0.00     0.173 A 
ATOM     96  F   UNL A   1      45.779  29.841  33.848  1.00  0.00    -0.203 F 
ATOM     97  C   UNL A   1      46.504  27.962  35.066  1.00  0.00     0.198 A 
ATOM     98  C   UNL A   1      44.907  26.372  35.890  1.00  0.00     0.198 A 
ATOM     99  F   UNL A   1      42.619  26.658  35.436  1.00  0.00    -0.203 F 
ATOM    100  F   UNL A   1      47.777  28.356  34.911  1.00  0.00    -0.200 F 
ATOM    101  C   UNL A   1      46.220  26.795  35.759  1.00  0.00     0.200 A 
ATOM    102  F   UNL A   1      44.628  25.253  36.574  1.00  0.00    -0.200 F 
ATOM    103  F   UNL A   1      47.215  26.072  36.293  1.00  0.00    -0.200 F 
ENDBRANCH  70  93
ENDBRANCH  44  45
ENDBRANCH  36  39
ENDBRANCH  34  35
ENDBRANCH  33  34
ENDBRANCH  32  33
ENDBRANCH  31  32
ENDBRANCH   1  31
TORSDOF 17
ENDMDL
MODEL 3
REMARK VINA RESULT:     -12.8      1.019      2.007
REMARK SMILES CC1(C)[C@H](C(=O)NCCCCCCNC(=O)c2ccc(-c3c4nc(c(-c5c(F)c(F)c(F)c(F)c5F)c5ccc([nH]5)c(-c5c(F)c(F)c(F)c(F)c5F)c5nc(c(-c6c(F)c(F)c(F)c(F)c6F)c6ccc3[nH]6)C=C5)C=C4)cc2)[C@H]1C(=O)Nc1ccccc1C(=O)Nc1nccs1
REMARK SMILES IDX 9 1 8 2 7 3 5 4 6 5 4 7 1 8 2 9 3 10 80 11 81 12 82 13 83 14
REMARK SMILES IDX 84 16 85 17 89 18 86 19 88 20 87 21 90 22 91 23 92 24 93 26
REMARK SMILES IDX 94 27 97 28 95 29 96 30 10 31 11 32 12 33 13 34 14 35 15 36
REMARK SMILES IDX 16 38 17 39 18 40 79 41 19 42 78 43 20 44 21 45 22 46 72 47
REMARK SMILES IDX 23 48 77 49 71 50 73 51 24 52 76 53 70 54 69 55 25 57 57 58
REMARK SMILES IDX 37 59 56 60 38 61 41 62 55 63 74 64 39 65 40 66 54 68 75 69
REMARK SMILES IDX 42 70 26 71 27 72 35 73 28 74 29 75 33 76 36 77 30 78 31 79
REMARK SMILES IDX 34 80 32 81 58 82 59 83 67 84 60 85 61 86 65 87 68 88 62 89
REMARK SMILES IDX 63 90 66 91 64 92 43 93 44 94 52 95 45 96 46 97 50 98 53 99
REMARK SMILES IDX 47 100 48 101 51 102 49 103
REMARK H PARENT 7 6 83 15 92 25 14 37 73 56 41 67
REMARK Flexibility Score: inf
ROOT
ATOM      1  C   UNL A   1      32.241  28.764  26.743  1.00  0.00     0.021 C 
ENDROOT
BRANCH   1   2
ATOM      2  C   UNL A   1      32.713  28.383  25.342  1.00  0.00     0.116 C 
BRANCH   2   3
ATOM      3  N   UNL A   1      33.491  27.184  25.420  1.00  0.00    -0.356 N 
ATOM      4  C   UNL A   1      33.131  25.921  25.761  1.00  0.00     0.224 C 
ATOM      5  O   UNL A   1      34.028  25.159  26.101  1.00  0.00    -0.275 OA
ATOM      6  H   UNL A   1      34.442  27.293  25.188  1.00  0.00     0.163 HD
BRANCH   4   7
ATOM      7  C   UNL A   1      31.773  25.370  25.657  1.00  0.00     0.098 C 
ATOM      8  C   UNL A   1      29.533  26.101  24.888  1.00  0.00     0.013 C 
ATOM      9  C   UNL A   1      30.754  25.260  24.577  1.00  0.00    -0.011 C 
ATOM     10  C   UNL A   1      30.987  25.278  23.072  1.00  0.00     0.013 C 
ATOM     11  C   UNL A   1      31.336  23.981  25.235  1.00  0.00     0.098 C 
BRANCH  11  12
ATOM     12  C   UNL A   1      31.401  23.114  26.432  1.00  0.00     0.228 C 
ATOM     13  O   UNL A   1      30.481  23.220  27.245  1.00  0.00    -0.274 OA
ATOM     14  N   UNL A   1      32.335  22.162  26.672  1.00  0.00    -0.325 N 
ATOM     15  H   UNL A   1      32.149  21.612  27.466  1.00  0.00     0.169 HD
BRANCH  14  16
ATOM     16  C   UNL A   1      33.508  21.813  26.009  1.00  0.00     0.054 A 
ATOM     17  C   UNL A   1      34.657  22.274  26.681  1.00  0.00     0.027 A 
ATOM     18  C   UNL A   1      33.632  21.041  24.846  1.00  0.00     0.063 A 
ATOM     19  C   UNL A   1      35.915  21.789  26.356  1.00  0.00     0.002 A 
ATOM     20  C   UNL A   1      34.921  20.547  24.546  1.00  0.00     0.016 A 
ATOM     21  C   UNL A   1      36.041  20.881  25.317  1.00  0.00     0.001 A 
BRANCH  18  22
ATOM     22  C   UNL A   1      32.540  20.604  23.907  1.00  0.00     0.259 C 
ATOM     23  O   UNL A   1      31.849  21.471  23.361  1.00  0.00    -0.269 OA
ATOM     24  N   UNL A   1      32.288  19.310  23.539  1.00  0.00    -0.298 N 
ATOM     25  H   UNL A   1      31.844  19.190  22.667  1.00  0.00     0.172 HD
BRANCH  24  26
ATOM     26  C   UNL A   1      32.573  18.173  24.223  1.00  0.00     0.189 A 
ATOM     27  N   UNL A   1      32.196  17.806  25.420  1.00  0.00    -0.229 NA
ATOM     28  S   UNL A   1      33.608  17.107  23.378  1.00  0.00    -0.105 S 
ATOM     29  C   UNL A   1      32.855  16.637  25.751  1.00  0.00     0.125 A 
ATOM     30  C   UNL A   1      33.720  16.146  24.795  1.00  0.00     0.088 A 
ENDBRANCH  24  26
ENDBRANCH  18  22
ENDBRANCH  14  16
ENDBRANCH  11  12
ENDBRANCH   4   7
ENDBRANCH   2   3
ENDBRANCH   1   2
BRANCH   1  31
ATOM     31  C   UNL A   1      32.310  30.271  27.001  1.00  0.00     0.002 C 
BRANCH  31  32
ATOM     32  C   UNL A   1      31.356  31.094  26.133  1.00  0.00     0.002 C 
BRANCH  32  33
ATOM     33  C   UNL A   1      31.354  32.590  26.456  1.00  0.00     0.021 C 
BRANCH  33  34
ATOM     34  C   UNL A   1      32.492  33.017  27.375  1.00  0.00     0.116 C 
BRANCH  34  35
ATOM     35  N   UNL A   1      32.391  34.427  27.718  1.00  0.00    -0.352 N 
ATOM     36  C   UNL A   1      33.004  35.114  28.730  1.00  0.00     0.251 C 
ATOM     37  H   UNL A   1      31.798  34.961  27.141  1.00  0.00     0.163 HD
ATOM     38  O   UNL A   1      32.603  36.225  29.059  1.00  0.00    -0.269 OA
BRANCH  36  39
ATOM     39  C   UNL A   1      34.154  34.505  29.425  1.00  0.00     0.039 A 
ATOM     40  C   UNL A   1      33.945  33.872  30.651  1.00  0.00     0.014 A 
ATOM     41  C   UNL A   1      35.437  34.577  28.873  1.00  0.00     0.014 A 
ATOM     42  C   UNL A   1      35.021  33.275  31.306  1.00  0.00     0.010 A 
ATOM     43  C   UNL A   1      36.491  33.910  29.486  1.00  0.00     0.010 A 
ATOM     44  C   UNL A   1      36.297  33.267  30.716  1.00  0.00    -0.014 A 
BRANCH  44  45
ATOM     45  C   UNL A   1      37.441  32.603  31.385  1.00  0.00     0.031 A 
ATOM     46  C   UNL A   1      38.150  31.460  30.711  1.00  0.00     0.074 A 
ATOM     47  C   UNL A   1      37.811  33.000  32.617  1.00  0.00     0.049 A 
ATOM     48  N   UNL A   1      39.143  30.729  31.150  1.00  0.00    -0.248 NA
ATOM     49  C   UNL A   1      37.660  31.069  29.380  1.00  0.00     0.031 C 
ATOM     50  C   UNL A   1      37.168  34.065  33.389  1.00  0.00     0.029 A 
ATOM     51  N   UNL A   1      38.813  32.553  33.439  1.00  0.00    -0.354 N 
ATOM     52  C   UNL A   1      39.387  29.790  30.156  1.00  0.00     0.074 A 
ATOM     53  C   UNL A   1      38.401  30.001  29.120  1.00  0.00     0.031 C 
ATOM     54  C   UNL A   1      37.809  34.208  34.560  1.00  0.00     0.029 A 
ATOM     55  C   UNL A   1      38.880  33.219  34.639  1.00  0.00     0.049 A 
ATOM     56  H   UNL A   1      39.427  31.824  33.193  1.00  0.00     0.167 HD
ATOM     57  C   UNL A   1      40.363  28.852  30.102  1.00  0.00     0.037 A 
ATOM     58  C   UNL A   1      39.707  33.044  35.687  1.00  0.00     0.037 A 
ATOM     59  C   UNL A   1      41.353  28.658  31.131  1.00  0.00     0.049 A 
ATOM     60  C   UNL A   1      40.774  31.986  35.604  1.00  0.00     0.074 A 
ATOM     61  C   UNL A   1      42.416  27.774  31.148  1.00  0.00     0.029 A 
ATOM     62  N   UNL A   1      41.395  29.360  32.327  1.00  0.00    -0.354 N 
ATOM     63  N   UNL A   1      41.044  31.152  34.629  1.00  0.00    -0.248 NA
ATOM     64  C   UNL A   1      41.662  31.853  36.767  1.00  0.00     0.031 C 
ATOM     65  C   UNL A   1      43.067  27.898  32.379  1.00  0.00     0.029 A 
ATOM     66  C   UNL A   1      42.452  28.908  33.102  1.00  0.00     0.049 A 
ATOM     67  H   UNL A   1      40.769  30.073  32.588  1.00  0.00     0.167 HD
ATOM     68  C   UNL A   1      42.148  30.421  35.044  1.00  0.00     0.074 A 
ATOM     69  C   UNL A   1      42.511  30.923  36.353  1.00  0.00     0.031 C 
ATOM     70  C   UNL A   1      42.804  29.425  34.400  1.00  0.00     0.037 A 
BRANCH  57  71
ATOM     71  C   UNL A   1      40.409  27.962  28.893  1.00  0.00     0.064 A 
ATOM     72  C   UNL A   1      41.172  28.290  27.762  1.00  0.00     0.173 A 
ATOM     73  C   UNL A   1      39.714  26.742  28.881  1.00  0.00     0.173 A 
ATOM     74  F   UNL A   1      41.847  29.449  27.716  1.00  0.00    -0.203 F 
ATOM     75  C   UNL A   1      41.214  27.447  26.654  1.00  0.00     0.198 A 
ATOM     76  C   UNL A   1      39.787  25.885  27.786  1.00  0.00     0.198 A 
ATOM     77  F   UNL A   1      38.973  26.375  29.937  1.00  0.00    -0.203 F 
ATOM     78  F   UNL A   1      41.908  27.807  25.566  1.00  0.00    -0.200 F 
ATOM     79  C   UNL A   1      40.529  26.241  26.671  1.00  0.00     0.200 A 
ATOM     80  F   UNL A   1      39.137  24.713  27.810  1.00  0.00    -0.200 F 
ATOM     81  F   UNL A   1      40.580  25.426  25.609  1.00  0.00    -0.200 F 
ENDBRANCH  57  71
BRANCH  58  82
ATOM     82  C   UNL A   1      39.572  33.901  36.894  1.00  0.00     0.064 A 
ATOM     83  C   UNL A   1      38.817  33.482  37.998  1.00  0.00     0.173 A 
ATOM     84  C   UNL A   1      40.181  35.163  36.963  1.00  0.00     0.173 A 
ATOM     85  F   UNL A   1      38.200  32.291  37.974  1.00  0.00    -0.203 F 
ATOM     86  C   UNL A   1      38.650  34.302  39.111  1.00  0.00     0.198 A 
ATOM     87  C   UNL A   1      40.042  35.969  38.092  1.00  0.00     0.198 A 
ATOM     88  F   UNL A   1      40.921  35.610  35.938  1.00  0.00    -0.203 F 
ATOM     89  F   UNL A   1      37.875  33.900  40.128  1.00  0.00    -0.200 F 
ATOM     90  C   UNL A   1      39.267  35.544  39.159  1.00  0.00     0.200 A 
ATOM     91  F   UNL A   1      40.655  37.159  38.140  1.00  0.00    -0.200 F 
ATOM     92  F   UNL A   1      39.107  36.333  40.230  1.00  0.00    -0.200 F 
ENDBRANCH  58  82
BRANCH  70  93
ATOM     93  C   UNL A   1      44.012  28.843  35.081  1.00  0.00     0.064 A 
ATOM     94  C   UNL A   1      45.300  29.362  34.879  1.00  0.00     0.173 A 
ATOM     95  C   UNL A   1      43.871  27.767  35.971  1.00  0.00     0.173 A 
ATOM     96  F   UNL A   1      45.491  30.381  34.028  1.00  0.00    -0.203 F 
ATOM     97  C   UNL A   1      46.404  28.801  35.514  1.00  0.00     0.198 A 
ATOM     98  C   UNL A   1      44.973  27.234  36.634  1.00  0.00     0.198 A 
ATOM     99  F   UNL A   1      42.661  27.239  36.209  1.00  0.00    -0.203 F 
ATOM    100  F   UNL A   1      47.632  29.273  35.258  1.00  0.00    -0.200 F 
ATOM    101  C   UNL A   1      46.239  27.743  36.396  1.00  0.00     0.200 A 
ATOM    102  F   UNL A   1      44.808  26.224  37.500  1.00  0.00    -0.200 F 
ATOM    103  F   UNL A   1      47.304  27.209  37.010  1.00  0.00    -0.200 F 
ENDBRANCH  70  93
ENDBRANCH  44  45
ENDBRANCH  36  39
ENDBRANCH  34  35
ENDBRANCH  33  34
ENDBRANCH  32  33
ENDBRANCH  31  32
ENDBRANCH   1  31
TORSDOF 17
ENDMDL
