MODEL 1
REMARK VINA RESULT:     -12.5      0.000      0.000
REMARK SMILES C[C@H](Sc1ccccc1C(=O)NCCCCCCNC(=O)c1ccc(-c2c3nc(c(-c4c(F)c(F)c(F)c(F)c4F)c4ccc([nH]4)c(-c4c(F)c(F)c(F)c(F)c4F)c4nc(c(-c5c(F)c(F)c(F)c(F)c5F)c5ccc2[nH]5)C=C4)C=C3)cc1)C(=O)Nc1ccc(N2CCCCC2)cc1
REMARK SMILES IDX 14 1 13 2 12 3 10 4 11 5 9 7 4 8 5 9 6 10 8 11 7 12 3 13
REMARK SMILES IDX 2 14 1 15 85 16 86 17 87 18 88 20 89 21 99 22 90 23 98 24
REMARK SMILES IDX 91 25 92 26 93 27 97 28 94 29 96 30 95 31 15 32 16 33 17 34
REMARK SMILES IDX 18 35 19 36 20 37 21 39 22 40 23 41 84 42 24 43 83 44 25 45
REMARK SMILES IDX 26 46 27 47 77 48 28 49 82 50 76 51 78 52 29 53 81 54 75 55
REMARK SMILES IDX 74 56 30 58 62 59 42 60 61 61 43 62 46 63 60 64 79 65 44 66
REMARK SMILES IDX 45 67 59 69 80 70 47 71 31 72 32 73 40 74 33 75 34 76 38 77
REMARK SMILES IDX 41 78 35 79 36 80 39 81 37 82 63 83 64 84 72 85 65 86 66 87
REMARK SMILES IDX 70 88 73 89 67 90 68 91 71 92 69 93 48 94 49 95 57 96 50 97
REMARK SMILES IDX 51 98 55 99 58 100 52 101 53 102 56 103 54 104
REMARK H PARENT 12 6 87 19 19 38 78 57 46 68
REMARK Flexibility Score: inf
ROOT
ATOM      1  C   UNL A   1      33.596  31.193  27.311  1.00  0.00     0.021 C 
ENDROOT
BRANCH   1   2
ATOM      2  C   UNL A   1      33.365  29.761  26.823  1.00  0.00     0.116 C 
BRANCH   2   3
ATOM      3  N   UNL A   1      33.537  29.679  25.392  1.00  0.00    -0.352 N 
ATOM      4  C   UNL A   1      32.976  29.061  24.318  1.00  0.00     0.252 C 
ATOM      5  O   UNL A   1      33.635  29.273  23.286  1.00  0.00    -0.269 OA
ATOM      6  H   UNL A   1      34.293  30.242  25.105  1.00  0.00     0.163 HD
BRANCH   4   7
ATOM      7  C   UNL A   1      31.722  28.227  24.184  1.00  0.00     0.053 A 
ATOM      8  C   UNL A   1      31.437  26.867  24.439  1.00  0.00     0.021 A 
ATOM      9  C   UNL A   1      30.143  26.367  24.130  1.00  0.00     0.016 A 
ATOM     10  C   UNL A   1      29.138  27.162  23.581  1.00  0.00     0.001 A 
ATOM     11  C   UNL A   1      30.659  29.004  23.631  1.00  0.00     0.015 A 
ATOM     12  C   UNL A   1      29.400  28.489  23.324  1.00  0.00     0.001 A 
BRANCH   8  13
ATOM     13  S   UNL A   1      32.591  25.575  24.883  1.00  0.00    -0.112 SA
BRANCH  13  14
ATOM     14  C   UNL A   1      32.803  24.570  23.328  1.00  0.00     0.138 C 
ATOM     15  C   UNL A   1      33.377  25.552  22.300  1.00  0.00     0.030 C 
BRANCH  14  16
ATOM     16  C   UNL A   1      33.686  23.336  23.637  1.00  0.00     0.237 C 
ATOM     17  O   UNL A   1      33.183  22.272  23.999  1.00  0.00    -0.273 OA
ATOM     18  N   UNL A   1      35.054  23.533  23.533  1.00  0.00    -0.325 N 
ATOM     19  H   UNL A   1      35.386  24.015  22.741  1.00  0.00     0.169 HD
BRANCH  18  20
ATOM     20  C   UNL A   1      36.010  23.095  24.480  1.00  0.00     0.041 A 
ATOM     21  C   UNL A   1      36.629  21.864  24.259  1.00  0.00     0.028 A 
ATOM     22  C   UNL A   1      36.497  23.906  25.501  1.00  0.00     0.028 A 
ATOM     23  C   UNL A   1      37.812  21.541  24.943  1.00  0.00     0.028 A 
ATOM     24  C   UNL A   1      37.688  23.580  26.170  1.00  0.00     0.028 A 
ATOM     25  C   UNL A   1      38.413  22.429  25.848  1.00  0.00     0.037 A 
BRANCH  25  26
ATOM     26  N   UNL A   1      39.691  22.177  26.339  1.00  0.00    -0.372 N 
ATOM     27  C   UNL A   1      40.152  23.032  27.441  1.00  0.00     0.116 C 
ATOM     28  C   UNL A   1      40.221  20.816  26.401  1.00  0.00     0.116 C 
ATOM     29  C   UNL A   1      41.661  23.175  27.415  1.00  0.00     0.021 C 
ATOM     30  C   UNL A   1      41.754  20.868  26.431  1.00  0.00     0.021 C 
ATOM     31  C   UNL A   1      42.304  21.802  27.512  1.00  0.00     0.004 C 
ENDBRANCH  25  26
ENDBRANCH  18  20
ENDBRANCH  14  16
ENDBRANCH  13  14
ENDBRANCH   8  13
ENDBRANCH   4   7
ENDBRANCH   2   3
ENDBRANCH   1   2
BRANCH   1  32
ATOM     32  C   UNL A   1      34.979  31.443  27.909  1.00  0.00     0.002 C 
BRANCH  32  33
ATOM     33  C   UNL A   1      35.252  32.867  28.387  1.00  0.00     0.002 C 
BRANCH  33  34
ATOM     34  C   UNL A   1      34.299  33.360  29.478  1.00  0.00     0.021 C 
BRANCH  34  35
ATOM     35  C   UNL A   1      33.796  34.781  29.249  1.00  0.00     0.116 C 
BRANCH  35  36
ATOM     36  N   UNL A   1      32.835  35.200  30.241  1.00  0.00    -0.352 N 
ATOM     37  C   UNL A   1      32.945  35.580  31.562  1.00  0.00     0.251 C 
ATOM     38  H   UNL A   1      31.909  35.218  29.906  1.00  0.00     0.163 HD
ATOM     39  O   UNL A   1      32.064  36.221  32.087  1.00  0.00    -0.269 OA
BRANCH  37  40
ATOM     40  C   UNL A   1      34.029  35.032  32.410  1.00  0.00     0.039 A 
ATOM     41  C   UNL A   1      33.779  33.777  32.994  1.00  0.00     0.014 A 
ATOM     42  C   UNL A   1      35.297  35.589  32.483  1.00  0.00     0.014 A 
ATOM     43  C   UNL A   1      34.829  33.029  33.511  1.00  0.00     0.010 A 
ATOM     44  C   UNL A   1      36.357  34.808  32.897  1.00  0.00     0.010 A 
ATOM     45  C   UNL A   1      36.131  33.517  33.387  1.00  0.00    -0.014 A 
BRANCH  45  46
ATOM     46  C   UNL A   1      37.304  32.707  33.747  1.00  0.00     0.031 A 
ATOM     47  C   UNL A   1      38.007  33.008  35.031  1.00  0.00     0.074 A 
ATOM     48  C   UNL A   1      37.795  31.838  32.845  1.00  0.00     0.049 A 
ATOM     49  N   UNL A   1      39.169  32.593  35.455  1.00  0.00    -0.248 NA
ATOM     50  C   UNL A   1      37.339  33.964  35.932  1.00  0.00     0.031 C 
ATOM     51  C   UNL A   1      37.204  31.549  31.535  1.00  0.00     0.029 A 
ATOM     52  N   UNL A   1      38.916  31.057  32.882  1.00  0.00    -0.354 N 
ATOM     53  C   UNL A   1      39.388  33.269  36.646  1.00  0.00     0.074 A 
ATOM     54  C   UNL A   1      38.271  34.163  36.850  1.00  0.00     0.031 C 
ATOM     55  C   UNL A   1      37.957  30.633  30.905  1.00  0.00     0.029 A 
ATOM     56  C   UNL A   1      39.097  30.302  31.749  1.00  0.00     0.049 A 
ATOM     57  H   UNL A   1      39.534  31.037  33.648  1.00  0.00     0.167 HD
ATOM     58  C   UNL A   1      40.425  33.128  37.502  1.00  0.00     0.037 A 
ATOM     59  C   UNL A   1      40.083  29.441  31.443  1.00  0.00     0.037 A 
ATOM     60  C   UNL A   1      41.491  32.188  37.293  1.00  0.00     0.049 A 
ATOM     61  C   UNL A   1      41.179  29.239  32.452  1.00  0.00     0.074 A 
ATOM     62  C   UNL A   1      42.565  31.898  38.110  1.00  0.00     0.029 A 
ATOM     63  N   UNL A   1      41.596  31.366  36.177  1.00  0.00    -0.354 N 
ATOM     64  N   UNL A   1      41.361  29.842  33.604  1.00  0.00    -0.248 NA
ATOM     65  C   UNL A   1      42.199  28.235  32.129  1.00  0.00     0.031 C 
ATOM     66  C   UNL A   1      43.331  30.909  37.480  1.00  0.00     0.029 A 
ATOM     67  C   UNL A   1      42.717  30.564  36.284  1.00  0.00     0.049 A 
ATOM     68  H   UNL A   1      40.966  31.358  35.420  1.00  0.00     0.167 HD
ATOM     69  C   UNL A   1      42.503  29.281  34.153  1.00  0.00     0.074 A 
ATOM     70  C   UNL A   1      42.962  28.275  33.215  1.00  0.00     0.031 C 
ATOM     71  C   UNL A   1      43.124  29.570  35.323  1.00  0.00     0.037 A 
BRANCH  58  72
ATOM     72  C   UNL A   1      40.428  34.001  38.720  1.00  0.00     0.064 A 
ATOM     73  C   UNL A   1      41.096  35.236  38.739  1.00  0.00     0.173 A 
ATOM     74  C   UNL A   1      39.791  33.584  39.899  1.00  0.00     0.173 A 
ATOM     75  F   UNL A   1      41.743  35.668  37.646  1.00  0.00    -0.203 F 
ATOM     76  C   UNL A   1      41.161  36.000  39.900  1.00  0.00     0.198 A 
ATOM     77  C   UNL A   1      39.832  34.366  41.051  1.00  0.00     0.198 A 
ATOM     78  F   UNL A   1      39.143  32.410  39.939  1.00  0.00    -0.203 F 
ATOM     79  F   UNL A   1      41.867  37.140  39.911  1.00  0.00    -0.200 F 
ATOM     80  C   UNL A   1      40.527  35.567  41.054  1.00  0.00     0.200 A 
ATOM     81  F   UNL A   1      39.215  33.949  42.164  1.00  0.00    -0.200 F 
ATOM     82  F   UNL A   1      40.598  36.299  42.174  1.00  0.00    -0.200 F 
ENDBRANCH  58  72
BRANCH  59  83
ATOM     83  C   UNL A   1      40.040  28.681  30.169  1.00  0.00     0.064 A 
ATOM     84  C   UNL A   1      40.666  29.183  29.019  1.00  0.00     0.173 A 
ATOM     85  C   UNL A   1      39.410  27.432  30.074  1.00  0.00     0.173 A 
ATOM     86  F   UNL A   1      41.274  30.377  29.057  1.00  0.00    -0.203 F 
ATOM     87  C   UNL A   1      40.647  28.475  27.818  1.00  0.00     0.198 A 
ATOM     88  C   UNL A   1      39.410  26.714  28.879  1.00  0.00     0.198 A 
ATOM     89  F   UNL A   1      38.810  26.899  31.148  1.00  0.00    -0.203 F 
ATOM     90  F   UNL A   1      41.226  28.995  26.728  1.00  0.00    -0.200 F 
ATOM     91  C   UNL A   1      40.024  27.238  27.751  1.00  0.00     0.200 A 
ATOM     92  F   UNL A   1      38.820  25.512  28.822  1.00  0.00    -0.200 F 
ATOM     93  F   UNL A   1      40.012  26.554  26.598  1.00  0.00    -0.200 F 
ENDBRANCH  59  83
BRANCH  71  94
ATOM     94  C   UNL A   1      44.346  28.772  35.649  1.00  0.00     0.064 A 
ATOM     95  C   UNL A   1      45.620  29.197  35.250  1.00  0.00     0.173 A 
ATOM     96  C   UNL A   1      44.242  27.600  36.412  1.00  0.00     0.173 A 
ATOM     97  F   UNL A   1      45.760  30.304  34.505  1.00  0.00    -0.203 F 
ATOM     98  C   UNL A   1      46.752  28.464  35.592  1.00  0.00     0.198 A 
ATOM     99  C   UNL A   1      45.380  26.884  36.771  1.00  0.00     0.198 A 
ATOM    100  F   UNL A   1      43.043  27.161  36.819  1.00  0.00    -0.203 F 
ATOM    101  F   UNL A   1      47.959  28.867  35.171  1.00  0.00    -0.200 F 
ATOM    102  C   UNL A   1      46.632  27.314  36.357  1.00  0.00     0.200 A 
ATOM    103  F   UNL A   1      45.263  25.778  37.520  1.00  0.00    -0.200 F 
ATOM    104  F   UNL A   1      47.725  26.615  36.693  1.00  0.00    -0.200 F 
ENDBRANCH  71  94
ENDBRANCH  45  46
ENDBRANCH  37  40
ENDBRANCH  35  36
ENDBRANCH  34  35
ENDBRANCH  33  34
ENDBRANCH  32  33
ENDBRANCH   1  32
TORSDOF 18
ENDMDL
MODEL 2
REMARK VINA RESULT:     -12.4      3.130      9.865
REMARK SMILES C[C@H](Sc1ccccc1C(=O)NCCCCCCNC(=O)c1ccc(-c2c3nc(c(-c4c(F)c(F)c(F)c(F)c4F)c4ccc([nH]4)c(-c4c(F)c(F)c(F)c(F)c4F)c4nc(c(-c5c(F)c(F)c(F)c(F)c5F)c5ccc2[nH]5)C=C4)C=C3)cc1)C(=O)Nc1ccc(N2CCCCC2)cc1
REMARK SMILES IDX 14 1 13 2 12 3 10 4 11 5 9 7 4 8 5 9 6 10 8 11 7 12 3 13
REMARK SMILES IDX 2 14 1 15 85 16 86 17 87 18 88 20 89 21 99 22 90 23 98 24
REMARK SMILES IDX 91 25 92 26 93 27 97 28 94 29 96 30 95 31 15 32 16 33 17 34
REMARK SMILES IDX 18 35 19 36 20 37 21 39 22 40 23 41 84 42 24 43 83 44 25 45
REMARK SMILES IDX 26 46 27 47 77 48 28 49 82 50 76 51 78 52 29 53 81 54 75 55
REMARK SMILES IDX 74 56 30 58 62 59 42 60 61 61 43 62 46 63 60 64 79 65 44 66
REMARK SMILES IDX 45 67 59 69 80 70 47 71 31 72 32 73 40 74 33 75 34 76 38 77
REMARK SMILES IDX 41 78 35 79 36 80 39 81 37 82 63 83 64 84 72 85 65 86 66 87
REMARK SMILES IDX 70 88 73 89 67 90 68 91 71 92 69 93 48 94 49 95 57 96 50 97
REMARK SMILES IDX 51 98 55 99 58 100 52 101 53 102 56 103 54 104
REMARK H PARENT 12 6 87 19 19 38 78 57 46 68
REMARK Flexibility Score: inf
ROOT
ATOM      1  C   UNL A   1      39.033  21.492  26.040  1.00  0.00     0.021 C 
ENDROOT
BRANCH   1   2
ATOM      2  C   UNL A   1      38.327  22.849  26.013  1.00  0.00     0.116 C 
BRANCH   2   3
ATOM      3  N   UNL A   1      37.771  23.105  24.705  1.00  0.00    -0.352 N 
ATOM      4  C   UNL A   1      36.696  22.748  23.952  1.00  0.00     0.252 C 
ATOM      5  O   UNL A   1      36.787  23.204  22.800  1.00  0.00    -0.269 OA
ATOM      6  H   UNL A   1      38.345  23.730  24.205  1.00  0.00     0.163 HD
BRANCH   4   7
ATOM      7  C   UNL A   1      35.456  21.952  24.290  1.00  0.00     0.053 A 
ATOM      8  C   UNL A   1      34.094  22.300  24.429  1.00  0.00     0.021 A 
ATOM      9  C   UNL A   1      33.168  21.303  24.838  1.00  0.00     0.016 A 
ATOM     10  C   UNL A   1      33.546  19.990  25.113  1.00  0.00     0.001 A 
ATOM     11  C   UNL A   1      35.794  20.594  24.574  1.00  0.00     0.015 A 
ATOM     12  C   UNL A   1      34.870  19.634  24.987  1.00  0.00     0.001 A 
BRANCH   8  13
ATOM     13  S   UNL A   1      33.379  23.938  24.399  1.00  0.00    -0.112 SA
BRANCH  13  14
ATOM     14  C   UNL A   1      31.725  23.753  25.236  1.00  0.00     0.138 C 
ATOM     15  C   UNL A   1      31.860  24.531  26.550  1.00  0.00     0.030 C 
BRANCH  14  16
ATOM     16  C   UNL A   1      30.612  24.247  24.279  1.00  0.00     0.237 C 
ATOM     17  O   UNL A   1      30.378  23.659  23.223  1.00  0.00    -0.273 OA
ATOM     18  N   UNL A   1      29.956  25.406  24.665  1.00  0.00    -0.325 N 
ATOM     19  H   UNL A   1      29.671  25.476  25.605  1.00  0.00     0.169 HD
BRANCH  18  20
ATOM     20  C   UNL A   1      29.668  26.497  23.811  1.00  0.00     0.041 A 
ATOM     21  C   UNL A   1      28.341  26.916  23.715  1.00  0.00     0.028 A 
ATOM     22  C   UNL A   1      30.654  27.282  23.220  1.00  0.00     0.028 A 
ATOM     23  C   UNL A   1      28.042  28.180  23.183  1.00  0.00     0.028 A 
ATOM     24  C   UNL A   1      30.346  28.551  22.702  1.00  0.00     0.028 A 
ATOM     25  C   UNL A   1      29.045  29.059  22.746  1.00  0.00     0.037 A 
BRANCH  25  26
ATOM     26  N   UNL A   1      28.737  30.380  22.433  1.00  0.00    -0.372 N 
ATOM     27  C   UNL A   1      27.893  30.596  21.250  1.00  0.00     0.116 C 
ATOM     28  C   UNL A   1      28.526  31.375  23.483  1.00  0.00     0.116 C 
ATOM     29  C   UNL A   1      28.193  31.938  20.613  1.00  0.00     0.021 C 
ATOM     30  C   UNL A   1      28.759  32.778  22.908  1.00  0.00     0.021 C 
ATOM     31  C   UNL A   1      27.964  33.045  21.627  1.00  0.00     0.004 C 
ENDBRANCH  25  26
ENDBRANCH  18  20
ENDBRANCH  14  16
ENDBRANCH  13  14
ENDBRANCH   8  13
ENDBRANCH   4   7
ENDBRANCH   2   3
ENDBRANCH   1   2
BRANCH   1  32
ATOM     32  C   UNL A   1      40.274  21.440  26.928  1.00  0.00     0.002 C 
BRANCH  32  33
ATOM     33  C   UNL A   1      41.212  20.258  26.697  1.00  0.00     0.002 C 
BRANCH  33  34
ATOM     34  C   UNL A   1      42.601  20.648  26.184  1.00  0.00     0.021 C 
BRANCH  34  35
ATOM     35  C   UNL A   1      43.004  22.074  26.544  1.00  0.00     0.116 C 
BRANCH  35  36
ATOM     36  N   UNL A   1      43.510  22.814  25.413  1.00  0.00    -0.352 N 
ATOM     37  C   UNL A   1      43.804  24.146  25.210  1.00  0.00     0.251 C 
ATOM     38  H   UNL A   1      43.680  22.252  24.623  1.00  0.00     0.163 HD
ATOM     39  O   UNL A   1      44.541  24.477  24.309  1.00  0.00    -0.269 OA
BRANCH  37  40
ATOM     40  C   UNL A   1      43.062  25.196  25.945  1.00  0.00     0.039 A 
ATOM     41  C   UNL A   1      42.009  24.750  26.763  1.00  0.00     0.014 A 
ATOM     42  C   UNL A   1      43.476  26.519  26.010  1.00  0.00     0.014 A 
ATOM     43  C   UNL A   1      41.483  25.586  27.739  1.00  0.00     0.010 A 
ATOM     44  C   UNL A   1      43.032  27.317  27.045  1.00  0.00     0.010 A 
ATOM     45  C   UNL A   1      42.055  26.846  27.928  1.00  0.00    -0.014 A 
BRANCH  45  46
ATOM     46  C   UNL A   1      41.673  27.714  29.052  1.00  0.00     0.031 A 
ATOM     47  C   UNL A   1      42.421  27.579  30.338  1.00  0.00     0.074 A 
ATOM     48  C   UNL A   1      40.574  28.480  28.936  1.00  0.00     0.049 A 
ATOM     49  N   UNL A   1      42.135  28.062  31.516  1.00  0.00    -0.248 NA
ATOM     50  C   UNL A   1      43.621  26.723  30.309  1.00  0.00     0.031 C 
ATOM     51  C   UNL A   1      39.745  28.602  27.732  1.00  0.00     0.029 A 
ATOM     52  N   UNL A   1      39.947  29.281  29.850  1.00  0.00    -0.354 N 
ATOM     53  C   UNL A   1      43.091  27.536  32.371  1.00  0.00     0.074 A 
ATOM     54  C   UNL A   1      43.929  26.650  31.594  1.00  0.00     0.031 C 
ATOM     55  C   UNL A   1      38.735  29.452  27.977  1.00  0.00     0.029 A 
ATOM     56  C   UNL A   1      38.825  29.901  29.360  1.00  0.00     0.049 A 
ATOM     57  H   UNL A   1      40.272  29.402  30.772  1.00  0.00     0.167 HD
ATOM     58  C   UNL A   1      43.262  27.795  33.687  1.00  0.00     0.037 A 
ATOM     59  C   UNL A   1      37.972  30.738  29.975  1.00  0.00     0.037 A 
ATOM     60  C   UNL A   1      42.443  28.724  34.415  1.00  0.00     0.049 A 
ATOM     61  C   UNL A   1      38.236  31.078  31.416  1.00  0.00     0.074 A 
ATOM     62  C   UNL A   1      42.547  29.129  35.730  1.00  0.00     0.029 A 
ATOM     63  N   UNL A   1      41.368  29.411  33.863  1.00  0.00    -0.354 N 
ATOM     64  N   UNL A   1      39.171  30.618  32.214  1.00  0.00    -0.248 NA
ATOM     65  C   UNL A   1      37.338  32.057  32.040  1.00  0.00     0.031 C 
ATOM     66  C   UNL A   1      41.523  30.051  35.981  1.00  0.00     0.029 A 
ATOM     67  C   UNL A   1      40.800  30.241  34.812  1.00  0.00     0.049 A 
ATOM     68  H   UNL A   1      41.055  29.319  32.934  1.00  0.00     0.167 HD
ATOM     69  C   UNL A   1      38.989  31.261  33.427  1.00  0.00     0.074 A 
ATOM     70  C   UNL A   1      37.863  32.158  33.255  1.00  0.00     0.031 C 
ATOM     71  C   UNL A   1      39.683  31.123  34.584  1.00  0.00     0.037 A 
BRANCH  58  72
ATOM     72  C   UNL A   1      44.372  27.072  34.388  1.00  0.00     0.064 A 
ATOM     73  C   UNL A   1      45.701  27.518  34.318  1.00  0.00     0.173 A 
ATOM     74  C   UNL A   1      44.114  25.896  35.108  1.00  0.00     0.173 A 
ATOM     75  F   UNL A   1      46.004  28.624  33.620  1.00  0.00    -0.203 F 
ATOM     76  C   UNL A   1      46.734  26.795  34.906  1.00  0.00     0.198 A 
ATOM     77  C   UNL A   1      45.147  25.191  35.722  1.00  0.00     0.198 A 
ATOM     78  F   UNL A   1      42.863  25.421  35.203  1.00  0.00    -0.203 F 
ATOM     79  F   UNL A   1      48.002  27.204  34.761  1.00  0.00    -0.200 F 
ATOM     80  C   UNL A   1      46.457  25.633  35.610  1.00  0.00     0.200 A 
ATOM     81  F   UNL A   1      44.877  24.071  36.406  1.00  0.00    -0.200 F 
ATOM     82  F   UNL A   1      47.454  24.932  36.167  1.00  0.00    -0.200 F 
ENDBRANCH  58  72
BRANCH  59  83
ATOM     83  C   UNL A   1      36.846  31.342  29.221  1.00  0.00     0.064 A 
ATOM     84  C   UNL A   1      35.698  30.591  28.932  1.00  0.00     0.173 A 
ATOM     85  C   UNL A   1      36.870  32.681  28.802  1.00  0.00     0.173 A 
ATOM     86  F   UNL A   1      35.630  29.305  29.304  1.00  0.00    -0.203 F 
ATOM     87  C   UNL A   1      34.625  31.148  28.236  1.00  0.00     0.198 A 
ATOM     88  C   UNL A   1      35.788  33.244  28.125  1.00  0.00     0.198 A 
ATOM     89  F   UNL A   1      37.937  33.448  29.066  1.00  0.00    -0.203 F 
ATOM     90  F   UNL A   1      33.555  30.396  27.946  1.00  0.00    -0.200 F 
ATOM     91  C   UNL A   1      34.669  32.475  27.838  1.00  0.00     0.200 A 
ATOM     92  F   UNL A   1      35.828  34.531  27.757  1.00  0.00    -0.200 F 
ATOM     93  F   UNL A   1      33.635  33.013  27.176  1.00  0.00    -0.200 F 
ENDBRANCH  59  83
BRANCH  71  94
ATOM     94  C   UNL A   1      39.248  31.977  35.733  1.00  0.00     0.064 A 
ATOM     95  C   UNL A   1      38.361  31.493  36.704  1.00  0.00     0.173 A 
ATOM     96  C   UNL A   1      39.765  33.271  35.887  1.00  0.00     0.173 A 
ATOM     97  F   UNL A   1      37.832  30.266  36.584  1.00  0.00    -0.203 F 
ATOM     98  C   UNL A   1      37.994  32.285  37.787  1.00  0.00     0.198 A 
ATOM     99  C   UNL A   1      39.413  34.050  36.985  1.00  0.00     0.198 A 
ATOM    100  F   UNL A   1      40.620  33.770  34.983  1.00  0.00    -0.203 F 
ATOM    101  F   UNL A   1      37.118  31.818  38.688  1.00  0.00    -0.200 F 
ATOM    102  C   UNL A   1      38.525  33.558  37.930  1.00  0.00     0.200 A 
ATOM    103  F   UNL A   1      39.935  35.276  37.128  1.00  0.00    -0.200 F 
ATOM    104  F   UNL A   1      38.177  34.315  38.979  1.00  0.00    -0.200 F 
ENDBRANCH  71  94
ENDBRANCH  45  46
ENDBRANCH  37  40
ENDBRANCH  35  36
ENDBRANCH  34  35
ENDBRANCH  33  34
ENDBRANCH  32  33
ENDBRANCH   1  32
TORSDOF 18
ENDMDL
MODEL 3
REMARK VINA RESULT:     -12.3      2.701      9.200
REMARK SMILES C[C@H](Sc1ccccc1C(=O)NCCCCCCNC(=O)c1ccc(-c2c3nc(c(-c4c(F)c(F)c(F)c(F)c4F)c4ccc([nH]4)c(-c4c(F)c(F)c(F)c(F)c4F)c4nc(c(-c5c(F)c(F)c(F)c(F)c5F)c5ccc2[nH]5)C=C4)C=C3)cc1)C(=O)Nc1ccc(N2CCCCC2)cc1
REMARK SMILES IDX 14 1 13 2 12 3 10 4 11 5 9 7 4 8 5 9 6 10 8 11 7 12 3 13
REMARK SMILES IDX 2 14 1 15 85 16 86 17 87 18 88 20 89 21 99 22 90 23 98 24
REMARK SMILES IDX 91 25 92 26 93 27 97 28 94 29 96 30 95 31 15 32 16 33 17 34
REMARK SMILES IDX 18 35 19 36 20 37 21 39 22 40 23 41 84 42 24 43 83 44 25 45
REMARK SMILES IDX 26 46 27 47 77 48 28 49 82 50 76 51 78 52 29 53 81 54 75 55
REMARK SMILES IDX 74 56 30 58 62 59 42 60 61 61 43 62 46 63 60 64 79 65 44 66
REMARK SMILES IDX 45 67 59 69 80 70 47 71 31 72 32 73 40 74 33 75 34 76 38 77
REMARK SMILES IDX 41 78 35 79 36 80 39 81 37 82 63 83 64 84 72 85 65 86 66 87
REMARK SMILES IDX 70 88 73 89 67 90 68 91 71 92 69 93 48 94 49 95 57 96 50 97
REMARK SMILES IDX 51 98 55 99 58 100 52 101 53 102 56 103 54 104
REMARK H PARENT 12 6 87 19 19 38 78 57 46 68
REMARK Flexibility Score: inf
ROOT
ATOM      1  C   UNL A   1      31.118  26.266  26.052  1.00  0.00     0.021 C 
ENDROOT
BRANCH   1   2
ATOM      2  C   UNL A   1      29.761  25.606  25.799  1.00  0.00     0.116 C 
BRANCH   2   3
ATOM      3  N   UNL A   1      29.625  24.406  26.589  1.00  0.00    -0.352 N 
ATOM      4  C   UNL A   1      30.336  23.289  26.903  1.00  0.00     0.252 C 
ATOM      5  O   UNL A   1      29.650  22.496  27.569  1.00  0.00    -0.269 OA
ATOM      6  H   UNL A   1      28.749  24.390  27.039  1.00  0.00     0.163 HD
BRANCH   4   7
ATOM      7  C   UNL A   1      31.766  22.898  26.611  1.00  0.00     0.053 A 
ATOM      8  C   UNL A   1      32.506  22.769  25.414  1.00  0.00     0.021 A 
ATOM      9  C   UNL A   1      33.844  22.296  25.480  1.00  0.00     0.016 A 
ATOM     10  C   UNL A   1      34.463  21.949  26.680  1.00  0.00     0.001 A 
ATOM     11  C   UNL A   1      32.444  22.539  27.815  1.00  0.00     0.015 A 
ATOM     12  C   UNL A   1      33.756  22.065  27.856  1.00  0.00     0.001 A 
BRANCH   8  13
ATOM     13  S   UNL A   1      31.895  22.887  23.737  1.00  0.00    -0.112 SA
BRANCH  13  14
ATOM     14  C   UNL A   1      33.333  23.544  22.751  1.00  0.00     0.138 C 
ATOM     15  C   UNL A   1      33.062  23.093  21.311  1.00  0.00     0.030 C 
BRANCH  14  16
ATOM     16  C   UNL A   1      33.437  25.075  22.961  1.00  0.00     0.237 C 
ATOM     17  O   UNL A   1      34.128  25.545  23.865  1.00  0.00    -0.273 OA
ATOM     18  N   UNL A   1      32.665  25.854  22.112  1.00  0.00    -0.325 N 
ATOM     19  H   UNL A   1      32.674  25.627  21.154  1.00  0.00     0.169 HD
BRANCH  18  20
ATOM     20  C   UNL A   1      31.865  26.947  22.518  1.00  0.00     0.041 A 
ATOM     21  C   UNL A   1      32.471  28.201  22.604  1.00  0.00     0.028 A 
ATOM     22  C   UNL A   1      30.481  26.871  22.649  1.00  0.00     0.028 A 
ATOM     23  C   UNL A   1      31.680  29.360  22.651  1.00  0.00     0.028 A 
ATOM     24  C   UNL A   1      29.699  28.037  22.683  1.00  0.00     0.028 A 
ATOM     25  C   UNL A   1      30.278  29.306  22.603  1.00  0.00     0.037 A 
BRANCH  25  26
ATOM     26  N   UNL A   1      29.534  30.469  22.427  1.00  0.00    -0.372 N 
ATOM     27  C   UNL A   1      28.565  30.469  21.323  1.00  0.00     0.116 C 
ATOM     28  C   UNL A   1      29.106  31.271  23.572  1.00  0.00     0.116 C 
ATOM     29  C   UNL A   1      28.359  31.872  20.789  1.00  0.00     0.021 C 
ATOM     30  C   UNL A   1      28.823  32.707  23.109  1.00  0.00     0.021 C 
ATOM     31  C   UNL A   1      27.875  32.777  21.908  1.00  0.00     0.004 C 
ENDBRANCH  25  26
ENDBRANCH  18  20
ENDBRANCH  14  16
ENDBRANCH  13  14
ENDBRANCH   8  13
ENDBRANCH   4   7
ENDBRANCH   2   3
ENDBRANCH   1   2
BRANCH   1  32
ATOM     32  C   UNL A   1      31.039  27.672  26.642  1.00  0.00     0.002 C 
BRANCH  32  33
ATOM     33  C   UNL A   1      32.304  28.181  27.329  1.00  0.00     0.002 C 
BRANCH  33  34
ATOM     34  C   UNL A   1      33.346  28.769  26.375  1.00  0.00     0.021 C 
BRANCH  34  35
ATOM     35  C   UNL A   1      32.961  30.139  25.824  1.00  0.00     0.116 C 
BRANCH  35  36
ATOM     36  N   UNL A   1      32.785  31.128  26.860  1.00  0.00    -0.352 N 
ATOM     37  C   UNL A   1      33.666  31.895  27.592  1.00  0.00     0.251 C 
ATOM     38  H   UNL A   1      31.842  31.288  27.092  1.00  0.00     0.163 HD
ATOM     39  O   UNL A   1      33.283  32.899  28.149  1.00  0.00    -0.269 OA
BRANCH  37  40
ATOM     40  C   UNL A   1      35.029  31.395  27.887  1.00  0.00     0.039 A 
ATOM     41  C   UNL A   1      36.037  32.371  27.981  1.00  0.00     0.014 A 
ATOM     42  C   UNL A   1      35.297  30.085  28.256  1.00  0.00     0.014 A 
ATOM     43  C   UNL A   1      37.251  32.062  28.579  1.00  0.00     0.010 A 
ATOM     44  C   UNL A   1      36.459  29.800  28.946  1.00  0.00     0.010 A 
ATOM     45  C   UNL A   1      37.427  30.793  29.133  1.00  0.00    -0.014 A 
BRANCH  45  46
ATOM     46  C   UNL A   1      38.610  30.450  29.936  1.00  0.00     0.031 A 
ATOM     47  C   UNL A   1      39.606  29.496  29.360  1.00  0.00     0.074 A 
ATOM     48  C   UNL A   1      38.677  30.877  31.210  1.00  0.00     0.049 A 
ATOM     49  N   UNL A   1      40.595  28.879  29.946  1.00  0.00    -0.248 NA
ATOM     50  C   UNL A   1      39.419  29.134  27.943  1.00  0.00     0.031 C 
ATOM     51  C   UNL A   1      37.698  31.749  31.866  1.00  0.00     0.029 A 
ATOM     52  N   UNL A   1      39.595  30.615  32.189  1.00  0.00    -0.354 N 
ATOM     53  C   UNL A   1      41.118  28.027  28.984  1.00  0.00     0.074 A 
ATOM     54  C   UNL A   1      40.304  28.161  27.797  1.00  0.00     0.031 C 
ATOM     55  C   UNL A   1      38.085  31.971  33.132  1.00  0.00     0.029 A 
ATOM     56  C   UNL A   1      39.313  31.228  33.384  1.00  0.00     0.049 A 
ATOM     57  H   UNL A   1      40.384  30.042  32.048  1.00  0.00     0.167 HD
ATOM     58  C   UNL A   1      42.201  27.225  29.086  1.00  0.00     0.037 A 
ATOM     59  C   UNL A   1      39.984  31.183  34.549  1.00  0.00     0.037 A 
ATOM     60  C   UNL A   1      43.019  27.159  30.265  1.00  0.00     0.049 A 
ATOM     61  C   UNL A   1      41.236  30.351  34.607  1.00  0.00     0.074 A 
ATOM     62  C   UNL A   1      44.178  26.440  30.479  1.00  0.00     0.029 A 
ATOM     63  N   UNL A   1      42.760  27.867  31.432  1.00  0.00    -0.354 N 
ATOM     64  N   UNL A   1      41.759  29.583  33.680  1.00  0.00    -0.248 NA
ATOM     65  C   UNL A   1      41.993  30.384  35.863  1.00  0.00     0.031 C 
ATOM     66  C   UNL A   1      44.613  26.702  31.784  1.00  0.00     0.029 A 
ATOM     67  C   UNL A   1      43.740  27.606  32.371  1.00  0.00     0.049 A 
ATOM     68  H   UNL A   1      41.990  28.466  31.571  1.00  0.00     0.167 HD
ATOM     69  C   UNL A   1      42.916  29.055  34.231  1.00  0.00     0.074 A 
ATOM     70  C   UNL A   1      43.026  29.605  35.568  1.00  0.00     0.031 C 
ATOM     71  C   UNL A   1      43.807  28.189  33.688  1.00  0.00     0.037 A 
BRANCH  58  72
ATOM     72  C   UNL A   1      42.544  26.385  27.893  1.00  0.00     0.064 A 
ATOM     73  C   UNL A   1      42.034  25.086  27.736  1.00  0.00     0.173 A 
ATOM     74  C   UNL A   1      43.423  26.865  26.910  1.00  0.00     0.173 A 
ATOM     75  F   UNL A   1      41.210  24.570  28.661  1.00  0.00    -0.203 F 
ATOM     76  C   UNL A   1      42.423  24.286  26.666  1.00  0.00     0.198 A 
ATOM     77  C   UNL A   1      43.786  26.072  25.824  1.00  0.00     0.198 A 
ATOM     78  F   UNL A   1      43.944  28.097  27.013  1.00  0.00    -0.203 F 
ATOM     79  F   UNL A   1      41.979  23.024  26.580  1.00  0.00    -0.200 F 
ATOM     80  C   UNL A   1      43.296  24.780  25.709  1.00  0.00     0.200 A 
ATOM     81  F   UNL A   1      44.626  26.552  24.897  1.00  0.00    -0.200 F 
ATOM     82  F   UNL A   1      43.677  24.004  24.685  1.00  0.00    -0.200 F 
ENDBRANCH  58  72
BRANCH  59  83
ATOM     83  C   UNL A   1      39.520  31.985  35.708  1.00  0.00     0.064 A 
ATOM     84  C   UNL A   1      40.012  33.281  35.920  1.00  0.00     0.173 A 
ATOM     85  C   UNL A   1      38.559  31.498  36.605  1.00  0.00     0.173 A 
ATOM     86  F   UNL A   1      40.938  33.787  35.094  1.00  0.00    -0.203 F 
ATOM     87  C   UNL A   1      39.575  34.052  36.997  1.00  0.00     0.198 A 
ATOM     88  C   UNL A   1      38.107  32.278  37.669  1.00  0.00     0.198 A 
ATOM     89  F   UNL A   1      38.045  30.271  36.439  1.00  0.00    -0.203 F 
ATOM     90  F   UNL A   1      40.087  35.274  37.192  1.00  0.00    -0.200 F 
ATOM     91  C   UNL A   1      38.619  33.552  37.867  1.00  0.00     0.200 A 
ATOM     92  F   UNL A   1      37.171  31.798  38.499  1.00  0.00    -0.200 F 
ATOM     93  F   UNL A   1      38.194  34.297  38.897  1.00  0.00    -0.200 F 
ENDBRANCH  59  83
BRANCH  71  94
ATOM     94  C   UNL A   1      44.978  27.811  34.538  1.00  0.00     0.064 A 
ATOM     95  C   UNL A   1      46.157  28.569  34.530  1.00  0.00     0.173 A 
ATOM     96  C   UNL A   1      44.897  26.713  35.406  1.00  0.00     0.173 A 
ATOM     97  F   UNL A   1      46.281  29.618  33.703  1.00  0.00    -0.203 F 
ATOM     98  C   UNL A   1      47.225  28.228  35.354  1.00  0.00     0.198 A 
ATOM     99  C   UNL A   1      45.959  26.390  36.245  1.00  0.00     0.198 A 
ATOM    100  F   UNL A   1      43.785  25.965  35.448  1.00  0.00    -0.203 F 
ATOM    101  F   UNL A   1      48.358  28.943  35.307  1.00  0.00    -0.200 F 
ATOM    102  C   UNL A   1      47.122  27.145  36.214  1.00  0.00     0.200 A 
ATOM    103  F   UNL A   1      45.854  25.350  37.084  1.00  0.00    -0.200 F 
ATOM    104  F   UNL A   1      48.149  26.824  37.013  1.00  0.00    -0.200 F 
ENDBRANCH  71  94
ENDBRANCH  45  46
ENDBRANCH  37  40
ENDBRANCH  35  36
ENDBRANCH  34  35
ENDBRANCH  33  34
ENDBRANCH  32  33
ENDBRANCH   1  32
TORSDOF 18
ENDMDL
