MODEL 1
REMARK VINA RESULT:     -10.2      0.000      0.000
REMARK SMILES CCO[P@OH16](=O)(CC(=O)NCCCCCCNC(=O)c1ccc(-c2c3nc(c(-c4c(F)c(F)c(F)c(F)c4F)c4ccc([nH]4)c(-c4c(F)c(F)c(F)c(F)c4F)c4nc(c(-c5c(F)c(F)c(F)c(F)c5F)c5ccc2[nH]5)C=C4)C=C3)cc1)c1ccccc1
REMARK SMILES IDX 12 1 11 2 10 3 9 4 7 5 8 6 6 8 4 9 5 10 3 11 2 12 1 13 82 14
REMARK SMILES IDX 83 15 87 16 84 17 86 18 85 19 13 20 14 21 15 22 16 23 17 24
REMARK SMILES IDX 18 26 19 27 20 28 81 29 21 30 80 31 22 32 23 33 24 34 74 35
REMARK SMILES IDX 25 36 79 37 73 38 75 39 26 40 78 41 72 42 71 43 27 45 59 46
REMARK SMILES IDX 39 47 58 48 40 49 43 50 57 51 76 52 41 53 42 54 56 56 77 57
REMARK SMILES IDX 44 58 28 59 29 60 37 61 30 62 31 63 35 64 38 65 32 66 33 67
REMARK SMILES IDX 36 68 34 69 60 70 61 71 69 72 62 73 63 74 67 75 70 76 64 77
REMARK SMILES IDX 65 78 68 79 66 80 45 81 46 82 54 83 47 84 48 85 52 86 55 87
REMARK SMILES IDX 49 88 50 89 53 90 51 91
REMARK H PARENT 9 7 16 25 75 44 43 55
REMARK Flexibility Score: inf
ROOT
ATOM      1  C   UNL A   1      33.616  23.160  26.070  1.00  0.00       nan C 
ENDROOT
BRANCH   1   2
ATOM      2  C   UNL A   1      32.159  22.688  26.001  1.00  0.00       nan C 
BRANCH   2   3
ATOM      3  C   UNL A   1      31.195  23.586  26.775  1.00  0.00       nan C 
BRANCH   3   4
ATOM      4  N   UNL A   1      30.358  24.336  25.863  1.00  0.00       nan N 
ATOM      5  C   UNL A   1      30.330  25.674  25.624  1.00  0.00       nan C 
ATOM      6  O   UNL A   1      29.529  26.101  24.790  1.00  0.00       nan OA
ATOM      7  H   UNL A   1      29.717  23.801  25.340  1.00  0.00       nan HD
BRANCH   5   8
ATOM      8  C   UNL A   1      31.320  26.579  26.292  1.00  0.00       nan C 
BRANCH   8   9
ATOM      9  P   UNL A   1      32.800  27.061  25.122  1.00  0.00       nan P 
ATOM     10  O   UNL A   1      32.557  25.774  24.296  1.00  0.00       nan OA
BRANCH   9  11
ATOM     11  O   UNL A   1      31.991  28.069  24.053  1.00  0.00       nan OA
BRANCH  11  12
ATOM     12  C   UNL A   1      32.381  28.300  22.709  1.00  0.00       nan C 
ATOM     13  C   UNL A   1      33.874  28.539  22.614  1.00  0.00       nan C 
ENDBRANCH  11  12
ENDBRANCH   9  11
BRANCH   9  14
ATOM     14  C   UNL A   1      33.087  28.583  26.097  1.00  0.00       nan A 
ATOM     15  C   UNL A   1      32.042  29.519  26.160  1.00  0.00       nan A 
ATOM     16  C   UNL A   1      34.286  28.890  26.768  1.00  0.00       nan A 
ATOM     17  C   UNL A   1      32.208  30.735  26.829  1.00  0.00       nan A 
ATOM     18  C   UNL A   1      34.456  30.109  27.426  1.00  0.00       nan A 
ATOM     19  C   UNL A   1      33.419  31.034  27.449  1.00  0.00       nan A 
ENDBRANCH   9  14
ENDBRANCH   8   9
ENDBRANCH   5   8
ENDBRANCH   3   4
ENDBRANCH   2   3
ENDBRANCH   1   2
BRANCH   1  20
ATOM     20  C   UNL A   1      34.440  22.850  24.816  1.00  0.00       nan C 
BRANCH  20  21
ATOM     21  C   UNL A   1      35.700  23.704  24.658  1.00  0.00       nan C 
BRANCH  21  22
ATOM     22  C   UNL A   1      36.534  23.817  25.929  1.00  0.00       nan C 
BRANCH  22  23
ATOM     23  N   UNL A   1      37.533  22.761  26.011  1.00  0.00       nan N 
ATOM     24  C   UNL A   1      38.863  22.856  26.323  1.00  0.00       nan C 
ATOM     25  H   UNL A   1      37.207  21.853  25.815  1.00  0.00       nan HD
ATOM     26  O   UNL A   1      39.618  21.905  26.129  1.00  0.00       inf OA
BRANCH  24  27
ATOM     27  C   UNL A   1      39.391  24.114  26.883  1.00  0.00       inf A 
ATOM     28  C   UNL A   1      40.035  25.019  26.036  1.00  0.00     0.014 A 
ATOM     29  C   UNL A   1      39.247  24.399  28.244  1.00  0.00     0.014 A 
ATOM     30  C   UNL A   1      40.484  26.238  26.544  1.00  0.00     0.010 A 
ATOM     31  C   UNL A   1      39.627  25.643  28.733  1.00  0.00     0.010 A 
ATOM     32  C   UNL A   1      40.255  26.574  27.890  1.00  0.00    -0.014 A 
BRANCH  32  33
ATOM     33  C   UNL A   1      40.674  27.887  28.441  1.00  0.00     0.031 A 
ATOM     34  C   UNL A   1      42.116  28.128  28.788  1.00  0.00     0.074 A 
ATOM     35  C   UNL A   1      39.750  28.836  28.682  1.00  0.00     0.049 A 
ATOM     36  N   UNL A   1      42.669  29.167  29.362  1.00  0.00    -0.248 NA
ATOM     37  C   UNL A   1      43.063  27.045  28.469  1.00  0.00     0.031 C 
ATOM     38  C   UNL A   1      38.316  28.709  28.416  1.00  0.00     0.029 A 
ATOM     39  N   UNL A   1      39.877  30.094  29.217  1.00  0.00    -0.354 N 
ATOM     40  C   UNL A   1      44.019  28.862  29.475  1.00  0.00     0.074 A 
ATOM     41  C   UNL A   1      44.194  27.517  28.971  1.00  0.00     0.031 C 
ATOM     42  C   UNL A   1      37.701  29.851  28.766  1.00  0.00     0.029 A 
ATOM     43  C   UNL A   1      38.687  30.771  29.323  1.00  0.00     0.049 A 
ATOM     44  H   UNL A   1      40.741  30.474  29.498  1.00  0.00     0.167 HD
ATOM     45  C   UNL A   1      45.027  29.644  29.931  1.00  0.00     0.037 A 
ATOM     46  C   UNL A   1      38.422  31.992  29.825  1.00  0.00     0.037 A 
ATOM     47  C   UNL A   1      44.851  30.985  30.420  1.00  0.00     0.049 A 
ATOM     48  C   UNL A   1      39.557  32.820  30.371  1.00  0.00     0.074 A 
ATOM     49  C   UNL A   1      45.810  31.869  30.882  1.00  0.00     0.029 A 
ATOM     50  N   UNL A   1      43.629  31.638  30.507  1.00  0.00    -0.354 N 
ATOM     51  N   UNL A   1      40.837  32.541  30.425  1.00  0.00    -0.248 NA
ATOM     52  C   UNL A   1      39.208  34.137  30.922  1.00  0.00     0.031 C 
ATOM     53  C   UNL A   1      45.164  33.041  31.291  1.00  0.00     0.029 A 
ATOM     54  C   UNL A   1      43.810  32.908  31.031  1.00  0.00     0.049 A 
ATOM     55  H   UNL A   1      42.763  31.256  30.237  1.00  0.00     0.167 HD
ATOM     56  C   UNL A   1      41.448  33.660  30.975  1.00  0.00     0.074 A 
ATOM     57  C   UNL A   1      40.401  34.627  31.226  1.00  0.00     0.031 C 
ATOM     58  C   UNL A   1      42.759  33.868  31.249  1.00  0.00     0.037 A 
BRANCH  45  59
ATOM     59  C   UNL A   1      46.415  29.072  29.907  1.00  0.00     0.064 A 
ATOM     60  C   UNL A   1      46.933  28.367  31.005  1.00  0.00     0.173 A 
ATOM     61  C   UNL A   1      47.218  29.188  28.764  1.00  0.00     0.173 A 
ATOM     62  F   UNL A   1      46.211  28.237  32.128  1.00  0.00    -0.203 F 
ATOM     63  C   UNL A   1      48.214  27.821  30.967  1.00  0.00     0.198 A 
ATOM     64  C   UNL A   1      48.486  28.613  28.717  1.00  0.00     0.198 A 
ATOM     65  F   UNL A   1      46.770  29.847  27.685  1.00  0.00    -0.203 F 
ATOM     66  F   UNL A   1      48.705  27.193  32.044  1.00  0.00    -0.200 F 
ATOM     67  C   UNL A   1      48.986  27.937  29.821  1.00  0.00     0.200 A 
ATOM     68  F   UNL A   1      49.225  28.714  27.604  1.00  0.00    -0.200 F 
ATOM     69  F   UNL A   1      50.213  27.401  29.782  1.00  0.00    -0.200 F 
ENDBRANCH  45  59
BRANCH  46  70
ATOM     70  C   UNL A   1      37.032  32.522  29.827  1.00  0.00     0.064 A 
ATOM     71  C   UNL A   1      36.550  33.273  28.745  1.00  0.00     0.173 A 
ATOM     72  C   UNL A   1      36.175  32.326  30.918  1.00  0.00     0.173 A 
ATOM     73  F   UNL A   1      37.339  33.506  27.686  1.00  0.00    -0.203 F 
ATOM     74  C   UNL A   1      35.276  33.838  28.771  1.00  0.00     0.198 A 
ATOM     75  C   UNL A   1      34.888  32.865  30.929  1.00  0.00     0.198 A 
ATOM     76  F   UNL A   1      36.584  31.612  31.977  1.00  0.00    -0.203 F 
ATOM     77  F   UNL A   1      34.866  34.606  27.752  1.00  0.00    -0.200 F 
ATOM     78  C   UNL A   1      34.445  33.631  29.862  1.00  0.00     0.200 A 
ATOM     79  F   UNL A   1      34.084  32.650  31.978  1.00  0.00    -0.200 F 
ATOM     80  F   UNL A   1      33.223  34.180  29.890  1.00  0.00    -0.200 F 
ENDBRANCH  46  70
BRANCH  58  81
ATOM     81  C   UNL A   1      43.146  35.212  31.795  1.00  0.00     0.064 A 
ATOM     82  C   UNL A   1      43.099  35.496  33.167  1.00  0.00     0.173 A 
ATOM     83  C   UNL A   1      43.613  36.217  30.932  1.00  0.00     0.173 A 
ATOM     84  F   UNL A   1      42.645  34.575  34.031  1.00  0.00    -0.203 F 
ATOM     85  C   UNL A   1      43.479  36.744  33.653  1.00  0.00     0.198 A 
ATOM     86  C   UNL A   1      44.023  37.452  31.424  1.00  0.00     0.198 A 
ATOM     87  F   UNL A   1      43.684  35.994  29.611  1.00  0.00    -0.203 F 
ATOM     88  F   UNL A   1      43.378  37.010  34.963  1.00  0.00    -0.200 F 
ATOM     89  C   UNL A   1      43.949  37.717  32.783  1.00  0.00     0.200 A 
ATOM     90  F   UNL A   1      44.492  38.384  30.585  1.00  0.00    -0.200 F 
ATOM     91  F   UNL A   1      44.324  38.914  33.254  1.00  0.00    -0.200 F 
ENDBRANCH  58  81
ENDBRANCH  32  33
ENDBRANCH  24  27
ENDBRANCH  22  23
ENDBRANCH  21  22
ENDBRANCH  20  21
ENDBRANCH   1  20
TORSDOF 17
ENDMDL
MODEL 2
REMARK VINA RESULT:     -10.1      4.145      8.046
REMARK SMILES CCO[P@OH16](=O)(CC(=O)NCCCCCCNC(=O)c1ccc(-c2c3nc(c(-c4c(F)c(F)c(F)c(F)c4F)c4ccc([nH]4)c(-c4c(F)c(F)c(F)c(F)c4F)c4nc(c(-c5c(F)c(F)c(F)c(F)c5F)c5ccc2[nH]5)C=C4)C=C3)cc1)c1ccccc1
REMARK SMILES IDX 12 1 11 2 10 3 9 4 7 5 8 6 6 8 4 9 5 10 3 11 2 12 1 13 82 14
REMARK SMILES IDX 83 15 87 16 84 17 86 18 85 19 13 20 14 21 15 22 16 23 17 24
REMARK SMILES IDX 18 26 19 27 20 28 81 29 21 30 80 31 22 32 23 33 24 34 74 35
REMARK SMILES IDX 25 36 79 37 73 38 75 39 26 40 78 41 72 42 71 43 27 45 59 46
REMARK SMILES IDX 39 47 58 48 40 49 43 50 57 51 76 52 41 53 42 54 56 56 77 57
REMARK SMILES IDX 44 58 28 59 29 60 37 61 30 62 31 63 35 64 38 65 32 66 33 67
REMARK SMILES IDX 36 68 34 69 60 70 61 71 69 72 62 73 63 74 67 75 70 76 64 77
REMARK SMILES IDX 65 78 68 79 66 80 45 81 46 82 54 83 47 84 48 85 52 86 55 87
REMARK SMILES IDX 49 88 50 89 53 90 51 91
REMARK H PARENT 9 7 16 25 75 44 43 55
REMARK Flexibility Score: inf
ROOT
ATOM      1  C   UNL A   1      32.505  30.021  25.825  1.00  0.00       nan C 
ENDROOT
BRANCH   1   2
ATOM      2  C   UNL A   1      32.578  28.496  25.965  1.00  0.00       nan C 
BRANCH   2   3
ATOM      3  C   UNL A   1      31.307  27.785  25.504  1.00  0.00       nan C 
BRANCH   3   4
ATOM      4  N   UNL A   1      30.848  28.333  24.246  1.00  0.00       nan N 
ATOM      5  C   UNL A   1      30.437  27.686  23.123  1.00  0.00       nan C 
ATOM      6  O   UNL A   1      30.080  28.362  22.157  1.00  0.00       nan OA
ATOM      7  H   UNL A   1      30.829  29.317  24.195  1.00  0.00       nan HD
BRANCH   5   8
ATOM      8  C   UNL A   1      30.335  26.191  23.112  1.00  0.00       nan C 
BRANCH   8   9
ATOM      9  P   UNL A   1      31.970  25.334  22.490  1.00  0.00       nan P 
ATOM     10  O   UNL A   1      31.733  25.924  21.078  1.00  0.00       nan OA
BRANCH   9  11
ATOM     11  O   UNL A   1      33.084  26.501  22.946  1.00  0.00       nan OA
BRANCH  11  12
ATOM     12  C   UNL A   1      33.776  27.352  22.046  1.00  0.00       nan C 
ATOM     13  C   UNL A   1      34.139  28.663  22.714  1.00  0.00       nan C 
ENDBRANCH  11  12
ENDBRANCH   9  11
BRANCH   9  14
ATOM     14  C   UNL A   1      32.249  24.636  24.158  1.00  0.00       nan A 
ATOM     15  C   UNL A   1      31.199  23.905  24.739  1.00  0.00       nan A 
ATOM     16  C   UNL A   1      33.430  24.800  24.908  1.00  0.00       nan A 
ATOM     17  C   UNL A   1      31.311  23.399  26.038  1.00  0.00       nan A 
ATOM     18  C   UNL A   1      33.537  24.304  26.208  1.00  0.00       nan A 
ATOM     19  C   UNL A   1      32.474  23.610  26.775  1.00  0.00       nan A 
ENDBRANCH   9  14
ENDBRANCH   8   9
ENDBRANCH   5   8
ENDBRANCH   3   4
ENDBRANCH   2   3
ENDBRANCH   1   2
BRANCH   1  20
ATOM     20  C   UNL A   1      31.446  30.687  26.711  1.00  0.00       nan C 
BRANCH  20  21
ATOM     21  C   UNL A   1      31.448  32.216  26.661  1.00  0.00       nan C 
BRANCH  21  22
ATOM     22  C   UNL A   1      32.688  32.853  27.278  1.00  0.00       nan C 
BRANCH  22  23
ATOM     23  N   UNL A   1      32.459  34.248  27.626  1.00  0.00       nan N 
ATOM     24  C   UNL A   1      33.018  34.988  28.633  1.00  0.00       nan C 
ATOM     25  H   UNL A   1      31.812  34.726  27.057  1.00  0.00       nan HD
ATOM     26  O   UNL A   1      32.552  36.085  28.934  1.00  0.00       inf OA
BRANCH  24  27
ATOM     27  C   UNL A   1      34.179  34.453  29.370  1.00  0.00       inf A 
ATOM     28  C   UNL A   1      33.973  33.813  30.594  1.00  0.00     0.014 A 
ATOM     29  C   UNL A   1      35.469  34.583  28.849  1.00  0.00     0.014 A 
ATOM     30  C   UNL A   1      35.057  33.252  31.269  1.00  0.00     0.010 A 
ATOM     31  C   UNL A   1      36.536  33.959  29.484  1.00  0.00     0.010 A 
ATOM     32  C   UNL A   1      36.343  33.292  30.704  1.00  0.00    -0.014 A 
BRANCH  32  33
ATOM     33  C   UNL A   1      37.503  32.654  31.375  1.00  0.00     0.031 A 
ATOM     34  C   UNL A   1      38.224  31.518  30.706  1.00  0.00     0.074 A 
ATOM     35  C   UNL A   1      37.867  33.057  32.607  1.00  0.00     0.049 A 
ATOM     36  N   UNL A   1      39.197  30.770  31.161  1.00  0.00    -0.248 NA
ATOM     37  C   UNL A   1      37.775  31.158  29.350  1.00  0.00     0.031 C 
ATOM     38  C   UNL A   1      37.227  34.129  33.371  1.00  0.00     0.029 A 
ATOM     39  N   UNL A   1      38.861  32.606  33.439  1.00  0.00    -0.354 N 
ATOM     40  C   UNL A   1      39.471  29.854  30.154  1.00  0.00     0.074 A 
ATOM     41  C   UNL A   1      38.522  30.095  29.090  1.00  0.00     0.031 C 
ATOM     42  C   UNL A   1      37.858  34.268  34.549  1.00  0.00     0.029 A 
ATOM     43  C   UNL A   1      38.915  33.266  34.643  1.00  0.00     0.049 A 
ATOM     44  H   UNL A   1      39.476  31.876  33.196  1.00  0.00     0.167 HD
ATOM     45  C   UNL A   1      40.446  28.915  30.109  1.00  0.00     0.037 A 
ATOM     46  C   UNL A   1      39.721  33.075  35.704  1.00  0.00     0.037 A 
ATOM     47  C   UNL A   1      41.397  28.685  31.164  1.00  0.00     0.049 A 
ATOM     48  C   UNL A   1      40.764  31.990  35.645  1.00  0.00     0.074 A 
ATOM     49  C   UNL A   1      42.437  27.775  31.207  1.00  0.00     0.029 A 
ATOM     50  N   UNL A   1      41.422  29.379  32.367  1.00  0.00    -0.354 N 
ATOM     51  N   UNL A   1      41.048  31.164  34.667  1.00  0.00    -0.248 NA
ATOM     52  C   UNL A   1      41.604  31.815  36.838  1.00  0.00     0.031 C 
ATOM     53  C   UNL A   1      43.066  27.886  32.452  1.00  0.00     0.029 A 
ATOM     54  C   UNL A   1      42.452  28.903  33.163  1.00  0.00     0.049 A 
ATOM     55  H   UNL A   1      40.802  30.100  32.617  1.00  0.00     0.167 HD
ATOM     56  C   UNL A   1      42.122  30.403  35.110  1.00  0.00     0.074 A 
ATOM     57  C   UNL A   1      42.447  30.873  36.440  1.00  0.00     0.031 C 
ATOM     58  C   UNL A   1      42.779  29.402  34.474  1.00  0.00     0.037 A 
BRANCH  45  59
ATOM     59  C   UNL A   1      40.544  28.073  28.869  1.00  0.00     0.064 A 
ATOM     60  C   UNL A   1      39.832  26.870  28.745  1.00  0.00     0.173 A 
ATOM     61  C   UNL A   1      41.318  28.493  27.778  1.00  0.00     0.173 A 
ATOM     62  F   UNL A   1      39.087  26.417  29.764  1.00  0.00    -0.203 F 
ATOM     63  C   UNL A   1      39.911  26.106  27.583  1.00  0.00     0.198 A 
ATOM     64  C   UNL A   1      41.369  27.743  26.605  1.00  0.00     0.198 A 
ATOM     65  F   UNL A   1      42.014  29.638  27.841  1.00  0.00    -0.203 F 
ATOM     66  F   UNL A   1      39.260  24.938  27.506  1.00  0.00    -0.200 F 
ATOM     67  C   UNL A   1      40.672  26.547  26.511  1.00  0.00     0.200 A 
ATOM     68  F   UNL A   1      42.093  28.178  25.565  1.00  0.00    -0.200 F 
ATOM     69  F   UNL A   1      40.738  25.818  25.390  1.00  0.00    -0.200 F 
ENDBRANCH  45  59
BRANCH  46  70
ATOM     70  C   UNL A   1      39.592  33.933  36.913  1.00  0.00     0.064 A 
ATOM     71  C   UNL A   1      38.828  33.515  38.012  1.00  0.00     0.173 A 
ATOM     72  C   UNL A   1      40.193  35.198  36.981  1.00  0.00     0.173 A 
ATOM     73  F   UNL A   1      38.218  32.321  37.988  1.00  0.00    -0.203 F 
ATOM     74  C   UNL A   1      38.640  34.343  39.116  1.00  0.00     0.198 A 
ATOM     75  C   UNL A   1      40.031  36.013  38.100  1.00  0.00     0.198 A 
ATOM     76  F   UNL A   1      40.938  35.646  35.959  1.00  0.00    -0.203 F 
ATOM     77  F   UNL A   1      37.852  33.944  40.124  1.00  0.00    -0.200 F 
ATOM     78  C   UNL A   1      39.244  35.591  39.161  1.00  0.00     0.200 A 
ATOM     79  F   UNL A   1      40.628  37.212  38.145  1.00  0.00    -0.200 F 
ATOM     80  F   UNL A   1      39.057  36.391  40.220  1.00  0.00    -0.200 F 
ENDBRANCH  46  70
BRANCH  58  81
ATOM     81  C   UNL A   1      43.953  28.789  35.180  1.00  0.00     0.064 A 
ATOM     82  C   UNL A   1      45.255  29.286  35.024  1.00  0.00     0.173 A 
ATOM     83  C   UNL A   1      43.762  27.712  36.060  1.00  0.00     0.173 A 
ATOM     84  F   UNL A   1      45.491  30.305  34.182  1.00  0.00    -0.203 F 
ATOM     85  C   UNL A   1      46.326  28.712  35.703  1.00  0.00     0.198 A 
ATOM     86  C   UNL A   1      44.831  27.162  36.763  1.00  0.00     0.198 A 
ATOM     87  F   UNL A   1      42.536  27.203  36.251  1.00  0.00    -0.203 F 
ATOM     88  F   UNL A   1      47.568  29.173  35.500  1.00  0.00    -0.200 F 
ATOM     89  C   UNL A   1      46.112  27.657  36.578  1.00  0.00     0.200 A 
ATOM     90  F   UNL A   1      44.620  26.154  37.619  1.00  0.00    -0.200 F 
ATOM     91  F   UNL A   1      47.144  27.114  37.238  1.00  0.00    -0.200 F 
ENDBRANCH  58  81
ENDBRANCH  32  33
ENDBRANCH  24  27
ENDBRANCH  22  23
ENDBRANCH  21  22
ENDBRANCH  20  21
ENDBRANCH   1  20
TORSDOF 17
ENDMDL
MODEL 3
REMARK VINA RESULT:      -9.8      3.703      5.988
REMARK SMILES CCO[P@OH16](=O)(CC(=O)NCCCCCCNC(=O)c1ccc(-c2c3nc(c(-c4c(F)c(F)c(F)c(F)c4F)c4ccc([nH]4)c(-c4c(F)c(F)c(F)c(F)c4F)c4nc(c(-c5c(F)c(F)c(F)c(F)c5F)c5ccc2[nH]5)C=C4)C=C3)cc1)c1ccccc1
REMARK SMILES IDX 12 1 11 2 10 3 9 4 7 5 8 6 6 8 4 9 5 10 3 11 2 12 1 13 82 14
REMARK SMILES IDX 83 15 87 16 84 17 86 18 85 19 13 20 14 21 15 22 16 23 17 24
REMARK SMILES IDX 18 26 19 27 20 28 81 29 21 30 80 31 22 32 23 33 24 34 74 35
REMARK SMILES IDX 25 36 79 37 73 38 75 39 26 40 78 41 72 42 71 43 27 45 59 46
REMARK SMILES IDX 39 47 58 48 40 49 43 50 57 51 76 52 41 53 42 54 56 56 77 57
REMARK SMILES IDX 44 58 28 59 29 60 37 61 30 62 31 63 35 64 38 65 32 66 33 67
REMARK SMILES IDX 36 68 34 69 60 70 61 71 69 72 62 73 63 74 67 75 70 76 64 77
REMARK SMILES IDX 65 78 68 79 66 80 45 81 46 82 54 83 47 84 48 85 52 86 55 87
REMARK SMILES IDX 49 88 50 89 53 90 51 91
REMARK H PARENT 9 7 16 25 75 44 43 55
REMARK Flexibility Score: inf
ROOT
ATOM      1  C   UNL A   1      40.122  22.162  26.532  1.00  0.00       nan C 
ENDROOT
BRANCH   1   2
ATOM      2  C   UNL A   1      39.012  21.376  25.822  1.00  0.00       nan C 
BRANCH   2   3
ATOM      3  C   UNL A   1      37.715  22.169  25.666  1.00  0.00       nan C 
BRANCH   3   4
ATOM      4  N   UNL A   1      37.405  22.363  24.266  1.00  0.00       nan N 
ATOM      5  C   UNL A   1      36.284  22.880  23.697  1.00  0.00       nan C 
ATOM      6  O   UNL A   1      36.236  22.957  22.468  1.00  0.00       nan OA
ATOM      7  H   UNL A   1      38.106  22.081  23.635  1.00  0.00       nan HD
BRANCH   5   8
ATOM      8  C   UNL A   1      35.186  23.428  24.558  1.00  0.00       nan C 
BRANCH   8   9
ATOM      9  P   UNL A   1      33.475  23.504  23.631  1.00  0.00       nan P 
ATOM     10  O   UNL A   1      33.380  21.960  23.697  1.00  0.00       nan OA
BRANCH   9  11
ATOM     11  O   UNL A   1      32.463  23.764  24.942  1.00  0.00       nan OA
BRANCH  11  12
ATOM     12  C   UNL A   1      31.072  23.481  24.956  1.00  0.00       nan C 
ATOM     13  C   UNL A   1      30.717  22.579  26.121  1.00  0.00       nan C 
ENDBRANCH  11  12
ENDBRANCH   9  11
BRANCH   9  14
ATOM     14  C   UNL A   1      33.589  25.329  23.554  1.00  0.00       nan A 
ATOM     15  C   UNL A   1      33.696  26.023  24.770  1.00  0.00       nan A 
ATOM     16  C   UNL A   1      33.553  26.084  22.366  1.00  0.00       nan A 
ATOM     17  C   UNL A   1      33.719  27.421  24.797  1.00  0.00       nan A 
ATOM     18  C   UNL A   1      33.564  27.479  22.394  1.00  0.00       nan A 
ATOM     19  C   UNL A   1      33.640  28.147  23.612  1.00  0.00       nan A 
ENDBRANCH   9  14
ENDBRANCH   8   9
ENDBRANCH   5   8
ENDBRANCH   3   4
ENDBRANCH   2   3
ENDBRANCH   1   2
BRANCH   1  20
ATOM     20  C   UNL A   1      41.394  21.352  26.803  1.00  0.00       nan C 
BRANCH  20  21
ATOM     21  C   UNL A   1      41.436  19.987  26.115  1.00  0.00       nan C 
BRANCH  21  22
ATOM     22  C   UNL A   1      42.580  19.094  26.581  1.00  0.00       nan C 
BRANCH  22  23
ATOM     23  N   UNL A   1      43.414  18.664  25.468  1.00  0.00       nan N 
ATOM     24  C   UNL A   1      44.191  19.420  24.632  1.00  0.00       nan C 
ATOM     25  H   UNL A   1      43.420  17.695  25.292  1.00  0.00       nan HD
ATOM     26  O   UNL A   1      44.656  18.934  23.602  1.00  0.00       inf OA
BRANCH  24  27
ATOM     27  C   UNL A   1      44.459  20.832  24.966  1.00  0.00       inf A 
ATOM     28  C   UNL A   1      43.996  21.833  24.109  1.00  0.00     0.014 A 
ATOM     29  C   UNL A   1      45.165  21.163  26.126  1.00  0.00     0.014 A 
ATOM     30  C   UNL A   1      44.193  23.173  24.447  1.00  0.00     0.010 A 
ATOM     31  C   UNL A   1      45.293  22.496  26.498  1.00  0.00     0.010 A 
ATOM     32  C   UNL A   1      44.814  23.516  25.660  1.00  0.00    -0.014 A 
BRANCH  32  33
ATOM     33  C   UNL A   1      44.984  24.932  26.068  1.00  0.00     0.031 A 
ATOM     34  C   UNL A   1      46.335  25.584  25.967  1.00  0.00     0.074 A 
ATOM     35  C   UNL A   1      43.941  25.609  26.583  1.00  0.00     0.049 A 
ATOM     36  N   UNL A   1      46.712  26.776  26.355  1.00  0.00    -0.248 NA
ATOM     37  C   UNL A   1      47.414  24.779  25.371  1.00  0.00     0.031 C 
ATOM     38  C   UNL A   1      42.589  25.077  26.760  1.00  0.00     0.029 A 
ATOM     39  N   UNL A   1      43.855  26.893  27.063  1.00  0.00    -0.354 N 
ATOM     40  C   UNL A   1      48.065  26.860  26.054  1.00  0.00     0.074 A 
ATOM     41  C   UNL A   1      48.460  25.579  25.512  1.00  0.00     0.031 C 
ATOM     42  C   UNL A   1      41.804  26.031  27.287  1.00  0.00     0.029 A 
ATOM     43  C   UNL A   1      42.606  27.226  27.527  1.00  0.00     0.049 A 
ATOM     44  H   UNL A   1      44.619  27.515  27.074  1.00  0.00     0.167 HD
ATOM     45  C   UNL A   1      48.896  27.921  26.190  1.00  0.00     0.037 A 
ATOM     46  C   UNL A   1      42.164  28.365  28.094  1.00  0.00     0.037 A 
ATOM     47  C   UNL A   1      48.497  29.198  26.719  1.00  0.00     0.049 A 
ATOM     48  C   UNL A   1      43.125  29.511  28.279  1.00  0.00     0.074 A 
ATOM     49  C   UNL A   1      49.257  30.343  26.877  1.00  0.00     0.029 A 
ATOM     50  N   UNL A   1      47.221  29.498  27.174  1.00  0.00    -0.354 N 
ATOM     51  N   UNL A   1      44.389  29.597  27.943  1.00  0.00    -0.248 NA
ATOM     52  C   UNL A   1      42.592  30.723  28.918  1.00  0.00     0.031 C 
ATOM     53  C   UNL A   1      48.454  31.324  27.468  1.00  0.00     0.029 A 
ATOM     54  C   UNL A   1      47.178  30.807  27.628  1.00  0.00     0.049 A 
ATOM     55  H   UNL A   1      46.460  28.875  27.175  1.00  0.00     0.167 HD
ATOM     56  C   UNL A   1      44.790  30.880  28.291  1.00  0.00     0.074 A 
ATOM     57  C   UNL A   1      43.632  31.542  28.852  1.00  0.00     0.031 C 
ATOM     58  C   UNL A   1      46.009  31.458  28.158  1.00  0.00     0.037 A 
BRANCH  45  59
ATOM     59  C   UNL A   1      50.321  27.749  25.746  1.00  0.00     0.064 A 
ATOM     60  C   UNL A   1      50.679  27.836  24.392  1.00  0.00     0.173 A 
ATOM     61  C   UNL A   1      51.343  27.541  26.684  1.00  0.00     0.173 A 
ATOM     62  F   UNL A   1      49.739  28.021  23.454  1.00  0.00    -0.203 F 
ATOM     63  C   UNL A   1      52.006  27.696  23.991  1.00  0.00     0.198 A 
ATOM     64  C   UNL A   1      52.672  27.434  26.282  1.00  0.00     0.198 A 
ATOM     65  F   UNL A   1      51.056  27.455  27.992  1.00  0.00    -0.203 F 
ATOM     66  F   UNL A   1      52.317  27.736  22.689  1.00  0.00    -0.200 F 
ATOM     67  C   UNL A   1      53.002  27.504  24.936  1.00  0.00     0.200 A 
ATOM     68  F   UNL A   1      53.635  27.263  27.198  1.00  0.00    -0.200 F 
ATOM     69  F   UNL A   1      54.278  27.382  24.550  1.00  0.00    -0.200 F 
ENDBRANCH  45  59
BRANCH  46  70
ATOM     70  C   UNL A   1      40.744  28.495  28.518  1.00  0.00     0.064 A 
ATOM     71  C   UNL A   1      39.772  28.981  27.631  1.00  0.00     0.173 A 
ATOM     72  C   UNL A   1      40.336  28.177  29.821  1.00  0.00     0.173 A 
ATOM     73  F   UNL A   1      40.117  29.318  26.380  1.00  0.00    -0.203 F 
ATOM     74  C   UNL A   1      38.456  29.178  28.042  1.00  0.00     0.198 A 
ATOM     75  C   UNL A   1      39.011  28.344  30.221  1.00  0.00     0.198 A 
ATOM     76  F   UNL A   1      41.224  27.704  30.708  1.00  0.00    -0.203 F 
ATOM     77  F   UNL A   1      37.563  29.705  27.193  1.00  0.00    -0.200 F 
ATOM     78  C   UNL A   1      38.075  28.856  29.336  1.00  0.00     0.200 A 
ATOM     79  F   UNL A   1      38.645  28.018  31.468  1.00  0.00    -0.200 F 
ATOM     80  F   UNL A   1      36.810  29.052  29.733  1.00  0.00    -0.200 F 
ENDBRANCH  46  70
BRANCH  58  81
ATOM     81  C   UNL A   1      46.140  32.896  28.572  1.00  0.00     0.064 A 
ATOM     82  C   UNL A   1      45.886  33.949  27.682  1.00  0.00     0.173 A 
ATOM     83  C   UNL A   1      46.483  33.221  29.894  1.00  0.00     0.173 A 
ATOM     84  F   UNL A   1      45.570  33.690  26.403  1.00  0.00    -0.203 F 
ATOM     85  C   UNL A   1      45.996  35.275  28.092  1.00  0.00     0.198 A 
ATOM     86  C   UNL A   1      46.559  34.547  30.310  1.00  0.00     0.198 A 
ATOM     87  F   UNL A   1      46.728  32.251  30.787  1.00  0.00    -0.203 F 
ATOM     88  F   UNL A   1      45.798  36.265  27.211  1.00  0.00    -0.200 F 
ATOM     89  C   UNL A   1      46.324  35.572  29.407  1.00  0.00     0.200 A 
ATOM     90  F   UNL A   1      46.860  34.833  31.583  1.00  0.00    -0.200 F 
ATOM     91  F   UNL A   1      46.419  36.850  29.802  1.00  0.00    -0.200 F 
ENDBRANCH  58  81
ENDBRANCH  32  33
ENDBRANCH  24  27
ENDBRANCH  22  23
ENDBRANCH  21  22
ENDBRANCH  20  21
ENDBRANCH   1  20
TORSDOF 17
ENDMDL
