MODEL 1
REMARK VINA RESULT:     -11.8      0.000      0.000
REMARK SMILES CC(C)(O)CC[C@@]1(C(=O)NCCCCCCNC(=O)c2ccc(-c3c4nc(c(-c5c(F)c(F)c(F)c(F)c5F)c5ccc([nH]5)c(-c5c(F)c(F)c(F)c(F)c5F)c5nc(c(-c6c(F)c(F)c(F)c(F)c6F)c6ccc3[nH]6)C=C5)C=C4)cc2)CCc2ccccc21
REMARK SMILES IDX 12 1 11 2 10 3 8 4 9 5 7 7 83 8 90 9 84 10 85 11 89 12 86 13
REMARK SMILES IDX 88 14 87 15 6 16 5 17 2 18 1 19 3 20 4 21 13 23 14 24 15 25
REMARK SMILES IDX 16 26 17 27 18 28 19 30 20 31 21 32 82 33 22 34 81 35 23 36
REMARK SMILES IDX 24 37 25 38 75 39 26 40 80 41 74 42 76 43 27 44 79 45 73 46
REMARK SMILES IDX 72 47 28 49 60 50 40 51 59 52 41 53 44 54 58 55 77 56 42 57
REMARK SMILES IDX 43 58 57 60 78 61 45 62 29 63 30 64 38 65 31 66 32 67 36 68
REMARK SMILES IDX 39 69 33 70 34 71 37 72 35 73 61 74 62 75 70 76 63 77 64 78
REMARK SMILES IDX 68 79 71 80 65 81 66 82 69 83 67 84 46 85 47 86 55 87 48 88
REMARK SMILES IDX 49 89 53 90 56 91 50 92 51 93 54 94 52 95
REMARK H PARENT 10 6 4 22 17 29 76 48 44 59
REMARK Flexibility Score: inf
ROOT
ATOM      1  C   UNL A   1      31.796  28.936  27.198  1.00  0.00     0.021 C 
ENDROOT
BRANCH   1   2
ATOM      2  C   UNL A   1      32.251  27.504  26.955  1.00  0.00     0.116 C 
BRANCH   2   3
ATOM      3  N   UNL A   1      31.176  26.559  27.064  1.00  0.00    -0.355 N 
ATOM      4  C   UNL A   1      30.763  25.618  26.169  1.00  0.00     0.230 C 
ATOM      5  O   UNL A   1      29.865  24.881  26.592  1.00  0.00    -0.274 OA
ATOM      6  H   UNL A   1      30.665  26.597  27.905  1.00  0.00     0.163 HD
BRANCH   4   7
ATOM      7  C   UNL A   1      31.390  25.496  24.728  1.00  0.00     0.075 C 
ATOM      8  C   UNL A   1      32.914  25.795  24.781  1.00  0.00     0.026 C 
ATOM      9  C   UNL A   1      30.988  26.726  23.876  1.00  0.00    -0.029 A 
ATOM     10  C   UNL A   1      33.319  26.488  23.475  1.00  0.00     0.037 C 
ATOM     11  C   UNL A   1      32.095  27.296  23.233  1.00  0.00    -0.044 A 
ATOM     12  C   UNL A   1      29.759  27.379  23.811  1.00  0.00     0.005 A 
ATOM     13  C   UNL A   1      32.012  28.496  22.540  1.00  0.00     0.004 A 
ATOM     14  C   UNL A   1      29.676  28.619  23.167  1.00  0.00     0.000 A 
ATOM     15  C   UNL A   1      30.796  29.173  22.535  1.00  0.00     0.000 A 
BRANCH   7  16
ATOM     16  C   UNL A   1      30.984  24.138  24.047  1.00  0.00     0.025 C 
BRANCH  16  17
ATOM     17  C   UNL A   1      31.845  22.836  24.164  1.00  0.00     0.036 C 
BRANCH  17  18
ATOM     18  C   UNL A   1      31.883  21.961  25.464  1.00  0.00     0.059 C 
ATOM     19  C   UNL A   1      32.863  22.439  26.547  1.00  0.00     0.042 C 
ATOM     20  C   UNL A   1      32.321  20.525  25.106  1.00  0.00     0.042 C 
BRANCH  18  21
ATOM     21  O   UNL A   1      30.576  21.871  26.030  1.00  0.00    -0.390 OA
ATOM     22  H   UNL A   1      29.969  22.441  25.531  1.00  0.00     0.211 HD
ENDBRANCH  18  21
ENDBRANCH  17  18
ENDBRANCH  16  17
ENDBRANCH   7  16
ENDBRANCH   4   7
ENDBRANCH   2   3
ENDBRANCH   1   2
BRANCH   1  23
ATOM     23  C   UNL A   1      32.322  29.929  26.163  1.00  0.00     0.002 C 
BRANCH  23  24
ATOM     24  C   UNL A   1      31.292  30.950  25.660  1.00  0.00     0.002 C 
BRANCH  24  25
ATOM     25  C   UNL A   1      31.115  32.203  26.525  1.00  0.00     0.021 C 
BRANCH  25  26
ATOM     26  C   UNL A   1      32.396  32.740  27.158  1.00  0.00     0.116 C 
BRANCH  26  27
ATOM     27  N   UNL A   1      32.272  34.131  27.555  1.00  0.00    -0.352 N 
ATOM     28  C   UNL A   1      32.945  34.844  28.514  1.00  0.00     0.251 C 
ATOM     29  H   UNL A   1      31.596  34.646  27.056  1.00  0.00     0.163 HD
ATOM     30  O   UNL A   1      32.560  35.966  28.826  1.00  0.00    -0.269 OA
BRANCH  28  31
ATOM     31  C   UNL A   1      34.130  34.267  29.186  1.00  0.00     0.039 A 
ATOM     32  C   UNL A   1      33.943  33.548  30.370  1.00  0.00     0.014 A 
ATOM     33  C   UNL A   1      35.420  34.473  28.689  1.00  0.00     0.014 A 
ATOM     34  C   UNL A   1      35.043  32.995  31.030  1.00  0.00     0.010 A 
ATOM     35  C   UNL A   1      36.509  33.865  29.310  1.00  0.00     0.010 A 
ATOM     36  C   UNL A   1      36.333  33.127  30.491  1.00  0.00    -0.014 A 
BRANCH  36  37
ATOM     37  C   UNL A   1      37.510  32.514  31.157  1.00  0.00     0.031 A 
ATOM     38  C   UNL A   1      38.262  31.400  30.484  1.00  0.00     0.074 A 
ATOM     39  C   UNL A   1      37.864  32.920  32.392  1.00  0.00     0.049 A 
ATOM     40  N   UNL A   1      39.264  30.687  30.935  1.00  0.00    -0.248 NA
ATOM     41  C   UNL A   1      37.812  31.019  29.137  1.00  0.00     0.031 C 
ATOM     42  C   UNL A   1      37.189  33.964  33.164  1.00  0.00     0.029 A 
ATOM     43  N   UNL A   1      38.872  32.492  33.219  1.00  0.00    -0.354 N 
ATOM     44  C   UNL A   1      39.552  29.766  29.935  1.00  0.00     0.074 A 
ATOM     45  C   UNL A   1      38.587  29.976  28.877  1.00  0.00     0.031 C 
ATOM     46  C   UNL A   1      37.812  34.109  34.344  1.00  0.00     0.029 A 
ATOM     47  C   UNL A   1      38.905  33.145  34.428  1.00  0.00     0.049 A 
ATOM     48  H   UNL A   1      39.511  31.787  32.970  1.00  0.00     0.167 HD
ATOM     49  C   UNL A   1      40.543  28.843  29.895  1.00  0.00     0.037 A 
ATOM     50  C   UNL A   1      39.720  32.976  35.487  1.00  0.00     0.037 A 
ATOM     51  C   UNL A   1      41.518  28.656  30.938  1.00  0.00     0.049 A 
ATOM     52  C   UNL A   1      40.811  31.942  35.418  1.00  0.00     0.074 A 
ATOM     53  C   UNL A   1      42.597  27.790  30.966  1.00  0.00     0.029 A 
ATOM     54  N   UNL A   1      41.531  29.350  32.139  1.00  0.00    -0.354 N 
ATOM     55  N   UNL A   1      41.112  31.120  34.442  1.00  0.00    -0.248 NA
ATOM     56  C   UNL A   1      41.682  31.819  36.595  1.00  0.00     0.031 C 
ATOM     57  C   UNL A   1      43.236  27.927  32.202  1.00  0.00     0.029 A 
ATOM     58  C   UNL A   1      42.586  28.914  32.925  1.00  0.00     0.049 A 
ATOM     59  H   UNL A   1      40.885  30.047  32.396  1.00  0.00     0.167 HD
ATOM     60  C   UNL A   1      42.219  30.404  34.874  1.00  0.00     0.074 A 
ATOM     61  C   UNL A   1      42.546  30.898  36.195  1.00  0.00     0.031 C 
ATOM     62  C   UNL A   1      42.903  29.423  34.234  1.00  0.00     0.037 A 
BRANCH  49  63
ATOM     63  C   UNL A   1      40.625  27.964  28.680  1.00  0.00     0.064 A 
ATOM     64  C   UNL A   1      39.942  26.741  28.610  1.00  0.00     0.173 A 
ATOM     65  C   UNL A   1      41.369  28.366  27.560  1.00  0.00     0.173 A 
ATOM     66  F   UNL A   1      39.227  26.305  29.657  1.00  0.00    -0.203 F 
ATOM     67  C   UNL A   1      40.024  25.938  27.474  1.00  0.00     0.198 A 
ATOM     68  C   UNL A   1      41.424  27.575  26.415  1.00  0.00     0.198 A 
ATOM     69  F   UNL A   1      42.036  29.529  27.572  1.00  0.00    -0.203 F 
ATOM     70  F   UNL A   1      39.404  24.751  27.450  1.00  0.00    -0.200 F 
ATOM     71  C   UNL A   1      40.758  26.359  26.376  1.00  0.00     0.200 A 
ATOM     72  F   UNL A   1      42.123  27.989  25.348  1.00  0.00    -0.200 F 
ATOM     73  F   UNL A   1      40.832  25.589  25.282  1.00  0.00    -0.200 F 
ENDBRANCH  49  63
BRANCH  50  74
ATOM     74  C   UNL A   1      39.549  33.824  36.694  1.00  0.00     0.064 A 
ATOM     75  C   UNL A   1      40.151  35.088  36.777  1.00  0.00     0.173 A 
ATOM     76  C   UNL A   1      38.790  33.390  37.791  1.00  0.00     0.173 A 
ATOM     77  F   UNL A   1      40.904  35.537  35.762  1.00  0.00    -0.203 F 
ATOM     78  C   UNL A   1      40.016  35.877  37.917  1.00  0.00     0.198 A 
ATOM     79  C   UNL A   1      38.632  34.193  38.920  1.00  0.00     0.198 A 
ATOM     80  F   UNL A   1      38.189  32.191  37.761  1.00  0.00    -0.203 F 
ATOM     81  F   UNL A   1      40.639  37.061  37.987  1.00  0.00    -0.200 F 
ATOM     82  C   UNL A   1      39.252  35.431  38.985  1.00  0.00     0.200 A 
ATOM     83  F   UNL A   1      37.881  33.764  39.943  1.00  0.00    -0.200 F 
ATOM     84  F   UNL A   1      39.119  36.191  40.081  1.00  0.00    -0.200 F 
ENDBRANCH  50  74
BRANCH  62  85
ATOM     85  C   UNL A   1      44.095  28.845  34.939  1.00  0.00     0.064 A 
ATOM     86  C   UNL A   1      43.987  27.722  35.770  1.00  0.00     0.173 A 
ATOM     87  C   UNL A   1      45.371  29.400  34.746  1.00  0.00     0.173 A 
ATOM     88  F   UNL A   1      42.788  27.165  35.998  1.00  0.00    -0.203 F 
ATOM     89  C   UNL A   1      45.108  27.188  36.402  1.00  0.00     0.198 A 
ATOM     90  C   UNL A   1      46.493  28.846  35.356  1.00  0.00     0.198 A 
ATOM     91  F   UNL A   1      45.530  30.471  33.955  1.00  0.00    -0.203 F 
ATOM     92  F   UNL A   1      44.973  26.142  37.229  1.00  0.00    -0.200 F 
ATOM     93  C   UNL A   1      46.359  27.745  36.188  1.00  0.00     0.200 A 
ATOM     94  F   UNL A   1      47.703  29.377  35.137  1.00  0.00    -0.200 F 
ATOM     95  F   UNL A   1      47.437  27.225  36.792  1.00  0.00    -0.200 F 
ENDBRANCH  62  85
ENDBRANCH  36  37
ENDBRANCH  28  31
ENDBRANCH  26  27
ENDBRANCH  25  26
ENDBRANCH  24  25
ENDBRANCH  23  24
ENDBRANCH   1  23
TORSDOF 17
ENDMDL
MODEL 2
REMARK VINA RESULT:     -11.7      0.775      7.402
REMARK SMILES CC(C)(O)CC[C@@]1(C(=O)NCCCCCCNC(=O)c2ccc(-c3c4nc(c(-c5c(F)c(F)c(F)c(F)c5F)c5ccc([nH]5)c(-c5c(F)c(F)c(F)c(F)c5F)c5nc(c(-c6c(F)c(F)c(F)c(F)c6F)c6ccc3[nH]6)C=C5)C=C4)cc2)CCc2ccccc21
REMARK SMILES IDX 12 1 11 2 10 3 8 4 9 5 7 7 83 8 90 9 84 10 85 11 89 12 86 13
REMARK SMILES IDX 88 14 87 15 6 16 5 17 2 18 1 19 3 20 4 21 13 23 14 24 15 25
REMARK SMILES IDX 16 26 17 27 18 28 19 30 20 31 21 32 82 33 22 34 81 35 23 36
REMARK SMILES IDX 24 37 25 38 75 39 26 40 80 41 74 42 76 43 27 44 79 45 73 46
REMARK SMILES IDX 72 47 28 49 60 50 40 51 59 52 41 53 44 54 58 55 77 56 42 57
REMARK SMILES IDX 43 58 57 60 78 61 45 62 29 63 30 64 38 65 31 66 32 67 36 68
REMARK SMILES IDX 39 69 33 70 34 71 37 72 35 73 61 74 62 75 70 76 63 77 64 78
REMARK SMILES IDX 68 79 71 80 65 81 66 82 69 83 67 84 46 85 47 86 55 87 48 88
REMARK SMILES IDX 49 89 53 90 56 91 50 92 51 93 54 94 52 95
REMARK H PARENT 10 6 4 22 17 29 76 48 44 59
REMARK Flexibility Score: inf
ROOT
ATOM      1  C   UNL A   1      31.828  28.858  27.148  1.00  0.00     0.021 C 
ENDROOT
BRANCH   1   2
ATOM      2  C   UNL A   1      32.292  27.443  26.832  1.00  0.00     0.116 C 
BRANCH   2   3
ATOM      3  N   UNL A   1      31.245  26.473  26.990  1.00  0.00    -0.355 N 
ATOM      4  C   UNL A   1      30.813  25.522  26.115  1.00  0.00     0.230 C 
ATOM      5  O   UNL A   1      29.952  24.766  26.577  1.00  0.00    -0.274 OA
ATOM      6  H   UNL A   1      30.771  26.500  27.853  1.00  0.00     0.163 HD
BRANCH   4   7
ATOM      7  C   UNL A   1      31.376  25.414  24.646  1.00  0.00     0.075 C 
ATOM      8  C   UNL A   1      32.901  25.718  24.635  1.00  0.00     0.026 C 
ATOM      9  C   UNL A   1      30.934  26.649  23.822  1.00  0.00    -0.029 A 
ATOM     10  C   UNL A   1      33.246  26.422  23.318  1.00  0.00     0.037 C 
ATOM     11  C   UNL A   1      32.010  27.227  23.137  1.00  0.00    -0.044 A 
ATOM     12  C   UNL A   1      29.702  27.298  23.816  1.00  0.00     0.005 A 
ATOM     13  C   UNL A   1      31.894  28.432  22.458  1.00  0.00     0.004 A 
ATOM     14  C   UNL A   1      29.586  28.543  23.187  1.00  0.00     0.000 A 
ATOM     15  C   UNL A   1      30.676  29.106  22.511  1.00  0.00     0.000 A 
BRANCH   7  16
ATOM     16  C   UNL A   1      30.945  24.059  23.973  1.00  0.00     0.025 C 
BRANCH  16  17
ATOM     17  C   UNL A   1      31.794  22.748  24.077  1.00  0.00     0.036 C 
BRANCH  17  18
ATOM     18  C   UNL A   1      31.911  21.920  25.403  1.00  0.00     0.059 C 
ATOM     19  C   UNL A   1      32.944  22.443  26.413  1.00  0.00     0.042 C 
ATOM     20  C   UNL A   1      32.343  20.476  25.071  1.00  0.00     0.042 C 
BRANCH  18  21
ATOM     21  O   UNL A   1      30.638  21.840  26.042  1.00  0.00    -0.390 OA
ATOM     22  H   UNL A   1      30.392  20.908  26.156  1.00  0.00     0.211 HD
ENDBRANCH  18  21
ENDBRANCH  17  18
ENDBRANCH  16  17
ENDBRANCH   7  16
ENDBRANCH   4   7
ENDBRANCH   2   3
ENDBRANCH   1   2
BRANCH   1  23
ATOM     23  C   UNL A   1      32.246  29.887  26.098  1.00  0.00     0.002 C 
BRANCH  23  24
ATOM     24  C   UNL A   1      31.142  30.865  25.674  1.00  0.00     0.002 C 
BRANCH  24  25
ATOM     25  C   UNL A   1      31.179  32.244  26.341  1.00  0.00     0.021 C 
BRANCH  25  26
ATOM     26  C   UNL A   1      32.438  32.538  27.155  1.00  0.00     0.116 C 
BRANCH  26  27
ATOM     27  N   UNL A   1      32.535  33.937  27.533  1.00  0.00    -0.352 N 
ATOM     28  C   UNL A   1      33.353  34.556  28.442  1.00  0.00     0.251 C 
ATOM     29  H   UNL A   1      31.914  34.538  27.059  1.00  0.00     0.163 HD
ATOM     30  O   UNL A   1      33.149  35.725  28.754  1.00  0.00    -0.269 OA
BRANCH  28  31
ATOM     31  C   UNL A   1      34.477  33.822  29.065  1.00  0.00     0.039 A 
ATOM     32  C   UNL A   1      35.783  34.230  28.780  1.00  0.00     0.014 A 
ATOM     33  C   UNL A   1      34.254  32.708  29.879  1.00  0.00     0.014 A 
ATOM     34  C   UNL A   1      36.864  33.554  29.350  1.00  0.00     0.010 A 
ATOM     35  C   UNL A   1      35.329  32.076  30.501  1.00  0.00     0.010 A 
ATOM     36  C   UNL A   1      36.645  32.486  30.236  1.00  0.00    -0.014 A 
BRANCH  36  37
ATOM     37  C   UNL A   1      37.780  31.779  30.881  1.00  0.00     0.031 A 
ATOM     38  C   UNL A   1      38.194  32.137  32.281  1.00  0.00     0.074 A 
ATOM     39  C   UNL A   1      38.473  30.857  30.186  1.00  0.00     0.049 A 
ATOM     40  N   UNL A   1      39.203  31.690  32.987  1.00  0.00    -0.248 NA
ATOM     41  C   UNL A   1      37.383  33.152  32.971  1.00  0.00     0.031 C 
ATOM     42  C   UNL A   1      38.193  30.452  28.808  1.00  0.00     0.029 A 
ATOM     43  N   UNL A   1      39.566  30.105  30.539  1.00  0.00    -0.354 N 
ATOM     44  C   UNL A   1      39.156  32.379  34.192  1.00  0.00     0.074 A 
ATOM     45  C   UNL A   1      38.051  33.310  34.104  1.00  0.00     0.031 C 
ATOM     46  C   UNL A   1      39.077  29.512  28.439  1.00  0.00     0.029 A 
ATOM     47  C   UNL A   1      40.009  29.275  29.538  1.00  0.00     0.049 A 
ATOM     48  H   UNL A   1      39.990  30.154  31.426  1.00  0.00     0.167 HD
ATOM     49  C   UNL A   1      39.949  32.234  35.280  1.00  0.00     0.037 A 
ATOM     50  C   UNL A   1      41.054  28.427  29.508  1.00  0.00     0.037 A 
ATOM     51  C   UNL A   1      41.030  31.287  35.374  1.00  0.00     0.049 A 
ATOM     52  C   UNL A   1      41.922  28.286  30.730  1.00  0.00     0.074 A 
ATOM     53  C   UNL A   1      41.853  31.021  36.455  1.00  0.00     0.029 A 
ATOM     54  N   UNL A   1      41.436  30.449  34.346  1.00  0.00    -0.354 N 
ATOM     55  N   UNL A   1      41.829  28.898  31.886  1.00  0.00    -0.248 NA
ATOM     56  C   UNL A   1      43.035  27.330  30.646  1.00  0.00     0.031 C 
ATOM     57  C   UNL A   1      42.787  30.055  36.066  1.00  0.00     0.029 A 
ATOM     58  C   UNL A   1      42.514  29.682  34.760  1.00  0.00     0.049 A 
ATOM     59  H   UNL A   1      41.021  30.407  33.454  1.00  0.00     0.167 HD
ATOM     60  C   UNL A   1      42.849  28.384  32.673  1.00  0.00     0.074 A 
ATOM     61  C   UNL A   1      43.541  27.398  31.868  1.00  0.00     0.031 C 
ATOM     62  C   UNL A   1      43.185  28.699  33.949  1.00  0.00     0.037 A 
BRANCH  49  63
ATOM     63  C   UNL A   1      39.676  33.119  36.462  1.00  0.00     0.064 A 
ATOM     64  C   UNL A   1      40.316  34.358  36.617  1.00  0.00     0.173 A 
ATOM     65  C   UNL A   1      38.738  32.739  37.434  1.00  0.00     0.173 A 
ATOM     66  F   UNL A   1      41.230  34.763  35.723  1.00  0.00    -0.203 F 
ATOM     67  C   UNL A   1      40.049  35.171  37.716  1.00  0.00     0.198 A 
ATOM     68  C   UNL A   1      38.451  33.568  38.516  1.00  0.00     0.198 A 
ATOM     69  F   UNL A   1      38.093  31.568  37.332  1.00  0.00    -0.203 F 
ATOM     70  F   UNL A   1      40.710  36.326  37.869  1.00  0.00    -0.200 F 
ATOM     71  C   UNL A   1      39.112  34.779  38.661  1.00  0.00     0.200 A 
ATOM     72  F   UNL A   1      37.535  33.194  39.421  1.00  0.00    -0.200 F 
ATOM     73  F   UNL A   1      38.851  35.564  39.715  1.00  0.00    -0.200 F 
ENDBRANCH  49  63
BRANCH  50  74
ATOM     74  C   UNL A   1      41.324  27.626  28.287  1.00  0.00     0.064 A 
ATOM     75  C   UNL A   1      40.737  26.366  28.108  1.00  0.00     0.173 A 
ATOM     76  C   UNL A   1      42.176  28.098  27.277  1.00  0.00     0.173 A 
ATOM     77  F   UNL A   1      39.932  25.864  29.056  1.00  0.00    -0.203 F 
ATOM     78  C   UNL A   1      41.006  25.600  26.977  1.00  0.00     0.198 A 
ATOM     79  C   UNL A   1      42.422  27.343  26.132  1.00  0.00     0.198 A 
ATOM     80  F   UNL A   1      42.759  29.300  27.397  1.00  0.00    -0.203 F 
ATOM     81  F   UNL A   1      40.467  24.379  26.853  1.00  0.00    -0.200 F 
ATOM     82  C   UNL A   1      41.844  26.091  25.987  1.00  0.00     0.200 A 
ATOM     83  F   UNL A   1      43.221  27.828  25.172  1.00  0.00    -0.200 F 
ATOM     84  F   UNL A   1      42.101  25.355  24.897  1.00  0.00    -0.200 F 
ENDBRANCH  50  74
BRANCH  62  85
ATOM     85  C   UNL A   1      44.327  27.947  34.565  1.00  0.00     0.064 A 
ATOM     86  C   UNL A   1      44.136  26.721  35.218  1.00  0.00     0.173 A 
ATOM     87  C   UNL A   1      45.638  28.441  34.466  1.00  0.00     0.173 A 
ATOM     88  F   UNL A   1      42.901  26.214  35.352  1.00  0.00    -0.203 F 
ATOM     89  C   UNL A   1      45.211  26.028  35.768  1.00  0.00     0.198 A 
ATOM     90  C   UNL A   1      46.713  27.731  34.992  1.00  0.00     0.198 A 
ATOM     91  F   UNL A   1      45.876  29.606  33.846  1.00  0.00    -0.203 F 
ATOM     92  F   UNL A   1      44.999  24.880  36.428  1.00  0.00    -0.200 F 
ATOM     93  C   UNL A   1      46.498  26.530  35.649  1.00  0.00     0.200 A 
ATOM     94  F   UNL A   1      47.958  28.211  34.863  1.00  0.00    -0.200 F 
ATOM     95  F   UNL A   1      47.532  25.857  36.174  1.00  0.00    -0.200 F 
ENDBRANCH  62  85
ENDBRANCH  36  37
ENDBRANCH  28  31
ENDBRANCH  26  27
ENDBRANCH  25  26
ENDBRANCH  24  25
ENDBRANCH  23  24
ENDBRANCH   1  23
TORSDOF 17
ENDMDL
MODEL 3
REMARK VINA RESULT:     -11.6      3.429      8.807
REMARK SMILES CC(C)(O)CC[C@@]1(C(=O)NCCCCCCNC(=O)c2ccc(-c3c4nc(c(-c5c(F)c(F)c(F)c(F)c5F)c5ccc([nH]5)c(-c5c(F)c(F)c(F)c(F)c5F)c5nc(c(-c6c(F)c(F)c(F)c(F)c6F)c6ccc3[nH]6)C=C5)C=C4)cc2)CCc2ccccc21
REMARK SMILES IDX 12 1 11 2 10 3 8 4 9 5 7 7 83 8 90 9 84 10 85 11 89 12 86 13
REMARK SMILES IDX 88 14 87 15 6 16 5 17 2 18 1 19 3 20 4 21 13 23 14 24 15 25
REMARK SMILES IDX 16 26 17 27 18 28 19 30 20 31 21 32 82 33 22 34 81 35 23 36
REMARK SMILES IDX 24 37 25 38 75 39 26 40 80 41 74 42 76 43 27 44 79 45 73 46
REMARK SMILES IDX 72 47 28 49 60 50 40 51 59 52 41 53 44 54 58 55 77 56 42 57
REMARK SMILES IDX 43 58 57 60 78 61 45 62 29 63 30 64 38 65 31 66 32 67 36 68
REMARK SMILES IDX 39 69 33 70 34 71 37 72 35 73 61 74 62 75 70 76 63 77 64 78
REMARK SMILES IDX 68 79 71 80 65 81 66 82 69 83 67 84 46 85 47 86 55 87 48 88
REMARK SMILES IDX 49 89 53 90 56 91 50 92 51 93 54 94 52 95
REMARK H PARENT 10 6 4 22 17 29 76 48 44 59
REMARK Flexibility Score: inf
ROOT
ATOM      1  C   UNL A   1      33.155  25.350  22.893  1.00  0.00     0.021 C 
ENDROOT
BRANCH   1   2
ATOM      2  C   UNL A   1      32.118  24.366  23.415  1.00  0.00     0.116 C 
BRANCH   2   3
ATOM      3  N   UNL A   1      32.043  23.173  22.620  1.00  0.00    -0.355 N 
ATOM      4  C   UNL A   1      32.268  21.879  22.987  1.00  0.00     0.230 C 
ATOM      5  O   UNL A   1      32.028  21.055  22.098  1.00  0.00    -0.274 OA
ATOM      6  H   UNL A   1      31.797  23.308  21.677  1.00  0.00     0.163 HD
BRANCH   4   7
ATOM      7  C   UNL A   1      32.786  21.491  24.425  1.00  0.00     0.075 C 
ATOM      8  C   UNL A   1      32.037  22.322  25.505  1.00  0.00     0.026 C 
ATOM      9  C   UNL A   1      34.190  22.103  24.659  1.00  0.00    -0.029 A 
ATOM     10  C   UNL A   1      33.006  22.603  26.659  1.00  0.00     0.037 C 
ATOM     11  C   UNL A   1      34.267  22.768  25.890  1.00  0.00    -0.044 A 
ATOM     12  C   UNL A   1      35.260  22.195  23.773  1.00  0.00     0.005 A 
ATOM     13  C   UNL A   1      35.371  23.525  26.254  1.00  0.00     0.004 A 
ATOM     14  C   UNL A   1      36.353  23.005  24.102  1.00  0.00     0.000 A 
ATOM     15  C   UNL A   1      36.409  23.665  25.335  1.00  0.00     0.000 A 
BRANCH   7  16
ATOM     16  C   UNL A   1      32.769  19.932  24.630  1.00  0.00     0.025 C 
BRANCH  16  17
ATOM     17  C   UNL A   1      34.047  19.040  24.484  1.00  0.00     0.036 C 
BRANCH  17  18
ATOM     18  C   UNL A   1      33.992  17.473  24.520  1.00  0.00     0.059 C 
ATOM     19  C   UNL A   1      34.041  16.784  23.148  1.00  0.00     0.042 C 
ATOM     20  C   UNL A   1      32.670  17.019  25.172  1.00  0.00     0.042 C 
BRANCH  18  21
ATOM     21  O   UNL A   1      35.054  16.967  25.330  1.00  0.00    -0.390 OA
ATOM     22  H   UNL A   1      34.754  16.169  25.794  1.00  0.00     0.211 HD
ENDBRANCH  18  21
ENDBRANCH  17  18
ENDBRANCH  16  17
ENDBRANCH   7  16
ENDBRANCH   4   7
ENDBRANCH   2   3
ENDBRANCH   1   2
BRANCH   1  23
ATOM     23  C   UNL A   1      33.952  26.042  23.999  1.00  0.00     0.002 C 
BRANCH  23  24
ATOM     24  C   UNL A   1      33.198  26.227  25.322  1.00  0.00     0.002 C 
BRANCH  24  25
ATOM     25  C   UNL A   1      32.939  27.676  25.747  1.00  0.00     0.021 C 
BRANCH  25  26
ATOM     26  C   UNL A   1      33.795  28.174  26.909  1.00  0.00     0.116 C 
BRANCH  26  27
ATOM     27  N   UNL A   1      33.626  29.597  27.147  1.00  0.00    -0.352 N 
ATOM     28  C   UNL A   1      34.434  30.489  27.805  1.00  0.00     0.251 C 
ATOM     29  H   UNL A   1      32.800  29.984  26.775  1.00  0.00     0.163 HD
ATOM     30  O   UNL A   1      34.020  31.615  28.062  1.00  0.00    -0.269 OA
BRANCH  28  31
ATOM     31  C   UNL A   1      35.799  30.102  28.222  1.00  0.00     0.039 A 
ATOM     32  C   UNL A   1      35.998  29.656  29.532  1.00  0.00     0.014 A 
ATOM     33  C   UNL A   1      36.886  30.224  27.352  1.00  0.00     0.014 A 
ATOM     34  C   UNL A   1      37.276  29.286  29.955  1.00  0.00     0.010 A 
ATOM     35  C   UNL A   1      38.149  29.792  27.753  1.00  0.00     0.010 A 
ATOM     36  C   UNL A   1      38.359  29.328  29.061  1.00  0.00    -0.014 A 
BRANCH  36  37
ATOM     37  C   UNL A   1      39.718  28.904  29.481  1.00  0.00     0.031 A 
ATOM     38  C   UNL A   1      40.530  29.774  30.399  1.00  0.00     0.074 A 
ATOM     39  C   UNL A   1      40.244  27.766  28.988  1.00  0.00     0.049 A 
ATOM     40  N   UNL A   1      41.762  29.616  30.816  1.00  0.00    -0.248 NA
ATOM     41  C   UNL A   1      39.882  30.998  30.893  1.00  0.00     0.031 C 
ATOM     42  C   UNL A   1      39.570  26.858  28.059  1.00  0.00     0.029 A 
ATOM     43  N   UNL A   1      41.472  27.186  29.190  1.00  0.00    -0.354 N 
ATOM     44  C   UNL A   1      42.038  30.725  31.606  1.00  0.00     0.074 A 
ATOM     45  C   UNL A   1      40.866  31.573  31.569  1.00  0.00     0.031 C 
ATOM     46  C   UNL A   1      40.385  25.826  27.786  1.00  0.00     0.029 A 
ATOM     47  C   UNL A   1      41.650  26.018  28.489  1.00  0.00     0.049 A 
ATOM     48  H   UNL A   1      42.158  27.570  29.781  1.00  0.00     0.167 HD
ATOM     49  C   UNL A   1      43.159  31.000  32.314  1.00  0.00     0.037 A 
ATOM     50  C   UNL A   1      42.718  25.201  28.415  1.00  0.00     0.037 A 
ATOM     51  C   UNL A   1      44.313  30.140  32.371  1.00  0.00     0.049 A 
ATOM     52  C   UNL A   1      43.953  25.532  29.209  1.00  0.00     0.074 A 
ATOM     53  C   UNL A   1      45.474  30.301  33.107  1.00  0.00     0.029 A 
ATOM     54  N   UNL A   1      44.449  28.955  31.663  1.00  0.00    -0.354 N 
ATOM     55  N   UNL A   1      44.180  26.551  30.001  1.00  0.00    -0.248 NA
ATOM     56  C   UNL A   1      45.078  24.592  29.105  1.00  0.00     0.031 C 
ATOM     57  C   UNL A   1      46.332  29.237  32.809  1.00  0.00     0.029 A 
ATOM     58  C   UNL A   1      45.685  28.386  31.927  1.00  0.00     0.049 A 
ATOM     59  H   UNL A   1      43.769  28.575  31.061  1.00  0.00     0.167 HD
ATOM     60  C   UNL A   1      45.457  26.363  30.510  1.00  0.00     0.074 A 
ATOM     61  C   UNL A   1      45.951  25.123  29.949  1.00  0.00     0.031 C 
ATOM     62  C   UNL A   1      46.158  27.147  31.366  1.00  0.00     0.037 A 
BRANCH  49  63
ATOM     63  C   UNL A   1      43.194  32.286  33.089  1.00  0.00     0.064 A 
ATOM     64  C   UNL A   1      43.672  33.476  32.520  1.00  0.00     0.173 A 
ATOM     65  C   UNL A   1      42.711  32.336  34.406  1.00  0.00     0.173 A 
ATOM     66  F   UNL A   1      44.156  33.480  31.269  1.00  0.00    -0.203 F 
ATOM     67  C   UNL A   1      43.693  34.662  33.250  1.00  0.00     0.198 A 
ATOM     68  C   UNL A   1      42.706  33.531  35.122  1.00  0.00     0.198 A 
ATOM     69  F   UNL A   1      42.237  31.229  34.996  1.00  0.00    -0.203 F 
ATOM     70  F   UNL A   1      44.202  35.774  32.702  1.00  0.00    -0.200 F 
ATOM     71  C   UNL A   1      43.204  34.690  34.547  1.00  0.00     0.200 A 
ATOM     72  F   UNL A   1      42.219  33.560  36.371  1.00  0.00    -0.200 F 
ATOM     73  F   UNL A   1      43.219  35.833  35.246  1.00  0.00    -0.200 F 
ENDBRANCH  49  63
BRANCH  50  74
ATOM     74  C   UNL A   1      42.658  23.978  27.575  1.00  0.00     0.064 A 
ATOM     75  C   UNL A   1      42.210  22.761  28.108  1.00  0.00     0.173 A 
ATOM     76  C   UNL A   1      43.050  23.996  26.228  1.00  0.00     0.173 A 
ATOM     77  F   UNL A   1      41.845  22.690  29.396  1.00  0.00    -0.203 F 
ATOM     78  C   UNL A   1      42.175  21.604  27.332  1.00  0.00     0.198 A 
ATOM     79  C   UNL A   1      42.988  22.844  25.446  1.00  0.00     0.198 A 
ATOM     80  F   UNL A   1      43.481  25.136  25.669  1.00  0.00    -0.203 F 
ATOM     81  F   UNL A   1      41.786  20.445  27.879  1.00  0.00    -0.200 F 
ATOM     82  C   UNL A   1      42.559  21.648  26.000  1.00  0.00     0.200 A 
ATOM     83  F   UNL A   1      43.345  22.895  24.155  1.00  0.00    -0.200 F 
ATOM     84  F   UNL A   1      42.522  20.536  25.253  1.00  0.00    -0.200 F 
ENDBRANCH  50  74
BRANCH  62  85
ATOM     85  C   UNL A   1      47.521  26.670  31.775  1.00  0.00     0.064 A 
ATOM     86  C   UNL A   1      47.704  25.815  32.871  1.00  0.00     0.173 A 
ATOM     87  C   UNL A   1      48.654  27.042  31.035  1.00  0.00     0.173 A 
ATOM     88  F   UNL A   1      46.654  25.444  33.620  1.00  0.00    -0.203 F 
ATOM     89  C   UNL A   1      48.974  25.368  33.226  1.00  0.00     0.198 A 
ATOM     90  C   UNL A   1      49.919  26.569  31.375  1.00  0.00     0.198 A 
ATOM     91  F   UNL A   1      48.533  27.852  29.973  1.00  0.00    -0.203 F 
ATOM     92  F   UNL A   1      49.131  24.589  34.306  1.00  0.00    -0.200 F 
ATOM     93  C   UNL A   1      50.078  25.740  32.473  1.00  0.00     0.200 A 
ATOM     94  F   UNL A   1      50.982  26.918  30.638  1.00  0.00    -0.200 F 
ATOM     95  F   UNL A   1      51.299  25.302  32.813  1.00  0.00    -0.200 F 
ENDBRANCH  62  85
ENDBRANCH  36  37
ENDBRANCH  28  31
ENDBRANCH  26  27
ENDBRANCH  25  26
ENDBRANCH  24  25
ENDBRANCH  23  24
ENDBRANCH   1  23
TORSDOF 17
ENDMDL
