MODEL 1
REMARK VINA RESULT:     -12.1      0.000      0.000
REMARK SMILES COc1ccc(/C=C(\Sc2nc(C)n[nH]2)C(=O)NCCCCCCNC(=O)c2ccc(-c3c4nc(c(-c5c(F)c(F)c(F)c(F)c5F)c5ccc([nH]5)c(-c5c(F)c(F)c(F)c(F)c5F)c5nc(c(-c6c(F)c(F)c(F)c(F)c6F)c6ccc3[nH]6)C=C5)C=C4)cc2)c(OC)c1
REMARK SMILES IDX 21 1 20 2 19 3 18 4 16 5 17 6 8 8 7 9 6 10 3 11 4 12 94 13
REMARK SMILES IDX 5 14 91 15 2 16 1 17 92 18 93 19 9 20 10 21 11 22 15 23
REMARK SMILES IDX 12 24 14 25 13 27 22 28 23 29 24 30 25 31 26 32 27 34 28 35
REMARK SMILES IDX 29 36 90 37 30 38 89 39 31 40 32 41 33 42 83 43 34 44 88 45
REMARK SMILES IDX 82 46 84 47 35 48 87 49 81 50 80 51 36 53 68 54 48 55 67 56
REMARK SMILES IDX 49 57 52 58 66 59 85 60 50 61 51 62 65 64 86 65 53 66 37 67
REMARK SMILES IDX 38 68 46 69 39 70 40 71 44 72 47 73 41 74 42 75 45 76 43 77
REMARK SMILES IDX 69 78 70 79 78 80 71 81 72 82 76 83 79 84 73 85 74 86 77 87
REMARK SMILES IDX 75 88 54 89 55 90 63 91 56 92 57 93 61 94 64 95 58 96 59 97
REMARK SMILES IDX 62 98 60 99
REMARK H PARENT 18 7 15 26 25 33 84 52 52 63
REMARK Flexibility Score: inf
ROOT
ATOM      1  C   UNL A   1      39.462  22.143  26.309  1.00  0.00     0.002 C 
ENDROOT
BRANCH   1   2
ATOM      2  C   UNL A   1      38.337  21.376  25.608  1.00  0.00     0.021 C 
BRANCH   2   3
ATOM      3  C   UNL A   1      37.048  22.187  25.463  1.00  0.00     0.116 C 
BRANCH   3   4
ATOM      4  N   UNL A   1      36.036  21.771  26.420  1.00  0.00    -0.352 N 
ATOM      5  C   UNL A   1      34.720  22.036  26.666  1.00  0.00     0.258 C 
ATOM      6  O   UNL A   1      34.255  21.387  27.613  1.00  0.00    -0.269 OA
ATOM      7  H   UNL A   1      36.398  21.123  27.066  1.00  0.00     0.163 HD
BRANCH   5   8
ATOM      8  C   UNL A   1      33.822  22.994  25.873  1.00  0.00     0.081 C 
ATOM      9  C   UNL A   1      34.021  24.303  26.178  1.00  0.00     0.033 C 
BRANCH   9  10
ATOM     10  C   UNL A   1      33.370  25.538  25.684  1.00  0.00     0.018 A 
ATOM     11  C   UNL A   1      32.430  28.142  25.193  1.00  0.00     0.122 A 
ATOM     12  C   UNL A   1      33.516  27.640  24.483  1.00  0.00     0.047 A 
ATOM     13  C   UNL A   1      31.691  27.279  25.992  1.00  0.00     0.093 A 
ATOM     14  C   UNL A   1      33.964  26.335  24.704  1.00  0.00     0.016 A 
ATOM     15  C   UNL A   1      32.124  25.959  26.182  1.00  0.00     0.129 A 
BRANCH  11  16
ATOM     16  O   UNL A   1      32.160  29.469  25.007  1.00  0.00    -0.497 OA
ATOM     17  C   UNL A   1      32.526  30.324  26.086  1.00  0.00     0.278 C 
ENDBRANCH  11  16
BRANCH  15  18
ATOM     18  O   UNL A   1      31.327  25.065  26.861  1.00  0.00    -0.496 OA
ATOM     19  C   UNL A   1      30.093  24.828  26.168  1.00  0.00     0.278 C 
ENDBRANCH  15  18
ENDBRANCH   9  10
BRANCH   8  20
ATOM     20  S   UNL A   1      32.624  22.288  24.858  1.00  0.00    -0.045 SA
BRANCH  20  21
ATOM     21  C   UNL A   1      32.866  20.609  24.735  1.00  0.00     0.188 A 
ATOM     22  N   UNL A   1      33.578  19.865  23.929  1.00  0.00    -0.206 NA
ATOM     23  N   UNL A   1      32.253  19.825  25.664  1.00  0.00    -0.254 N 
ATOM     24  C   UNL A   1      33.289  18.592  24.374  1.00  0.00     0.148 A 
ATOM     25  N   UNL A   1      32.504  18.529  25.459  1.00  0.00    -0.158 NA
ATOM     26  H   UNL A   1      31.693  20.171  26.397  1.00  0.00     0.192 HD
ATOM     27  C   UNL A   1      33.757  17.371  23.692  1.00  0.00     0.092 C 
ENDBRANCH  20  21
ENDBRANCH   8  20
ENDBRANCH   5   8
ENDBRANCH   3   4
ENDBRANCH   2   3
ENDBRANCH   1   2
BRANCH   1  28
ATOM     28  C   UNL A   1      40.518  21.281  27.027  1.00  0.00     0.002 C 
BRANCH  28  29
ATOM     29  C   UNL A   1      41.102  20.099  26.235  1.00  0.00     0.021 C 
BRANCH  29  30
ATOM     30  C   UNL A   1      42.424  19.596  26.786  1.00  0.00     0.116 C 
BRANCH  30  31
ATOM     31  N   UNL A   1      43.457  19.493  25.750  1.00  0.00    -0.352 N 
ATOM     32  C   UNL A   1      44.007  20.491  24.963  1.00  0.00     0.251 C 
ATOM     33  H   UNL A   1      43.808  18.586  25.591  1.00  0.00     0.163 HD
ATOM     34  O   UNL A   1      44.577  20.234  23.919  1.00  0.00    -0.269 OA
BRANCH  32  35
ATOM     35  C   UNL A   1      43.896  21.883  25.432  1.00  0.00     0.039 A 
ATOM     36  C   UNL A   1      43.082  22.825  24.798  1.00  0.00     0.014 A 
ATOM     37  C   UNL A   1      44.620  22.219  26.568  1.00  0.00     0.014 A 
ATOM     38  C   UNL A   1      42.966  24.090  25.369  1.00  0.00     0.010 A 
ATOM     39  C   UNL A   1      44.305  23.352  27.254  1.00  0.00     0.010 A 
ATOM     40  C   UNL A   1      43.578  24.336  26.608  1.00  0.00    -0.014 A 
BRANCH  40  41
ATOM     41  C   UNL A   1      43.420  25.592  27.322  1.00  0.00     0.031 A 
ATOM     42  C   UNL A   1      44.400  26.631  26.926  1.00  0.00     0.074 A 
ATOM     43  C   UNL A   1      42.334  25.856  28.084  1.00  0.00     0.049 A 
ATOM     44  N   UNL A   1      45.361  27.112  27.641  1.00  0.00    -0.248 NA
ATOM     45  C   UNL A   1      44.421  27.075  25.522  1.00  0.00     0.031 C 
ATOM     46  C   UNL A   1      41.135  25.032  28.295  1.00  0.00     0.029 A 
ATOM     47  N   UNL A   1      42.025  26.990  28.767  1.00  0.00    -0.354 N 
ATOM     48  C   UNL A   1      45.971  28.081  26.853  1.00  0.00     0.074 A 
ATOM     49  C   UNL A   1      45.495  27.867  25.512  1.00  0.00     0.031 C 
ATOM     50  C   UNL A   1      40.153  25.780  28.846  1.00  0.00     0.029 A 
ATOM     51  C   UNL A   1      40.703  27.074  29.193  1.00  0.00     0.049 A 
ATOM     52  H   UNL A   1      42.686  27.697  28.946  1.00  0.00     0.167 HD
ATOM     53  C   UNL A   1      46.594  29.145  27.431  1.00  0.00     0.037 A 
ATOM     54  C   UNL A   1      40.111  28.150  29.771  1.00  0.00     0.037 A 
ATOM     55  C   UNL A   1      46.849  28.890  28.829  1.00  0.00     0.049 A 
ATOM     56  C   UNL A   1      41.200  29.012  30.293  1.00  0.00     0.074 A 
ATOM     57  C   UNL A   1      47.562  27.935  29.529  1.00  0.00     0.029 A 
ATOM     58  N   UNL A   1      45.994  29.454  29.744  1.00  0.00    -0.354 N 
ATOM     59  N   UNL A   1      41.984  28.666  31.278  1.00  0.00    -0.248 NA
ATOM     60  C   UNL A   1      41.725  30.036  29.403  1.00  0.00     0.031 C 
ATOM     61  C   UNL A   1      46.759  27.640  30.672  1.00  0.00     0.029 A 
ATOM     62  C   UNL A   1      45.650  28.486  30.651  1.00  0.00     0.049 A 
ATOM     63  H   UNL A   1      45.684  30.389  29.749  1.00  0.00     0.167 HD
ATOM     64  C   UNL A   1      43.247  29.086  30.883  1.00  0.00     0.074 A 
ATOM     65  C   UNL A   1      43.013  29.988  29.756  1.00  0.00     0.031 C 
ATOM     66  C   UNL A   1      44.367  28.431  31.309  1.00  0.00     0.037 A 
BRANCH  53  67
ATOM     67  C   UNL A   1      46.588  30.546  26.865  1.00  0.00     0.064 A 
ATOM     68  C   UNL A   1      47.788  31.284  26.878  1.00  0.00     0.173 A 
ATOM     69  C   UNL A   1      45.419  31.296  26.610  1.00  0.00     0.173 A 
ATOM     70  F   UNL A   1      48.961  30.678  27.119  1.00  0.00    -0.203 F 
ATOM     71  C   UNL A   1      47.801  32.675  26.752  1.00  0.00     0.198 A 
ATOM     72  C   UNL A   1      45.442  32.677  26.429  1.00  0.00     0.198 A 
ATOM     73  F   UNL A   1      44.196  30.756  26.639  1.00  0.00    -0.203 F 
ATOM     74  F   UNL A   1      48.950  33.346  26.915  1.00  0.00    -0.200 F 
ATOM     75  C   UNL A   1      46.627  33.372  26.538  1.00  0.00     0.200 A 
ATOM     76  F   UNL A   1      44.289  33.335  26.239  1.00  0.00    -0.200 F 
ATOM     77  F   UNL A   1      46.627  34.710  26.486  1.00  0.00    -0.200 F 
ENDBRANCH  53  67
BRANCH  54  78
ATOM     78  C   UNL A   1      38.722  28.649  29.611  1.00  0.00     0.064 A 
ATOM     79  C   UNL A   1      37.919  28.918  30.733  1.00  0.00     0.173 A 
ATOM     80  C   UNL A   1      38.267  29.159  28.381  1.00  0.00     0.173 A 
ATOM     81  F   UNL A   1      38.301  28.505  31.950  1.00  0.00    -0.203 F 
ATOM     82  C   UNL A   1      36.751  29.684  30.634  1.00  0.00     0.198 A 
ATOM     83  C   UNL A   1      37.100  29.921  28.283  1.00  0.00     0.198 A 
ATOM     84  F   UNL A   1      38.999  29.015  27.266  1.00  0.00    -0.203 F 
ATOM     85  F   UNL A   1      36.049  29.979  31.737  1.00  0.00    -0.200 F 
ATOM     86  C   UNL A   1      36.351  30.197  29.412  1.00  0.00     0.200 A 
ATOM     87  F   UNL A   1      36.745  30.445  27.101  1.00  0.00    -0.200 F 
ATOM     88  F   UNL A   1      35.273  30.990  29.328  1.00  0.00    -0.200 F 
ENDBRANCH  54  78
BRANCH  66  89
ATOM     89  C   UNL A   1      44.209  27.421  32.413  1.00  0.00     0.064 A 
ATOM     90  C   UNL A   1      43.962  27.745  33.760  1.00  0.00     0.173 A 
ATOM     91  C   UNL A   1      44.172  26.066  32.064  1.00  0.00     0.173 A 
ATOM     92  F   UNL A   1      43.885  29.019  34.160  1.00  0.00    -0.203 F 
ATOM     93  C   UNL A   1      43.733  26.754  34.714  1.00  0.00     0.198 A 
ATOM     94  C   UNL A   1      43.907  25.080  33.010  1.00  0.00     0.198 A 
ATOM     95  F   UNL A   1      44.347  25.699  30.784  1.00  0.00    -0.203 F 
ATOM     96  F   UNL A   1      43.512  27.090  35.994  1.00  0.00    -0.200 F 
ATOM     97  C   UNL A   1      43.698  25.423  34.336  1.00  0.00     0.200 A 
ATOM     98  F   UNL A   1      43.827  23.798  32.630  1.00  0.00    -0.200 F 
ATOM     99  F   UNL A   1      43.439  24.471  35.244  1.00  0.00    -0.200 F 
ENDBRANCH  66  89
ENDBRANCH  40  41
ENDBRANCH  32  35
ENDBRANCH  30  31
ENDBRANCH  29  30
ENDBRANCH  28  29
ENDBRANCH   1  28
TORSDOF 18
ENDMDL
MODEL 2
REMARK VINA RESULT:     -11.6      1.822      2.893
REMARK SMILES COc1ccc(/C=C(\Sc2nc(C)n[nH]2)C(=O)NCCCCCCNC(=O)c2ccc(-c3c4nc(c(-c5c(F)c(F)c(F)c(F)c5F)c5ccc([nH]5)c(-c5c(F)c(F)c(F)c(F)c5F)c5nc(c(-c6c(F)c(F)c(F)c(F)c6F)c6ccc3[nH]6)C=C5)C=C4)cc2)c(OC)c1
REMARK SMILES IDX 21 1 20 2 19 3 18 4 16 5 17 6 8 8 7 9 6 10 3 11 4 12 94 13
REMARK SMILES IDX 5 14 91 15 2 16 1 17 92 18 93 19 9 20 10 21 11 22 15 23
REMARK SMILES IDX 12 24 14 25 13 27 22 28 23 29 24 30 25 31 26 32 27 34 28 35
REMARK SMILES IDX 29 36 90 37 30 38 89 39 31 40 32 41 33 42 83 43 34 44 88 45
REMARK SMILES IDX 82 46 84 47 35 48 87 49 81 50 80 51 36 53 68 54 48 55 67 56
REMARK SMILES IDX 49 57 52 58 66 59 85 60 50 61 51 62 65 64 86 65 53 66 37 67
REMARK SMILES IDX 38 68 46 69 39 70 40 71 44 72 47 73 41 74 42 75 45 76 43 77
REMARK SMILES IDX 69 78 70 79 78 80 71 81 72 82 76 83 79 84 73 85 74 86 77 87
REMARK SMILES IDX 75 88 54 89 55 90 63 91 56 92 57 93 61 94 64 95 58 96 59 97
REMARK SMILES IDX 62 98 60 99
REMARK H PARENT 18 7 15 26 25 33 84 52 52 63
REMARK Flexibility Score: inf
ROOT
ATOM      1  C   UNL A   1      41.127  21.069  27.561  1.00  0.00     0.002 C 
ENDROOT
BRANCH   1   2
ATOM      2  C   UNL A   1      40.762  21.843  26.291  1.00  0.00     0.021 C 
BRANCH   2   3
ATOM      3  C   UNL A   1      39.264  22.128  26.163  1.00  0.00     0.116 C 
BRANCH   3   4
ATOM      4  N   UNL A   1      38.548  21.004  25.580  1.00  0.00    -0.352 N 
ATOM      5  C   UNL A   1      37.308  20.765  25.065  1.00  0.00     0.258 C 
ATOM      6  O   UNL A   1      37.165  19.610  24.640  1.00  0.00    -0.269 OA
ATOM      7  H   UNL A   1      39.110  20.197  25.550  1.00  0.00     0.163 HD
BRANCH   5   8
ATOM      8  C   UNL A   1      36.162  21.778  24.947  1.00  0.00     0.081 C 
ATOM      9  C   UNL A   1      35.098  21.490  25.743  1.00  0.00     0.033 C 
BRANCH   9  10
ATOM     10  C   UNL A   1      33.795  22.168  25.925  1.00  0.00     0.018 A 
ATOM     11  C   UNL A   1      31.256  23.075  26.725  1.00  0.00     0.122 A 
ATOM     12  C   UNL A   1      32.406  23.732  27.154  1.00  0.00     0.047 A 
ATOM     13  C   UNL A   1      31.365  22.103  25.739  1.00  0.00     0.093 A 
ATOM     14  C   UNL A   1      33.666  23.300  26.731  1.00  0.00     0.016 A 
ATOM     15  C   UNL A   1      32.630  21.699  25.292  1.00  0.00     0.129 A 
BRANCH  11  16
ATOM     16  O   UNL A   1      30.088  23.485  27.304  1.00  0.00    -0.497 OA
ATOM     17  C   UNL A   1      29.034  22.526  27.293  1.00  0.00     0.278 C 
ENDBRANCH  11  16
BRANCH  15  18
ATOM     18  O   UNL A   1      32.738  20.837  24.224  1.00  0.00    -0.496 OA
ATOM     19  C   UNL A   1      32.488  19.479  24.615  1.00  0.00     0.278 C 
ENDBRANCH  15  18
ENDBRANCH   9  10
BRANCH   8  20
ATOM     20  S   UNL A   1      36.319  23.005  23.750  1.00  0.00    -0.045 SA
BRANCH  20  21
ATOM     21  C   UNL A   1      34.802  23.687  23.398  1.00  0.00     0.188 A 
ATOM     22  N   UNL A   1      34.192  24.769  23.807  1.00  0.00    -0.206 NA
ATOM     23  N   UNL A   1      34.032  23.044  22.478  1.00  0.00    -0.254 N 
ATOM     24  C   UNL A   1      32.984  24.691  23.145  1.00  0.00     0.148 A 
ATOM     25  N   UNL A   1      32.861  23.662  22.295  1.00  0.00    -0.158 NA
ATOM     26  H   UNL A   1      34.304  22.223  22.006  1.00  0.00     0.192 HD
ATOM     27  C   UNL A   1      31.872  25.632  23.378  1.00  0.00     0.092 C 
ENDBRANCH  20  21
ENDBRANCH   8  20
ENDBRANCH   5   8
ENDBRANCH   3   4
ENDBRANCH   2   3
ENDBRANCH   1   2
BRANCH   1  28
ATOM     28  C   UNL A   1      41.435  19.572  27.371  1.00  0.00     0.002 C 
BRANCH  28  29
ATOM     29  C   UNL A   1      42.201  19.178  26.097  1.00  0.00     0.021 C 
BRANCH  29  30
ATOM     30  C   UNL A   1      43.704  19.090  26.298  1.00  0.00     0.116 C 
BRANCH  30  31
ATOM     31  N   UNL A   1      44.440  19.144  25.031  1.00  0.00    -0.352 N 
ATOM     32  C   UNL A   1      44.660  20.227  24.195  1.00  0.00     0.251 C 
ATOM     33  H   UNL A   1      44.833  18.292  24.732  1.00  0.00     0.163 HD
ATOM     34  O   UNL A   1      44.967  20.075  23.027  1.00  0.00    -0.269 OA
BRANCH  32  35
ATOM     35  C   UNL A   1      44.527  21.579  24.763  1.00  0.00     0.039 A 
ATOM     36  C   UNL A   1      43.637  22.525  24.247  1.00  0.00     0.014 A 
ATOM     37  C   UNL A   1      45.311  21.871  25.871  1.00  0.00     0.014 A 
ATOM     38  C   UNL A   1      43.510  23.744  24.909  1.00  0.00     0.010 A 
ATOM     39  C   UNL A   1      44.999  22.943  26.651  1.00  0.00     0.010 A 
ATOM     40  C   UNL A   1      44.193  23.935  26.121  1.00  0.00    -0.014 A 
BRANCH  40  41
ATOM     41  C   UNL A   1      44.034  25.134  26.926  1.00  0.00     0.031 A 
ATOM     42  C   UNL A   1      45.037  26.185  26.637  1.00  0.00     0.074 A 
ATOM     43  C   UNL A   1      42.932  25.354  27.680  1.00  0.00     0.049 A 
ATOM     44  N   UNL A   1      45.986  26.594  27.410  1.00  0.00    -0.248 NA
ATOM     45  C   UNL A   1      45.099  26.737  25.273  1.00  0.00     0.031 C 
ATOM     46  C   UNL A   1      41.717  24.535  27.797  1.00  0.00     0.029 A 
ATOM     47  N   UNL A   1      42.622  26.436  28.442  1.00  0.00    -0.354 N 
ATOM     48  C   UNL A   1      46.630  27.612  26.716  1.00  0.00     0.074 A 
ATOM     49  C   UNL A   1      46.184  27.510  25.350  1.00  0.00     0.031 C 
ATOM     50  C   UNL A   1      40.731  25.252  28.381  1.00  0.00     0.029 A 
ATOM     51  C   UNL A   1      41.290  26.508  28.841  1.00  0.00     0.049 A 
ATOM     52  H   UNL A   1      43.287  27.117  28.692  1.00  0.00     0.167 HD
ATOM     53  C   UNL A   1      47.251  28.618  27.390  1.00  0.00     0.037 A 
ATOM     54  C   UNL A   1      40.698  27.544  29.488  1.00  0.00     0.037 A 
ATOM     55  C   UNL A   1      47.468  28.251  28.770  1.00  0.00     0.049 A 
ATOM     56  C   UNL A   1      41.786  28.346  30.102  1.00  0.00     0.074 A 
ATOM     57  C   UNL A   1      48.149  27.233  29.409  1.00  0.00     0.029 A 
ATOM     58  N   UNL A   1      46.598  28.755  29.705  1.00  0.00    -0.354 N 
ATOM     59  N   UNL A   1      42.540  27.912  31.075  1.00  0.00    -0.248 NA
ATOM     60  C   UNL A   1      42.347  29.428  29.307  1.00  0.00     0.031 C 
ATOM     61  C   UNL A   1      47.314  26.862  30.506  1.00  0.00     0.029 A 
ATOM     62  C   UNL A   1      46.218  27.724  30.524  1.00  0.00     0.049 A 
ATOM     63  H   UNL A   1      46.300  29.691  29.776  1.00  0.00     0.167 HD
ATOM     64  C   UNL A   1      43.818  28.342  30.745  1.00  0.00     0.074 A 
ATOM     65  C   UNL A   1      43.624  29.333  29.687  1.00  0.00     0.031 C 
ATOM     66  C   UNL A   1      44.917  27.639  31.145  1.00  0.00     0.037 A 
BRANCH  53  67
ATOM     67  C   UNL A   1      47.278  30.058  26.935  1.00  0.00     0.064 A 
ATOM     68  C   UNL A   1      48.485  30.778  27.046  1.00  0.00     0.173 A 
ATOM     69  C   UNL A   1      46.126  30.841  26.701  1.00  0.00     0.173 A 
ATOM     70  F   UNL A   1      49.643  30.140  27.277  1.00  0.00    -0.203 F 
ATOM     71  C   UNL A   1      48.517  32.174  27.029  1.00  0.00     0.198 A 
ATOM     72  C   UNL A   1      46.170  32.231  26.630  1.00  0.00     0.198 A 
ATOM     73  F   UNL A   1      44.898  30.315  26.648  1.00  0.00    -0.203 F 
ATOM     74  F   UNL A   1      49.666  32.816  27.282  1.00  0.00    -0.200 F 
ATOM     75  C   UNL A   1      47.357  32.900  26.831  1.00  0.00     0.200 A 
ATOM     76  F   UNL A   1      45.031  32.917  26.454  1.00  0.00    -0.200 F 
ATOM     77  F   UNL A   1      47.372  34.238  26.884  1.00  0.00    -0.200 F 
ENDBRANCH  53  67
BRANCH  54  78
ATOM     78  C   UNL A   1      39.321  28.075  29.334  1.00  0.00     0.064 A 
ATOM     79  C   UNL A   1      38.484  28.244  30.450  1.00  0.00     0.173 A 
ATOM     80  C   UNL A   1      38.912  28.710  28.145  1.00  0.00     0.173 A 
ATOM     81  F   UNL A   1      38.821  27.709  31.632  1.00  0.00    -0.203 F 
ATOM     82  C   UNL A   1      37.328  29.032  30.390  1.00  0.00     0.198 A 
ATOM     83  C   UNL A   1      37.757  29.494  28.086  1.00  0.00     0.198 A 
ATOM     84  F   UNL A   1      39.678  28.666  27.046  1.00  0.00    -0.203 F 
ATOM     85  F   UNL A   1      36.594  29.227  31.494  1.00  0.00    -0.200 F 
ATOM     86  C   UNL A   1      36.974  29.668  29.212  1.00  0.00     0.200 A 
ATOM     87  F   UNL A   1      37.446  30.135  26.951  1.00  0.00    -0.200 F 
ATOM     88  F   UNL A   1      35.908  30.480  29.173  1.00  0.00    -0.200 F 
ENDBRANCH  54  78
BRANCH  66  89
ATOM     89  C   UNL A   1      44.718  26.549  32.163  1.00  0.00     0.064 A 
ATOM     90  C   UNL A   1      44.492  25.196  31.848  1.00  0.00     0.173 A 
ATOM     91  C   UNL A   1      44.902  26.869  33.514  1.00  0.00     0.173 A 
ATOM     92  F   UNL A   1      44.401  24.790  30.577  1.00  0.00    -0.203 F 
ATOM     93  C   UNL A   1      44.411  24.223  32.844  1.00  0.00     0.198 A 
ATOM     94  C   UNL A   1      44.857  25.891  34.503  1.00  0.00     0.198 A 
ATOM     95  F   UNL A   1      45.175  28.133  33.872  1.00  0.00    -0.203 F 
ATOM     96  F   UNL A   1      44.181  22.942  32.516  1.00  0.00    -0.200 F 
ATOM     97  C   UNL A   1      44.601  24.570  34.170  1.00  0.00     0.200 A 
ATOM     98  F   UNL A   1      45.090  26.225  35.780  1.00  0.00    -0.200 F 
ATOM     99  F   UNL A   1      44.563  23.631  35.125  1.00  0.00    -0.200 F 
ENDBRANCH  66  89
ENDBRANCH  40  41
ENDBRANCH  32  35
ENDBRANCH  30  31
ENDBRANCH  29  30
ENDBRANCH  28  29
ENDBRANCH   1  28
TORSDOF 18
ENDMDL
MODEL 3
REMARK VINA RESULT:     -11.6      1.626      2.402
REMARK SMILES COc1ccc(/C=C(\Sc2nc(C)n[nH]2)C(=O)NCCCCCCNC(=O)c2ccc(-c3c4nc(c(-c5c(F)c(F)c(F)c(F)c5F)c5ccc([nH]5)c(-c5c(F)c(F)c(F)c(F)c5F)c5nc(c(-c6c(F)c(F)c(F)c(F)c6F)c6ccc3[nH]6)C=C5)C=C4)cc2)c(OC)c1
REMARK SMILES IDX 21 1 20 2 19 3 18 4 16 5 17 6 8 8 7 9 6 10 3 11 4 12 94 13
REMARK SMILES IDX 5 14 91 15 2 16 1 17 92 18 93 19 9 20 10 21 11 22 15 23
REMARK SMILES IDX 12 24 14 25 13 27 22 28 23 29 24 30 25 31 26 32 27 34 28 35
REMARK SMILES IDX 29 36 90 37 30 38 89 39 31 40 32 41 33 42 83 43 34 44 88 45
REMARK SMILES IDX 82 46 84 47 35 48 87 49 81 50 80 51 36 53 68 54 48 55 67 56
REMARK SMILES IDX 49 57 52 58 66 59 85 60 50 61 51 62 65 64 86 65 53 66 37 67
REMARK SMILES IDX 38 68 46 69 39 70 40 71 44 72 47 73 41 74 42 75 45 76 43 77
REMARK SMILES IDX 69 78 70 79 78 80 71 81 72 82 76 83 79 84 73 85 74 86 77 87
REMARK SMILES IDX 75 88 54 89 55 90 63 91 56 92 57 93 61 94 64 95 58 96 59 97
REMARK SMILES IDX 62 98 60 99
REMARK H PARENT 18 7 15 26 25 33 84 52 52 63
REMARK Flexibility Score: inf
ROOT
ATOM      1  C   UNL A   1      40.562  21.462  27.085  1.00  0.00     0.002 C 
ENDROOT
BRANCH   1   2
ATOM      2  C   UNL A   1      39.825  22.055  25.881  1.00  0.00     0.021 C 
BRANCH   2   3
ATOM      3  C   UNL A   1      38.393  22.490  26.198  1.00  0.00     0.116 C 
BRANCH   3   4
ATOM      4  N   UNL A   1      37.412  21.609  25.585  1.00  0.00    -0.352 N 
ATOM      5  C   UNL A   1      36.075  21.632  25.315  1.00  0.00     0.258 C 
ATOM      6  O   UNL A   1      35.674  20.620  24.723  1.00  0.00    -0.269 OA
ATOM      7  H   UNL A   1      37.824  20.767  25.285  1.00  0.00     0.163 HD
BRANCH   5   8
ATOM      8  C   UNL A   1      35.102  22.773  25.639  1.00  0.00     0.081 C 
ATOM      9  C   UNL A   1      35.096  23.763  24.708  1.00  0.00     0.033 C 
BRANCH   9  10
ATOM     10  C   UNL A   1      34.346  25.038  24.634  1.00  0.00     0.018 A 
ATOM     11  C   UNL A   1      32.479  27.138  24.734  1.00  0.00     0.122 A 
ATOM     12  C   UNL A   1      33.425  26.988  25.744  1.00  0.00     0.047 A 
ATOM     13  C   UNL A   1      32.598  26.372  23.581  1.00  0.00     0.093 A 
ATOM     14  C   UNL A   1      34.372  25.964  25.679  1.00  0.00     0.016 A 
ATOM     15  C   UNL A   1      33.574  25.369  23.506  1.00  0.00     0.129 A 
BRANCH  11  16
ATOM     16  O   UNL A   1      31.513  28.079  24.959  1.00  0.00    -0.497 OA
ATOM     17  C   UNL A   1      31.993  29.390  25.242  1.00  0.00     0.278 C 
ENDBRANCH  11  16
BRANCH  15  18
ATOM     18  O   UNL A   1      33.783  24.701  22.321  1.00  0.00    -0.496 OA
ATOM     19  C   UNL A   1      32.922  25.189  21.282  1.00  0.00     0.278 C 
ENDBRANCH  15  18
ENDBRANCH   9  10
BRANCH   8  20
ATOM     20  S   UNL A   1      34.299  22.711  27.161  1.00  0.00    -0.045 SA
BRANCH  20  21
ATOM     21  C   UNL A   1      32.613  22.667  26.940  1.00  0.00     0.188 A 
ATOM     22  N   UNL A   1      31.624  23.327  27.483  1.00  0.00    -0.206 NA
ATOM     23  N   UNL A   1      32.135  21.820  25.988  1.00  0.00    -0.254 N 
ATOM     24  C   UNL A   1      30.525  22.768  26.864  1.00  0.00     0.148 A 
ATOM     25  N   UNL A   1      30.801  21.862  25.915  1.00  0.00    -0.158 NA
ATOM     26  H   UNL A   1      32.703  21.246  25.422  1.00  0.00     0.192 HD
ATOM     27  C   UNL A   1      29.135  23.091  27.236  1.00  0.00     0.092 C 
ENDBRANCH  20  21
ENDBRANCH   8  20
ENDBRANCH   5   8
ENDBRANCH   3   4
ENDBRANCH   2   3
ENDBRANCH   1   2
BRANCH   1  28
ATOM     28  C   UNL A   1      40.747  19.934  27.075  1.00  0.00     0.002 C 
BRANCH  28  29
ATOM     29  C   UNL A   1      41.597  19.346  25.935  1.00  0.00     0.021 C 
BRANCH  29  30
ATOM     30  C   UNL A   1      43.044  19.103  26.323  1.00  0.00     0.116 C 
BRANCH  30  31
ATOM     31  N   UNL A   1      43.934  19.058  25.159  1.00  0.00    -0.352 N 
ATOM     32  C   UNL A   1      44.392  20.101  24.370  1.00  0.00     0.251 C 
ATOM     33  H   UNL A   1      44.250  18.162  24.900  1.00  0.00     0.163 HD
ATOM     34  O   UNL A   1      44.820  19.907  23.247  1.00  0.00    -0.269 OA
BRANCH  32  35
ATOM     35  C   UNL A   1      44.361  21.462  24.933  1.00  0.00     0.039 A 
ATOM     36  C   UNL A   1      43.362  22.384  24.611  1.00  0.00     0.014 A 
ATOM     37  C   UNL A   1      45.362  21.786  25.838  1.00  0.00     0.014 A 
ATOM     38  C   UNL A   1      43.359  23.613  25.267  1.00  0.00     0.010 A 
ATOM     39  C   UNL A   1      45.208  22.867  26.652  1.00  0.00     0.010 A 
ATOM     40  C   UNL A   1      44.287  23.837  26.296  1.00  0.00    -0.014 A 
BRANCH  40  41
ATOM     41  C   UNL A   1      44.286  25.048  27.099  1.00  0.00     0.031 A 
ATOM     42  C   UNL A   1      45.426  25.952  26.818  1.00  0.00     0.074 A 
ATOM     43  C   UNL A   1      43.218  25.418  27.843  1.00  0.00     0.049 A 
ATOM     44  N   UNL A   1      46.414  26.229  27.599  1.00  0.00    -0.248 NA
ATOM     45  C   UNL A   1      45.574  26.487  25.454  1.00  0.00     0.031 C 
ATOM     46  C   UNL A   1      41.902  24.771  27.950  1.00  0.00     0.029 A 
ATOM     47  N   UNL A   1      43.051  26.533  28.601  1.00  0.00    -0.354 N 
ATOM     48  C   UNL A   1      47.197  27.149  26.910  1.00  0.00     0.074 A 
ATOM     49  C   UNL A   1      46.754  27.106  25.541  1.00  0.00     0.031 C 
ATOM     50  C   UNL A   1      41.018  25.618  28.524  1.00  0.00     0.029 A 
ATOM     51  C   UNL A   1      41.738  26.786  28.988  1.00  0.00     0.049 A 
ATOM     52  H   UNL A   1      43.801  27.117  28.856  1.00  0.00     0.167 HD
ATOM     53  C   UNL A   1      47.943  28.062  27.589  1.00  0.00     0.037 A 
ATOM     54  C   UNL A   1      41.287  27.895  29.628  1.00  0.00     0.037 A 
ATOM     55  C   UNL A   1      48.096  27.673  28.971  1.00  0.00     0.049 A 
ATOM     56  C   UNL A   1      42.468  28.543  30.252  1.00  0.00     0.074 A 
ATOM     57  C   UNL A   1      48.627  26.573  29.617  1.00  0.00     0.029 A 
ATOM     58  N   UNL A   1      47.295  28.293  29.898  1.00  0.00    -0.354 N 
ATOM     59  N   UNL A   1      43.148  28.012  31.231  1.00  0.00    -0.248 NA
ATOM     60  C   UNL A   1      43.178  29.536  29.461  1.00  0.00     0.031 C 
ATOM     61  C   UNL A   1      47.740  26.321  30.707  1.00  0.00     0.029 A 
ATOM     62  C   UNL A   1      46.770  27.325  30.714  1.00  0.00     0.049 A 
ATOM     63  H   UNL A   1      47.126  29.260  29.965  1.00  0.00     0.167 HD
ATOM     64  C   UNL A   1      44.475  28.263  30.912  1.00  0.00     0.074 A 
ATOM     65  C   UNL A   1      44.427  29.269  29.852  1.00  0.00     0.031 C 
ATOM     66  C   UNL A   1      45.465  27.418  31.324  1.00  0.00     0.037 A 
BRANCH  53  67
ATOM     67  C   UNL A   1      48.170  29.485  27.133  1.00  0.00     0.064 A 
ATOM     68  C   UNL A   1      49.476  30.012  27.193  1.00  0.00     0.173 A 
ATOM     69  C   UNL A   1      47.142  30.435  26.947  1.00  0.00     0.173 A 
ATOM     70  F   UNL A   1      50.532  29.204  27.376  1.00  0.00    -0.203 F 
ATOM     71  C   UNL A   1      49.719  31.388  27.174  1.00  0.00     0.198 A 
ATOM     72  C   UNL A   1      47.393  31.803  26.874  1.00  0.00     0.198 A 
ATOM     73  F   UNL A   1      45.847  30.102  26.945  1.00  0.00    -0.203 F 
ATOM     74  F   UNL A   1      50.961  31.846  27.379  1.00  0.00    -0.200 F 
ATOM     75  C   UNL A   1      48.676  32.283  27.025  1.00  0.00     0.200 A 
ATOM     76  F   UNL A   1      46.366  32.655  26.746  1.00  0.00    -0.200 F 
ATOM     77  F   UNL A   1      48.896  33.603  27.077  1.00  0.00    -0.200 F 
ENDBRANCH  53  67
BRANCH  54  78
ATOM     78  C   UNL A   1      39.997  28.608  29.461  1.00  0.00     0.064 A 
ATOM     79  C   UNL A   1      39.586  29.071  28.199  1.00  0.00     0.173 A 
ATOM     80  C   UNL A   1      39.010  28.578  30.466  1.00  0.00     0.173 A 
ATOM     81  F   UNL A   1      40.451  29.091  27.175  1.00  0.00    -0.203 F 
ATOM     82  C   UNL A   1      38.260  29.444  27.948  1.00  0.00     0.198 A 
ATOM     83  C   UNL A   1      37.688  28.954  30.214  1.00  0.00     0.198 A 
ATOM     84  F   UNL A   1      39.286  28.088  31.683  1.00  0.00    -0.203 F 
ATOM     85  F   UNL A   1      37.891  29.812  26.713  1.00  0.00    -0.200 F 
ATOM     86  C   UNL A   1      37.310  29.370  28.952  1.00  0.00     0.200 A 
ATOM     87  F   UNL A   1      36.769  28.841  31.185  1.00  0.00    -0.200 F 
ATOM     88  F   UNL A   1      36.026  29.658  28.694  1.00  0.00    -0.200 F 
ENDBRANCH  54  78
BRANCH  66  89
ATOM     89  C   UNL A   1      45.111  26.367  32.340  1.00  0.00     0.064 A 
ATOM     90  C   UNL A   1      45.012  26.599  33.724  1.00  0.00     0.173 A 
ATOM     91  C   UNL A   1      44.721  25.106  31.874  1.00  0.00     0.173 A 
ATOM     92  F   UNL A   1      45.273  27.804  34.243  1.00  0.00    -0.203 F 
ATOM     93  C   UNL A   1      44.586  25.599  34.599  1.00  0.00     0.198 A 
ATOM     94  C   UNL A   1      44.262  24.121  32.743  1.00  0.00     0.198 A 
ATOM     95  F   UNL A   1      44.742  24.843  30.557  1.00  0.00    -0.203 F 
ATOM     96  F   UNL A   1      44.514  25.843  35.917  1.00  0.00    -0.200 F 
ATOM     97  C   UNL A   1      44.204  24.364  34.106  1.00  0.00     0.200 A 
ATOM     98  F   UNL A   1      43.848  22.944  32.256  1.00  0.00    -0.200 F 
ATOM     99  F   UNL A   1      43.757  23.414  34.940  1.00  0.00    -0.200 F 
ENDBRANCH  66  89
ENDBRANCH  40  41
ENDBRANCH  32  35
ENDBRANCH  30  31
ENDBRANCH  29  30
ENDBRANCH  28  29
ENDBRANCH   1  28
TORSDOF 18
ENDMDL
