MODEL 1
REMARK VINA RESULT:     -12.8      0.000      0.000
REMARK SMILES CCc1cc(S(F)(F)(F)(F)F)cc2c1O[C@@H](C(F)(F)F)C(C(=O)NCCCCCCNC(=O)c1ccc(-c3c4nc(c(-c5c(F)c(F)c(F)c(F)c5F)c5ccc([nH]5)c(-c5c(F)c(F)c(F)c(F)c5F)c5nc(c(-c6c(F)c(F)c(F)c(F)c6F)c6ccc3[nH]6)C=C5)C=C4)cc1)=C2
REMARK SMILES IDX 28 1 27 2 26 3 25 4 24 5 22 6 23 7 21 9 3 10 4 11 14 12 5 13
REMARK SMILES IDX 13 14 15 15 12 16 97 17 16 18 2 19 1 20 6 21 7 22 8 23 9 24
REMARK SMILES IDX 10 25 11 26 17 27 18 28 19 29 20 30 29 31 30 32 31 33 32 34
REMARK SMILES IDX 33 36 34 37 35 38 96 39 36 40 95 41 37 42 38 43 39 44 89 45
REMARK SMILES IDX 40 46 94 47 88 48 90 49 41 50 93 51 87 52 86 53 42 55 74 56
REMARK SMILES IDX 54 57 73 58 55 59 58 60 72 61 91 62 56 63 57 64 71 66 92 67
REMARK SMILES IDX 59 68 43 69 44 70 52 71 45 72 46 73 50 74 53 75 47 76 48 77
REMARK SMILES IDX 51 78 49 79 75 80 76 81 84 82 77 83 78 84 82 85 85 86 79 87
REMARK SMILES IDX 80 88 83 89 81 90 60 91 61 92 69 93 62 94 63 95 67 96 70 97
REMARK SMILES IDX 64 98 65 99 68 100 66 101
REMARK H PARENT 24 8 31 35 90 54 58 65
REMARK Flexibility Score: inf
ROOT
ATOM      1  C   UNL A   1      34.496  33.679  28.268  1.00  0.00     0.002 C 
ENDROOT
BRANCH   1   2
ATOM      2  C   UNL A   1      34.221  32.216  28.575  1.00  0.00     0.002 C 
BRANCH   2   3
ATOM      3  C   UNL A   1      35.200  31.344  27.806  1.00  0.00     0.021 C 
BRANCH   3   4
ATOM      4  C   UNL A   1      34.432  30.305  27.005  1.00  0.00     0.116 C 
BRANCH   4   5
ATOM      5  N   UNL A   1      33.194  29.956  27.716  1.00  0.00    -0.352 N 
ATOM      6  C   UNL A   1      32.393  28.804  27.275  1.00  0.00     0.251 C 
ATOM      7  O   UNL A   1      31.322  28.502  27.890  1.00  0.00    -0.270 OA
ATOM      8  H   UNL A   1      32.901  30.492  28.488  1.00  0.00     0.163 HD
BRANCH   6   9
ATOM      9  C   UNL A   1      32.844  27.977  26.083  1.00  0.00     0.067 C 
ATOM     10  C   UNL A   1      33.600  25.532  22.780  1.00  0.00    -0.004 A 
ATOM     11  C   UNL A   1      34.423  24.429  22.913  1.00  0.00     0.032 A 
ATOM     12  C   UNL A   1      33.325  26.288  23.895  1.00  0.00     0.131 A 
ATOM     13  C   UNL A   1      34.955  24.089  24.128  1.00  0.00     0.108 A 
ATOM     14  C   UNL A   1      33.859  25.985  25.135  1.00  0.00     0.019 A 
ATOM     15  O   UNL A   1      32.418  27.311  23.772  1.00  0.00    -0.475 OA
ATOM     16  C   UNL A   1      34.680  24.868  25.233  1.00  0.00     0.036 A 
ATOM     17  C   UNL A   1      33.477  26.824  26.259  1.00  0.00     0.025 C 
ATOM     18  C   UNL A   1      32.578  28.452  24.661  1.00  0.00     0.314 C 
BRANCH  10  19
ATOM     19  C   UNL A   1      33.010  25.900  21.429  1.00  0.00     0.036 C 
ATOM     20  C   UNL A   1      32.937  24.660  20.553  1.00  0.00     0.009 C 
ENDBRANCH  10  19
BRANCH  13  21
ATOM     21  S   UNL A   1      36.012  22.627  24.285  1.00  0.00     0.310 S 
ATOM     22  F   UNL A   1      36.313  22.601  22.728  1.00  0.00    -0.094 F 
ATOM     23  F   UNL A   1      34.757  21.723  23.988  1.00  0.00    -0.094 F 
ATOM     24  F   UNL A   1      36.920  21.373  24.420  1.00  0.00    -0.094 F 
ATOM     25  F   UNL A   1      37.282  23.554  24.441  1.00  0.00    -0.094 F 
ATOM     26  F   UNL A   1      35.124  23.912  24.038  1.00  0.00    -0.094 F 
ENDBRANCH  13  21
BRANCH  18  27
ATOM     27  C   UNL A   1      31.303  29.279  24.644  1.00  0.00     0.429 C 
ATOM     28  F   UNL A   1      30.310  28.573  25.176  1.00  0.00    -0.167 F 
ATOM     29  F   UNL A   1      31.487  30.391  25.352  1.00  0.00    -0.167 F 
ATOM     30  F   UNL A   1      30.998  29.597  23.390  1.00  0.00    -0.167 F 
ENDBRANCH  18  27
ENDBRANCH   6   9
ENDBRANCH   4   5
ENDBRANCH   3   4
ENDBRANCH   2   3
ENDBRANCH   1   2
BRANCH   1  31
ATOM     31  C   UNL A   1      33.230  34.490  28.486  1.00  0.00     0.021 C 
BRANCH  31  32
ATOM     32  C   UNL A   1      33.585  35.822  29.125  1.00  0.00     0.116 C 
BRANCH  32  33
ATOM     33  N   UNL A   1      32.557  36.181  30.112  1.00  0.00    -0.352 N 
ATOM     34  C   UNL A   1      32.727  35.803  31.523  1.00  0.00     0.251 C 
ATOM     35  H   UNL A   1      31.753  36.675  29.828  1.00  0.00     0.163 HD
ATOM     36  O   UNL A   1      31.837  36.113  32.376  1.00  0.00    -0.269 OA
BRANCH  34  37
ATOM     37  C   UNL A   1      33.967  35.042  31.961  1.00  0.00     0.039 A 
ATOM     38  C   UNL A   1      35.148  35.730  32.184  1.00  0.00     0.014 A 
ATOM     39  C   UNL A   1      33.896  33.725  32.122  1.00  0.00     0.014 A 
ATOM     40  C   UNL A   1      36.285  34.896  32.296  1.00  0.00     0.010 A 
ATOM     41  C   UNL A   1      35.029  32.988  32.365  1.00  0.00     0.010 A 
ATOM     42  C   UNL A   1      36.241  33.598  32.537  1.00  0.00    -0.014 A 
BRANCH  42  43
ATOM     43  C   UNL A   1      37.471  32.824  32.982  1.00  0.00     0.031 A 
ATOM     44  C   UNL A   1      37.936  31.810  32.143  1.00  0.00     0.074 A 
ATOM     45  C   UNL A   1      38.063  33.164  34.187  1.00  0.00     0.049 A 
ATOM     46  N   UNL A   1      39.009  31.037  32.318  1.00  0.00    -0.248 NA
ATOM     47  C   UNL A   1      37.290  31.425  30.880  1.00  0.00     0.031 C 
ATOM     48  C   UNL A   1      37.605  34.191  35.035  1.00  0.00     0.029 A 
ATOM     49  N   UNL A   1      39.169  32.593  34.776  1.00  0.00    -0.354 N 
ATOM     50  C   UNL A   1      39.143  30.195  31.293  1.00  0.00     0.074 A 
ATOM     51  C   UNL A   1      38.036  30.427  30.355  1.00  0.00     0.031 C 
ATOM     52  C   UNL A   1      38.415  34.231  36.125  1.00  0.00     0.029 A 
ATOM     53  C   UNL A   1      39.395  33.231  35.976  1.00  0.00     0.049 A 
ATOM     54  H   UNL A   1      39.706  31.857  34.404  1.00  0.00     0.167 HD
ATOM     55  C   UNL A   1      40.146  29.243  31.100  1.00  0.00     0.037 A 
ATOM     56  C   UNL A   1      40.391  32.968  36.903  1.00  0.00     0.037 A 
ATOM     57  C   UNL A   1      41.168  29.010  32.006  1.00  0.00     0.049 A 
ATOM     58  C   UNL A   1      41.360  31.976  36.738  1.00  0.00     0.074 A 
ATOM     59  C   UNL A   1      42.191  28.059  31.824  1.00  0.00     0.029 A 
ATOM     60  N   UNL A   1      41.379  29.630  33.218  1.00  0.00    -0.354 N 
ATOM     61  N   UNL A   1      41.517  31.161  35.693  1.00  0.00    -0.248 NA
ATOM     62  C   UNL A   1      42.402  31.667  37.727  1.00  0.00     0.031 C 
ATOM     63  C   UNL A   1      43.002  28.099  32.915  1.00  0.00     0.029 A 
ATOM     64  C   UNL A   1      42.499  29.075  33.796  1.00  0.00     0.049 A 
ATOM     65  H   UNL A   1      40.825  30.347  33.603  1.00  0.00     0.167 HD
ATOM     66  C   UNL A   1      42.566  30.360  35.889  1.00  0.00     0.074 A 
ATOM     67  C   UNL A   1      43.146  30.669  37.204  1.00  0.00     0.031 C 
ATOM     68  C   UNL A   1      43.066  29.385  35.023  1.00  0.00     0.037 A 
BRANCH  55  69
ATOM     69  C   UNL A   1      40.115  28.416  29.825  1.00  0.00     0.064 A 
ATOM     70  C   UNL A   1      39.366  27.250  29.843  1.00  0.00     0.173 A 
ATOM     71  C   UNL A   1      40.697  28.843  28.711  1.00  0.00     0.173 A 
ATOM     72  F   UNL A   1      38.566  26.919  30.851  1.00  0.00    -0.203 F 
ATOM     73  C   UNL A   1      39.532  26.446  28.692  1.00  0.00     0.198 A 
ATOM     74  C   UNL A   1      40.704  28.062  27.581  1.00  0.00     0.198 A 
ATOM     75  F   UNL A   1      41.281  30.038  28.689  1.00  0.00    -0.203 F 
ATOM     76  F   UNL A   1      39.155  25.172  28.768  1.00  0.00    -0.200 F 
ATOM     77  C   UNL A   1      40.035  26.869  27.546  1.00  0.00     0.200 A 
ATOM     78  F   UNL A   1      41.371  28.470  26.505  1.00  0.00    -0.200 F 
ATOM     79  F   UNL A   1      39.897  26.175  26.421  1.00  0.00    -0.200 F 
ENDBRANCH  55  69
BRANCH  56  80
ATOM     80  C   UNL A   1      40.431  33.806  38.170  1.00  0.00     0.064 A 
ATOM     81  C   UNL A   1      39.573  33.522  39.219  1.00  0.00     0.173 A 
ATOM     82  C   UNL A   1      41.227  34.869  38.200  1.00  0.00     0.173 A 
ATOM     83  F   UNL A   1      38.952  32.353  39.351  1.00  0.00    -0.203 F 
ATOM     84  C   UNL A   1      39.418  34.586  40.138  1.00  0.00     0.198 A 
ATOM     85  C   UNL A   1      41.113  35.801  39.202  1.00  0.00     0.198 A 
ATOM     86  F   UNL A   1      42.144  35.032  37.250  1.00  0.00    -0.203 F 
ATOM     87  F   UNL A   1      38.369  34.552  40.955  1.00  0.00    -0.200 F 
ATOM     88  C   UNL A   1      40.243  35.613  40.241  1.00  0.00     0.200 A 
ATOM     89  F   UNL A   1      41.858  36.901  39.163  1.00  0.00    -0.200 F 
ATOM     90  F   UNL A   1      40.227  36.421  41.297  1.00  0.00    -0.200 F 
ENDBRANCH  56  80
BRANCH  68  91
ATOM     91  C   UNL A   1      44.307  28.619  35.450  1.00  0.00     0.064 A 
ATOM     92  C   UNL A   1      45.559  29.107  35.112  1.00  0.00     0.173 A 
ATOM     93  C   UNL A   1      44.170  27.494  36.141  1.00  0.00     0.173 A 
ATOM     94  F   UNL A   1      45.757  30.338  34.650  1.00  0.00    -0.203 F 
ATOM     95  C   UNL A   1      46.607  28.175  35.302  1.00  0.00     0.198 A 
ATOM     96  C   UNL A   1      45.259  26.700  36.409  1.00  0.00     0.198 A 
ATOM     97  F   UNL A   1      42.967  27.132  36.580  1.00  0.00    -0.203 F 
ATOM     98  F   UNL A   1      47.761  28.407  34.683  1.00  0.00    -0.200 F 
ATOM     99  C   UNL A   1      46.518  27.091  36.051  1.00  0.00     0.200 A 
ATOM    100  F   UNL A   1      45.084  25.534  37.024  1.00  0.00    -0.200 F 
ATOM    101  F   UNL A   1      47.598  26.416  36.436  1.00  0.00    -0.200 F 
ENDBRANCH  68  91
ENDBRANCH  42  43
ENDBRANCH  34  37
ENDBRANCH  32  33
ENDBRANCH  31  32
ENDBRANCH   1  31
TORSDOF 16
ENDMDL
MODEL 2
REMARK VINA RESULT:     -12.6      1.694      2.825
REMARK SMILES CCc1cc(S(F)(F)(F)(F)F)cc2c1O[C@@H](C(F)(F)F)C(C(=O)NCCCCCCNC(=O)c1ccc(-c3c4nc(c(-c5c(F)c(F)c(F)c(F)c5F)c5ccc([nH]5)c(-c5c(F)c(F)c(F)c(F)c5F)c5nc(c(-c6c(F)c(F)c(F)c(F)c6F)c6ccc3[nH]6)C=C5)C=C4)cc1)=C2
REMARK SMILES IDX 28 1 27 2 26 3 25 4 24 5 22 6 23 7 21 9 3 10 4 11 14 12 5 13
REMARK SMILES IDX 13 14 15 15 12 16 97 17 16 18 2 19 1 20 6 21 7 22 8 23 9 24
REMARK SMILES IDX 10 25 11 26 17 27 18 28 19 29 20 30 29 31 30 32 31 33 32 34
REMARK SMILES IDX 33 36 34 37 35 38 96 39 36 40 95 41 37 42 38 43 39 44 89 45
REMARK SMILES IDX 40 46 94 47 88 48 90 49 41 50 93 51 87 52 86 53 42 55 74 56
REMARK SMILES IDX 54 57 73 58 55 59 58 60 72 61 91 62 56 63 57 64 71 66 92 67
REMARK SMILES IDX 59 68 43 69 44 70 52 71 45 72 46 73 50 74 53 75 47 76 48 77
REMARK SMILES IDX 51 78 49 79 75 80 76 81 84 82 77 83 78 84 82 85 85 86 79 87
REMARK SMILES IDX 80 88 83 89 81 90 60 91 61 92 69 93 62 94 63 95 67 96 70 97
REMARK SMILES IDX 64 98 65 99 68 100 66 101
REMARK H PARENT 24 8 31 35 90 54 58 65
REMARK Flexibility Score: inf
ROOT
ATOM      1  C   UNL A   1      31.548  30.942  26.585  1.00  0.00     0.002 C 
ENDROOT
BRANCH   1   2
ATOM      2  C   UNL A   1      32.894  30.557  27.177  1.00  0.00     0.002 C 
BRANCH   2   3
ATOM      3  C   UNL A   1      33.082  29.052  27.070  1.00  0.00     0.021 C 
BRANCH   3   4
ATOM      4  C   UNL A   1      34.058  28.744  25.945  1.00  0.00     0.116 C 
BRANCH   4   5
ATOM      5  N   UNL A   1      33.569  29.341  24.695  1.00  0.00    -0.352 N 
ATOM      6  C   UNL A   1      33.004  28.484  23.643  1.00  0.00     0.251 C 
ATOM      7  O   UNL A   1      32.581  29.001  22.561  1.00  0.00    -0.270 OA
ATOM      8  H   UNL A   1      33.620  30.315  24.562  1.00  0.00     0.163 HD
BRANCH   6   9
ATOM      9  C   UNL A   1      32.926  26.981  23.847  1.00  0.00     0.067 C 
ATOM     10  C   UNL A   1      32.598  22.951  24.902  1.00  0.00    -0.004 A 
ATOM     11  C   UNL A   1      33.720  22.143  24.897  1.00  0.00     0.032 A 
ATOM     12  C   UNL A   1      32.744  24.284  24.603  1.00  0.00     0.131 A 
ATOM     13  C   UNL A   1      34.957  22.656  24.605  1.00  0.00     0.108 A 
ATOM     14  C   UNL A   1      33.973  24.833  24.286  1.00  0.00     0.019 A 
ATOM     15  O   UNL A   1      31.642  25.095  24.723  1.00  0.00    -0.475 OA
ATOM     16  C   UNL A   1      35.081  23.994  24.293  1.00  0.00     0.036 A 
ATOM     17  C   UNL A   1      34.028  26.262  24.022  1.00  0.00     0.025 C 
ATOM     18  C   UNL A   1      31.581  26.265  23.859  1.00  0.00     0.314 C 
BRANCH  10  19
ATOM     19  C   UNL A   1      31.231  22.374  25.233  1.00  0.00     0.036 C 
ATOM     20  C   UNL A   1      30.914  22.628  26.697  1.00  0.00     0.009 C 
ENDBRANCH  10  19
BRANCH  13  21
ATOM     21  S   UNL A   1      36.417  21.586  24.626  1.00  0.00     0.310 S 
ATOM     22  F   UNL A   1      37.302  22.703  25.322  1.00  0.00    -0.094 F 
ATOM     23  F   UNL A   1      36.852  22.200  23.243  1.00  0.00    -0.094 F 
ATOM     24  F   UNL A   1      37.670  20.667  24.645  1.00  0.00    -0.094 F 
ATOM     25  F   UNL A   1      36.038  21.087  26.076  1.00  0.00    -0.094 F 
ATOM     26  F   UNL A   1      35.201  22.595  24.672  1.00  0.00    -0.094 F 
ENDBRANCH  13  21
BRANCH  18  27
ATOM     27  C   UNL A   1      30.518  27.216  24.384  1.00  0.00     0.429 C 
ATOM     28  F   UNL A   1      30.939  27.771  25.516  1.00  0.00    -0.167 F 
ATOM     29  F   UNL A   1      30.290  28.167  23.481  1.00  0.00    -0.167 F 
ATOM     30  F   UNL A   1      29.394  26.542  24.611  1.00  0.00    -0.167 F 
ENDBRANCH  18  27
ENDBRANCH   6   9
ENDBRANCH   4   5
ENDBRANCH   3   4
ENDBRANCH   2   3
ENDBRANCH   1   2
BRANCH   1  31
ATOM     31  C   UNL A   1      31.401  32.454  26.600  1.00  0.00     0.021 C 
BRANCH  31  32
ATOM     32  C   UNL A   1      32.626  33.076  27.250  1.00  0.00     0.116 C 
BRANCH  32  33
ATOM     33  N   UNL A   1      32.299  34.432  27.714  1.00  0.00    -0.352 N 
ATOM     34  C   UNL A   1      33.103  35.060  28.773  1.00  0.00     0.251 C 
ATOM     35  H   UNL A   1      31.542  34.919  27.316  1.00  0.00     0.163 HD
ATOM     36  O   UNL A   1      32.820  36.232  29.175  1.00  0.00    -0.269 OA
BRANCH  34  37
ATOM     37  C   UNL A   1      34.271  34.307  29.388  1.00  0.00     0.039 A 
ATOM     38  C   UNL A   1      35.558  34.568  28.949  1.00  0.00     0.014 A 
ATOM     39  C   UNL A   1      34.036  33.410  30.339  1.00  0.00     0.014 A 
ATOM     40  C   UNL A   1      36.513  33.614  29.375  1.00  0.00     0.010 A 
ATOM     41  C   UNL A   1      35.046  32.604  30.805  1.00  0.00     0.010 A 
ATOM     42  C   UNL A   1      36.332  32.766  30.371  1.00  0.00    -0.014 A 
BRANCH  42  43
ATOM     43  C   UNL A   1      37.491  32.011  31.000  1.00  0.00     0.031 A 
ATOM     44  C   UNL A   1      38.119  31.030  30.230  1.00  0.00     0.074 A 
ATOM     45  C   UNL A   1      37.862  32.334  32.294  1.00  0.00     0.049 A 
ATOM     46  N   UNL A   1      39.168  30.279  30.568  1.00  0.00    -0.248 NA
ATOM     47  C   UNL A   1      37.705  30.661  28.868  1.00  0.00     0.031 C 
ATOM     48  C   UNL A   1      37.239  33.328  33.075  1.00  0.00     0.029 A 
ATOM     49  N   UNL A   1      38.869  31.776  33.050  1.00  0.00    -0.354 N 
ATOM     50  C   UNL A   1      39.496  29.466  29.562  1.00  0.00     0.074 A 
ATOM     51  C   UNL A   1      38.556  29.696  28.457  1.00  0.00     0.031 C 
ATOM     52  C   UNL A   1      37.854  33.360  34.287  1.00  0.00     0.029 A 
ATOM     53  C   UNL A   1      38.872  32.388  34.284  1.00  0.00     0.049 A 
ATOM     54  H   UNL A   1      39.481  31.062  32.758  1.00  0.00     0.167 HD
ATOM     55  C   UNL A   1      40.543  28.544  29.521  1.00  0.00     0.037 A 
ATOM     56  C   UNL A   1      39.706  32.125  35.360  1.00  0.00     0.037 A 
ATOM     57  C   UNL A   1      41.405  28.313  30.582  1.00  0.00     0.049 A 
ATOM     58  C   UNL A   1      40.716  31.161  35.339  1.00  0.00     0.074 A 
ATOM     59  C   UNL A   1      42.470  27.392  30.555  1.00  0.00     0.029 A 
ATOM     60  N   UNL A   1      41.392  28.907  31.825  1.00  0.00    -0.354 N 
ATOM     61  N   UNL A   1      41.069  30.377  34.319  1.00  0.00    -0.248 NA
ATOM     62  C   UNL A   1      41.585  30.853  36.483  1.00  0.00     0.031 C 
ATOM     63  C   UNL A   1      43.085  27.424  31.768  1.00  0.00     0.029 A 
ATOM     64  C   UNL A   1      42.414  28.364  32.572  1.00  0.00     0.049 A 
ATOM     65  H   UNL A   1      40.761  29.600  32.126  1.00  0.00     0.167 HD
ATOM     66  C   UNL A   1      42.092  29.597  34.672  1.00  0.00     0.074 A 
ATOM     67  C   UNL A   1      42.434  29.886  36.072  1.00  0.00     0.031 C 
ATOM     68  C   UNL A   1      42.758  28.657  33.882  1.00  0.00     0.037 A 
BRANCH  55  69
ATOM     69  C   UNL A   1      40.750  27.749  28.242  1.00  0.00     0.064 A 
ATOM     70  C   UNL A   1      41.617  28.280  27.300  1.00  0.00     0.173 A 
ATOM     71  C   UNL A   1      40.204  26.551  28.077  1.00  0.00     0.173 A 
ATOM     72  F   UNL A   1      42.377  29.346  27.533  1.00  0.00    -0.203 F 
ATOM     73  C   UNL A   1      41.618  27.585  26.068  1.00  0.00     0.198 A 
ATOM     74  C   UNL A   1      40.359  25.867  26.895  1.00  0.00     0.198 A 
ATOM     75  F   UNL A   1      39.499  26.007  29.065  1.00  0.00    -0.203 F 
ATOM     76  F   UNL A   1      42.123  28.209  25.007  1.00  0.00    -0.200 F 
ATOM     77  C   UNL A   1      41.153  26.361  25.897  1.00  0.00     0.200 A 
ATOM     78  F   UNL A   1      39.728  24.710  26.719  1.00  0.00    -0.200 F 
ATOM     79  F   UNL A   1      41.442  25.647  24.813  1.00  0.00    -0.200 F 
ENDBRANCH  55  69
BRANCH  56  80
ATOM     80  C   UNL A   1      39.509  32.932  36.632  1.00  0.00     0.064 A 
ATOM     81  C   UNL A   1      38.539  32.559  37.548  1.00  0.00     0.173 A 
ATOM     82  C   UNL A   1      40.211  34.048  36.788  1.00  0.00     0.173 A 
ATOM     83  F   UNL A   1      37.995  31.345  37.576  1.00  0.00    -0.203 F 
ATOM     84  C   UNL A   1      38.180  33.586  38.454  1.00  0.00     0.198 A 
ATOM     85  C   UNL A   1      39.890  34.944  37.779  1.00  0.00     0.198 A 
ATOM     86  F   UNL A   1      41.234  34.302  35.977  1.00  0.00    -0.203 F 
ATOM     87  F   UNL A   1      37.035  33.455  39.116  1.00  0.00    -0.200 F 
ATOM     88  C   UNL A   1      38.903  34.667  38.684  1.00  0.00     0.200 A 
ATOM     89  F   UNL A   1      40.549  36.096  37.860  1.00  0.00    -0.200 F 
ATOM     90  F   UNL A   1      38.683  35.444  39.740  1.00  0.00    -0.200 F 
ENDBRANCH  56  80
BRANCH  68  91
ATOM     91  C   UNL A   1      43.930  27.910  34.496  1.00  0.00     0.064 A 
ATOM     92  C   UNL A   1      43.715  26.683  35.102  1.00  0.00     0.173 A 
ATOM     93  C   UNL A   1      45.142  28.448  34.442  1.00  0.00     0.173 A 
ATOM     94  F   UNL A   1      42.587  25.993  34.963  1.00  0.00    -0.203 F 
ATOM     95  C   UNL A   1      44.805  26.230  35.882  1.00  0.00     0.198 A 
ATOM     96  C   UNL A   1      46.193  27.876  35.119  1.00  0.00     0.198 A 
ATOM     97  F   UNL A   1      45.343  29.550  33.725  1.00  0.00    -0.203 F 
ATOM     98  F   UNL A   1      44.572  25.271  36.774  1.00  0.00    -0.200 F 
ATOM     99  C   UNL A   1      46.037  26.695  35.788  1.00  0.00     0.200 A 
ATOM    100  F   UNL A   1      47.377  28.482  35.123  1.00  0.00    -0.200 F 
ATOM    101  F   UNL A   1      47.073  26.047  36.317  1.00  0.00    -0.200 F 
ENDBRANCH  68  91
ENDBRANCH  42  43
ENDBRANCH  34  37
ENDBRANCH  32  33
ENDBRANCH  31  32
ENDBRANCH   1  31
TORSDOF 16
ENDMDL
MODEL 3
REMARK VINA RESULT:     -12.6      0.469      7.017
REMARK SMILES CCc1cc(S(F)(F)(F)(F)F)cc2c1O[C@@H](C(F)(F)F)C(C(=O)NCCCCCCNC(=O)c1ccc(-c3c4nc(c(-c5c(F)c(F)c(F)c(F)c5F)c5ccc([nH]5)c(-c5c(F)c(F)c(F)c(F)c5F)c5nc(c(-c6c(F)c(F)c(F)c(F)c6F)c6ccc3[nH]6)C=C5)C=C4)cc1)=C2
REMARK SMILES IDX 28 1 27 2 26 3 25 4 24 5 22 6 23 7 21 9 3 10 4 11 14 12 5 13
REMARK SMILES IDX 13 14 15 15 12 16 97 17 16 18 2 19 1 20 6 21 7 22 8 23 9 24
REMARK SMILES IDX 10 25 11 26 17 27 18 28 19 29 20 30 29 31 30 32 31 33 32 34
REMARK SMILES IDX 33 36 34 37 35 38 96 39 36 40 95 41 37 42 38 43 39 44 89 45
REMARK SMILES IDX 40 46 94 47 88 48 90 49 41 50 93 51 87 52 86 53 42 55 74 56
REMARK SMILES IDX 54 57 73 58 55 59 58 60 72 61 91 62 56 63 57 64 71 66 92 67
REMARK SMILES IDX 59 68 43 69 44 70 52 71 45 72 46 73 50 74 53 75 47 76 48 77
REMARK SMILES IDX 51 78 49 79 75 80 76 81 84 82 77 83 78 84 82 85 85 86 79 87
REMARK SMILES IDX 80 88 83 89 81 90 60 91 61 92 69 93 62 94 63 95 67 96 70 97
REMARK SMILES IDX 64 98 65 99 68 100 66 101
REMARK H PARENT 24 8 31 35 90 54 58 65
REMARK Flexibility Score: inf
ROOT
ATOM      1  C   UNL A   1      34.586  33.507  28.592  1.00  0.00     0.002 C 
ENDROOT
BRANCH   1   2
ATOM      2  C   UNL A   1      34.303  32.015  28.554  1.00  0.00     0.002 C 
BRANCH   2   3
ATOM      3  C   UNL A   1      35.299  31.333  27.630  1.00  0.00     0.021 C 
BRANCH   3   4
ATOM      4  C   UNL A   1      34.771  29.962  27.240  1.00  0.00     0.116 C 
BRANCH   4   5
ATOM      5  N   UNL A   1      33.454  29.750  27.858  1.00  0.00    -0.352 N 
ATOM      6  C   UNL A   1      32.540  28.737  27.311  1.00  0.00     0.251 C 
ATOM      7  O   UNL A   1      31.401  28.553  27.845  1.00  0.00    -0.270 OA
ATOM      8  H   UNL A   1      33.185  30.285  28.639  1.00  0.00     0.163 HD
BRANCH   6   9
ATOM      9  C   UNL A   1      32.955  27.911  26.105  1.00  0.00     0.067 C 
ATOM     10  C   UNL A   1      33.602  25.504  22.752  1.00  0.00    -0.004 A 
ATOM     11  C   UNL A   1      34.351  24.347  22.867  1.00  0.00     0.032 A 
ATOM     12  C   UNL A   1      33.360  26.248  23.881  1.00  0.00     0.131 A 
ATOM     13  C   UNL A   1      34.841  23.943  24.081  1.00  0.00     0.108 A 
ATOM     14  C   UNL A   1      33.854  25.881  25.120  1.00  0.00     0.019 A 
ATOM     15  O   UNL A   1      32.522  27.331  23.771  1.00  0.00    -0.475 OA
ATOM     16  C   UNL A   1      34.599  24.712  25.202  1.00  0.00     0.036 A 
ATOM     17  C   UNL A   1      33.510  26.716  26.259  1.00  0.00     0.025 C 
ATOM     18  C   UNL A   1      32.742  28.437  24.691  1.00  0.00     0.314 C 
BRANCH  10  19
ATOM     19  C   UNL A   1      33.058  25.941  21.402  1.00  0.00     0.036 C 
ATOM     20  C   UNL A   1      32.903  24.728  20.500  1.00  0.00     0.009 C 
ENDBRANCH  10  19
BRANCH  13  21
ATOM     21  S   UNL A   1      35.799  22.413  24.215  1.00  0.00     0.310 S 
ATOM     22  F   UNL A   1      36.240  22.746  25.702  1.00  0.00    -0.094 F 
ATOM     23  F   UNL A   1      37.075  23.202  23.734  1.00  0.00    -0.094 F 
ATOM     24  F   UNL A   1      36.621  21.100  24.330  1.00  0.00    -0.094 F 
ATOM     25  F   UNL A   1      34.546  21.674  24.829  1.00  0.00    -0.094 F 
ATOM     26  F   UNL A   1      34.981  23.766  24.211  1.00  0.00    -0.094 F 
ENDBRANCH  13  21
BRANCH  18  27
ATOM     27  C   UNL A   1      31.523  29.345  24.678  1.00  0.00     0.429 C 
ATOM     28  F   UNL A   1      30.481  28.696  25.189  1.00  0.00    -0.167 F 
ATOM     29  F   UNL A   1      31.771  30.430  25.406  1.00  0.00    -0.167 F 
ATOM     30  F   UNL A   1      31.251  29.703  23.426  1.00  0.00    -0.167 F 
ENDBRANCH  18  27
ENDBRANCH   6   9
ENDBRANCH   4   5
ENDBRANCH   3   4
ENDBRANCH   2   3
ENDBRANCH   1   2
BRANCH   1  31
ATOM     31  C   UNL A   1      33.274  34.273  28.604  1.00  0.00     0.021 C 
BRANCH  31  32
ATOM     32  C   UNL A   1      33.524  35.701  29.059  1.00  0.00     0.116 C 
BRANCH  32  33
ATOM     33  N   UNL A   1      32.528  36.074  30.073  1.00  0.00    -0.352 N 
ATOM     34  C   UNL A   1      32.738  35.704  31.481  1.00  0.00     0.251 C 
ATOM     35  H   UNL A   1      31.720  36.571  29.810  1.00  0.00     0.163 HD
ATOM     36  O   UNL A   1      31.876  36.026  32.357  1.00  0.00    -0.269 OA
BRANCH  34  37
ATOM     37  C   UNL A   1      33.985  34.937  31.887  1.00  0.00     0.039 A 
ATOM     38  C   UNL A   1      35.218  35.566  31.842  1.00  0.00     0.014 A 
ATOM     39  C   UNL A   1      33.869  33.674  32.280  1.00  0.00     0.014 A 
ATOM     40  C   UNL A   1      36.317  34.681  31.956  1.00  0.00     0.010 A 
ATOM     41  C   UNL A   1      34.987  32.907  32.505  1.00  0.00     0.010 A 
ATOM     42  C   UNL A   1      36.240  33.447  32.419  1.00  0.00    -0.014 A 
BRANCH  42  43
ATOM     43  C   UNL A   1      37.478  32.669  32.836  1.00  0.00     0.031 A 
ATOM     44  C   UNL A   1      38.070  33.001  34.055  1.00  0.00     0.074 A 
ATOM     45  C   UNL A   1      37.948  31.679  31.990  1.00  0.00     0.049 A 
ATOM     46  N   UNL A   1      39.132  32.428  34.626  1.00  0.00    -0.248 NA
ATOM     47  C   UNL A   1      37.593  34.074  34.939  1.00  0.00     0.031 C 
ATOM     48  C   UNL A   1      37.351  31.334  30.761  1.00  0.00     0.029 A 
ATOM     49  N   UNL A   1      39.046  30.867  32.167  1.00  0.00    -0.354 N 
ATOM     50  C   UNL A   1      39.390  33.004  35.801  1.00  0.00     0.074 A 
ATOM     51  C   UNL A   1      38.408  34.075  36.017  1.00  0.00     0.031 C 
ATOM     52  C   UNL A   1      38.085  30.337  30.201  1.00  0.00     0.029 A 
ATOM     53  C   UNL A   1      39.152  30.041  31.070  1.00  0.00     0.049 A 
ATOM     54  H   UNL A   1      39.651  30.876  32.944  1.00  0.00     0.167 HD
ATOM     55  C   UNL A   1      40.405  32.678  36.702  1.00  0.00     0.037 A 
ATOM     56  C   UNL A   1      40.119  29.079  30.822  1.00  0.00     0.037 A 
ATOM     57  C   UNL A   1      41.345  31.686  36.474  1.00  0.00     0.049 A 
ATOM     58  C   UNL A   1      41.169  28.793  31.697  1.00  0.00     0.074 A 
ATOM     59  C   UNL A   1      42.371  31.340  37.376  1.00  0.00     0.029 A 
ATOM     60  N   UNL A   1      41.467  30.877  35.366  1.00  0.00    -0.354 N 
ATOM     61  N   UNL A   1      41.403  29.342  32.891  1.00  0.00    -0.248 NA
ATOM     62  C   UNL A   1      42.217  27.798  31.431  1.00  0.00     0.031 C 
ATOM     63  C   UNL A   1      43.105  30.342  36.815  1.00  0.00     0.029 A 
ATOM     64  C   UNL A   1      42.551  30.049  35.554  1.00  0.00     0.049 A 
ATOM     65  H   UNL A   1      40.879  30.889  34.576  1.00  0.00     0.167 HD
ATOM     66  C   UNL A   1      42.489  28.797  33.441  1.00  0.00     0.074 A 
ATOM     67  C   UNL A   1      43.033  27.802  32.507  1.00  0.00     0.031 C 
ATOM     68  C   UNL A   1      43.048  29.088  34.688  1.00  0.00     0.037 A 
BRANCH  55  69
ATOM     69  C   UNL A   1      40.482  33.453  38.007  1.00  0.00     0.064 A 
ATOM     70  C   UNL A   1      41.378  34.508  38.066  1.00  0.00     0.173 A 
ATOM     71  C   UNL A   1      39.655  33.195  39.013  1.00  0.00     0.173 A 
ATOM     72  F   UNL A   1      42.038  34.959  37.004  1.00  0.00    -0.203 F 
ATOM     73  C   UNL A   1      41.526  35.062  39.359  1.00  0.00     0.198 A 
ATOM     74  C   UNL A   1      39.770  33.870  40.205  1.00  0.00     0.198 A 
ATOM     75  F   UNL A   1      38.707  32.274  38.868  1.00  0.00    -0.203 F 
ATOM     76  F   UNL A   1      42.600  35.814  39.591  1.00  0.00    -0.200 F 
ATOM     77  C   UNL A   1      40.675  34.885  40.353  1.00  0.00     0.200 A 
ATOM     78  F   UNL A   1      38.991  33.533  41.228  1.00  0.00    -0.200 F 
ATOM     79  F   UNL A   1      40.696  35.652  41.439  1.00  0.00    -0.200 F 
ENDBRANCH  55  69
BRANCH  56  80
ATOM     80  C   UNL A   1      40.031  28.293  29.524  1.00  0.00     0.064 A 
ATOM     81  C   UNL A   1      39.394  27.064  29.498  1.00  0.00     0.173 A 
ATOM     82  C   UNL A   1      40.666  28.763  28.456  1.00  0.00     0.173 A 
ATOM     83  F   UNL A   1      38.543  26.668  30.441  1.00  0.00    -0.203 F 
ATOM     84  C   UNL A   1      39.729  26.267  28.378  1.00  0.00     0.198 A 
ATOM     85  C   UNL A   1      40.840  27.976  27.344  1.00  0.00     0.198 A 
ATOM     86  F   UNL A   1      41.138  30.006  28.464  1.00  0.00    -0.203 F 
ATOM     87  F   UNL A   1      39.465  24.966  28.442  1.00  0.00    -0.200 F 
ATOM     88  C   UNL A   1      40.287  26.727  27.272  1.00  0.00     0.200 A 
ATOM     89  F   UNL A   1      41.555  28.435  26.322  1.00  0.00    -0.200 F 
ATOM     90  F   UNL A   1      40.310  26.014  26.150  1.00  0.00    -0.200 F 
ENDBRANCH  56  80
BRANCH  68  91
ATOM     91  C   UNL A   1      44.274  28.302  35.121  1.00  0.00     0.064 A 
ATOM     92  C   UNL A   1      44.112  27.091  35.774  1.00  0.00     0.173 A 
ATOM     93  C   UNL A   1      45.482  28.790  34.865  1.00  0.00     0.173 A 
ATOM     94  F   UNL A   1      42.951  26.446  35.828  1.00  0.00    -0.203 F 
ATOM     95  C   UNL A   1      45.295  26.604  36.380  1.00  0.00     0.198 A 
ATOM     96  C   UNL A   1      46.605  28.185  35.377  1.00  0.00     0.198 A 
ATOM     97  F   UNL A   1      45.608  29.876  34.106  1.00  0.00    -0.203 F 
ATOM     98  F   UNL A   1      45.171  25.665  37.313  1.00  0.00    -0.200 F 
ATOM     99  C   UNL A   1      46.513  27.018  36.083  1.00  0.00     0.200 A 
ATOM    100  F   UNL A   1      47.797  28.742  35.183  1.00  0.00    -0.200 F 
ATOM    101  F   UNL A   1      47.594  26.335  36.452  1.00  0.00    -0.200 F 
ENDBRANCH  68  91
ENDBRANCH  42  43
ENDBRANCH  34  37
ENDBRANCH  32  33
ENDBRANCH  31  32
ENDBRANCH   1  31
TORSDOF 16
ENDMDL
