MODEL 1
REMARK VINA RESULT:     -11.5      0.000      0.000
REMARK SMILES COc1ccccc1C[N@@H+](C)[C@@H](C)c1ccc(C(=O)NCCCCCCNC(=O)c2ccc(-c3c4nc(c(-c5c(F)c(F)c(F)c(F)c5F)c5ccc([nH]5)c(-c5c(F)c(F)c(F)c(F)c5F)c5nc(c(-c6c(F)c(F)c(F)c(F)c6F)c6ccc3[nH]6)C=C5)C=C4)cc2)o1
REMARK SMILES IDX 22 1 21 2 20 3 18 4 19 5 17 7 14 8 15 9 93 10 16 11 12 12
REMARK SMILES IDX 13 13 10 14 11 15 9 17 8 18 3 19 4 20 5 21 7 22 6 23 2 24
REMARK SMILES IDX 1 25 23 26 24 27 25 28 26 29 27 30 28 31 29 33 30 34 31 35
REMARK SMILES IDX 92 36 32 37 91 38 33 39 34 40 35 41 85 42 36 43 90 44 84 45
REMARK SMILES IDX 86 46 37 47 89 48 83 49 82 50 38 52 70 53 50 54 69 55 51 56
REMARK SMILES IDX 54 57 68 58 87 59 52 60 53 61 67 63 88 64 55 65 39 66 40 67
REMARK SMILES IDX 48 68 41 69 42 70 46 71 49 72 43 73 44 74 47 75 45 76 71 77
REMARK SMILES IDX 72 78 80 79 73 80 74 81 78 82 81 83 75 84 76 85 79 86 77 87
REMARK SMILES IDX 56 88 57 89 65 90 58 91 59 92 63 93 66 94 60 95 61 96 64 97
REMARK SMILES IDX 62 98
REMARK H PARENT 20 6 10 16 27 32 86 51 54 62
REMARK Flexibility Score: inf
ROOT
ATOM      1  C   UNL A   1      30.570  29.631  24.078  1.00  0.00     0.021 C 
ENDROOT
BRANCH   1   2
ATOM      2  C   UNL A   1      30.954  29.253  22.648  1.00  0.00     0.116 C 
BRANCH   2   3
ATOM      3  N   UNL A   1      32.381  29.130  22.476  1.00  0.00    -0.349 N 
ATOM      4  C   UNL A   1      33.205  28.032  22.364  1.00  0.00     0.287 C 
ATOM      5  O   UNL A   1      34.363  28.302  22.028  1.00  0.00    -0.266 OA
ATOM      6  H   UNL A   1      32.854  29.992  22.431  1.00  0.00     0.163 HD
BRANCH   4   7
ATOM      7  C   UNL A   1      32.749  26.680  22.643  1.00  0.00     0.191 A 
ATOM      8  C   UNL A   1      31.678  25.205  23.924  1.00  0.00     0.161 A 
ATOM      9  C   UNL A   1      31.996  24.551  22.756  1.00  0.00     0.053 A 
ATOM     10  O   UNL A   1      32.216  26.460  23.897  1.00  0.00    -0.450 OA
ATOM     11  C   UNL A   1      32.636  25.500  21.927  1.00  0.00     0.057 A 
BRANCH   8  12
ATOM     12  C   UNL A   1      30.879  24.806  25.140  1.00  0.00     0.248 C 
ATOM     13  C   UNL A   1      30.774  25.985  26.127  1.00  0.00     0.084 C 
BRANCH  12  14
ATOM     14  N   UNL A   1      31.324  23.526  25.758  1.00  0.00    -0.325 N 
ATOM     15  C   UNL A   1      30.277  22.983  26.632  1.00  0.00     0.333 C 
ATOM     16  H   UNL A   1      31.500  22.914  24.962  1.00  0.00     0.348 HD
BRANCH  14  17
ATOM     17  C   UNL A   1      32.592  23.586  26.513  1.00  0.00     0.303 C 
BRANCH  17  18
ATOM     18  C   UNL A   1      33.853  23.342  25.716  1.00  0.00     0.048 A 
ATOM     19  C   UNL A   1      34.040  22.198  24.926  1.00  0.00     0.127 A 
ATOM     20  C   UNL A   1      35.251  21.968  24.263  1.00  0.00     0.047 A 
ATOM     21  C   UNL A   1      36.275  22.910  24.334  1.00  0.00     0.004 A 
ATOM     22  C   UNL A   1      34.895  24.285  25.764  1.00  0.00     0.013 A 
ATOM     23  C   UNL A   1      36.093  24.074  25.075  1.00  0.00     0.001 A 
BRANCH  19  24
ATOM     24  O   UNL A   1      33.086  21.216  24.851  1.00  0.00    -0.496 OA
ATOM     25  C   UNL A   1      33.696  19.926  24.891  1.00  0.00     0.278 C 
ENDBRANCH  19  24
ENDBRANCH  17  18
ENDBRANCH  14  17
ENDBRANCH  12  14
ENDBRANCH   8  12
ENDBRANCH   4   7
ENDBRANCH   2   3
ENDBRANCH   1   2
BRANCH   1  26
ATOM     26  C   UNL A   1      31.772  29.848  25.009  1.00  0.00     0.002 C 
BRANCH  26  27
ATOM     27  C   UNL A   1      31.433  30.400  26.400  1.00  0.00     0.002 C 
BRANCH  27  28
ATOM     28  C   UNL A   1      31.386  31.927  26.500  1.00  0.00     0.021 C 
BRANCH  28  29
ATOM     29  C   UNL A   1      32.645  32.552  27.083  1.00  0.00     0.116 C 
BRANCH  29  30
ATOM     30  N   UNL A   1      32.435  33.945  27.446  1.00  0.00    -0.352 N 
ATOM     31  C   UNL A   1      33.008  34.671  28.459  1.00  0.00     0.251 C 
ATOM     32  H   UNL A   1      31.791  34.435  26.887  1.00  0.00     0.163 HD
ATOM     33  O   UNL A   1      32.555  35.766  28.774  1.00  0.00    -0.269 OA
BRANCH  31  34
ATOM     34  C   UNL A   1      34.174  34.120  29.180  1.00  0.00     0.039 A 
ATOM     35  C   UNL A   1      33.963  33.280  30.276  1.00  0.00     0.014 A 
ATOM     36  C   UNL A   1      35.473  34.446  28.779  1.00  0.00     0.014 A 
ATOM     37  C   UNL A   1      35.058  32.724  30.939  1.00  0.00     0.010 A 
ATOM     38  C   UNL A   1      36.558  33.831  29.391  1.00  0.00     0.010 A 
ATOM     39  C   UNL A   1      36.364  32.973  30.486  1.00  0.00    -0.014 A 
BRANCH  39  40
ATOM     40  C   UNL A   1      37.547  32.376  31.153  1.00  0.00     0.031 A 
ATOM     41  C   UNL A   1      38.285  31.247  30.489  1.00  0.00     0.074 A 
ATOM     42  C   UNL A   1      37.909  32.794  32.380  1.00  0.00     0.049 A 
ATOM     43  N   UNL A   1      39.268  30.514  30.947  1.00  0.00    -0.248 NA
ATOM     44  C   UNL A   1      37.835  30.871  29.139  1.00  0.00     0.031 C 
ATOM     45  C   UNL A   1      37.250  33.857  33.140  1.00  0.00     0.029 A 
ATOM     46  N   UNL A   1      38.911  32.362  33.212  1.00  0.00    -0.354 N 
ATOM     47  C   UNL A   1      39.538  29.582  29.953  1.00  0.00     0.074 A 
ATOM     48  C   UNL A   1      38.579  29.803  28.893  1.00  0.00     0.031 C 
ATOM     49  C   UNL A   1      37.877  34.008  34.317  1.00  0.00     0.029 A 
ATOM     50  C   UNL A   1      38.952  33.024  34.415  1.00  0.00     0.049 A 
ATOM     51  H   UNL A   1      39.543  31.647  32.969  1.00  0.00     0.167 HD
ATOM     52  C   UNL A   1      40.514  28.643  29.917  1.00  0.00     0.037 A 
ATOM     53  C   UNL A   1      39.757  32.845  35.479  1.00  0.00     0.037 A 
ATOM     54  C   UNL A   1      41.478  28.445  30.967  1.00  0.00     0.049 A 
ATOM     55  C   UNL A   1      40.820  31.781  35.424  1.00  0.00     0.074 A 
ATOM     56  C   UNL A   1      42.539  27.556  31.007  1.00  0.00     0.029 A 
ATOM     57  N   UNL A   1      41.498  29.147  32.163  1.00  0.00    -0.354 N 
ATOM     58  N   UNL A   1      41.105  30.943  34.457  1.00  0.00    -0.248 NA
ATOM     59  C   UNL A   1      41.678  31.642  36.609  1.00  0.00     0.031 C 
ATOM     60  C   UNL A   1      43.167  27.683  32.250  1.00  0.00     0.029 A 
ATOM     61  C   UNL A   1      42.538  28.695  32.960  1.00  0.00     0.049 A 
ATOM     62  H   UNL A   1      40.866  29.861  32.411  1.00  0.00     0.167 HD
ATOM     63  C   UNL A   1      42.195  30.206  34.898  1.00  0.00     0.074 A 
ATOM     64  C   UNL A   1      42.526  30.701  36.218  1.00  0.00     0.031 C 
ATOM     65  C   UNL A   1      42.864  29.210  34.266  1.00  0.00     0.037 A 
BRANCH  52  66
ATOM     66  C   UNL A   1      40.581  27.758  28.706  1.00  0.00     0.064 A 
ATOM     67  C   UNL A   1      41.367  28.090  27.590  1.00  0.00     0.173 A 
ATOM     68  C   UNL A   1      39.869  26.551  28.666  1.00  0.00     0.173 A 
ATOM     69  F   UNL A   1      42.059  29.241  27.571  1.00  0.00    -0.203 F 
ATOM     70  C   UNL A   1      41.406  27.266  26.469  1.00  0.00     0.198 A 
ATOM     71  C   UNL A   1      39.940  25.711  27.557  1.00  0.00     0.198 A 
ATOM     72  F   UNL A   1      39.106  26.179  29.705  1.00  0.00    -0.203 F 
ATOM     73  F   UNL A   1      42.116  27.636  25.393  1.00  0.00    -0.200 F 
ATOM     74  C   UNL A   1      40.699  26.075  26.456  1.00  0.00     0.200 A 
ATOM     75  F   UNL A   1      39.267  24.552  27.552  1.00  0.00    -0.200 F 
ATOM     76  F   UNL A   1      40.743  25.280  25.378  1.00  0.00    -0.200 F 
ENDBRANCH  52  66
BRANCH  53  77
ATOM     77  C   UNL A   1      39.603  33.709  36.680  1.00  0.00     0.064 A 
ATOM     78  C   UNL A   1      38.771  33.322  37.740  1.00  0.00     0.173 A 
ATOM     79  C   UNL A   1      40.275  34.933  36.793  1.00  0.00     0.173 A 
ATOM     80  F   UNL A   1      38.091  32.168  37.671  1.00  0.00    -0.203 F 
ATOM     81  C   UNL A   1      38.600  34.138  38.857  1.00  0.00     0.198 A 
ATOM     82  C   UNL A   1      40.128  35.735  37.923  1.00  0.00     0.198 A 
ATOM     83  F   UNL A   1      41.088  35.348  35.810  1.00  0.00    -0.203 F 
ATOM     84  F   UNL A   1      37.761  33.765  39.833  1.00  0.00    -0.200 F 
ATOM     85  C   UNL A   1      39.283  35.340  38.950  1.00  0.00     0.200 A 
ATOM     86  F   UNL A   1      40.801  36.889  38.017  1.00  0.00    -0.200 F 
ATOM     87  F   UNL A   1      39.121  36.124  40.026  1.00  0.00    -0.200 F 
ENDBRANCH  53  77
BRANCH  65  88
ATOM     88  C   UNL A   1      44.055  28.622  34.967  1.00  0.00     0.064 A 
ATOM     89  C   UNL A   1      45.336  29.181  34.846  1.00  0.00     0.173 A 
ATOM     90  C   UNL A   1      43.900  27.512  35.811  1.00  0.00     0.173 A 
ATOM     91  F   UNL A   1      45.540  30.235  34.042  1.00  0.00    -0.203 F 
ATOM     92  C   UNL A   1      46.422  28.633  35.527  1.00  0.00     0.198 A 
ATOM     93  C   UNL A   1      44.980  26.988  36.515  1.00  0.00     0.198 A 
ATOM     94  F   UNL A   1      42.694  26.944  35.966  1.00  0.00    -0.203 F 
ATOM     95  F   UNL A   1      47.645  29.154  35.359  1.00  0.00    -0.200 F 
ATOM     96  C   UNL A   1      46.241  27.544  36.366  1.00  0.00     0.200 A 
ATOM     97  F   UNL A   1      44.800  25.947  37.338  1.00  0.00    -0.200 F 
ATOM     98  F   UNL A   1      47.285  27.027  37.028  1.00  0.00    -0.200 F 
ENDBRANCH  65  88
ENDBRANCH  39  40
ENDBRANCH  31  34
ENDBRANCH  29  30
ENDBRANCH  28  29
ENDBRANCH  27  28
ENDBRANCH  26  27
ENDBRANCH   1  26
TORSDOF 18
ENDMDL
MODEL 2
REMARK VINA RESULT:     -11.5      0.975      2.077
REMARK SMILES COc1ccccc1C[N@@H+](C)[C@@H](C)c1ccc(C(=O)NCCCCCCNC(=O)c2ccc(-c3c4nc(c(-c5c(F)c(F)c(F)c(F)c5F)c5ccc([nH]5)c(-c5c(F)c(F)c(F)c(F)c5F)c5nc(c(-c6c(F)c(F)c(F)c(F)c6F)c6ccc3[nH]6)C=C5)C=C4)cc2)o1
REMARK SMILES IDX 22 1 21 2 20 3 18 4 19 5 17 7 14 8 15 9 93 10 16 11 12 12
REMARK SMILES IDX 13 13 10 14 11 15 9 17 8 18 3 19 4 20 5 21 7 22 6 23 2 24
REMARK SMILES IDX 1 25 23 26 24 27 25 28 26 29 27 30 28 31 29 33 30 34 31 35
REMARK SMILES IDX 92 36 32 37 91 38 33 39 34 40 35 41 85 42 36 43 90 44 84 45
REMARK SMILES IDX 86 46 37 47 89 48 83 49 82 50 38 52 70 53 50 54 69 55 51 56
REMARK SMILES IDX 54 57 68 58 87 59 52 60 53 61 67 63 88 64 55 65 39 66 40 67
REMARK SMILES IDX 48 68 41 69 42 70 46 71 49 72 43 73 44 74 47 75 45 76 71 77
REMARK SMILES IDX 72 78 80 79 73 80 74 81 78 82 81 83 75 84 76 85 79 86 77 87
REMARK SMILES IDX 56 88 57 89 65 90 58 91 59 92 63 93 66 94 60 95 61 96 64 97
REMARK SMILES IDX 62 98
REMARK H PARENT 20 6 10 16 27 32 86 51 54 62
REMARK Flexibility Score: inf
ROOT
ATOM      1  C   UNL A   1      33.027  29.328  25.036  1.00  0.00     0.021 C 
ENDROOT
BRANCH   1   2
ATOM      2  C   UNL A   1      33.209  29.067  23.541  1.00  0.00     0.116 C 
BRANCH   2   3
ATOM      3  N   UNL A   1      31.950  28.938  22.849  1.00  0.00    -0.349 N 
ATOM      4  C   UNL A   1      31.289  27.845  22.333  1.00  0.00     0.287 C 
ATOM      5  O   UNL A   1      30.129  28.077  21.977  1.00  0.00    -0.266 OA
ATOM      6  H   UNL A   1      31.474  29.790  22.722  1.00  0.00     0.163 HD
BRANCH   4   7
ATOM      7  C   UNL A   1      31.919  26.541  22.201  1.00  0.00     0.191 A 
ATOM      8  C   UNL A   1      32.075  24.384  22.737  1.00  0.00     0.161 A 
ATOM      9  C   UNL A   1      32.936  24.589  21.683  1.00  0.00     0.053 A 
ATOM     10  O   UNL A   1      31.533  25.580  23.113  1.00  0.00    -0.450 OA
ATOM     11  C   UNL A   1      32.804  25.948  21.316  1.00  0.00     0.057 A 
BRANCH   8  12
ATOM     12  C   UNL A   1      31.646  23.147  23.486  1.00  0.00     0.248 C 
ATOM     13  C   UNL A   1      30.997  23.530  24.832  1.00  0.00     0.084 C 
BRANCH  12  14
ATOM     14  N   UNL A   1      32.709  22.108  23.591  1.00  0.00    -0.325 N 
ATOM     15  C   UNL A   1      32.216  20.815  23.103  1.00  0.00     0.333 C 
ATOM     16  H   UNL A   1      33.464  22.466  23.007  1.00  0.00     0.348 HD
BRANCH  14  17
ATOM     17  C   UNL A   1      33.291  21.921  24.936  1.00  0.00     0.303 C 
BRANCH  17  18
ATOM     18  C   UNL A   1      34.734  22.338  25.101  1.00  0.00     0.048 A 
ATOM     19  C   UNL A   1      35.111  23.515  25.764  1.00  0.00     0.127 A 
ATOM     20  C   UNL A   1      36.453  23.907  25.830  1.00  0.00     0.047 A 
ATOM     21  C   UNL A   1      37.446  23.098  25.284  1.00  0.00     0.004 A 
ATOM     22  C   UNL A   1      35.752  21.528  24.567  1.00  0.00     0.013 A 
ATOM     23  C   UNL A   1      37.096  21.901  24.663  1.00  0.00     0.001 A 
BRANCH  19  24
ATOM     24  O   UNL A   1      34.178  24.375  26.284  1.00  0.00    -0.496 OA
ATOM     25  C   UNL A   1      34.070  25.543  25.471  1.00  0.00     0.278 C 
ENDBRANCH  19  24
ENDBRANCH  17  18
ENDBRANCH  14  17
ENDBRANCH  12  14
ENDBRANCH   8  12
ENDBRANCH   4   7
ENDBRANCH   2   3
ENDBRANCH   1   2
BRANCH   1  26
ATOM     26  C   UNL A   1      31.681  29.972  25.397  1.00  0.00     0.002 C 
BRANCH  26  27
ATOM     27  C   UNL A   1      31.617  30.621  26.786  1.00  0.00     0.002 C 
BRANCH  27  28
ATOM     28  C   UNL A   1      31.483  32.146  26.786  1.00  0.00     0.021 C 
BRANCH  28  29
ATOM     29  C   UNL A   1      32.765  32.883  27.147  1.00  0.00     0.116 C 
BRANCH  29  30
ATOM     30  N   UNL A   1      32.496  34.242  27.591  1.00  0.00    -0.352 N 
ATOM     31  C   UNL A   1      33.014  34.921  28.665  1.00  0.00     0.251 C 
ATOM     32  H   UNL A   1      31.851  34.746  27.044  1.00  0.00     0.163 HD
ATOM     33  O   UNL A   1      32.514  35.977  29.034  1.00  0.00    -0.269 OA
BRANCH  31  34
ATOM     34  C   UNL A   1      34.178  34.364  29.385  1.00  0.00     0.039 A 
ATOM     35  C   UNL A   1      33.968  33.627  30.553  1.00  0.00     0.014 A 
ATOM     36  C   UNL A   1      35.475  34.582  28.911  1.00  0.00     0.014 A 
ATOM     37  C   UNL A   1      35.058  33.065  31.219  1.00  0.00     0.010 A 
ATOM     38  C   UNL A   1      36.550  33.957  29.531  1.00  0.00     0.010 A 
ATOM     39  C   UNL A   1      36.355  33.202  30.698  1.00  0.00    -0.014 A 
BRANCH  39  40
ATOM     40  C   UNL A   1      37.531  32.594  31.368  1.00  0.00     0.031 A 
ATOM     41  C   UNL A   1      38.249  31.446  30.714  1.00  0.00     0.074 A 
ATOM     42  C   UNL A   1      37.904  33.019  32.589  1.00  0.00     0.049 A 
ATOM     43  N   UNL A   1      39.222  30.703  31.176  1.00  0.00    -0.248 NA
ATOM     44  C   UNL A   1      37.789  31.062  29.370  1.00  0.00     0.031 C 
ATOM     45  C   UNL A   1      37.264  34.100  33.340  1.00  0.00     0.029 A 
ATOM     46  N   UNL A   1      38.902  32.581  33.422  1.00  0.00    -0.354 N 
ATOM     47  C   UNL A   1      39.475  29.756  30.192  1.00  0.00     0.074 A 
ATOM     48  C   UNL A   1      38.515  29.981  29.133  1.00  0.00     0.031 C 
ATOM     49  C   UNL A   1      37.897  34.254  34.514  1.00  0.00     0.029 A 
ATOM     50  C   UNL A   1      38.957  33.255  34.618  1.00  0.00     0.049 A 
ATOM     51  H   UNL A   1      39.522  31.854  33.185  1.00  0.00     0.167 HD
ATOM     52  C   UNL A   1      40.436  28.802  30.163  1.00  0.00     0.037 A 
ATOM     53  C   UNL A   1      39.763  33.075  35.682  1.00  0.00     0.037 A 
ATOM     54  C   UNL A   1      41.401  28.600  31.212  1.00  0.00     0.049 A 
ATOM     55  C   UNL A   1      40.809  31.994  35.634  1.00  0.00     0.074 A 
ATOM     56  C   UNL A   1      42.447  27.696  31.258  1.00  0.00     0.029 A 
ATOM     57  N   UNL A   1      41.435  29.315  32.400  1.00  0.00    -0.354 N 
ATOM     58  N   UNL A   1      41.078  31.142  34.675  1.00  0.00    -0.248 NA
ATOM     59  C   UNL A   1      41.670  31.855  36.818  1.00  0.00     0.031 C 
ATOM     60  C   UNL A   1      43.082  27.826  32.498  1.00  0.00     0.029 A 
ATOM     61  C   UNL A   1      42.471  28.856  33.198  1.00  0.00     0.049 A 
ATOM     62  H   UNL A   1      40.815  30.041  32.642  1.00  0.00     0.167 HD
ATOM     63  C   UNL A   1      42.158  30.393  35.121  1.00  0.00     0.074 A 
ATOM     64  C   UNL A   1      42.501  30.896  36.434  1.00  0.00     0.031 C 
ATOM     65  C   UNL A   1      42.810  29.380  34.498  1.00  0.00     0.037 A 
BRANCH  52  66
ATOM     66  C   UNL A   1      40.485  27.903  28.961  1.00  0.00     0.064 A 
ATOM     67  C   UNL A   1      39.733  26.719  28.893  1.00  0.00     0.173 A 
ATOM     68  C   UNL A   1      41.274  28.240  27.852  1.00  0.00     0.173 A 
ATOM     69  F   UNL A   1      38.970  26.342  29.932  1.00  0.00    -0.203 F 
ATOM     70  C   UNL A   1      39.801  25.889  27.777  1.00  0.00     0.198 A 
ATOM     71  C   UNL A   1      41.311  27.426  26.722  1.00  0.00     0.198 A 
ATOM     72  F   UNL A   1      42.008  29.363  27.858  1.00  0.00    -0.203 F 
ATOM     73  F   UNL A   1      39.121  24.733  27.762  1.00  0.00    -0.200 F 
ATOM     74  C   UNL A   1      40.584  26.246  26.691  1.00  0.00     0.200 A 
ATOM     75  F   UNL A   1      42.056  27.781  25.667  1.00  0.00    -0.200 F 
ATOM     76  F   UNL A   1      40.643  25.449  25.615  1.00  0.00    -0.200 F 
ENDBRANCH  52  66
BRANCH  53  77
ATOM     77  C   UNL A   1      39.627  33.954  36.874  1.00  0.00     0.064 A 
ATOM     78  C   UNL A   1      40.271  35.198  36.925  1.00  0.00     0.173 A 
ATOM     79  C   UNL A   1      38.858  33.572  37.982  1.00  0.00     0.173 A 
ATOM     80  F   UNL A   1      41.032  35.601  35.898  1.00  0.00    -0.203 F 
ATOM     81  C   UNL A   1      40.170  36.016  38.049  1.00  0.00     0.198 A 
ATOM     82  C   UNL A   1      38.734  34.403  39.094  1.00  0.00     0.198 A 
ATOM     83  F   UNL A   1      38.216  32.394  37.982  1.00  0.00    -0.203 F 
ATOM     84  F   UNL A   1      40.836  37.178  38.090  1.00  0.00    -0.200 F 
ATOM     85  C   UNL A   1      39.397  35.621  39.130  1.00  0.00     0.200 A 
ATOM     86  F   UNL A   1      37.973  34.024  40.129  1.00  0.00    -0.200 F 
ATOM     87  F   UNL A   1      39.298  36.408  40.210  1.00  0.00    -0.200 F 
ENDBRANCH  53  77
BRANCH  65  88
ATOM     88  C   UNL A   1      43.994  28.781  35.201  1.00  0.00     0.064 A 
ATOM     89  C   UNL A   1      45.291  29.284  35.026  1.00  0.00     0.173 A 
ATOM     90  C   UNL A   1      43.817  27.719  36.101  1.00  0.00     0.173 A 
ATOM     91  F   UNL A   1      45.516  30.289  34.167  1.00  0.00    -0.203 F 
ATOM     92  C   UNL A   1      46.371  28.728  35.709  1.00  0.00     0.198 A 
ATOM     93  C   UNL A   1      44.893  27.188  36.806  1.00  0.00     0.198 A 
ATOM     94  F   UNL A   1      42.595  27.206  36.310  1.00  0.00    -0.203 F 
ATOM     95  F   UNL A   1      47.609  29.193  35.491  1.00  0.00    -0.200 F 
ATOM     96  C   UNL A   1      46.170  27.689  36.604  1.00  0.00     0.200 A 
ATOM     97  F   UNL A   1      44.693  26.196  37.683  1.00  0.00    -0.200 F 
ATOM     98  F   UNL A   1      47.209  27.164  37.269  1.00  0.00    -0.200 F 
ENDBRANCH  65  88
ENDBRANCH  39  40
ENDBRANCH  31  34
ENDBRANCH  29  30
ENDBRANCH  28  29
ENDBRANCH  27  28
ENDBRANCH  26  27
ENDBRANCH   1  26
TORSDOF 18
ENDMDL
MODEL 3
REMARK VINA RESULT:     -11.2      2.069      3.725
REMARK SMILES COc1ccccc1C[N@@H+](C)[C@@H](C)c1ccc(C(=O)NCCCCCCNC(=O)c2ccc(-c3c4nc(c(-c5c(F)c(F)c(F)c(F)c5F)c5ccc([nH]5)c(-c5c(F)c(F)c(F)c(F)c5F)c5nc(c(-c6c(F)c(F)c(F)c(F)c6F)c6ccc3[nH]6)C=C5)C=C4)cc2)o1
REMARK SMILES IDX 22 1 21 2 20 3 18 4 19 5 17 7 14 8 15 9 93 10 16 11 12 12
REMARK SMILES IDX 13 13 10 14 11 15 9 17 8 18 3 19 4 20 5 21 7 22 6 23 2 24
REMARK SMILES IDX 1 25 23 26 24 27 25 28 26 29 27 30 28 31 29 33 30 34 31 35
REMARK SMILES IDX 92 36 32 37 91 38 33 39 34 40 35 41 85 42 36 43 90 44 84 45
REMARK SMILES IDX 86 46 37 47 89 48 83 49 82 50 38 52 70 53 50 54 69 55 51 56
REMARK SMILES IDX 54 57 68 58 87 59 52 60 53 61 67 63 88 64 55 65 39 66 40 67
REMARK SMILES IDX 48 68 41 69 42 70 46 71 49 72 43 73 44 74 47 75 45 76 71 77
REMARK SMILES IDX 72 78 80 79 73 80 74 81 78 82 81 83 75 84 76 85 79 86 77 87
REMARK SMILES IDX 56 88 57 89 65 90 58 91 59 92 63 93 66 94 60 95 61 96 64 97
REMARK SMILES IDX 62 98
REMARK H PARENT 20 6 10 16 27 32 86 51 54 62
REMARK Flexibility Score: inf
ROOT
ATOM      1  C   UNL A   1      34.713  24.694  25.743  1.00  0.00     0.021 C 
ENDROOT
BRANCH   1   2
ATOM      2  C   UNL A   1      35.743  24.076  24.798  1.00  0.00     0.116 C 
BRANCH   2   3
ATOM      3  N   UNL A   1      36.916  23.608  25.495  1.00  0.00    -0.349 N 
ATOM      4  C   UNL A   1      37.423  22.343  25.702  1.00  0.00     0.287 C 
ATOM      5  O   UNL A   1      38.562  22.327  26.179  1.00  0.00    -0.266 OA
ATOM      6  H   UNL A   1      37.456  24.326  25.897  1.00  0.00     0.163 HD
BRANCH   4   7
ATOM      7  C   UNL A   1      36.665  21.139  25.403  1.00  0.00     0.191 A 
ATOM      8  C   UNL A   1      34.736  20.036  25.238  1.00  0.00     0.161 A 
ATOM      9  C   UNL A   1      35.704  19.215  24.705  1.00  0.00     0.053 A 
ATOM     10  O   UNL A   1      35.328  21.156  25.747  1.00  0.00    -0.450 OA
ATOM     11  C   UNL A   1      36.919  19.934  24.770  1.00  0.00     0.057 A 
BRANCH   8  12
ATOM     12  C   UNL A   1      33.235  19.924  25.335  1.00  0.00     0.248 C 
ATOM     13  C   UNL A   1      32.819  18.457  25.568  1.00  0.00     0.084 C 
BRANCH  12  14
ATOM     14  N   UNL A   1      32.508  20.599  24.224  1.00  0.00    -0.325 N 
ATOM     15  C   UNL A   1      32.200  19.644  23.153  1.00  0.00     0.333 C 
ATOM     16  H   UNL A   1      31.659  20.955  24.664  1.00  0.00     0.348 HD
BRANCH  14  17
ATOM     17  C   UNL A   1      33.184  21.774  23.637  1.00  0.00     0.303 C 
BRANCH  17  18
ATOM     18  C   UNL A   1      32.369  23.045  23.568  1.00  0.00     0.048 A 
ATOM     19  C   UNL A   1      31.379  23.362  24.509  1.00  0.00     0.127 A 
ATOM     20  C   UNL A   1      30.592  24.510  24.369  1.00  0.00     0.047 A 
ATOM     21  C   UNL A   1      30.823  25.393  23.317  1.00  0.00     0.004 A 
ATOM     22  C   UNL A   1      32.595  23.954  22.519  1.00  0.00     0.013 A 
ATOM     23  C   UNL A   1      31.833  25.121  22.398  1.00  0.00     0.001 A 
BRANCH  19  24
ATOM     24  O   UNL A   1      31.075  22.514  25.543  1.00  0.00    -0.496 OA
ATOM     25  C   UNL A   1      31.413  23.113  26.794  1.00  0.00     0.278 C 
ENDBRANCH  19  24
ENDBRANCH  17  18
ENDBRANCH  14  17
ENDBRANCH  12  14
ENDBRANCH   8  12
ENDBRANCH   4   7
ENDBRANCH   2   3
ENDBRANCH   1   2
BRANCH   1  26
ATOM     26  C   UNL A   1      34.160  26.045  25.265  1.00  0.00     0.002 C 
BRANCH  26  27
ATOM     27  C   UNL A   1      33.041  26.638  26.130  1.00  0.00     0.002 C 
BRANCH  27  28
ATOM     28  C   UNL A   1      32.434  27.942  25.606  1.00  0.00     0.021 C 
BRANCH  28  29
ATOM     29  C   UNL A   1      33.445  29.061  25.400  1.00  0.00     0.116 C 
BRANCH  29  30
ATOM     30  N   UNL A   1      32.910  30.350  25.808  1.00  0.00    -0.352 N 
ATOM     31  C   UNL A   1      33.285  31.150  26.858  1.00  0.00     0.251 C 
ATOM     32  H   UNL A   1      32.175  30.697  25.253  1.00  0.00     0.163 HD
ATOM     33  O   UNL A   1      32.584  32.095  27.201  1.00  0.00    -0.269 OA
BRANCH  31  34
ATOM     34  C   UNL A   1      34.540  30.860  27.582  1.00  0.00     0.039 A 
ATOM     35  C   UNL A   1      35.496  31.869  27.719  1.00  0.00     0.014 A 
ATOM     36  C   UNL A   1      34.773  29.588  28.112  1.00  0.00     0.014 A 
ATOM     37  C   UNL A   1      36.668  31.615  28.434  1.00  0.00     0.010 A 
ATOM     38  C   UNL A   1      35.903  29.361  28.889  1.00  0.00     0.010 A 
ATOM     39  C   UNL A   1      36.868  30.368  29.047  1.00  0.00    -0.014 A 
BRANCH  39  40
ATOM     40  C   UNL A   1      38.091  30.077  29.836  1.00  0.00     0.031 A 
ATOM     41  C   UNL A   1      39.127  29.139  29.283  1.00  0.00     0.074 A 
ATOM     42  C   UNL A   1      38.232  30.593  31.072  1.00  0.00     0.049 A 
ATOM     43  N   UNL A   1      40.207  28.665  29.852  1.00  0.00    -0.248 NA
ATOM     44  C   UNL A   1      38.902  28.641  27.917  1.00  0.00     0.031 C 
ATOM     45  C   UNL A   1      37.279  31.487  31.730  1.00  0.00     0.029 A 
ATOM     46  N   UNL A   1      39.226  30.423  32.002  1.00  0.00    -0.354 N 
ATOM     47  C   UNL A   1      40.775  27.803  28.924  1.00  0.00     0.074 A 
ATOM     48  C   UNL A   1      39.892  27.772  27.778  1.00  0.00     0.031 C 
ATOM     49  C   UNL A   1      37.743  31.803  32.949  1.00  0.00     0.029 A 
ATOM     50  C   UNL A   1      39.003  31.100  33.176  1.00  0.00     0.049 A 
ATOM     51  H   UNL A   1      40.026  29.871  31.843  1.00  0.00     0.167 HD
ATOM     52  C   UNL A   1      41.941  27.117  29.009  1.00  0.00     0.037 A 
ATOM     53  C   UNL A   1      39.726  31.135  34.312  1.00  0.00     0.037 A 
ATOM     54  C   UNL A   1      42.824  27.171  30.144  1.00  0.00     0.049 A 
ATOM     55  C   UNL A   1      41.007  30.348  34.389  1.00  0.00     0.074 A 
ATOM     56  C   UNL A   1      44.053  26.556  30.309  1.00  0.00     0.029 A 
ATOM     57  N   UNL A   1      42.571  27.882  31.308  1.00  0.00    -0.354 N 
ATOM     58  N   UNL A   1      41.565  29.581  33.485  1.00  0.00    -0.248 NA
ATOM     59  C   UNL A   1      41.761  30.437  35.648  1.00  0.00     0.031 C 
ATOM     60  C   UNL A   1      44.518  26.850  31.595  1.00  0.00     0.029 A 
ATOM     61  C   UNL A   1      43.610  27.701  32.207  1.00  0.00     0.049 A 
ATOM     62  H   UNL A   1      41.772  28.433  31.472  1.00  0.00     0.167 HD
ATOM     63  C   UNL A   1      42.751  29.128  34.047  1.00  0.00     0.074 A 
ATOM     64  C   UNL A   1      42.836  29.712  35.368  1.00  0.00     0.031 C 
ATOM     65  C   UNL A   1      43.687  28.304  33.514  1.00  0.00     0.037 A 
BRANCH  52  66
ATOM     66  C   UNL A   1      42.321  26.249  27.844  1.00  0.00     0.064 A 
ATOM     67  C   UNL A   1      43.211  26.691  26.852  1.00  0.00     0.173 A 
ATOM     68  C   UNL A   1      41.808  24.949  27.728  1.00  0.00     0.173 A 
ATOM     69  F   UNL A   1      43.722  27.931  26.908  1.00  0.00    -0.203 F 
ATOM     70  C   UNL A   1      43.542  25.879  25.771  1.00  0.00     0.198 A 
ATOM     71  C   UNL A   1      42.170  24.126  26.664  1.00  0.00     0.198 A 
ATOM     72  F   UNL A   1      40.958  24.471  28.650  1.00  0.00    -0.203 F 
ATOM     73  F   UNL A   1      44.346  26.347  24.806  1.00  0.00    -0.200 F 
ATOM     74  C   UNL A   1      43.027  24.595  25.681  1.00  0.00     0.200 A 
ATOM     75  F   UNL A   1      41.683  22.879  26.588  1.00  0.00    -0.200 F 
ATOM     76  F   UNL A   1      43.352  23.813  24.643  1.00  0.00    -0.200 F 
ENDBRANCH  52  66
BRANCH  53  77
ATOM     77  C   UNL A   1      39.267  31.962  35.459  1.00  0.00     0.064 A 
ATOM     78  C   UNL A   1      38.457  31.412  36.462  1.00  0.00     0.173 A 
ATOM     79  C   UNL A   1      39.622  33.314  35.577  1.00  0.00     0.173 A 
ATOM     80  F   UNL A   1      38.075  30.129  36.385  1.00  0.00    -0.203 F 
ATOM     81  C   UNL A   1      38.000  32.187  37.527  1.00  0.00     0.198 A 
ATOM     82  C   UNL A   1      39.190  34.081  36.657  1.00  0.00     0.198 A 
ATOM     83  F   UNL A   1      40.400  33.888  34.648  1.00  0.00    -0.203 F 
ATOM     84  F   UNL A   1      37.187  31.647  38.444  1.00  0.00    -0.200 F 
ATOM     85  C   UNL A   1      38.372  33.518  37.626  1.00  0.00     0.200 A 
ATOM     86  F   UNL A   1      39.564  35.363  36.758  1.00  0.00    -0.200 F 
ATOM     87  F   UNL A   1      37.935  34.264  38.651  1.00  0.00    -0.200 F 
ENDBRANCH  53  77
BRANCH  65  88
ATOM     88  C   UNL A   1      44.912  28.025  34.337  1.00  0.00     0.064 A 
ATOM     89  C   UNL A   1      46.040  28.857  34.292  1.00  0.00     0.173 A 
ATOM     90  C   UNL A   1      44.936  26.933  35.219  1.00  0.00     0.173 A 
ATOM     91  F   UNL A   1      46.073  29.905  33.456  1.00  0.00    -0.203 F 
ATOM     92  C   UNL A   1      47.155  28.592  35.084  1.00  0.00     0.198 A 
ATOM     93  C   UNL A   1      46.038  26.691  36.032  1.00  0.00     0.198 A 
ATOM     94  F   UNL A   1      43.880  26.110  35.305  1.00  0.00    -0.203 F 
ATOM     95  F   UNL A   1      48.241  29.373  34.990  1.00  0.00    -0.200 F 
ATOM     96  C   UNL A   1      47.150  27.516  35.958  1.00  0.00     0.200 A 
ATOM     97  F   UNL A   1      46.024  25.661  36.889  1.00  0.00    -0.200 F 
ATOM     98  F   UNL A   1      48.220  27.271  36.727  1.00  0.00    -0.200 F 
ENDBRANCH  65  88
ENDBRANCH  39  40
ENDBRANCH  31  34
ENDBRANCH  29  30
ENDBRANCH  28  29
ENDBRANCH  27  28
ENDBRANCH  26  27
ENDBRANCH   1  26
TORSDOF 18
ENDMDL
