MODEL 1
REMARK VINA RESULT:     -12.6      0.000      0.000
REMARK SMILES O=C(CCN/C(=[NH+]\S(=O)(=O)c1ccccc1)c1ccccc1)NCCCCCCNC(=O)c1ccc(-c2c3nc(c(-c4c(F)c(F)c(F)c(F)c4F)c4ccc([nH]4)c(-c4c(F)c(F)c(F)c(F)c4F)c4nc(c(-c5c(F)c(F)c(F)c(F)c5F)c5ccc2[nH]5)C=C4)C=C3)cc1
REMARK SMILES IDX 25 1 24 2 23 3 1 4 2 5 3 7 4 8 5 9 6 10 7 12 17 14 18 15
REMARK SMILES IDX 22 16 19 17 21 18 20 19 8 20 9 21 10 22 11 23 12 24 16 25
REMARK SMILES IDX 13 26 15 27 14 28 26 29 27 30 28 31 29 32 30 33 31 34 32 36
REMARK SMILES IDX 33 37 34 38 95 39 35 40 94 41 36 42 37 43 38 44 88 45 39 46
REMARK SMILES IDX 93 47 87 48 89 49 40 50 92 51 86 52 85 53 41 55 73 56 53 57
REMARK SMILES IDX 72 58 54 59 57 60 71 61 90 62 55 63 56 64 70 66 91 67 58 68
REMARK SMILES IDX 42 69 43 70 51 71 44 72 45 73 49 74 52 75 46 76 47 77 50 78
REMARK SMILES IDX 48 79 74 80 75 81 83 82 76 83 77 84 81 85 84 86 78 87 79 88
REMARK SMILES IDX 82 89 80 90 59 91 60 92 68 93 61 94 62 95 66 96 69 97 63 98
REMARK SMILES IDX 64 99 67 100 65 101
REMARK H PARENT 23 6 5 11 7 13 30 35 89 54 57 65
REMARK Flexibility Score: inf
ROOT
ATOM      1  C   UNL A   1      35.879  32.032  27.925  1.00  0.00     0.021 C 
ENDROOT
BRANCH   1   2
ATOM      2  C   UNL A   1      34.846  30.911  28.025  1.00  0.00     0.116 C 
BRANCH   2   3
ATOM      3  N   UNL A   1      34.180  30.663  26.762  1.00  0.00    -0.356 N 
ATOM      4  O   UNL A   1      32.928  28.878  27.484  1.00  0.00    -0.275 OA
ATOM      5  C   UNL A   1      33.269  29.649  26.594  1.00  0.00     0.223 C 
ATOM      6  H   UNL A   1      34.389  31.243  25.994  1.00  0.00     0.163 HD
BRANCH   5   7
ATOM      7  C   UNL A   1      32.678  29.576  25.208  1.00  0.00     0.145 C 
BRANCH   7   8
ATOM      8  C   UNL A   1      32.182  28.166  24.917  1.00  0.00     0.243 C 
BRANCH   8   9
ATOM      9  N   UNL A   1      32.404  27.797  23.525  1.00  0.00    -0.273 N 
ATOM     10  C   UNL A   1      31.465  27.620  22.524  1.00  0.00     0.290 C 
ATOM     11  H   UNL A   1      33.343  27.655  23.263  1.00  0.00     0.305 HD
ATOM     12  N   UNL A   1      31.600  26.863  21.475  1.00  0.00    -0.162 N 
ATOM     13  H   UNL A   1      30.931  26.888  20.754  1.00  0.00     0.327 HD
BRANCH  10  14
ATOM     14  C   UNL A   1      30.168  28.356  22.613  1.00  0.00     0.064 A 
ATOM     15  C   UNL A   1      30.076  29.651  22.096  1.00  0.00     0.016 A 
ATOM     16  C   UNL A   1      29.047  27.740  23.181  1.00  0.00     0.016 A 
ATOM     17  C   UNL A   1      28.849  30.315  22.112  1.00  0.00     0.001 A 
ATOM     18  C   UNL A   1      27.821  28.405  23.187  1.00  0.00     0.001 A 
ATOM     19  C   UNL A   1      27.723  29.688  22.647  1.00  0.00     0.000 A 
ENDBRANCH  10  14
BRANCH  12  20
ATOM     20  S   UNL A   1      32.877  25.881  21.368  1.00  0.00     0.328 S 
ATOM     21  O   UNL A   1      32.926  25.293  20.041  1.00  0.00    -0.179 OA
ATOM     22  O   UNL A   1      34.027  26.625  21.853  1.00  0.00    -0.179 OA
BRANCH  20  23
ATOM     23  C   UNL A   1      32.613  24.528  22.492  1.00  0.00     0.109 A 
ATOM     24  C   UNL A   1      33.652  23.619  22.734  1.00  0.00     0.024 A 
ATOM     25  C   UNL A   1      31.346  24.322  23.044  1.00  0.00     0.024 A 
ATOM     26  C   UNL A   1      33.410  22.479  23.500  1.00  0.00     0.001 A 
ATOM     27  C   UNL A   1      31.117  23.184  23.822  1.00  0.00     0.001 A 
ATOM     28  C   UNL A   1      32.144  22.261  24.040  1.00  0.00     0.000 A 
ENDBRANCH  20  23
ENDBRANCH  12  20
ENDBRANCH   8   9
ENDBRANCH   7   8
ENDBRANCH   5   7
ENDBRANCH   2   3
ENDBRANCH   1   2
BRANCH   1  29
ATOM     29  C   UNL A   1      35.318  33.444  28.110  1.00  0.00     0.002 C 
BRANCH  29  30
ATOM     30  C   UNL A   1      34.294  33.587  29.238  1.00  0.00     0.002 C 
BRANCH  30  31
ATOM     31  C   UNL A   1      33.155  34.564  28.975  1.00  0.00     0.021 C 
BRANCH  31  32
ATOM     32  C   UNL A   1      33.375  35.950  29.562  1.00  0.00     0.116 C 
BRANCH  32  33
ATOM     33  N   UNL A   1      32.463  36.264  30.652  1.00  0.00    -0.352 N 
ATOM     34  C   UNL A   1      32.547  35.898  31.973  1.00  0.00     0.251 C 
ATOM     35  H   UNL A   1      31.680  36.812  30.410  1.00  0.00     0.163 HD
ATOM     36  O   UNL A   1      31.637  36.152  32.753  1.00  0.00    -0.269 OA
BRANCH  34  37
ATOM     37  C   UNL A   1      33.738  35.157  32.437  1.00  0.00     0.039 A 
ATOM     38  C   UNL A   1      33.585  33.840  32.879  1.00  0.00     0.014 A 
ATOM     39  C   UNL A   1      35.004  35.750  32.412  1.00  0.00     0.014 A 
ATOM     40  C   UNL A   1      34.710  33.098  33.243  1.00  0.00     0.010 A 
ATOM     41  C   UNL A   1      36.129  34.989  32.705  1.00  0.00     0.010 A 
ATOM     42  C   UNL A   1      35.992  33.658  33.131  1.00  0.00    -0.014 A 
BRANCH  42  43
ATOM     43  C   UNL A   1      37.206  32.888  33.492  1.00  0.00     0.031 A 
ATOM     44  C   UNL A   1      37.919  33.187  34.781  1.00  0.00     0.074 A 
ATOM     45  C   UNL A   1      37.702  31.974  32.638  1.00  0.00     0.049 A 
ATOM     46  N   UNL A   1      39.049  32.708  35.235  1.00  0.00    -0.248 NA
ATOM     47  C   UNL A   1      37.290  34.182  35.665  1.00  0.00     0.031 C 
ATOM     48  C   UNL A   1      37.129  31.631  31.335  1.00  0.00     0.029 A 
ATOM     49  N   UNL A   1      38.813  31.174  32.732  1.00  0.00    -0.354 N 
ATOM     50  C   UNL A   1      39.273  33.354  36.443  1.00  0.00     0.074 A 
ATOM     51  C   UNL A   1      38.190  34.295  36.630  1.00  0.00     0.031 C 
ATOM     52  C   UNL A   1      37.886  30.682  30.757  1.00  0.00     0.029 A 
ATOM     53  C   UNL A   1      39.010  30.372  31.635  1.00  0.00     0.049 A 
ATOM     54  H   UNL A   1      39.414  31.177  33.513  1.00  0.00     0.167 HD
ATOM     55  C   UNL A   1      40.278  33.163  37.329  1.00  0.00     0.037 A 
ATOM     56  C   UNL A   1      39.990  29.487  31.372  1.00  0.00     0.037 A 
ATOM     57  C   UNL A   1      41.338  32.206  37.157  1.00  0.00     0.049 A 
ATOM     58  C   UNL A   1      41.071  29.262  32.395  1.00  0.00     0.074 A 
ATOM     59  C   UNL A   1      42.400  31.929  38.000  1.00  0.00     0.029 A 
ATOM     60  N   UNL A   1      41.456  31.355  36.069  1.00  0.00    -0.354 N 
ATOM     61  N   UNL A   1      41.254  29.856  33.549  1.00  0.00    -0.248 NA
ATOM     62  C   UNL A   1      42.072  28.231  32.087  1.00  0.00     0.031 C 
ATOM     63  C   UNL A   1      43.169  30.916  37.415  1.00  0.00     0.029 A 
ATOM     64  C   UNL A   1      42.566  30.542  36.225  1.00  0.00     0.049 A 
ATOM     65  H   UNL A   1      40.842  31.332  35.299  1.00  0.00     0.167 HD
ATOM     66  C   UNL A   1      42.367  29.251  34.117  1.00  0.00     0.074 A 
ATOM     67  C   UNL A   1      42.811  28.235  33.186  1.00  0.00     0.031 C 
ATOM     68  C   UNL A   1      42.969  29.515  35.302  1.00  0.00     0.037 A 
BRANCH  55  69
ATOM     69  C   UNL A   1      40.265  33.993  38.577  1.00  0.00     0.064 A 
ATOM     70  C   UNL A   1      40.958  35.211  38.648  1.00  0.00     0.173 A 
ATOM     71  C   UNL A   1      39.530  33.587  39.701  1.00  0.00     0.173 A 
ATOM     72  F   UNL A   1      41.688  35.634  37.605  1.00  0.00    -0.203 F 
ATOM     73  C   UNL A   1      40.933  35.983  39.806  1.00  0.00     0.198 A 
ATOM     74  C   UNL A   1      39.487  34.375  40.849  1.00  0.00     0.198 A 
ATOM     75  F   UNL A   1      38.849  32.432  39.684  1.00  0.00    -0.203 F 
ATOM     76  F   UNL A   1      41.638  37.121  39.865  1.00  0.00    -0.200 F 
ATOM     77  C   UNL A   1      40.193  35.568  40.903  1.00  0.00     0.200 A 
ATOM     78  F   UNL A   1      38.763  33.978  41.905  1.00  0.00    -0.200 F 
ATOM     79  F   UNL A   1      40.165  36.315  42.015  1.00  0.00    -0.200 F 
ENDBRANCH  55  69
BRANCH  56  80
ATOM     80  C   UNL A   1      39.981  28.721  30.100  1.00  0.00     0.064 A 
ATOM     81  C   UNL A   1      39.375  27.459  30.027  1.00  0.00     0.173 A 
ATOM     82  C   UNL A   1      40.594  29.220  28.942  1.00  0.00     0.173 A 
ATOM     83  F   UNL A   1      38.794  26.932  31.114  1.00  0.00    -0.203 F 
ATOM     84  C   UNL A   1      39.407  26.711  28.852  1.00  0.00     0.198 A 
ATOM     85  C   UNL A   1      40.604  28.482  27.760  1.00  0.00     0.198 A 
ATOM     86  F   UNL A   1      41.182  30.424  28.961  1.00  0.00    -0.203 F 
ATOM     87  F   UNL A   1      38.866  25.486  28.824  1.00  0.00    -0.200 F 
ATOM     88  C   UNL A   1      40.020  27.225  27.718  1.00  0.00     0.200 A 
ATOM     89  F   UNL A   1      41.187  28.986  26.664  1.00  0.00    -0.200 F 
ATOM     90  F   UNL A   1      40.056  26.504  26.590  1.00  0.00    -0.200 F 
ENDBRANCH  56  80
BRANCH  68  91
ATOM     91  C   UNL A   1      44.133  28.653  35.686  1.00  0.00     0.064 A 
ATOM     92  C   UNL A   1      43.966  27.485  36.444  1.00  0.00     0.173 A 
ATOM     93  C   UNL A   1      45.426  28.982  35.254  1.00  0.00     0.173 A 
ATOM     94  F   UNL A   1      42.749  27.138  36.889  1.00  0.00    -0.203 F 
ATOM     95  C   UNL A   1      45.059  26.690  36.776  1.00  0.00     0.198 A 
ATOM     96  C   UNL A   1      46.513  28.171  35.569  1.00  0.00     0.198 A 
ATOM     97  F   UNL A   1      45.634  30.087  34.522  1.00  0.00    -0.203 F 
ATOM     98  F   UNL A   1      44.884  25.599  37.536  1.00  0.00    -0.200 F 
ATOM     99  C   UNL A   1      46.329  27.030  36.335  1.00  0.00     0.200 A 
ATOM    100  F   UNL A   1      47.738  28.496  35.135  1.00  0.00    -0.200 F 
ATOM    101  F   UNL A   1      47.379  26.260  36.655  1.00  0.00    -0.200 F 
ENDBRANCH  68  91
ENDBRANCH  42  43
ENDBRANCH  34  37
ENDBRANCH  32  33
ENDBRANCH  31  32
ENDBRANCH  30  31
ENDBRANCH  29  30
ENDBRANCH   1  29
TORSDOF 18
ENDMDL
MODEL 2
REMARK VINA RESULT:     -12.3      0.520      1.778
REMARK SMILES O=C(CCN/C(=[NH+]\S(=O)(=O)c1ccccc1)c1ccccc1)NCCCCCCNC(=O)c1ccc(-c2c3nc(c(-c4c(F)c(F)c(F)c(F)c4F)c4ccc([nH]4)c(-c4c(F)c(F)c(F)c(F)c4F)c4nc(c(-c5c(F)c(F)c(F)c(F)c5F)c5ccc2[nH]5)C=C4)C=C3)cc1
REMARK SMILES IDX 25 1 24 2 23 3 1 4 2 5 3 7 4 8 5 9 6 10 7 12 17 14 18 15
REMARK SMILES IDX 22 16 19 17 21 18 20 19 8 20 9 21 10 22 11 23 12 24 16 25
REMARK SMILES IDX 13 26 15 27 14 28 26 29 27 30 28 31 29 32 30 33 31 34 32 36
REMARK SMILES IDX 33 37 34 38 95 39 35 40 94 41 36 42 37 43 38 44 88 45 39 46
REMARK SMILES IDX 93 47 87 48 89 49 40 50 92 51 86 52 85 53 41 55 73 56 53 57
REMARK SMILES IDX 72 58 54 59 57 60 71 61 90 62 55 63 56 64 70 66 91 67 58 68
REMARK SMILES IDX 42 69 43 70 51 71 44 72 45 73 49 74 52 75 46 76 47 77 50 78
REMARK SMILES IDX 48 79 74 80 75 81 83 82 76 83 77 84 81 85 84 86 78 87 79 88
REMARK SMILES IDX 82 89 80 90 59 91 60 92 68 93 61 94 62 95 66 96 69 97 63 98
REMARK SMILES IDX 64 99 67 100 65 101
REMARK H PARENT 23 6 5 11 7 13 30 35 89 54 57 65
REMARK Flexibility Score: inf
ROOT
ATOM      1  C   UNL A   1      34.395  32.287  29.016  1.00  0.00     0.021 C 
ENDROOT
BRANCH   1   2
ATOM      2  C   UNL A   1      34.577  31.163  27.997  1.00  0.00     0.116 C 
BRANCH   2   3
ATOM      3  N   UNL A   1      33.378  30.930  27.217  1.00  0.00    -0.356 N 
ATOM      4  O   UNL A   1      34.192  29.135  26.037  1.00  0.00    -0.275 OA
ATOM      5  C   UNL A   1      33.288  29.925  26.285  1.00  0.00     0.223 C 
ATOM      6  H   UNL A   1      32.598  31.514  27.359  1.00  0.00     0.163 HD
BRANCH   5   7
ATOM      7  C   UNL A   1      31.947  29.842  25.597  1.00  0.00     0.145 C 
BRANCH   7   8
ATOM      8  C   UNL A   1      31.634  28.401  25.220  1.00  0.00     0.243 C 
BRANCH   8   9
ATOM      9  N   UNL A   1      32.080  28.091  23.868  1.00  0.00    -0.273 N 
ATOM     10  C   UNL A   1      31.314  27.931  22.727  1.00  0.00     0.290 C 
ATOM     11  H   UNL A   1      33.053  27.983  23.752  1.00  0.00     0.305 HD
ATOM     12  N   UNL A   1      31.634  27.219  21.686  1.00  0.00    -0.162 N 
ATOM     13  H   UNL A   1      31.085  27.256  20.871  1.00  0.00     0.327 HD
BRANCH  10  14
ATOM     14  C   UNL A   1      29.998  28.631  22.637  1.00  0.00     0.064 A 
ATOM     15  C   UNL A   1      28.850  28.003  23.130  1.00  0.00     0.016 A 
ATOM     16  C   UNL A   1      29.920  29.916  22.090  1.00  0.00     0.016 A 
ATOM     17  C   UNL A   1      27.632  28.682  23.114  1.00  0.00     0.001 A 
ATOM     18  C   UNL A   1      28.701  30.593  22.083  1.00  0.00     0.001 A 
ATOM     19  C   UNL A   1      27.561  29.978  22.601  1.00  0.00     0.000 A 
ENDBRANCH  10  14
BRANCH  12  20
ATOM     20  S   UNL A   1      32.941  26.273  21.747  1.00  0.00     0.328 S 
ATOM     21  O   UNL A   1      33.034  25.496  20.524  1.00  0.00    -0.179 OA
ATOM     22  O   UNL A   1      34.059  27.117  22.132  1.00  0.00    -0.179 OA
BRANCH  20  23
ATOM     23  C   UNL A   1      32.694  25.096  23.057  1.00  0.00     0.109 A 
ATOM     24  C   UNL A   1      33.724  24.865  23.980  1.00  0.00     0.024 A 
ATOM     25  C   UNL A   1      31.523  24.337  23.096  1.00  0.00     0.024 A 
ATOM     26  C   UNL A   1      33.595  23.845  24.921  1.00  0.00     0.001 A 
ATOM     27  C   UNL A   1      31.396  23.326  24.052  1.00  0.00     0.001 A 
ATOM     28  C   UNL A   1      32.433  23.074  24.955  1.00  0.00     0.000 A 
ENDBRANCH  20  23
ENDBRANCH  12  20
ENDBRANCH   8   9
ENDBRANCH   7   8
ENDBRANCH   5   7
ENDBRANCH   2   3
ENDBRANCH   1   2
BRANCH   1  29
ATOM     29  C   UNL A   1      35.290  33.510  28.793  1.00  0.00     0.002 C 
BRANCH  29  30
ATOM     30  C   UNL A   1      34.592  34.707  28.145  1.00  0.00     0.002 C 
BRANCH  30  31
ATOM     31  C   UNL A   1      33.267  35.119  28.776  1.00  0.00     0.021 C 
BRANCH  31  32
ATOM     32  C   UNL A   1      33.338  36.399  29.595  1.00  0.00     0.116 C 
BRANCH  32  33
ATOM     33  N   UNL A   1      32.423  36.408  30.728  1.00  0.00    -0.352 N 
ATOM     34  C   UNL A   1      32.536  35.746  31.925  1.00  0.00     0.251 C 
ATOM     35  H   UNL A   1      31.615  36.961  30.621  1.00  0.00     0.163 HD
ATOM     36  O   UNL A   1      31.623  35.769  32.743  1.00  0.00    -0.269 OA
BRANCH  34  37
ATOM     37  C   UNL A   1      33.762  34.970  32.204  1.00  0.00     0.039 A 
ATOM     38  C   UNL A   1      34.996  35.627  32.190  1.00  0.00     0.014 A 
ATOM     39  C   UNL A   1      33.693  33.606  32.502  1.00  0.00     0.014 A 
ATOM     40  C   UNL A   1      36.155  34.928  32.532  1.00  0.00     0.010 A 
ATOM     41  C   UNL A   1      34.836  32.929  32.911  1.00  0.00     0.010 A 
ATOM     42  C   UNL A   1      36.078  33.582  32.922  1.00  0.00    -0.014 A 
BRANCH  42  43
ATOM     43  C   UNL A   1      37.290  32.821  33.309  1.00  0.00     0.031 A 
ATOM     44  C   UNL A   1      37.964  33.114  34.620  1.00  0.00     0.074 A 
ATOM     45  C   UNL A   1      37.820  31.921  32.460  1.00  0.00     0.049 A 
ATOM     46  N   UNL A   1      39.086  32.642  35.100  1.00  0.00    -0.248 NA
ATOM     47  C   UNL A   1      37.300  34.094  35.496  1.00  0.00     0.031 C 
ATOM     48  C   UNL A   1      37.286  31.585  31.138  1.00  0.00     0.029 A 
ATOM     49  N   UNL A   1      38.936  31.132  32.577  1.00  0.00    -0.354 N 
ATOM     50  C   UNL A   1      39.269  33.279  36.321  1.00  0.00     0.074 A 
ATOM     51  C   UNL A   1      38.172  34.207  36.487  1.00  0.00     0.031 C 
ATOM     52  C   UNL A   1      38.069  30.650  30.573  1.00  0.00     0.029 A 
ATOM     53  C   UNL A   1      39.172  30.342  31.479  1.00  0.00     0.049 A 
ATOM     54  H   UNL A   1      39.515  31.133  33.374  1.00  0.00     0.167 HD
ATOM     55  C   UNL A   1      40.252  33.090  37.232  1.00  0.00     0.037 A 
ATOM     56  C   UNL A   1      40.169  29.471  31.234  1.00  0.00     0.037 A 
ATOM     57  C   UNL A   1      41.326  32.146  37.080  1.00  0.00     0.049 A 
ATOM     58  C   UNL A   1      41.223  29.247  32.285  1.00  0.00     0.074 A 
ATOM     59  C   UNL A   1      42.368  31.871  37.949  1.00  0.00     0.029 A 
ATOM     60  N   UNL A   1      41.484  31.307  35.987  1.00  0.00    -0.354 N 
ATOM     61  N   UNL A   1      41.368  29.832  33.449  1.00  0.00    -0.248 NA
ATOM     62  C   UNL A   1      42.243  28.230  31.994  1.00  0.00     0.031 C 
ATOM     63  C   UNL A   1      43.164  30.872  37.376  1.00  0.00     0.029 A 
ATOM     64  C   UNL A   1      42.598  30.504  36.167  1.00  0.00     0.049 A 
ATOM     65  H   UNL A   1      40.892  31.285  35.201  1.00  0.00     0.167 HD
ATOM     66  C   UNL A   1      42.471  29.232  34.041  1.00  0.00     0.074 A 
ATOM     67  C   UNL A   1      42.952  28.230  33.114  1.00  0.00     0.031 C 
ATOM     68  C   UNL A   1      43.037  29.490  35.245  1.00  0.00     0.037 A 
BRANCH  55  69
ATOM     69  C   UNL A   1      40.195  33.907  38.487  1.00  0.00     0.064 A 
ATOM     70  C   UNL A   1      39.488  33.462  39.614  1.00  0.00     0.173 A 
ATOM     71  C   UNL A   1      40.877  35.130  38.579  1.00  0.00     0.173 A 
ATOM     72  F   UNL A   1      38.806  32.308  39.570  1.00  0.00    -0.203 F 
ATOM     73  C   UNL A   1      39.448  34.221  40.780  1.00  0.00     0.198 A 
ATOM     74  C   UNL A   1      40.856  35.874  39.756  1.00  0.00     0.198 A 
ATOM     75  F   UNL A   1      41.569  35.599  37.530  1.00  0.00    -0.203 F 
ATOM     76  F   UNL A   1      38.730  33.796  41.829  1.00  0.00    -0.200 F 
ATOM     77  C   UNL A   1      40.136  35.422  40.853  1.00  0.00     0.200 A 
ATOM     78  F   UNL A   1      41.530  37.030  39.829  1.00  0.00    -0.200 F 
ATOM     79  F   UNL A   1      40.102  36.148  41.978  1.00  0.00    -0.200 F 
ENDBRANCH  55  69
BRANCH  56  80
ATOM     80  C   UNL A   1      40.202  28.717  29.955  1.00  0.00     0.064 A 
ATOM     81  C   UNL A   1      40.861  29.237  28.832  1.00  0.00     0.173 A 
ATOM     82  C   UNL A   1      39.561  27.478  29.821  1.00  0.00     0.173 A 
ATOM     83  F   UNL A   1      41.472  30.429  28.907  1.00  0.00    -0.203 F 
ATOM     84  C   UNL A   1      40.853  28.561  27.614  1.00  0.00     0.198 A 
ATOM     85  C   UNL A   1      39.574  26.790  28.609  1.00  0.00     0.198 A 
ATOM     86  F   UNL A   1      38.922  26.936  30.867  1.00  0.00    -0.203 F 
ATOM     87  F   UNL A   1      41.445  29.105  26.543  1.00  0.00    -0.200 F 
ATOM     88  C   UNL A   1      40.211  27.336  27.505  1.00  0.00     0.200 A 
ATOM     89  F   UNL A   1      38.963  25.601  28.509  1.00  0.00    -0.200 F 
ATOM     90  F   UNL A   1      40.198  26.688  26.332  1.00  0.00    -0.200 F 
ENDBRANCH  56  80
BRANCH  68  91
ATOM     91  C   UNL A   1      44.199  28.637  35.653  1.00  0.00     0.064 A 
ATOM     92  C   UNL A   1      44.023  27.453  36.383  1.00  0.00     0.173 A 
ATOM     93  C   UNL A   1      45.502  28.992  35.272  1.00  0.00     0.173 A 
ATOM     94  F   UNL A   1      42.797  27.082  36.781  1.00  0.00    -0.203 F 
ATOM     95  C   UNL A   1      45.115  26.666  36.738  1.00  0.00     0.198 A 
ATOM     96  C   UNL A   1      46.588  28.189  35.608  1.00  0.00     0.198 A 
ATOM     97  F   UNL A   1      45.719  30.112  34.567  1.00  0.00    -0.203 F 
ATOM     98  F   UNL A   1      44.929  25.560  37.472  1.00  0.00    -0.200 F 
ATOM     99  C   UNL A   1      46.394  27.031  36.346  1.00  0.00     0.200 A 
ATOM    100  F   UNL A   1      47.822  28.539  35.222  1.00  0.00    -0.200 F 
ATOM    101  F   UNL A   1      47.443  26.270  36.688  1.00  0.00    -0.200 F 
ENDBRANCH  68  91
ENDBRANCH  42  43
ENDBRANCH  34  37
ENDBRANCH  32  33
ENDBRANCH  31  32
ENDBRANCH  30  31
ENDBRANCH  29  30
ENDBRANCH   1  29
TORSDOF 18
ENDMDL
MODEL 3
REMARK VINA RESULT:     -11.7      2.227      4.651
REMARK SMILES O=C(CCN/C(=[NH+]\S(=O)(=O)c1ccccc1)c1ccccc1)NCCCCCCNC(=O)c1ccc(-c2c3nc(c(-c4c(F)c(F)c(F)c(F)c4F)c4ccc([nH]4)c(-c4c(F)c(F)c(F)c(F)c4F)c4nc(c(-c5c(F)c(F)c(F)c(F)c5F)c5ccc2[nH]5)C=C4)C=C3)cc1
REMARK SMILES IDX 25 1 24 2 23 3 1 4 2 5 3 7 4 8 5 9 6 10 7 12 17 14 18 15
REMARK SMILES IDX 22 16 19 17 21 18 20 19 8 20 9 21 10 22 11 23 12 24 16 25
REMARK SMILES IDX 13 26 15 27 14 28 26 29 27 30 28 31 29 32 30 33 31 34 32 36
REMARK SMILES IDX 33 37 34 38 95 39 35 40 94 41 36 42 37 43 38 44 88 45 39 46
REMARK SMILES IDX 93 47 87 48 89 49 40 50 92 51 86 52 85 53 41 55 73 56 53 57
REMARK SMILES IDX 72 58 54 59 57 60 71 61 90 62 55 63 56 64 70 66 91 67 58 68
REMARK SMILES IDX 42 69 43 70 51 71 44 72 45 73 49 74 52 75 46 76 47 77 50 78
REMARK SMILES IDX 48 79 74 80 75 81 83 82 76 83 77 84 81 85 84 86 78 87 79 88
REMARK SMILES IDX 82 89 80 90 59 91 60 92 68 93 61 94 62 95 66 96 69 97 63 98
REMARK SMILES IDX 64 99 67 100 65 101
REMARK H PARENT 23 6 5 11 7 13 30 35 89 54 57 65
REMARK Flexibility Score: inf
ROOT
ATOM      1  C   UNL A   1      31.808  26.967  26.543  1.00  0.00     0.021 C 
ENDROOT
BRANCH   1   2
ATOM      2  C   UNL A   1      30.656  26.056  26.118  1.00  0.00     0.116 C 
BRANCH   2   3
ATOM      3  N   UNL A   1      31.111  24.731  25.749  1.00  0.00    -0.356 N 
ATOM      4  O   UNL A   1      29.810  23.590  27.261  1.00  0.00    -0.275 OA
ATOM      5  C   UNL A   1      30.647  23.594  26.365  1.00  0.00     0.223 C 
ATOM      6  H   UNL A   1      31.778  24.641  25.031  1.00  0.00     0.163 HD
BRANCH   5   7
ATOM      7  C   UNL A   1      31.234  22.315  25.819  1.00  0.00     0.145 C 
BRANCH   7   8
ATOM      8  C   UNL A   1      32.726  22.482  25.566  1.00  0.00     0.243 C 
BRANCH   8   9
ATOM      9  N   UNL A   1      32.989  22.998  24.229  1.00  0.00    -0.273 N 
ATOM     10  C   UNL A   1      34.126  23.635  23.763  1.00  0.00     0.290 C 
ATOM     11  H   UNL A   1      32.264  22.879  23.573  1.00  0.00     0.305 HD
ATOM     12  N   UNL A   1      34.179  24.480  22.776  1.00  0.00    -0.162 N 
ATOM     13  H   UNL A   1      35.047  24.793  22.436  1.00  0.00     0.327 HD
BRANCH  10  14
ATOM     14  C   UNL A   1      35.436  23.343  24.420  1.00  0.00     0.064 A 
ATOM     15  C   UNL A   1      35.899  24.186  25.434  1.00  0.00     0.016 A 
ATOM     16  C   UNL A   1      36.177  22.219  24.042  1.00  0.00     0.016 A 
ATOM     17  C   UNL A   1      37.086  23.877  26.099  1.00  0.00     0.001 A 
ATOM     18  C   UNL A   1      37.359  21.911  24.715  1.00  0.00     0.001 A 
ATOM     19  C   UNL A   1      37.808  22.737  25.746  1.00  0.00     0.000 A 
ENDBRANCH  10  14
BRANCH  12  20
ATOM     20  S   UNL A   1      32.804  25.011  22.116  1.00  0.00     0.328 S 
ATOM     21  O   UNL A   1      32.938  25.033  20.671  1.00  0.00    -0.179 OA
ATOM     22  O   UNL A   1      31.723  24.245  22.713  1.00  0.00    -0.179 OA
BRANCH  20  23
ATOM     23  C   UNL A   1      32.586  26.704  22.614  1.00  0.00     0.109 A 
ATOM     24  C   UNL A   1      33.671  27.411  23.149  1.00  0.00     0.024 A 
ATOM     25  C   UNL A   1      31.316  27.283  22.565  1.00  0.00     0.024 A 
ATOM     26  C   UNL A   1      33.475  28.689  23.672  1.00  0.00     0.001 A 
ATOM     27  C   UNL A   1      31.132  28.569  23.079  1.00  0.00     0.001 A 
ATOM     28  C   UNL A   1      32.206  29.265  23.640  1.00  0.00     0.000 A 
ENDBRANCH  20  23
ENDBRANCH  12  20
ENDBRANCH   8   9
ENDBRANCH   7   8
ENDBRANCH   5   7
ENDBRANCH   2   3
ENDBRANCH   1   2
BRANCH   1  29
ATOM     29  C   UNL A   1      31.385  28.235  27.290  1.00  0.00     0.002 C 
BRANCH  29  30
ATOM     30  C   UNL A   1      32.395  29.382  27.232  1.00  0.00     0.002 C 
BRANCH  30  31
ATOM     31  C   UNL A   1      31.809  30.766  26.981  1.00  0.00     0.021 C 
BRANCH  31  32
ATOM     32  C   UNL A   1      32.830  31.806  26.546  1.00  0.00     0.116 C 
BRANCH  32  33
ATOM     33  N   UNL A   1      32.518  33.149  27.014  1.00  0.00    -0.352 N 
ATOM     34  C   UNL A   1      33.110  33.861  28.029  1.00  0.00     0.251 C 
ATOM     35  H   UNL A   1      31.786  33.607  26.542  1.00  0.00     0.163 HD
ATOM     36  O   UNL A   1      32.660  34.947  28.376  1.00  0.00    -0.269 OA
BRANCH  34  37
ATOM     37  C   UNL A   1      34.278  33.283  28.725  1.00  0.00     0.039 A 
ATOM     38  C   UNL A   1      34.071  32.543  29.891  1.00  0.00     0.014 A 
ATOM     39  C   UNL A   1      35.569  33.450  28.214  1.00  0.00     0.014 A 
ATOM     40  C   UNL A   1      35.154  31.920  30.516  1.00  0.00     0.010 A 
ATOM     41  C   UNL A   1      36.634  32.772  28.795  1.00  0.00     0.010 A 
ATOM     42  C   UNL A   1      36.438  32.008  29.956  1.00  0.00    -0.014 A 
BRANCH  42  43
ATOM     43  C   UNL A   1      37.602  31.342  30.586  1.00  0.00     0.031 A 
ATOM     44  C   UNL A   1      38.001  31.713  31.987  1.00  0.00     0.074 A 
ATOM     45  C   UNL A   1      38.337  30.460  29.883  1.00  0.00     0.049 A 
ATOM     46  N   UNL A   1      39.042  31.332  32.682  1.00  0.00    -0.248 NA
ATOM     47  C   UNL A   1      37.124  32.666  32.690  1.00  0.00     0.031 C 
ATOM     48  C   UNL A   1      38.081  30.056  28.499  1.00  0.00     0.029 A 
ATOM     49  N   UNL A   1      39.460  29.754  30.232  1.00  0.00    -0.354 N 
ATOM     50  C   UNL A   1      38.954  32.010  33.892  1.00  0.00     0.074 A 
ATOM     51  C   UNL A   1      37.788  32.862  33.819  1.00  0.00     0.031 C 
ATOM     52  C   UNL A   1      39.014  29.165  28.122  1.00  0.00     0.029 A 
ATOM     53  C   UNL A   1      39.946  28.957  29.225  1.00  0.00     0.049 A 
ATOM     54  H   UNL A   1      39.880  29.815  31.121  1.00  0.00     0.167 HD
ATOM     55  C   UNL A   1      39.760  31.911  34.975  1.00  0.00     0.037 A 
ATOM     56  C   UNL A   1      41.024  28.151  29.200  1.00  0.00     0.037 A 
ATOM     57  C   UNL A   1      40.901  31.040  35.058  1.00  0.00     0.049 A 
ATOM     58  C   UNL A   1      41.876  28.026  30.434  1.00  0.00     0.074 A 
ATOM     59  C   UNL A   1      41.778  30.859  36.113  1.00  0.00     0.029 A 
ATOM     60  N   UNL A   1      41.313  30.188  34.044  1.00  0.00    -0.354 N 
ATOM     61  N   UNL A   1      41.765  28.647  31.583  1.00  0.00    -0.248 NA
ATOM     62  C   UNL A   1      42.996  27.075  30.374  1.00  0.00     0.031 C 
ATOM     63  C   UNL A   1      42.729  29.905  35.733  1.00  0.00     0.029 A 
ATOM     64  C   UNL A   1      42.423  29.469  34.454  1.00  0.00     0.049 A 
ATOM     65  H   UNL A   1      40.880  30.106  33.163  1.00  0.00     0.167 HD
ATOM     66  C   UNL A   1      42.774  28.140  32.390  1.00  0.00     0.074 A 
ATOM     67  C   UNL A   1      43.482  27.152  31.604  1.00  0.00     0.031 C 
ATOM     68  C   UNL A   1      43.089  28.466  33.667  1.00  0.00     0.037 A 
BRANCH  55  69
ATOM     69  C   UNL A   1      39.419  32.752  36.167  1.00  0.00     0.064 A 
ATOM     70  C   UNL A   1      38.484  32.320  37.119  1.00  0.00     0.173 A 
ATOM     71  C   UNL A   1      40.051  33.987  36.379  1.00  0.00     0.173 A 
ATOM     72  F   UNL A   1      37.840  31.155  36.953  1.00  0.00    -0.203 F 
ATOM     73  C   UNL A   1      38.179  33.102  38.230  1.00  0.00     0.198 A 
ATOM     74  C   UNL A   1      39.763  34.754  37.505  1.00  0.00     0.198 A 
ATOM     75  F   UNL A   1      40.954  34.444  35.499  1.00  0.00    -0.203 F 
ATOM     76  F   UNL A   1      37.252  32.687  39.104  1.00  0.00    -0.200 F 
ATOM     77  C   UNL A   1      38.823  34.314  38.426  1.00  0.00     0.200 A 
ATOM     78  F   UNL A   1      40.393  35.921  37.699  1.00  0.00    -0.200 F 
ATOM     79  F   UNL A   1      38.534  35.062  39.498  1.00  0.00    -0.200 F 
ENDBRANCH  55  69
BRANCH  56  80
ATOM     80  C   UNL A   1      41.343  27.370  27.978  1.00  0.00     0.064 A 
ATOM     81  C   UNL A   1      40.854  26.067  27.809  1.00  0.00     0.173 A 
ATOM     82  C   UNL A   1      42.158  27.898  26.967  1.00  0.00     0.173 A 
ATOM     83  F   UNL A   1      40.087  25.513  28.760  1.00  0.00    -0.203 F 
ATOM     84  C   UNL A   1      41.192  25.310  26.690  1.00  0.00     0.198 A 
ATOM     85  C   UNL A   1      42.475  27.150  25.835  1.00  0.00     0.198 A 
ATOM     86  F   UNL A   1      42.645  29.142  27.079  1.00  0.00    -0.203 F 
ATOM     87  F   UNL A   1      40.754  24.049  26.579  1.00  0.00    -0.200 F 
ATOM     88  C   UNL A   1      42.000  25.854  25.702  1.00  0.00     0.200 A 
ATOM     89  F   UNL A   1      43.247  27.681  24.877  1.00  0.00    -0.200 F 
ATOM     90  F   UNL A   1      42.329  25.123  24.628  1.00  0.00    -0.200 F 
ENDBRANCH  56  80
BRANCH  68  91
ATOM     91  C   UNL A   1      44.207  27.706  34.312  1.00  0.00     0.064 A 
ATOM     92  C   UNL A   1      45.530  28.171  34.280  1.00  0.00     0.173 A 
ATOM     93  C   UNL A   1      43.942  26.515  35.005  1.00  0.00     0.173 A 
ATOM     94  F   UNL A   1      45.832  29.298  33.618  1.00  0.00    -0.203 F 
ATOM     95  C   UNL A   1      46.551  27.457  34.900  1.00  0.00     0.198 A 
ATOM     96  C   UNL A   1      44.963  25.817  35.644  1.00  0.00     0.198 A 
ATOM     97  F   UNL A   1      42.691  26.033  35.069  1.00  0.00    -0.203 F 
ATOM     98  F   UNL A   1      47.815  27.898  34.822  1.00  0.00    -0.200 F 
ATOM     99  C   UNL A   1      46.267  26.286  35.585  1.00  0.00     0.200 A 
ATOM    100  F   UNL A   1      44.686  24.690  36.313  1.00  0.00    -0.200 F 
ATOM    101  F   UNL A   1      47.253  25.602  36.183  1.00  0.00    -0.200 F 
ENDBRANCH  68  91
ENDBRANCH  42  43
ENDBRANCH  34  37
ENDBRANCH  32  33
ENDBRANCH  31  32
ENDBRANCH  30  31
ENDBRANCH  29  30
ENDBRANCH   1  29
TORSDOF 18
ENDMDL
