MODEL 1
REMARK VINA RESULT:     -11.2      0.000      0.000
REMARK SMILES CC(C)[C@H](NC(N)=O)C(=O)N[C@H](C)C(=O)NCCCCCCNC(=O)c1ccc(-c2c3nc(c(-c4c(F)c(F)c(F)c(F)c4F)c4ccc([nH]4)c(-c4c(F)c(F)c(F)c(F)c4F)c4nc(c(-c5c(F)c(F)c(F)c(F)c5F)c5ccc2[nH]5)C=C4)C=C3)cc1
REMARK SMILES IDX 19 1 18 2 17 3 16 4 14 5 15 6 12 8 13 9 11 10 9 11 10 12
REMARK SMILES IDX 4 14 2 15 1 16 3 17 5 18 6 19 7 21 8 22 20 25 21 26 22 27
REMARK SMILES IDX 23 28 24 29 25 31 26 32 27 33 88 34 28 35 87 36 29 37 30 38
REMARK SMILES IDX 31 39 81 40 32 41 86 42 80 43 82 44 33 45 85 46 79 47 78 48
REMARK SMILES IDX 34 50 66 51 46 52 65 53 47 54 50 55 64 56 83 57 48 58 49 59
REMARK SMILES IDX 63 61 84 62 51 63 35 64 36 65 44 66 37 67 38 68 42 69 45 70
REMARK SMILES IDX 39 71 40 72 43 73 41 74 67 75 68 76 76 77 69 78 70 79 74 80
REMARK SMILES IDX 77 81 71 82 72 83 75 84 73 85 52 86 53 87 61 88 54 89 55 90
REMARK SMILES IDX 59 91 62 92 56 93 57 94 60 95 58 96
REMARK H PARENT 16 7 11 13 5 20 7 23 7 24 23 30 82 49 50 60
REMARK Flexibility Score: inf
ROOT
ATOM      1  C   UNL A   1      32.878  30.203  26.438  1.00  0.00     0.002 C 
ENDROOT
BRANCH   1   2
ATOM      2  C   UNL A   1      32.893  28.697  26.712  1.00  0.00     0.021 C 
BRANCH   2   3
ATOM      3  C   UNL A   1      33.977  27.931  25.953  1.00  0.00     0.116 C 
BRANCH   3   4
ATOM      4  N   UNL A   1      34.107  28.426  24.598  1.00  0.00    -0.354 N 
ATOM      5  C   UNL A   1      33.517  28.002  23.445  1.00  0.00     0.242 C 
ATOM      6  O   UNL A   1      34.011  28.382  22.378  1.00  0.00    -0.273 OA
ATOM      7  H   UNL A   1      34.720  29.191  24.494  1.00  0.00     0.163 HD
BRANCH   5   8
ATOM      8  C   UNL A   1      32.333  27.018  23.459  1.00  0.00     0.168 C 
ATOM      9  C   UNL A   1      31.105  27.598  22.760  1.00  0.00     0.041 C 
BRANCH   8  10
ATOM     10  N   UNL A   1      32.708  25.729  22.890  1.00  0.00    -0.343 N 
ATOM     11  C   UNL A   1      32.757  24.490  23.450  1.00  0.00     0.243 C 
ATOM     12  O   UNL A   1      32.833  23.536  22.667  1.00  0.00    -0.273 OA
ATOM     13  H   UNL A   1      32.969  25.760  21.941  1.00  0.00     0.164 HD
BRANCH  11  14
ATOM     14  C   UNL A   1      32.531  24.243  24.969  1.00  0.00     0.175 C 
BRANCH  14  15
ATOM     15  C   UNL A   1      33.894  23.882  25.635  1.00  0.00     0.015 C 
ATOM     16  C   UNL A   1      34.116  22.366  25.639  1.00  0.00     0.010 C 
ATOM     17  C   UNL A   1      35.133  24.546  25.015  1.00  0.00     0.010 C 
ENDBRANCH  14  15
BRANCH  14  18
ATOM     18  N   UNL A   1      31.473  23.283  25.271  1.00  0.00    -0.326 N 
ATOM     19  C   UNL A   1      30.734  23.362  26.411  1.00  0.00     0.312 C 
ATOM     20  H   UNL A   1      31.289  22.557  24.632  1.00  0.00     0.166 HD
ATOM     21  N   UNL A   1      29.832  22.360  26.513  1.00  0.00    -0.352 N 
ATOM     22  O   UNL A   1      30.811  24.249  27.251  1.00  0.00    -0.249 OA
ATOM     23  H   UNL A   1      29.793  21.660  25.823  1.00  0.00     0.161 HD
ATOM     24  H   UNL A   1      29.214  22.330  27.280  1.00  0.00     0.161 HD
ENDBRANCH  14  18
ENDBRANCH  11  14
ENDBRANCH   8  10
ENDBRANCH   5   8
ENDBRANCH   3   4
ENDBRANCH   2   3
ENDBRANCH   1   2
BRANCH   1  25
ATOM     25  C   UNL A   1      31.486  30.812  26.255  1.00  0.00     0.002 C 
BRANCH  25  26
ATOM     26  C   UNL A   1      31.399  32.315  26.529  1.00  0.00     0.021 C 
BRANCH  26  27
ATOM     27  C   UNL A   1      32.593  32.890  27.281  1.00  0.00     0.116 C 
BRANCH  27  28
ATOM     28  N   UNL A   1      32.393  34.285  27.630  1.00  0.00    -0.352 N 
ATOM     29  C   UNL A   1      32.981  35.019  28.627  1.00  0.00     0.251 C 
ATOM     30  H   UNL A   1      31.743  34.772  27.072  1.00  0.00     0.163 HD
ATOM     31  O   UNL A   1      32.544  36.124  28.930  1.00  0.00    -0.269 OA
BRANCH  29  32
ATOM     32  C   UNL A   1      34.143  34.461  29.348  1.00  0.00     0.039 A 
ATOM     33  C   UNL A   1      33.932  33.794  30.557  1.00  0.00     0.014 A 
ATOM     34  C   UNL A   1      35.436  34.603  28.834  1.00  0.00     0.014 A 
ATOM     35  C   UNL A   1      35.015  33.224  31.227  1.00  0.00     0.010 A 
ATOM     36  C   UNL A   1      36.504  33.973  29.465  1.00  0.00     0.010 A 
ATOM     37  C   UNL A   1      36.304  33.285  30.672  1.00  0.00    -0.014 A 
BRANCH  37  38
ATOM     38  C   UNL A   1      37.457  32.639  31.344  1.00  0.00     0.031 A 
ATOM     39  C   UNL A   1      38.182  31.504  30.676  1.00  0.00     0.074 A 
ATOM     40  C   UNL A   1      37.811  33.034  32.582  1.00  0.00     0.049 A 
ATOM     41  N   UNL A   1      39.172  30.775  31.125  1.00  0.00    -0.248 NA
ATOM     42  C   UNL A   1      37.712  31.118  29.336  1.00  0.00     0.031 C 
ATOM     43  C   UNL A   1      37.152  34.089  33.352  1.00  0.00     0.029 A 
ATOM     44  N   UNL A   1      38.807  32.588  33.414  1.00  0.00    -0.354 N 
ATOM     45  C   UNL A   1      39.433  29.840  30.131  1.00  0.00     0.074 A 
ATOM     46  C   UNL A   1      38.463  30.058  29.080  1.00  0.00     0.031 C 
ATOM     47  C   UNL A   1      37.773  34.224  34.535  1.00  0.00     0.029 A 
ATOM     48  C   UNL A   1      38.850  33.242  34.621  1.00  0.00     0.049 A 
ATOM     49  H   UNL A   1      39.431  31.867  33.169  1.00  0.00     0.167 HD
ATOM     50  C   UNL A   1      40.408  28.902  30.091  1.00  0.00     0.037 A 
ATOM     51  C   UNL A   1      39.665  33.066  35.678  1.00  0.00     0.037 A 
ATOM     52  C   UNL A   1      41.385  28.708  31.129  1.00  0.00     0.049 A 
ATOM     53  C   UNL A   1      40.741  32.018  35.606  1.00  0.00     0.074 A 
ATOM     54  C   UNL A   1      42.454  27.828  31.156  1.00  0.00     0.029 A 
ATOM     55  N   UNL A   1      41.412  29.405  32.328  1.00  0.00    -0.354 N 
ATOM     56  N   UNL A   1      41.025  31.189  34.631  1.00  0.00    -0.248 NA
ATOM     57  C   UNL A   1      41.616  31.887  36.779  1.00  0.00     0.031 C 
ATOM     58  C   UNL A   1      43.099  27.960  32.389  1.00  0.00     0.029 A 
ATOM     59  C   UNL A   1      42.464  28.959  33.111  1.00  0.00     0.049 A 
ATOM     60  H   UNL A   1      40.777  30.113  32.584  1.00  0.00     0.167 HD
ATOM     61  C   UNL A   1      42.126  30.459  35.059  1.00  0.00     0.074 A 
ATOM     62  C   UNL A   1      42.467  30.952  36.377  1.00  0.00     0.031 C 
ATOM     63  C   UNL A   1      42.794  29.469  34.418  1.00  0.00     0.037 A 
BRANCH  50  64
ATOM     64  C   UNL A   1      40.468  28.014  28.881  1.00  0.00     0.064 A 
ATOM     65  C   UNL A   1      39.757  26.807  28.818  1.00  0.00     0.173 A 
ATOM     66  C   UNL A   1      41.216  28.393  27.756  1.00  0.00     0.173 A 
ATOM     67  F   UNL A   1      39.035  26.392  29.870  1.00  0.00    -0.203 F 
ATOM     68  C   UNL A   1      39.816  25.998  27.687  1.00  0.00     0.198 A 
ATOM     69  C   UNL A   1      41.249  27.596  26.614  1.00  0.00     0.198 A 
ATOM     70  F   UNL A   1      41.911  29.541  27.760  1.00  0.00    -0.203 F 
ATOM     71  F   UNL A   1      39.169  24.824  27.670  1.00  0.00    -0.200 F 
ATOM     72  C   UNL A   1      40.556  26.396  26.583  1.00  0.00     0.200 A 
ATOM     73  F   UNL A   1      41.953  27.989  25.545  1.00  0.00    -0.200 F 
ATOM     74  F   UNL A   1      40.606  25.619  25.492  1.00  0.00    -0.200 F 
ENDBRANCH  50  64
BRANCH  51  75
ATOM     75  C   UNL A   1      39.510  33.922  36.883  1.00  0.00     0.064 A 
ATOM     76  C   UNL A   1      40.120  35.183  36.952  1.00  0.00     0.173 A 
ATOM     77  C   UNL A   1      38.753  33.502  37.986  1.00  0.00     0.173 A 
ATOM     78  F   UNL A   1      40.869  35.620  35.930  1.00  0.00    -0.203 F 
ATOM     79  C   UNL A   1      39.993  35.982  38.086  1.00  0.00     0.198 A 
ATOM     80  C   UNL A   1      38.604  34.314  39.108  1.00  0.00     0.198 A 
ATOM     81  F   UNL A   1      38.145  32.307  37.967  1.00  0.00    -0.203 F 
ATOM     82  F   UNL A   1      40.623  37.163  38.143  1.00  0.00    -0.200 F 
ATOM     83  C   UNL A   1      39.232  35.549  39.161  1.00  0.00     0.200 A 
ATOM     84  F   UNL A   1      37.856  33.898  40.139  1.00  0.00    -0.200 F 
ATOM     85  F   UNL A   1      39.108  36.320  40.250  1.00  0.00    -0.200 F 
ENDBRANCH  51  75
BRANCH  63  86
ATOM     86  C   UNL A   1      43.983  28.877  35.116  1.00  0.00     0.064 A 
ATOM     87  C   UNL A   1      45.272  29.406  34.952  1.00  0.00     0.173 A 
ATOM     88  C   UNL A   1      43.824  27.794  35.993  1.00  0.00     0.173 A 
ATOM     89  F   UNL A   1      45.479  30.433  34.115  1.00  0.00    -0.203 F 
ATOM     90  C   UNL A   1      46.361  28.856  35.624  1.00  0.00     0.198 A 
ATOM     91  C   UNL A   1      44.909  27.266  36.685  1.00  0.00     0.198 A 
ATOM     92  F   UNL A   1      42.610  27.256  36.189  1.00  0.00    -0.203 F 
ATOM     93  F   UNL A   1      47.590  29.348  35.417  1.00  0.00    -0.200 F 
ATOM     94  C   UNL A   1      46.178  27.792  36.495  1.00  0.00     0.200 A 
ATOM     95  F   UNL A   1      44.728  26.247  37.537  1.00  0.00    -0.200 F 
ATOM     96  F   UNL A   1      47.226  27.270  37.146  1.00  0.00    -0.200 F 
ENDBRANCH  63  86
ENDBRANCH  37  38
ENDBRANCH  29  32
ENDBRANCH  27  28
ENDBRANCH  26  27
ENDBRANCH  25  26
ENDBRANCH   1  25
TORSDOF 17
ENDMDL
MODEL 2
REMARK VINA RESULT:     -11.1      5.498     11.026
REMARK SMILES CC(C)[C@H](NC(N)=O)C(=O)N[C@H](C)C(=O)NCCCCCCNC(=O)c1ccc(-c2c3nc(c(-c4c(F)c(F)c(F)c(F)c4F)c4ccc([nH]4)c(-c4c(F)c(F)c(F)c(F)c4F)c4nc(c(-c5c(F)c(F)c(F)c(F)c5F)c5ccc2[nH]5)C=C4)C=C3)cc1
REMARK SMILES IDX 19 1 18 2 17 3 16 4 14 5 15 6 12 8 13 9 11 10 9 11 10 12
REMARK SMILES IDX 4 14 2 15 1 16 3 17 5 18 6 19 7 21 8 22 20 25 21 26 22 27
REMARK SMILES IDX 23 28 24 29 25 31 26 32 27 33 88 34 28 35 87 36 29 37 30 38
REMARK SMILES IDX 31 39 81 40 32 41 86 42 80 43 82 44 33 45 85 46 79 47 78 48
REMARK SMILES IDX 34 50 66 51 46 52 65 53 47 54 50 55 64 56 83 57 48 58 49 59
REMARK SMILES IDX 63 61 84 62 51 63 35 64 36 65 44 66 37 67 38 68 42 69 45 70
REMARK SMILES IDX 39 71 40 72 43 73 41 74 67 75 68 76 76 77 69 78 70 79 74 80
REMARK SMILES IDX 77 81 71 82 72 83 75 84 73 85 52 86 53 87 61 88 54 89 55 90
REMARK SMILES IDX 59 91 62 92 56 93 57 94 60 95 58 96
REMARK H PARENT 16 7 11 13 5 20 7 23 7 24 23 30 82 49 50 60
REMARK Flexibility Score: inf
ROOT
ATOM      1  C   UNL A   1      36.676  22.018  24.602  1.00  0.00     0.002 C 
ENDROOT
BRANCH   1   2
ATOM      2  C   UNL A   1      36.416  23.009  25.740  1.00  0.00     0.021 C 
BRANCH   2   3
ATOM      3  C   UNL A   1      35.268  23.983  25.474  1.00  0.00     0.116 C 
BRANCH   3   4
ATOM      4  N   UNL A   1      34.141  23.705  26.339  1.00  0.00    -0.354 N 
ATOM      5  C   UNL A   1      32.803  23.735  26.080  1.00  0.00     0.242 C 
ATOM      6  O   UNL A   1      32.035  23.755  27.047  1.00  0.00    -0.273 OA
ATOM      7  H   UNL A   1      34.379  23.454  27.262  1.00  0.00     0.163 HD
BRANCH   5   8
ATOM      8  C   UNL A   1      32.262  23.828  24.641  1.00  0.00     0.168 C 
ATOM      9  C   UNL A   1      32.095  22.448  24.008  1.00  0.00     0.041 C 
BRANCH   8  10
ATOM     10  N   UNL A   1      31.019  24.589  24.590  1.00  0.00    -0.343 N 
ATOM     11  C   UNL A   1      30.692  25.713  23.896  1.00  0.00     0.243 C 
ATOM     12  O   UNL A   1      29.487  25.979  23.818  1.00  0.00    -0.273 OA
ATOM     13  H   UNL A   1      30.295  24.229  25.151  1.00  0.00     0.164 HD
BRANCH  11  14
ATOM     14  C   UNL A   1      31.731  26.525  23.072  1.00  0.00     0.175 C 
BRANCH  14  15
ATOM     15  C   UNL A   1      31.698  28.014  23.535  1.00  0.00     0.015 C 
ATOM     16  C   UNL A   1      31.803  28.114  25.060  1.00  0.00     0.010 C 
ATOM     17  C   UNL A   1      32.772  28.925  22.920  1.00  0.00     0.010 C 
ENDBRANCH  14  15
BRANCH  14  18
ATOM     18  N   UNL A   1      31.603  26.372  21.626  1.00  0.00    -0.326 N 
ATOM     19  C   UNL A   1      32.421  25.550  20.914  1.00  0.00     0.312 C 
ATOM     20  H   UNL A   1      30.905  26.879  21.151  1.00  0.00     0.166 HD
ATOM     21  N   UNL A   1      32.157  25.578  19.588  1.00  0.00    -0.352 N 
ATOM     22  O   UNL A   1      33.278  24.814  21.385  1.00  0.00    -0.249 OA
ATOM     23  H   UNL A   1      31.462  26.180  19.238  1.00  0.00     0.161 HD
ATOM     24  H   UNL A   1      32.661  24.997  18.973  1.00  0.00     0.161 HD
ENDBRANCH  14  18
ENDBRANCH  11  14
ENDBRANCH   8  10
ENDBRANCH   5   8
ENDBRANCH   3   4
ENDBRANCH   2   3
ENDBRANCH   1   2
BRANCH   1  25
ATOM     25  C   UNL A   1      36.603  20.543  25.001  1.00  0.00     0.002 C 
BRANCH  25  26
ATOM     26  C   UNL A   1      37.912  19.766  24.840  1.00  0.00     0.021 C 
BRANCH  26  27
ATOM     27  C   UNL A   1      39.041  20.234  25.750  1.00  0.00     0.116 C 
BRANCH  27  28
ATOM     28  N   UNL A   1      40.045  19.203  25.941  1.00  0.00    -0.352 N 
ATOM     29  C   UNL A   1      41.395  19.338  26.132  1.00  0.00     0.251 C 
ATOM     30  H   UNL A   1      39.708  18.277  25.933  1.00  0.00     0.163 HD
ATOM     31  O   UNL A   1      42.137  18.364  26.059  1.00  0.00    -0.269 OA
BRANCH  29  32
ATOM     32  C   UNL A   1      41.958  20.674  26.412  1.00  0.00     0.039 A 
ATOM     33  C   UNL A   1      42.215  21.538  25.345  1.00  0.00     0.014 A 
ATOM     34  C   UNL A   1      42.236  21.069  27.725  1.00  0.00     0.014 A 
ATOM     35  C   UNL A   1      42.705  22.819  25.598  1.00  0.00     0.010 A 
ATOM     36  C   UNL A   1      42.656  22.370  27.981  1.00  0.00     0.010 A 
ATOM     37  C   UNL A   1      42.902  23.254  26.919  1.00  0.00    -0.014 A 
BRANCH  37  38
ATOM     38  C   UNL A   1      43.372  24.631  27.209  1.00  0.00     0.031 A 
ATOM     39  C   UNL A   1      42.417  25.656  27.752  1.00  0.00     0.074 A 
ATOM     40  C   UNL A   1      44.643  24.973  26.924  1.00  0.00     0.049 A 
ATOM     41  N   UNL A   1      42.621  26.922  28.012  1.00  0.00    -0.248 NA
ATOM     42  C   UNL A   1      41.039  25.206  28.008  1.00  0.00     0.031 C 
ATOM     43  C   UNL A   1      45.649  24.079  26.347  1.00  0.00     0.029 A 
ATOM     44  N   UNL A   1      45.304  26.165  27.071  1.00  0.00    -0.354 N 
ATOM     45  C   UNL A   1      41.400  27.419  28.450  1.00  0.00     0.074 A 
ATOM     46  C   UNL A   1      40.447  26.334  28.367  1.00  0.00     0.031 C 
ATOM     47  C   UNL A   1      46.805  24.748  26.209  1.00  0.00     0.029 A 
ATOM     48  C   UNL A   1      46.612  26.125  26.654  1.00  0.00     0.049 A 
ATOM     49  H   UNL A   1      44.881  26.974  27.441  1.00  0.00     0.167 HD
ATOM     50  C   UNL A   1      41.108  28.662  28.901  1.00  0.00     0.037 A 
ATOM     51  C   UNL A   1      47.548  27.093  26.629  1.00  0.00     0.037 A 
ATOM     52  C   UNL A   1      42.067  29.730  29.005  1.00  0.00     0.049 A 
ATOM     53  C   UNL A   1      47.198  28.464  27.138  1.00  0.00     0.074 A 
ATOM     54  C   UNL A   1      41.887  31.006  29.509  1.00  0.00     0.029 A 
ATOM     55  N   UNL A   1      43.389  29.646  28.593  1.00  0.00    -0.354 N 
ATOM     56  N   UNL A   1      46.060  28.903  27.618  1.00  0.00    -0.248 NA
ATOM     57  C   UNL A   1      48.266  29.473  27.110  1.00  0.00     0.031 C 
ATOM     58  C   UNL A   1      43.087  31.709  29.360  1.00  0.00     0.029 A 
ATOM     59  C   UNL A   1      44.030  30.854  28.811  1.00  0.00     0.049 A 
ATOM     60  H   UNL A   1      43.810  28.845  28.204  1.00  0.00     0.167 HD
ATOM     61  C   UNL A   1      46.281  30.226  27.974  1.00  0.00     0.074 A 
ATOM     62  C   UNL A   1      47.666  30.515  27.668  1.00  0.00     0.031 C 
ATOM     63  C   UNL A   1      45.414  31.121  28.508  1.00  0.00     0.037 A 
BRANCH  50  64
ATOM     64  C   UNL A   1      39.692  28.933  29.321  1.00  0.00     0.064 A 
ATOM     65  C   UNL A   1      39.257  28.707  30.636  1.00  0.00     0.173 A 
ATOM     66  C   UNL A   1      38.767  29.461  28.407  1.00  0.00     0.173 A 
ATOM     67  F   UNL A   1      40.098  28.192  31.546  1.00  0.00    -0.203 F 
ATOM     68  C   UNL A   1      37.943  28.970  31.012  1.00  0.00     0.198 A 
ATOM     69  C   UNL A   1      37.461  29.752  28.795  1.00  0.00     0.198 A 
ATOM     70  F   UNL A   1      39.130  29.702  27.138  1.00  0.00    -0.203 F 
ATOM     71  F   UNL A   1      37.538  28.697  32.260  1.00  0.00    -0.200 F 
ATOM     72  C   UNL A   1      37.047  29.498  30.094  1.00  0.00     0.200 A 
ATOM     73  F   UNL A   1      36.602  30.274  27.910  1.00  0.00    -0.200 F 
ATOM     74  F   UNL A   1      35.785  29.757  30.459  1.00  0.00    -0.200 F 
ENDBRANCH  50  64
BRANCH  51  75
ATOM     75  C   UNL A   1      48.914  26.789  26.129  1.00  0.00     0.064 A 
ATOM     76  C   UNL A   1      49.897  26.275  26.989  1.00  0.00     0.173 A 
ATOM     77  C   UNL A   1      49.267  27.002  24.789  1.00  0.00     0.173 A 
ATOM     78  F   UNL A   1      49.613  26.073  28.283  1.00  0.00    -0.203 F 
ATOM     79  C   UNL A   1      51.184  26.006  26.530  1.00  0.00     0.198 A 
ATOM     80  C   UNL A   1      50.547  26.705  24.325  1.00  0.00     0.198 A 
ATOM     81  F   UNL A   1      48.362  27.485  23.925  1.00  0.00    -0.203 F 
ATOM     82  F   UNL A   1      52.116  25.558  27.383  1.00  0.00    -0.200 F 
ATOM     83  C   UNL A   1      51.506  26.216  25.198  1.00  0.00     0.200 A 
ATOM     84  F   UNL A   1      50.850  26.896  23.034  1.00  0.00    -0.200 F 
ATOM     85  F   UNL A   1      52.744  25.952  24.757  1.00  0.00    -0.200 F 
ENDBRANCH  51  75
BRANCH  63  86
ATOM     86  C   UNL A   1      45.945  32.487  28.828  1.00  0.00     0.064 A 
ATOM     87  C   UNL A   1      45.879  33.539  27.902  1.00  0.00     0.173 A 
ATOM     88  C   UNL A   1      46.490  32.758  30.092  1.00  0.00     0.173 A 
ATOM     89  F   UNL A   1      45.380  33.328  26.675  1.00  0.00    -0.203 F 
ATOM     90  C   UNL A   1      46.360  34.806  28.224  1.00  0.00     0.198 A 
ATOM     91  C   UNL A   1      46.942  34.032  30.420  1.00  0.00     0.198 A 
ATOM     92  F   UNL A   1      46.570  31.787  31.015  1.00  0.00    -0.203 F 
ATOM     93  F   UNL A   1      46.328  35.784  27.308  1.00  0.00    -0.200 F 
ATOM     94  C   UNL A   1      46.884  35.053  29.484  1.00  0.00     0.200 A 
ATOM     95  F   UNL A   1      47.435  34.273  31.644  1.00  0.00    -0.200 F 
ATOM     96  F   UNL A   1      47.338  36.275  29.794  1.00  0.00    -0.200 F 
ENDBRANCH  63  86
ENDBRANCH  37  38
ENDBRANCH  29  32
ENDBRANCH  27  28
ENDBRANCH  26  27
ENDBRANCH  25  26
ENDBRANCH   1  25
TORSDOF 17
ENDMDL
MODEL 3
REMARK VINA RESULT:     -11.0      1.249      7.706
REMARK SMILES CC(C)[C@H](NC(N)=O)C(=O)N[C@H](C)C(=O)NCCCCCCNC(=O)c1ccc(-c2c3nc(c(-c4c(F)c(F)c(F)c(F)c4F)c4ccc([nH]4)c(-c4c(F)c(F)c(F)c(F)c4F)c4nc(c(-c5c(F)c(F)c(F)c(F)c5F)c5ccc2[nH]5)C=C4)C=C3)cc1
REMARK SMILES IDX 19 1 18 2 17 3 16 4 14 5 15 6 12 8 13 9 11 10 9 11 10 12
REMARK SMILES IDX 4 14 2 15 1 16 3 17 5 18 6 19 7 21 8 22 20 25 21 26 22 27
REMARK SMILES IDX 23 28 24 29 25 31 26 32 27 33 88 34 28 35 87 36 29 37 30 38
REMARK SMILES IDX 31 39 81 40 32 41 86 42 80 43 82 44 33 45 85 46 79 47 78 48
REMARK SMILES IDX 34 50 66 51 46 52 65 53 47 54 50 55 64 56 83 57 48 58 49 59
REMARK SMILES IDX 63 61 84 62 51 63 35 64 36 65 44 66 37 67 38 68 42 69 45 70
REMARK SMILES IDX 39 71 40 72 43 73 41 74 67 75 68 76 76 77 69 78 70 79 74 80
REMARK SMILES IDX 77 81 71 82 72 83 75 84 73 85 52 86 53 87 61 88 54 89 55 90
REMARK SMILES IDX 59 91 62 92 56 93 57 94 60 95 58 96
REMARK H PARENT 16 7 11 13 5 20 7 23 7 24 23 30 82 49 50 60
REMARK Flexibility Score: inf
ROOT
ATOM      1  C   UNL A   1      32.417  29.959  26.756  1.00  0.00     0.002 C 
ENDROOT
BRANCH   1   2
ATOM      2  C   UNL A   1      31.778  28.874  27.626  1.00  0.00     0.021 C 
BRANCH   2   3
ATOM      3  C   UNL A   1      31.595  27.530  26.921  1.00  0.00     0.116 C 
BRANCH   3   4
ATOM      4  N   UNL A   1      32.809  27.135  26.237  1.00  0.00    -0.354 N 
ATOM      5  C   UNL A   1      33.139  25.956  25.637  1.00  0.00     0.242 C 
ATOM      6  O   UNL A   1      34.332  25.756  25.389  1.00  0.00    -0.273 OA
ATOM      7  H   UNL A   1      33.508  27.829  26.198  1.00  0.00     0.163 HD
BRANCH   5   8
ATOM      8  C   UNL A   1      32.083  24.871  25.356  1.00  0.00     0.168 C 
ATOM      9  C   UNL A   1      31.905  23.929  26.545  1.00  0.00     0.041 C 
BRANCH   8  10
ATOM     10  N   UNL A   1      30.812  25.460  24.951  1.00  0.00    -0.343 N 
ATOM     11  C   UNL A   1      30.499  26.267  23.901  1.00  0.00     0.243 C 
ATOM     12  O   UNL A   1      29.296  26.384  23.638  1.00  0.00    -0.273 OA
ATOM     13  H   UNL A   1      30.052  25.236  25.536  1.00  0.00     0.164 HD
BRANCH  11  14
ATOM     14  C   UNL A   1      31.573  26.860  22.946  1.00  0.00     0.175 C 
BRANCH  14  15
ATOM     15  C   UNL A   1      31.605  28.411  23.114  1.00  0.00     0.015 C 
ATOM     16  C   UNL A   1      33.027  28.952  22.934  1.00  0.00     0.010 C 
ATOM     17  C   UNL A   1      30.671  29.199  22.182  1.00  0.00     0.010 C 
ENDBRANCH  14  15
BRANCH  14  18
ATOM     18  N   UNL A   1      31.442  26.437  21.555  1.00  0.00    -0.326 N 
ATOM     19  C   UNL A   1      32.473  25.865  20.876  1.00  0.00     0.312 C 
ATOM     20  H   UNL A   1      30.582  26.570  21.094  1.00  0.00     0.166 HD
ATOM     21  N   UNL A   1      32.153  25.578  19.594  1.00  0.00    -0.352 N 
ATOM     22  O   UNL A   1      33.566  25.580  21.348  1.00  0.00    -0.249 OA
ATOM     23  H   UNL A   1      31.266  25.819  19.243  1.00  0.00     0.161 HD
ATOM     24  H   UNL A   1      32.808  25.128  19.012  1.00  0.00     0.161 HD
ENDBRANCH  14  18
ENDBRANCH  11  14
ENDBRANCH   8  10
ENDBRANCH   5   8
ENDBRANCH   3   4
ENDBRANCH   2   3
ENDBRANCH   1   2
BRANCH   1  25
ATOM     25  C   UNL A   1      31.426  30.850  26.004  1.00  0.00     0.002 C 
BRANCH  25  26
ATOM     26  C   UNL A   1      31.353  32.295  26.501  1.00  0.00     0.021 C 
BRANCH  26  27
ATOM     27  C   UNL A   1      32.609  32.783  27.212  1.00  0.00     0.116 C 
BRANCH  27  28
ATOM     28  N   UNL A   1      32.494  34.170  27.626  1.00  0.00    -0.352 N 
ATOM     29  C   UNL A   1      33.139  34.824  28.643  1.00  0.00     0.251 C 
ATOM     30  H   UNL A   1      31.864  34.717  27.102  1.00  0.00     0.163 HD
ATOM     31  O   UNL A   1      32.770  35.937  29.002  1.00  0.00    -0.269 OA
BRANCH  29  32
ATOM     32  C   UNL A   1      34.279  34.170  29.317  1.00  0.00     0.039 A 
ATOM     33  C   UNL A   1      34.027  33.296  30.377  1.00  0.00     0.014 A 
ATOM     34  C   UNL A   1      35.591  34.426  28.907  1.00  0.00     0.014 A 
ATOM     35  C   UNL A   1      35.091  32.638  30.994  1.00  0.00     0.010 A 
ATOM     36  C   UNL A   1      36.644  33.716  29.475  1.00  0.00     0.010 A 
ATOM     37  C   UNL A   1      36.404  32.821  30.529  1.00  0.00    -0.014 A 
BRANCH  37  38
ATOM     38  C   UNL A   1      37.540  32.090  31.139  1.00  0.00     0.031 A 
ATOM     39  C   UNL A   1      38.010  32.442  32.523  1.00  0.00     0.074 A 
ATOM     40  C   UNL A   1      38.188  31.151  30.423  1.00  0.00     0.049 A 
ATOM     41  N   UNL A   1      39.018  31.960  33.203  1.00  0.00    -0.248 NA
ATOM     42  C   UNL A   1      37.263  33.499  33.225  1.00  0.00     0.031 C 
ATOM     43  C   UNL A   1      37.857  30.758  29.053  1.00  0.00     0.029 A 
ATOM     44  N   UNL A   1      39.265  30.364  30.744  1.00  0.00    -0.354 N 
ATOM     45  C   UNL A   1      39.034  32.661  34.402  1.00  0.00     0.074 A 
ATOM     46  C   UNL A   1      37.970  33.639  34.335  1.00  0.00     0.031 C 
ATOM     47  C   UNL A   1      38.699  29.789  28.658  1.00  0.00     0.029 A 
ATOM     48  C   UNL A   1      39.650  29.519  29.732  1.00  0.00     0.049 A 
ATOM     49  H   UNL A   1      39.718  30.401  31.617  1.00  0.00     0.167 HD
ATOM     50  C   UNL A   1      39.848  32.487  35.470  1.00  0.00     0.037 A 
ATOM     51  C   UNL A   1      40.660  28.630  29.677  1.00  0.00     0.037 A 
ATOM     52  C   UNL A   1      40.888  31.496  35.540  1.00  0.00     0.049 A 
ATOM     53  C   UNL A   1      41.547  28.455  30.878  1.00  0.00     0.074 A 
ATOM     54  C   UNL A   1      41.726  31.196  36.601  1.00  0.00     0.029 A 
ATOM     55  N   UNL A   1      41.235  30.642  34.504  1.00  0.00    -0.354 N 
ATOM     56  N   UNL A   1      41.507  29.073  32.034  1.00  0.00    -0.248 NA
ATOM     57  C   UNL A   1      42.617  27.454  30.770  1.00  0.00     0.031 C 
ATOM     58  C   UNL A   1      42.609  30.193  36.191  1.00  0.00     0.029 A 
ATOM     59  C   UNL A   1      42.289  29.830  34.891  1.00  0.00     0.049 A 
ATOM     60  H   UNL A   1      40.796  30.616  33.622  1.00  0.00     0.167 HD
ATOM     61  C   UNL A   1      42.523  28.517  32.799  1.00  0.00     0.074 A 
ATOM     62  C   UNL A   1      43.155  27.502  31.981  1.00  0.00     0.031 C 
ATOM     63  C   UNL A   1      42.900  28.819  34.066  1.00  0.00     0.037 A 
BRANCH  50  64
ATOM     64  C   UNL A   1      39.643  33.390  36.654  1.00  0.00     0.064 A 
ATOM     65  C   UNL A   1      38.775  33.045  37.701  1.00  0.00     0.173 A 
ATOM     66  C   UNL A   1      40.351  34.597  36.759  1.00  0.00     0.173 A 
ATOM     67  F   UNL A   1      38.066  31.907  37.644  1.00  0.00    -0.203 F 
ATOM     68  C   UNL A   1      38.601  33.888  38.795  1.00  0.00     0.198 A 
ATOM     69  C   UNL A   1      40.197  35.424  37.870  1.00  0.00     0.198 A 
ATOM     70  F   UNL A   1      41.198  34.973  35.790  1.00  0.00    -0.203 F 
ATOM     71  F   UNL A   1      37.728  33.562  39.758  1.00  0.00    -0.200 F 
ATOM     72  C   UNL A   1      39.317  35.073  38.882  1.00  0.00     0.200 A 
ATOM     73  F   UNL A   1      40.899  36.561  37.959  1.00  0.00    -0.200 F 
ATOM     74  F   UNL A   1      39.153  35.880  39.939  1.00  0.00    -0.200 F 
ENDBRANCH  50  64
BRANCH  51  75
ATOM     75  C   UNL A   1      40.865  27.818  28.450  1.00  0.00     0.064 A 
ATOM     76  C   UNL A   1      41.683  28.282  27.409  1.00  0.00     0.173 A 
ATOM     77  C   UNL A   1      40.253  26.567  28.289  1.00  0.00     0.173 A 
ATOM     78  F   UNL A   1      42.274  29.481  27.507  1.00  0.00    -0.203 F 
ATOM     79  C   UNL A   1      41.863  27.533  26.248  1.00  0.00     0.198 A 
ATOM     80  C   UNL A   1      40.457  25.807  27.140  1.00  0.00     0.198 A 
ATOM     81  F   UNL A   1      39.466  26.076  29.259  1.00  0.00    -0.203 F 
ATOM     82  F   UNL A   1      42.614  28.021  25.251  1.00  0.00    -0.200 F 
ATOM     83  C   UNL A   1      41.255  26.294  26.117  1.00  0.00     0.200 A 
ATOM     84  F   UNL A   1      39.878  24.604  27.023  1.00  0.00    -0.200 F 
ATOM     85  F   UNL A   1      41.433  25.574  25.001  1.00  0.00    -0.200 F 
ENDBRANCH  51  75
BRANCH  63  86
ATOM     86  C   UNL A   1      44.023  28.021  34.659  1.00  0.00     0.064 A 
ATOM     87  C   UNL A   1      43.792  26.812  35.332  1.00  0.00     0.173 A 
ATOM     88  C   UNL A   1      45.351  28.451  34.517  1.00  0.00     0.173 A 
ATOM     89  F   UNL A   1      42.540  26.365  35.506  1.00  0.00    -0.203 F 
ATOM     90  C   UNL A   1      44.849  26.074  35.859  1.00  0.00     0.198 A 
ATOM     91  C   UNL A   1      46.406  27.696  35.019  1.00  0.00     0.198 A 
ATOM     92  F   UNL A   1      45.624  29.598  33.876  1.00  0.00    -0.203 F 
ATOM     93  F   UNL A   1      44.602  24.945  36.537  1.00  0.00    -0.200 F 
ATOM     94  C   UNL A   1      46.155  26.513  35.696  1.00  0.00     0.200 A 
ATOM     95  F   UNL A   1      47.668  28.114  34.848  1.00  0.00    -0.200 F 
ATOM     96  F   UNL A   1      47.171  25.797  36.197  1.00  0.00    -0.200 F 
ENDBRANCH  63  86
ENDBRANCH  37  38
ENDBRANCH  29  32
ENDBRANCH  27  28
ENDBRANCH  26  27
ENDBRANCH  25  26
ENDBRANCH   1  25
TORSDOF 17
ENDMDL
