MODEL 1
REMARK VINA RESULT:     -11.9      0.000      0.000
REMARK SMILES O=C(NCCCCCCNC(=O)c1cc(S[C@H]2CCO[C@@]3(CCOC3)C2)cs1)c1ccc(-c2c3nc(c(-c4c(F)c(F)c(F)c(F)c4F)c4ccc([nH]4)c(-c4c(F)c(F)c(F)c(F)c4F)c4nc(c(-c5c(F)c(F)c(F)c(F)c5F)c5ccc2[nH]5)C=C4)C=C3)cc1
REMARK SMILES IDX 6 1 5 2 4 3 3 4 1 5 2 6 29 8 30 9 91 10 31 11 90 12 32 13
REMARK SMILES IDX 33 14 34 15 84 16 35 17 89 18 83 19 85 20 36 21 88 22 82 23
REMARK SMILES IDX 81 24 37 26 69 27 49 28 68 29 50 30 53 31 67 32 86 33 51 34
REMARK SMILES IDX 52 35 66 37 87 38 54 39 38 40 39 41 47 42 40 43 41 44 45 45
REMARK SMILES IDX 48 46 42 47 43 48 46 49 44 50 70 51 71 52 79 53 72 54 73 55
REMARK SMILES IDX 77 56 80 57 74 58 75 59 78 60 76 61 55 62 56 63 64 64 57 65
REMARK SMILES IDX 58 66 62 67 65 68 59 69 60 70 63 71 61 72 7 73 8 74 9 75
REMARK SMILES IDX 10 76 11 77 12 79 13 80 14 81 28 82 15 83 27 84 16 85 17 86
REMARK SMILES IDX 18 87 26 88 19 89 21 90 20 91 22 92 25 93 23 94 24 95
REMARK H PARENT 3 7 85 25 53 36 10 78
REMARK Flexibility Score: inf
ROOT
ATOM      1  C   UNL A   1      31.421  30.822  26.171  1.00  0.00     0.002 C 
ENDROOT
BRANCH   1   2
ATOM      2  C   UNL A   1      31.368  32.316  26.500  1.00  0.00     0.021 C 
BRANCH   2   3
ATOM      3  C   UNL A   1      32.635  32.910  27.110  1.00  0.00     0.116 C 
BRANCH   3   4
ATOM      4  N   UNL A   1      32.427  34.237  27.660  1.00  0.00    -0.352 N 
ATOM      5  O   UNL A   1      32.643  35.944  29.110  1.00  0.00    -0.269 OA
ATOM      6  C   UNL A   1      33.052  34.858  28.711  1.00  0.00     0.251 C 
ATOM      7  H   UNL A   1      31.732  34.770  27.212  1.00  0.00     0.163 HD
BRANCH   6   8
ATOM      8  C   UNL A   1      34.203  34.221  29.387  1.00  0.00     0.039 A 
ATOM      9  C   UNL A   1      34.028  33.339  30.459  1.00  0.00     0.014 A 
ATOM     10  C   UNL A   1      35.487  34.478  28.897  1.00  0.00     0.014 A 
ATOM     11  C   UNL A   1      35.139  32.787  31.097  1.00  0.00     0.010 A 
ATOM     12  C   UNL A   1      36.596  33.887  29.504  1.00  0.00     0.010 A 
ATOM     13  C   UNL A   1      36.432  33.053  30.621  1.00  0.00    -0.014 A 
BRANCH  13  14
ATOM     14  C   UNL A   1      37.615  32.421  31.254  1.00  0.00     0.031 A 
ATOM     15  C   UNL A   1      38.315  31.271  30.592  1.00  0.00     0.074 A 
ATOM     16  C   UNL A   1      38.026  32.858  32.459  1.00  0.00     0.049 A 
ATOM     17  N   UNL A   1      39.303  30.536  31.038  1.00  0.00    -0.248 NA
ATOM     18  C   UNL A   1      37.835  30.889  29.256  1.00  0.00     0.031 C 
ATOM     19  C   UNL A   1      37.415  33.955  33.209  1.00  0.00     0.029 A 
ATOM     20  N   UNL A   1      39.040  32.418  33.273  1.00  0.00    -0.354 N 
ATOM     21  C   UNL A   1      39.548  29.592  30.051  1.00  0.00     0.074 A 
ATOM     22  C   UNL A   1      38.594  29.835  28.988  1.00  0.00     0.031 C 
ATOM     23  C   UNL A   1      38.062  34.103  34.374  1.00  0.00     0.029 A 
ATOM     24  C   UNL A   1      39.102  33.083  34.472  1.00  0.00     0.049 A 
ATOM     25  H   UNL A   1      39.662  31.698  33.021  1.00  0.00     0.167 HD
ATOM     26  C   UNL A   1      40.485  28.614  30.035  1.00  0.00     0.037 A 
ATOM     27  C   UNL A   1      39.887  32.875  35.546  1.00  0.00     0.037 A 
ATOM     28  C   UNL A   1      41.442  28.387  31.086  1.00  0.00     0.049 A 
ATOM     29  C   UNL A   1      40.910  31.777  35.511  1.00  0.00     0.074 A 
ATOM     30  C   UNL A   1      42.472  27.463  31.132  1.00  0.00     0.029 A 
ATOM     31  N   UNL A   1      41.483  29.089  32.282  1.00  0.00    -0.354 N 
ATOM     32  N   UNL A   1      41.165  30.919  34.553  1.00  0.00    -0.248 NA
ATOM     33  C   UNL A   1      41.753  31.616  36.704  1.00  0.00     0.031 C 
ATOM     34  C   UNL A   1      43.110  27.579  32.372  1.00  0.00     0.029 A 
ATOM     35  C   UNL A   1      42.503  28.602  33.084  1.00  0.00     0.049 A 
ATOM     36  H   UNL A   1      40.876  29.825  32.525  1.00  0.00     0.167 HD
ATOM     37  C   UNL A   1      42.204  30.127  35.018  1.00  0.00     0.074 A 
ATOM     38  C   UNL A   1      42.539  30.611  36.342  1.00  0.00     0.031 C 
ATOM     39  C   UNL A   1      42.823  29.094  34.399  1.00  0.00     0.037 A 
BRANCH  26  40
ATOM     40  C   UNL A   1      40.507  27.697  28.848  1.00  0.00     0.064 A 
ATOM     41  C   UNL A   1      41.313  27.958  27.730  1.00  0.00     0.173 A 
ATOM     42  C   UNL A   1      39.731  26.528  28.841  1.00  0.00     0.173 A 
ATOM     43  F   UNL A   1      42.065  29.068  27.685  1.00  0.00    -0.203 F 
ATOM     44  C   UNL A   1      41.323  27.094  26.638  1.00  0.00     0.198 A 
ATOM     45  C   UNL A   1      39.761  25.655  27.757  1.00  0.00     0.198 A 
ATOM     46  F   UNL A   1      38.948  26.230  29.889  1.00  0.00    -0.203 F 
ATOM     47  F   UNL A   1      42.068  27.384  25.563  1.00  0.00    -0.200 F 
ATOM     48  C   UNL A   1      40.551  25.942  26.654  1.00  0.00     0.200 A 
ATOM     49  F   UNL A   1      39.021  24.537  27.778  1.00  0.00    -0.200 F 
ATOM     50  F   UNL A   1      40.562  25.112  25.602  1.00  0.00    -0.200 F 
ENDBRANCH  26  40
BRANCH  27  51
ATOM     51  C   UNL A   1      39.714  33.736  36.741  1.00  0.00     0.064 A 
ATOM     52  C   UNL A   1      40.330  34.990  36.821  1.00  0.00     0.173 A 
ATOM     53  C   UNL A   1      38.878  33.345  37.797  1.00  0.00     0.173 A 
ATOM     54  F   UNL A   1      41.150  35.397  35.841  1.00  0.00    -0.203 F 
ATOM     55  C   UNL A   1      40.114  35.826  37.915  1.00  0.00     0.198 A 
ATOM     56  C   UNL A   1      38.646  34.189  38.880  1.00  0.00     0.198 A 
ATOM     57  F   UNL A   1      38.263  32.153  37.761  1.00  0.00    -0.203 F 
ATOM     58  F   UNL A   1      40.726  37.016  37.977  1.00  0.00    -0.200 F 
ATOM     59  C   UNL A   1      39.265  35.428  38.938  1.00  0.00     0.200 A 
ATOM     60  F   UNL A   1      37.814  33.808  39.858  1.00  0.00    -0.200 F 
ATOM     61  F   UNL A   1      39.042  36.242  39.979  1.00  0.00    -0.200 F 
ENDBRANCH  27  51
BRANCH  39  62
ATOM     62  C   UNL A   1      43.945  28.424  35.135  1.00  0.00     0.064 A 
ATOM     63  C   UNL A   1      45.264  28.886  35.030  1.00  0.00     0.173 A 
ATOM     64  C   UNL A   1      43.685  27.350  35.998  1.00  0.00     0.173 A 
ATOM     65  F   UNL A   1      45.562  29.900  34.204  1.00  0.00    -0.203 F 
ATOM     66  C   UNL A   1      46.288  28.288  35.761  1.00  0.00     0.198 A 
ATOM     67  C   UNL A   1      44.708  26.768  36.742  1.00  0.00     0.198 A 
ATOM     68  F   UNL A   1      42.437  26.877  36.133  1.00  0.00    -0.203 F 
ATOM     69  F   UNL A   1      47.547  28.727  35.628  1.00  0.00    -0.200 F 
ATOM     70  C   UNL A   1      46.008  27.236  36.621  1.00  0.00     0.200 A 
ATOM     71  F   UNL A   1      44.435  25.758  37.579  1.00  0.00    -0.200 F 
ATOM     72  F   UNL A   1      46.993  26.669  37.330  1.00  0.00    -0.200 F 
ENDBRANCH  39  62
ENDBRANCH  13  14
ENDBRANCH   6   8
ENDBRANCH   3   4
ENDBRANCH   2   3
ENDBRANCH   1   2
BRANCH   1  73
ATOM     73  C   UNL A   1      32.145  29.930  27.186  1.00  0.00     0.002 C 
BRANCH  73  74
ATOM     74  C   UNL A   1      32.368  28.476  26.761  1.00  0.00     0.021 C 
BRANCH  74  75
ATOM     75  C   UNL A   1      33.771  28.154  26.255  1.00  0.00     0.116 C 
BRANCH  75  76
ATOM     76  N   UNL A   1      34.027  28.733  24.945  1.00  0.00    -0.351 N 
ATOM     77  C   UNL A   1      33.686  28.249  23.698  1.00  0.00     0.261 C 
ATOM     78  H   UNL A   1      34.510  29.591  24.949  1.00  0.00     0.163 HD
ATOM     79  O   UNL A   1      34.201  28.792  22.718  1.00  0.00    -0.268 OA
BRANCH  77  80
ATOM     80  C   UNL A   1      32.719  27.172  23.610  1.00  0.00     0.093 A 
ATOM     81  C   UNL A   1      32.939  25.823  23.799  1.00  0.00     0.040 A 
ATOM     82  S   UNL A   1      31.067  27.480  23.306  1.00  0.00    -0.137 S 
ATOM     83  C   UNL A   1      31.779  25.021  23.605  1.00  0.00     0.019 A 
ATOM     84  C   UNL A   1      30.681  25.803  23.327  1.00  0.00     0.080 A 
BRANCH  83  85
ATOM     85  S   UNL A   1      31.736  23.249  23.701  1.00  0.00    -0.122 SA
BRANCH  85  86
ATOM     86  C   UNL A   1      33.008  22.912  24.964  1.00  0.00     0.057 C 
ATOM     87  C   UNL A   1      32.381  22.277  26.204  1.00  0.00     0.043 C 
ATOM     88  C   UNL A   1      34.188  22.049  24.500  1.00  0.00     0.053 C 
ATOM     89  C   UNL A   1      33.440  22.214  27.288  1.00  0.00     0.162 C 
ATOM     90  C   UNL A   1      35.209  21.939  25.663  1.00  0.00     0.095 C 
ATOM     91  O   UNL A   1      34.558  21.454  26.847  1.00  0.00    -0.372 OA
ATOM     92  C   UNL A   1      36.339  20.968  25.356  1.00  0.00     0.066 C 
ATOM     93  C   UNL A   1      35.987  23.249  25.907  1.00  0.00     0.195 C 
ATOM     94  C   UNL A   1      37.402  21.834  24.727  1.00  0.00     0.163 C 
ATOM     95  O   UNL A   1      37.303  23.116  25.349  1.00  0.00    -0.378 OA
ENDBRANCH  85  86
ENDBRANCH  83  85
ENDBRANCH  77  80
ENDBRANCH  75  76
ENDBRANCH  74  75
ENDBRANCH  73  74
ENDBRANCH   1  73
TORSDOF 15
ENDMDL
MODEL 2
REMARK VINA RESULT:     -11.9      1.801      7.572
REMARK SMILES O=C(NCCCCCCNC(=O)c1cc(S[C@H]2CCO[C@@]3(CCOC3)C2)cs1)c1ccc(-c2c3nc(c(-c4c(F)c(F)c(F)c(F)c4F)c4ccc([nH]4)c(-c4c(F)c(F)c(F)c(F)c4F)c4nc(c(-c5c(F)c(F)c(F)c(F)c5F)c5ccc2[nH]5)C=C4)C=C3)cc1
REMARK SMILES IDX 6 1 5 2 4 3 3 4 1 5 2 6 29 8 30 9 91 10 31 11 90 12 32 13
REMARK SMILES IDX 33 14 34 15 84 16 35 17 89 18 83 19 85 20 36 21 88 22 82 23
REMARK SMILES IDX 81 24 37 26 69 27 49 28 68 29 50 30 53 31 67 32 86 33 51 34
REMARK SMILES IDX 52 35 66 37 87 38 54 39 38 40 39 41 47 42 40 43 41 44 45 45
REMARK SMILES IDX 48 46 42 47 43 48 46 49 44 50 70 51 71 52 79 53 72 54 73 55
REMARK SMILES IDX 77 56 80 57 74 58 75 59 78 60 76 61 55 62 56 63 64 64 57 65
REMARK SMILES IDX 58 66 62 67 65 68 59 69 60 70 63 71 61 72 7 73 8 74 9 75
REMARK SMILES IDX 10 76 11 77 12 79 13 80 14 81 28 82 15 83 27 84 16 85 17 86
REMARK SMILES IDX 18 87 26 88 19 89 21 90 20 91 22 92 25 93 23 94 24 95
REMARK H PARENT 3 7 85 25 53 36 10 78
REMARK Flexibility Score: inf
ROOT
ATOM      1  C   UNL A   1      34.399  33.645  28.618  1.00  0.00     0.002 C 
ENDROOT
BRANCH   1   2
ATOM      2  C   UNL A   1      33.127  34.470  28.829  1.00  0.00     0.021 C 
BRANCH   2   3
ATOM      3  C   UNL A   1      33.337  35.927  29.233  1.00  0.00     0.116 C 
BRANCH   3   4
ATOM      4  N   UNL A   1      32.547  36.312  30.388  1.00  0.00    -0.352 N 
ATOM      5  O   UNL A   1      31.820  36.272  32.517  1.00  0.00    -0.269 OA
ATOM      6  C   UNL A   1      32.675  35.938  31.701  1.00  0.00     0.251 C 
ATOM      7  H   UNL A   1      31.808  36.934  30.200  1.00  0.00     0.163 HD
BRANCH   6   8
ATOM      8  C   UNL A   1      33.820  35.113  32.144  1.00  0.00     0.039 A 
ATOM      9  C   UNL A   1      33.648  33.797  32.587  1.00  0.00     0.014 A 
ATOM     10  C   UNL A   1      35.103  35.659  32.060  1.00  0.00     0.014 A 
ATOM     11  C   UNL A   1      34.746  33.062  33.032  1.00  0.00     0.010 A 
ATOM     12  C   UNL A   1      36.209  34.907  32.459  1.00  0.00     0.010 A 
ATOM     13  C   UNL A   1      36.037  33.609  32.967  1.00  0.00    -0.014 A 
BRANCH  13  14
ATOM     14  C   UNL A   1      37.218  32.812  33.379  1.00  0.00     0.031 A 
ATOM     15  C   UNL A   1      37.926  33.104  34.669  1.00  0.00     0.074 A 
ATOM     16  C   UNL A   1      37.682  31.853  32.557  1.00  0.00     0.049 A 
ATOM     17  N   UNL A   1      39.024  32.576  35.148  1.00  0.00    -0.248 NA
ATOM     18  C   UNL A   1      37.325  34.132  35.532  1.00  0.00     0.031 C 
ATOM     19  C   UNL A   1      37.090  31.491  31.269  1.00  0.00     0.029 A 
ATOM     20  N   UNL A   1      38.770  31.024  32.671  1.00  0.00    -0.354 N 
ATOM     21  C   UNL A   1      39.261  33.222  36.354  1.00  0.00     0.074 A 
ATOM     22  C   UNL A   1      38.199  34.193  36.527  1.00  0.00     0.031 C 
ATOM     23  C   UNL A   1      37.821  30.516  30.710  1.00  0.00     0.029 A 
ATOM     24  C   UNL A   1      38.956  30.217  31.577  1.00  0.00     0.049 A 
ATOM     25  H   UNL A   1      39.357  31.010  33.461  1.00  0.00     0.167 HD
ATOM     26  C   UNL A   1      40.270  33.020  37.234  1.00  0.00     0.037 A 
ATOM     27  C   UNL A   1      39.949  29.355  31.288  1.00  0.00     0.037 A 
ATOM     28  C   UNL A   1      41.313  32.041  37.065  1.00  0.00     0.049 A 
ATOM     29  C   UNL A   1      41.065  29.156  32.271  1.00  0.00     0.074 A 
ATOM     30  C   UNL A   1      42.342  31.717  37.932  1.00  0.00     0.029 A 
ATOM     31  N   UNL A   1      41.463  31.232  35.948  1.00  0.00    -0.354 N 
ATOM     32  N   UNL A   1      41.254  29.738  33.431  1.00  0.00    -0.248 NA
ATOM     33  C   UNL A   1      42.105  28.184  31.910  1.00  0.00     0.031 C 
ATOM     34  C   UNL A   1      43.138  30.741  37.322  1.00  0.00     0.029 A 
ATOM     35  C   UNL A   1      42.582  30.428  36.092  1.00  0.00     0.049 A 
ATOM     36  H   UNL A   1      40.863  31.230  35.167  1.00  0.00     0.167 HD
ATOM     37  C   UNL A   1      42.422  29.195  33.944  1.00  0.00     0.074 A 
ATOM     38  C   UNL A   1      42.897  28.230  32.974  1.00  0.00     0.031 C 
ATOM     39  C   UNL A   1      43.042  29.473  35.116  1.00  0.00     0.037 A 
BRANCH  26  40
ATOM     40  C   UNL A   1      40.309  33.891  38.453  1.00  0.00     0.064 A 
ATOM     41  C   UNL A   1      39.624  33.545  39.628  1.00  0.00     0.173 A 
ATOM     42  C   UNL A   1      41.062  35.075  38.456  1.00  0.00     0.173 A 
ATOM     43  F   UNL A   1      38.882  32.429  39.672  1.00  0.00    -0.203 F 
ATOM     44  C   UNL A   1      39.673  34.365  40.753  1.00  0.00     0.198 A 
ATOM     45  C   UNL A   1      41.127  35.880  39.589  1.00  0.00     0.198 A 
ATOM     46  F   UNL A   1      41.740  35.447  37.359  1.00  0.00    -0.203 F 
ATOM     47  F   UNL A   1      38.978  34.038  41.850  1.00  0.00    -0.200 F 
ATOM     48  C   UNL A   1      40.427  35.529  40.734  1.00  0.00     0.200 A 
ATOM     49  F   UNL A   1      41.864  37.000  39.572  1.00  0.00    -0.200 F 
ATOM     50  F   UNL A   1      40.473  36.317  41.817  1.00  0.00    -0.200 F 
ENDBRANCH  26  40
BRANCH  27  51
ATOM     51  C   UNL A   1      39.916  28.628  29.996  1.00  0.00     0.064 A 
ATOM     52  C   UNL A   1      40.508  29.168  28.849  1.00  0.00     0.173 A 
ATOM     53  C   UNL A   1      39.347  27.349  29.902  1.00  0.00     0.173 A 
ATOM     54  F   UNL A   1      41.050  30.394  28.889  1.00  0.00    -0.203 F 
ATOM     55  C   UNL A   1      40.534  28.455  27.652  1.00  0.00     0.198 A 
ATOM     56  C   UNL A   1      39.393  26.628  28.713  1.00  0.00     0.198 A 
ATOM     57  F   UNL A   1      38.773  26.789  30.978  1.00  0.00    -0.203 F 
ATOM     58  F   UNL A   1      41.093  28.998  26.563  1.00  0.00    -0.200 F 
ATOM     59  C   UNL A   1      39.985  27.182  27.588  1.00  0.00     0.200 A 
ATOM     60  F   UNL A   1      38.875  25.393  28.659  1.00  0.00    -0.200 F 
ATOM     61  F   UNL A   1      40.030  26.489  26.442  1.00  0.00    -0.200 F 
ENDBRANCH  27  51
BRANCH  39  62
ATOM     62  C   UNL A   1      44.293  28.709  35.430  1.00  0.00     0.064 A 
ATOM     63  C   UNL A   1      45.556  29.202  35.076  1.00  0.00     0.173 A 
ATOM     64  C   UNL A   1      44.228  27.504  36.144  1.00  0.00     0.173 A 
ATOM     65  F   UNL A   1      45.666  30.342  34.378  1.00  0.00    -0.203 F 
ATOM     66  C   UNL A   1      46.713  28.507  35.421  1.00  0.00     0.198 A 
ATOM     67  C   UNL A   1      45.387  26.824  36.505  1.00  0.00     0.198 A 
ATOM     68  F   UNL A   1      43.040  26.996  36.507  1.00  0.00    -0.203 F 
ATOM     69  F   UNL A   1      47.911  28.982  35.051  1.00  0.00    -0.200 F 
ATOM     70  C   UNL A   1      46.629  27.325  36.141  1.00  0.00     0.200 A 
ATOM     71  F   UNL A   1      45.304  25.685  37.207  1.00  0.00    -0.200 F 
ATOM     72  F   UNL A   1      47.743  26.664  36.480  1.00  0.00    -0.200 F 
ENDBRANCH  39  62
ENDBRANCH  13  14
ENDBRANCH   6   8
ENDBRANCH   3   4
ENDBRANCH   2   3
ENDBRANCH   1   2
BRANCH   1  73
ATOM     73  C   UNL A   1      34.280  32.138  28.874  1.00  0.00     0.002 C 
BRANCH  73  74
ATOM     74  C   UNL A   1      34.847  31.226  27.782  1.00  0.00     0.021 C 
BRANCH  74  75
ATOM     75  C   UNL A   1      33.804  30.529  26.913  1.00  0.00     0.116 C 
BRANCH  75  76
ATOM     76  N   UNL A   1      32.988  29.598  27.676  1.00  0.00    -0.351 N 
ATOM     77  C   UNL A   1      32.128  28.620  27.219  1.00  0.00     0.261 C 
ATOM     78  H   UNL A   1      33.060  29.676  28.654  1.00  0.00     0.163 HD
ATOM     79  O   UNL A   1      31.371  28.101  28.044  1.00  0.00    -0.268 OA
BRANCH  77  80
ATOM     80  C   UNL A   1      32.193  28.231  25.824  1.00  0.00     0.093 A 
ATOM     81  C   UNL A   1      32.837  27.137  25.283  1.00  0.00     0.040 A 
ATOM     82  S   UNL A   1      31.367  29.107  24.613  1.00  0.00    -0.137 S 
ATOM     83  C   UNL A   1      32.739  27.058  23.866  1.00  0.00     0.019 A 
ATOM     84  C   UNL A   1      31.961  28.080  23.368  1.00  0.00     0.080 A 
BRANCH  83  85
ATOM     85  S   UNL A   1      33.511  25.818  22.856  1.00  0.00    -0.122 SA
BRANCH  85  86
ATOM     86  C   UNL A   1      32.996  24.282  23.693  1.00  0.00     0.057 C 
ATOM     87  C   UNL A   1      32.752  23.169  22.673  1.00  0.00     0.043 C 
ATOM     88  C   UNL A   1      33.950  23.767  24.778  1.00  0.00     0.053 C 
ATOM     89  C   UNL A   1      32.131  21.992  23.400  1.00  0.00     0.162 C 
ATOM     90  C   UNL A   1      33.319  22.515  25.441  1.00  0.00     0.095 C 
ATOM     91  O   UNL A   1      32.991  21.540  24.440  1.00  0.00    -0.372 OA
ATOM     92  C   UNL A   1      34.264  21.836  26.419  1.00  0.00     0.066 C 
ATOM     93  C   UNL A   1      32.122  22.856  26.353  1.00  0.00     0.195 C 
ATOM     94  C   UNL A   1      33.948  22.488  27.742  1.00  0.00     0.163 C 
ATOM     95  O   UNL A   1      32.554  22.796  27.722  1.00  0.00    -0.378 OA
ENDBRANCH  85  86
ENDBRANCH  83  85
ENDBRANCH  77  80
ENDBRANCH  75  76
ENDBRANCH  74  75
ENDBRANCH  73  74
ENDBRANCH   1  73
TORSDOF 15
ENDMDL
MODEL 3
REMARK VINA RESULT:     -11.8      1.659      2.587
REMARK SMILES O=C(NCCCCCCNC(=O)c1cc(S[C@H]2CCO[C@@]3(CCOC3)C2)cs1)c1ccc(-c2c3nc(c(-c4c(F)c(F)c(F)c(F)c4F)c4ccc([nH]4)c(-c4c(F)c(F)c(F)c(F)c4F)c4nc(c(-c5c(F)c(F)c(F)c(F)c5F)c5ccc2[nH]5)C=C4)C=C3)cc1
REMARK SMILES IDX 6 1 5 2 4 3 3 4 1 5 2 6 29 8 30 9 91 10 31 11 90 12 32 13
REMARK SMILES IDX 33 14 34 15 84 16 35 17 89 18 83 19 85 20 36 21 88 22 82 23
REMARK SMILES IDX 81 24 37 26 69 27 49 28 68 29 50 30 53 31 67 32 86 33 51 34
REMARK SMILES IDX 52 35 66 37 87 38 54 39 38 40 39 41 47 42 40 43 41 44 45 45
REMARK SMILES IDX 48 46 42 47 43 48 46 49 44 50 70 51 71 52 79 53 72 54 73 55
REMARK SMILES IDX 77 56 80 57 74 58 75 59 78 60 76 61 55 62 56 63 64 64 57 65
REMARK SMILES IDX 58 66 62 67 65 68 59 69 60 70 63 71 61 72 7 73 8 74 9 75
REMARK SMILES IDX 10 76 11 77 12 79 13 80 14 81 28 82 15 83 27 84 16 85 17 86
REMARK SMILES IDX 18 87 26 88 19 89 21 90 20 91 22 92 25 93 23 94 24 95
REMARK H PARENT 3 7 85 25 53 36 10 78
REMARK Flexibility Score: inf
ROOT
ATOM      1  C   UNL A   1      31.390  30.920  26.302  1.00  0.00     0.002 C 
ENDROOT
BRANCH   1   2
ATOM      2  C   UNL A   1      31.353  32.432  26.536  1.00  0.00     0.021 C 
BRANCH   2   3
ATOM      3  C   UNL A   1      32.601  33.039  27.174  1.00  0.00     0.116 C 
BRANCH   3   4
ATOM      4  N   UNL A   1      32.370  34.368  27.710  1.00  0.00    -0.352 N 
ATOM      5  O   UNL A   1      32.549  36.090  29.147  1.00  0.00    -0.269 OA
ATOM      6  C   UNL A   1      32.977  35.006  28.761  1.00  0.00     0.251 C 
ATOM      7  H   UNL A   1      31.672  34.888  27.251  1.00  0.00     0.163 HD
BRANCH   6   8
ATOM      8  C   UNL A   1      34.129  34.391  29.455  1.00  0.00     0.039 A 
ATOM      9  C   UNL A   1      33.960  33.591  30.590  1.00  0.00     0.014 A 
ATOM     10  C   UNL A   1      35.406  34.581  28.918  1.00  0.00     0.014 A 
ATOM     11  C   UNL A   1      35.073  33.058  31.240  1.00  0.00     0.010 A 
ATOM     12  C   UNL A   1      36.516  34.007  29.540  1.00  0.00     0.010 A 
ATOM     13  C   UNL A   1      36.361  33.258  30.717  1.00  0.00    -0.014 A 
BRANCH  13  14
ATOM     14  C   UNL A   1      37.544  32.643  31.366  1.00  0.00     0.031 A 
ATOM     15  C   UNL A   1      38.252  31.485  30.728  1.00  0.00     0.074 A 
ATOM     16  C   UNL A   1      37.949  33.104  32.564  1.00  0.00     0.049 A 
ATOM     17  N   UNL A   1      39.242  30.763  31.191  1.00  0.00    -0.248 NA
ATOM     18  C   UNL A   1      37.778  31.076  29.398  1.00  0.00     0.031 C 
ATOM     19  C   UNL A   1      37.330  34.212  33.291  1.00  0.00     0.029 A 
ATOM     20  N   UNL A   1      38.961  32.685  33.390  1.00  0.00    -0.354 N 
ATOM     21  C   UNL A   1      39.494  29.802  30.222  1.00  0.00     0.074 A 
ATOM     22  C   UNL A   1      38.544  30.021  29.152  1.00  0.00     0.031 C 
ATOM     23  C   UNL A   1      37.972  34.385  34.456  1.00  0.00     0.029 A 
ATOM     24  C   UNL A   1      39.016  33.372  34.577  1.00  0.00     0.049 A 
ATOM     25  H   UNL A   1      39.587  31.963  33.153  1.00  0.00     0.167 HD
ATOM     26  C   UNL A   1      40.436  28.828  30.228  1.00  0.00     0.037 A 
ATOM     27  C   UNL A   1      39.798  33.187  35.657  1.00  0.00     0.037 A 
ATOM     28  C   UNL A   1      41.391  28.625  31.287  1.00  0.00     0.049 A 
ATOM     29  C   UNL A   1      40.825  32.094  35.646  1.00  0.00     0.074 A 
ATOM     30  C   UNL A   1      42.424  27.707  31.353  1.00  0.00     0.029 A 
ATOM     31  N   UNL A   1      41.423  29.349  32.470  1.00  0.00    -0.354 N 
ATOM     32  N   UNL A   1      41.088  31.220  34.706  1.00  0.00    -0.248 NA
ATOM     33  C   UNL A   1      41.665  31.959  36.845  1.00  0.00     0.031 C 
ATOM     34  C   UNL A   1      43.057  27.849  32.594  1.00  0.00     0.029 A 
ATOM     35  C   UNL A   1      42.442  28.882  33.284  1.00  0.00     0.049 A 
ATOM     36  H   UNL A   1      40.812  30.087  32.697  1.00  0.00     0.167 HD
ATOM     37  C   UNL A   1      42.129  30.442  35.189  1.00  0.00     0.074 A 
ATOM     38  C   UNL A   1      42.457  30.951  36.504  1.00  0.00     0.031 C 
ATOM     39  C   UNL A   1      42.756  29.400  34.591  1.00  0.00     0.037 A 
BRANCH  26  40
ATOM     40  C   UNL A   1      40.467  27.890  29.059  1.00  0.00     0.064 A 
ATOM     41  C   UNL A   1      39.695  26.719  29.032  1.00  0.00     0.173 A 
ATOM     42  C   UNL A   1      41.260  28.180  27.938  1.00  0.00     0.173 A 
ATOM     43  F   UNL A   1      38.928  26.393  30.083  1.00  0.00    -0.203 F 
ATOM     44  C   UNL A   1      39.734  25.861  27.936  1.00  0.00     0.198 A 
ATOM     45  C   UNL A   1      41.280  27.331  26.835  1.00  0.00     0.198 A 
ATOM     46  F   UNL A   1      42.013  29.290  27.912  1.00  0.00    -0.203 F 
ATOM     47  F   UNL A   1      39.021  24.727  27.949  1.00  0.00    -0.200 F 
ATOM     48  C   UNL A   1      40.522  26.169  26.837  1.00  0.00     0.200 A 
ATOM     49  F   UNL A   1      42.035  27.635  25.770  1.00  0.00    -0.200 F 
ATOM     50  F   UNL A   1      40.559  25.342  25.784  1.00  0.00    -0.200 F 
ENDBRANCH  26  40
BRANCH  27  51
ATOM     51  C   UNL A   1      39.616  34.070  36.835  1.00  0.00     0.064 A 
ATOM     52  C   UNL A   1      38.815  33.677  37.913  1.00  0.00     0.173 A 
ATOM     53  C   UNL A   1      40.294  35.295  36.930  1.00  0.00     0.173 A 
ATOM     54  F   UNL A   1      38.137  32.522  37.857  1.00  0.00    -0.203 F 
ATOM     55  C   UNL A   1      38.698  34.478  39.048  1.00  0.00     0.198 A 
ATOM     56  C   UNL A   1      40.194  36.083  38.073  1.00  0.00     0.198 A 
ATOM     57  F   UNL A   1      41.077  35.708  35.923  1.00  0.00    -0.203 F 
ATOM     58  F   UNL A   1      37.913  34.088  40.061  1.00  0.00    -0.200 F 
ATOM     59  C   UNL A   1      39.395  35.674  39.130  1.00  0.00     0.200 A 
ATOM     60  F   UNL A   1      40.881  37.231  38.155  1.00  0.00    -0.200 F 
ATOM     61  F   UNL A   1      39.298  36.433  40.231  1.00  0.00    -0.200 F 
ENDBRANCH  27  51
BRANCH  39  62
ATOM     62  C   UNL A   1      43.878  28.749  35.343  1.00  0.00     0.064 A 
ATOM     63  C   UNL A   1      45.206  29.161  35.172  1.00  0.00     0.173 A 
ATOM     64  C   UNL A   1      43.611  27.747  36.287  1.00  0.00     0.173 A 
ATOM     65  F   UNL A   1      45.510  30.105  34.268  1.00  0.00    -0.203 F 
ATOM     66  C   UNL A   1      46.232  28.585  35.916  1.00  0.00     0.198 A 
ATOM     67  C   UNL A   1      44.637  27.188  37.044  1.00  0.00     0.198 A 
ATOM     68  F   UNL A   1      42.354  27.323  36.488  1.00  0.00    -0.203 F 
ATOM     69  F   UNL A   1      47.500  28.974  35.720  1.00  0.00    -0.200 F 
ATOM     70  C   UNL A   1      45.947  27.605  36.856  1.00  0.00     0.200 A 
ATOM     71  F   UNL A   1      44.358  26.247  37.957  1.00  0.00    -0.200 F 
ATOM     72  F   UNL A   1      46.934  27.060  37.578  1.00  0.00    -0.200 F 
ENDBRANCH  39  62
ENDBRANCH  13  14
ENDBRANCH   6   8
ENDBRANCH   3   4
ENDBRANCH   2   3
ENDBRANCH   1   2
BRANCH   1  73
ATOM     73  C   UNL A   1      32.605  30.176  26.867  1.00  0.00     0.002 C 
BRANCH  73  74
ATOM     74  C   UNL A   1      32.860  28.778  26.297  1.00  0.00     0.021 C 
BRANCH  74  75
ATOM     75  C   UNL A   1      32.529  27.622  27.238  1.00  0.00     0.116 C 
BRANCH  75  76
ATOM     76  N   UNL A   1      31.288  26.958  26.874  1.00  0.00    -0.351 N 
ATOM     77  C   UNL A   1      31.084  25.922  25.985  1.00  0.00     0.261 C 
ATOM     78  H   UNL A   1      30.480  27.293  27.325  1.00  0.00     0.163 HD
ATOM     79  O   UNL A   1      29.920  25.668  25.667  1.00  0.00    -0.268 OA
BRANCH  77  80
ATOM     80  C   UNL A   1      32.232  25.170  25.517  1.00  0.00     0.093 A 
ATOM     81  C   UNL A   1      32.760  24.014  26.055  1.00  0.00     0.040 A 
ATOM     82  S   UNL A   1      33.083  25.625  24.107  1.00  0.00    -0.137 S 
ATOM     83  C   UNL A   1      33.919  23.544  25.376  1.00  0.00     0.019 A 
ATOM     84  C   UNL A   1      34.208  24.337  24.288  1.00  0.00     0.080 A 
BRANCH  83  85
ATOM     85  S   UNL A   1      34.878  22.128  25.854  1.00  0.00    -0.122 SA
BRANCH  85  86
ATOM     86  C   UNL A   1      33.885  20.758  25.176  1.00  0.00     0.057 C 
ATOM     87  C   UNL A   1      33.113  21.213  23.938  1.00  0.00     0.043 C 
ATOM     88  C   UNL A   1      34.662  19.479  24.841  1.00  0.00     0.053 C 
ATOM     89  C   UNL A   1      32.154  20.105  23.546  1.00  0.00     0.162 C 
ATOM     90  C   UNL A   1      33.657  18.397  24.366  1.00  0.00     0.095 C 
ATOM     91  O   UNL A   1      32.865  18.902  23.280  1.00  0.00    -0.372 OA
ATOM     92  C   UNL A   1      34.349  17.143  23.855  1.00  0.00     0.066 C 
ATOM     93  C   UNL A   1      32.797  17.828  25.514  1.00  0.00     0.195 C 
ATOM     94  C   UNL A   1      34.459  16.265  25.077  1.00  0.00     0.163 C 
ATOM     95  O   UNL A   1      33.308  16.537  25.878  1.00  0.00    -0.378 OA
ENDBRANCH  85  86
ENDBRANCH  83  85
ENDBRANCH  77  80
ENDBRANCH  75  76
ENDBRANCH  74  75
ENDBRANCH  73  74
ENDBRANCH   1  73
TORSDOF 15
ENDMDL
