MODEL 1
REMARK VINA RESULT:     -11.1      0.000      0.000
REMARK SMILES CC(C)[C@@H](C)C(=O)N[C@@](C)(C(=O)NCCCCCCNC(=O)c1ccc(-c2c3nc(c(-c4c(F)c(F)c(F)c(F)c4F)c4ccc([nH]4)c(-c4c(F)c(F)c(F)c(F)c4F)c4nc(c(-c5c(F)c(F)c(F)c(F)c5F)c5ccc2[nH]5)C=C4)C=C3)cc1)C(F)(F)F
REMARK SMILES IDX 16 1 15 2 14 3 13 4 11 5 12 6 9 8 10 9 8 10 6 11 7 12 4 14
REMARK SMILES IDX 5 15 2 16 1 17 3 18 86 19 87 20 88 21 89 22 17 23 18 24
REMARK SMILES IDX 19 25 20 26 21 27 22 29 23 30 24 31 85 32 25 33 84 34 26 35
REMARK SMILES IDX 27 36 28 37 78 38 29 39 83 40 77 41 79 42 30 43 82 44 76 45
REMARK SMILES IDX 75 46 31 48 63 49 43 50 62 51 44 52 47 53 61 54 80 55 45 56
REMARK SMILES IDX 46 57 60 59 81 60 48 61 32 62 33 63 41 64 34 65 35 66 39 67
REMARK SMILES IDX 42 68 36 69 37 70 40 71 38 72 64 73 65 74 73 75 66 76 67 77
REMARK SMILES IDX 71 78 74 79 68 80 69 81 72 82 70 83 49 84 50 85 58 86 51 87
REMARK SMILES IDX 52 88 56 89 59 90 53 91 54 92 57 93 55 94
REMARK H PARENT 13 7 8 13 20 28 79 47 47 58
REMARK Flexibility Score: inf
ROOT
ATOM      1  C   UNL A   1      37.181  22.365  24.733  1.00  0.00     0.002 C 
ENDROOT
BRANCH   1   2
ATOM      2  C   UNL A   1      36.574  23.293  25.792  1.00  0.00     0.021 C 
BRANCH   2   3
ATOM      3  C   UNL A   1      35.101  23.020  26.092  1.00  0.00     0.116 C 
BRANCH   3   4
ATOM      4  N   UNL A   1      34.329  24.247  26.009  1.00  0.00    -0.354 N 
ATOM      5  C   UNL A   1      33.363  24.714  25.171  1.00  0.00     0.254 C 
ATOM      6  O   UNL A   1      33.056  25.895  25.356  1.00  0.00    -0.272 OA
ATOM      7  H   UNL A   1      34.555  24.887  26.722  1.00  0.00     0.163 HD
BRANCH   5   8
ATOM      8  C   UNL A   1      32.753  23.864  24.034  1.00  0.00     0.212 C 
ATOM      9  C   UNL A   1      31.524  24.554  23.410  1.00  0.00     0.056 C 
BRANCH   8  10
ATOM     10  N   UNL A   1      32.312  22.610  24.758  1.00  0.00    -0.334 N 
ATOM     11  C   UNL A   1      32.149  21.283  24.607  1.00  0.00     0.224 C 
ATOM     12  O   UNL A   1      31.618  20.712  25.569  1.00  0.00    -0.275 OA
ATOM     13  H   UNL A   1      32.048  22.855  25.674  1.00  0.00     0.164 HD
BRANCH  11  14
ATOM     14  C   UNL A   1      32.609  20.469  23.419  1.00  0.00     0.078 C 
ATOM     15  C   UNL A   1      31.842  20.960  22.190  1.00  0.00     0.018 C 
BRANCH  14  16
ATOM     16  C   UNL A   1      32.661  18.970  23.776  1.00  0.00    -0.005 C 
ATOM     17  C   UNL A   1      32.393  18.032  22.603  1.00  0.00     0.008 C 
ATOM     18  C   UNL A   1      34.007  18.618  24.428  1.00  0.00     0.008 C 
ENDBRANCH  14  16
ENDBRANCH  11  14
ENDBRANCH   8  10
BRANCH   8  19
ATOM     19  C   UNL A   1      33.851  23.878  22.929  1.00  0.00     0.420 C 
ATOM     20  F   UNL A   1      34.653  22.800  22.918  1.00  0.00    -0.168 F 
ATOM     21  F   UNL A   1      33.317  23.986  21.687  1.00  0.00    -0.168 F 
ATOM     22  F   UNL A   1      34.646  24.977  23.041  1.00  0.00    -0.168 F 
ENDBRANCH   8  19
ENDBRANCH   5   8
ENDBRANCH   3   4
ENDBRANCH   2   3
ENDBRANCH   1   2
BRANCH   1  23
ATOM     23  C   UNL A   1      36.862  20.880  24.923  1.00  0.00     0.002 C 
BRANCH  23  24
ATOM     24  C   UNL A   1      38.076  19.951  24.857  1.00  0.00     0.021 C 
BRANCH  24  25
ATOM     25  C   UNL A   1      39.129  20.220  25.925  1.00  0.00     0.116 C 
BRANCH  25  26
ATOM     26  N   UNL A   1      40.147  19.185  25.959  1.00  0.00    -0.352 N 
ATOM     27  C   UNL A   1      41.507  19.314  26.067  1.00  0.00     0.251 C 
ATOM     28  H   UNL A   1      39.814  18.260  25.895  1.00  0.00     0.163 HD
ATOM     29  O   UNL A   1      42.240  18.346  25.881  1.00  0.00    -0.269 OA
BRANCH  27  30
ATOM     30  C   UNL A   1      42.091  20.632  26.387  1.00  0.00     0.039 A 
ATOM     31  C   UNL A   1      42.452  21.482  25.340  1.00  0.00     0.014 A 
ATOM     32  C   UNL A   1      42.277  21.028  27.716  1.00  0.00     0.014 A 
ATOM     33  C   UNL A   1      42.949  22.755  25.626  1.00  0.00     0.010 A 
ATOM     34  C   UNL A   1      42.697  22.324  27.997  1.00  0.00     0.010 A 
ATOM     35  C   UNL A   1      43.042  23.198  26.956  1.00  0.00    -0.014 A 
BRANCH  35  36
ATOM     36  C   UNL A   1      43.504  24.572  27.275  1.00  0.00     0.031 A 
ATOM     37  C   UNL A   1      42.535  25.592  27.804  1.00  0.00     0.074 A 
ATOM     38  C   UNL A   1      44.785  24.915  27.033  1.00  0.00     0.049 A 
ATOM     39  N   UNL A   1      42.734  26.856  28.085  1.00  0.00    -0.248 NA
ATOM     40  C   UNL A   1      41.152  25.141  28.019  1.00  0.00     0.031 C 
ATOM     41  C   UNL A   1      45.808  24.027  26.481  1.00  0.00     0.029 A 
ATOM     42  N   UNL A   1      45.442  26.107  27.215  1.00  0.00    -0.354 N 
ATOM     43  C   UNL A   1      41.503  27.348  28.499  1.00  0.00     0.074 A 
ATOM     44  C   UNL A   1      40.551  26.266  28.375  1.00  0.00     0.031 C 
ATOM     45  C   UNL A   1      46.969  24.696  26.391  1.00  0.00     0.029 A 
ATOM     46  C   UNL A   1      46.763  26.070  26.840  1.00  0.00     0.049 A 
ATOM     47  H   UNL A   1      45.007  26.912  27.579  1.00  0.00     0.167 HD
ATOM     48  C   UNL A   1      41.201  28.583  28.964  1.00  0.00     0.037 A 
ATOM     49  C   UNL A   1      47.698  27.038  26.848  1.00  0.00     0.037 A 
ATOM     50  C   UNL A   1      42.156  29.651  29.102  1.00  0.00     0.049 A 
ATOM     51  C   UNL A   1      47.330  28.409  27.351  1.00  0.00     0.074 A 
ATOM     52  C   UNL A   1      41.962  30.922  29.614  1.00  0.00     0.029 A 
ATOM     53  N   UNL A   1      43.487  29.574  28.719  1.00  0.00    -0.354 N 
ATOM     54  N   UNL A   1      46.181  28.843  27.806  1.00  0.00    -0.248 NA
ATOM     55  C   UNL A   1      48.394  29.422  27.346  1.00  0.00     0.031 C 
ATOM     56  C   UNL A   1      43.160  31.632  29.488  1.00  0.00     0.029 A 
ATOM     57  C   UNL A   1      44.119  30.785  28.957  1.00  0.00     0.049 A 
ATOM     58  H   UNL A   1      43.919  28.777  28.334  1.00  0.00     0.167 HD
ATOM     59  C   UNL A   1      46.389  30.166  28.172  1.00  0.00     0.074 A 
ATOM     60  C   UNL A   1      47.781  30.459  27.899  1.00  0.00     0.031 C 
ATOM     61  C   UNL A   1      45.508  31.058  28.687  1.00  0.00     0.037 A 
BRANCH  48  62
ATOM     62  C   UNL A   1      39.775  28.848  29.358  1.00  0.00     0.064 A 
ATOM     63  C   UNL A   1      38.835  29.340  28.439  1.00  0.00     0.173 A 
ATOM     64  C   UNL A   1      39.333  28.574  30.662  1.00  0.00     0.173 A 
ATOM     65  F   UNL A   1      39.206  29.629  27.182  1.00  0.00    -0.203 F 
ATOM     66  C   UNL A   1      37.516  29.577  28.817  1.00  0.00     0.198 A 
ATOM     67  C   UNL A   1      38.005  28.780  31.028  1.00  0.00     0.198 A 
ATOM     68  F   UNL A   1      40.187  28.097  31.579  1.00  0.00    -0.203 F 
ATOM     69  F   UNL A   1      36.651  30.098  27.936  1.00  0.00    -0.200 F 
ATOM     70  C   UNL A   1      37.101  29.290  30.109  1.00  0.00     0.200 A 
ATOM     71  F   UNL A   1      37.602  28.487  32.271  1.00  0.00    -0.200 F 
ATOM     72  F   UNL A   1      35.829  29.510  30.470  1.00  0.00    -0.200 F 
ENDBRANCH  48  62
BRANCH  49  73
ATOM     73  C   UNL A   1      49.079  26.741  26.385  1.00  0.00     0.064 A 
ATOM     74  C   UNL A   1      50.048  26.252  27.272  1.00  0.00     0.173 A 
ATOM     75  C   UNL A   1      49.463  26.948  25.052  1.00  0.00     0.173 A 
ATOM     76  F   UNL A   1      49.736  26.056  28.562  1.00  0.00    -0.203 F 
ATOM     77  C   UNL A   1      51.353  26.004  26.850  1.00  0.00     0.198 A 
ATOM     78  C   UNL A   1      50.759  26.669  24.623  1.00  0.00     0.198 A 
ATOM     79  F   UNL A   1      48.573  27.409  24.159  1.00  0.00    -0.203 F 
ATOM     80  F   UNL A   1      52.271  25.586  27.732  1.00  0.00    -0.200 F 
ATOM     81  C   UNL A   1      51.705  26.207  25.525  1.00  0.00     0.200 A 
ATOM     82  F   UNL A   1      51.091  26.850  23.338  1.00  0.00    -0.200 F 
ATOM     83  F   UNL A   1      52.959  25.965  25.118  1.00  0.00    -0.200 F 
ENDBRANCH  49  73
BRANCH  61  84
ATOM     84  C   UNL A   1      46.030  32.425  29.029  1.00  0.00     0.064 A 
ATOM     85  C   UNL A   1      45.983  33.485  28.112  1.00  0.00     0.173 A 
ATOM     86  C   UNL A   1      46.551  32.685  30.306  1.00  0.00     0.173 A 
ATOM     87  F   UNL A   1      45.509  33.287  26.872  1.00  0.00    -0.203 F 
ATOM     88  C   UNL A   1      46.464  34.748  28.452  1.00  0.00     0.198 A 
ATOM     89  C   UNL A   1      46.998  33.956  30.654  1.00  0.00     0.198 A 
ATOM     90  F   UNL A   1      46.612  31.707  31.223  1.00  0.00    -0.203 F 
ATOM     91  F   UNL A   1      46.458  35.732  27.542  1.00  0.00    -0.200 F 
ATOM     92  C   UNL A   1      46.962  34.984  29.724  1.00  0.00     0.200 A 
ATOM     93  F   UNL A   1      47.465  34.186  31.889  1.00  0.00    -0.200 F 
ATOM     94  F   UNL A   1      47.417  36.201  30.051  1.00  0.00    -0.200 F 
ENDBRANCH  61  84
ENDBRANCH  35  36
ENDBRANCH  27  30
ENDBRANCH  25  26
ENDBRANCH  24  25
ENDBRANCH  23  24
ENDBRANCH   1  23
TORSDOF 17
ENDMDL
MODEL 2
REMARK VINA RESULT:     -11.1      5.560     10.789
REMARK SMILES CC(C)[C@@H](C)C(=O)N[C@@](C)(C(=O)NCCCCCCNC(=O)c1ccc(-c2c3nc(c(-c4c(F)c(F)c(F)c(F)c4F)c4ccc([nH]4)c(-c4c(F)c(F)c(F)c(F)c4F)c4nc(c(-c5c(F)c(F)c(F)c(F)c5F)c5ccc2[nH]5)C=C4)C=C3)cc1)C(F)(F)F
REMARK SMILES IDX 16 1 15 2 14 3 13 4 11 5 12 6 9 8 10 9 8 10 6 11 7 12 4 14
REMARK SMILES IDX 5 15 2 16 1 17 3 18 86 19 87 20 88 21 89 22 17 23 18 24
REMARK SMILES IDX 19 25 20 26 21 27 22 29 23 30 24 31 85 32 25 33 84 34 26 35
REMARK SMILES IDX 27 36 28 37 78 38 29 39 83 40 77 41 79 42 30 43 82 44 76 45
REMARK SMILES IDX 75 46 31 48 63 49 43 50 62 51 44 52 47 53 61 54 80 55 45 56
REMARK SMILES IDX 46 57 60 59 81 60 48 61 32 62 33 63 41 64 34 65 35 66 39 67
REMARK SMILES IDX 42 68 36 69 37 70 40 71 38 72 64 73 65 74 73 75 66 76 67 77
REMARK SMILES IDX 71 78 74 79 68 80 69 81 72 82 70 83 49 84 50 85 58 86 51 87
REMARK SMILES IDX 52 88 56 89 59 90 53 91 54 92 57 93 55 94
REMARK H PARENT 13 7 8 13 20 28 79 47 47 58
REMARK Flexibility Score: inf
ROOT
ATOM      1  C   UNL A   1      32.346  29.812  27.173  1.00  0.00     0.002 C 
ENDROOT
BRANCH   1   2
ATOM      2  C   UNL A   1      31.645  28.491  27.513  1.00  0.00     0.021 C 
BRANCH   2   3
ATOM      3  C   UNL A   1      32.176  27.285  26.741  1.00  0.00     0.116 C 
BRANCH   3   4
ATOM      4  N   UNL A   1      31.581  27.224  25.418  1.00  0.00    -0.354 N 
ATOM      5  C   UNL A   1      31.644  26.345  24.380  1.00  0.00     0.254 C 
ATOM      6  O   UNL A   1      31.093  26.738  23.347  1.00  0.00    -0.272 OA
ATOM      7  H   UNL A   1      30.997  27.995  25.229  1.00  0.00     0.163 HD
BRANCH   5   8
ATOM      8  C   UNL A   1      32.404  25.002  24.460  1.00  0.00     0.212 C 
ATOM      9  C   UNL A   1      32.065  24.090  23.264  1.00  0.00     0.056 C 
BRANCH   8  10
ATOM     10  N   UNL A   1      31.857  24.388  25.731  1.00  0.00    -0.334 N 
ATOM     11  C   UNL A   1      32.005  23.349  26.572  1.00  0.00     0.224 C 
ATOM     12  O   UNL A   1      31.154  23.280  27.469  1.00  0.00    -0.275 OA
ATOM     13  H   UNL A   1      31.126  24.957  26.064  1.00  0.00     0.164 HD
BRANCH  11  14
ATOM     14  C   UNL A   1      33.131  22.340  26.536  1.00  0.00     0.078 C 
ATOM     15  C   UNL A   1      34.358  22.984  27.185  1.00  0.00     0.018 C 
BRANCH  14  16
ATOM     16  C   UNL A   1      33.224  21.680  25.145  1.00  0.00    -0.005 C 
ATOM     17  C   UNL A   1      34.618  21.185  24.772  1.00  0.00     0.008 C 
ATOM     18  C   UNL A   1      32.213  20.529  25.027  1.00  0.00     0.008 C 
ENDBRANCH  14  16
ENDBRANCH  11  14
ENDBRANCH   8  10
BRANCH   8  19
ATOM     19  C   UNL A   1      33.896  25.408  24.273  1.00  0.00     0.420 C 
ATOM     20  F   UNL A   1      34.091  26.512  23.533  1.00  0.00    -0.168 F 
ATOM     21  F   UNL A   1      34.515  25.614  25.462  1.00  0.00    -0.168 F 
ATOM     22  F   UNL A   1      34.610  24.401  23.702  1.00  0.00    -0.168 F 
ENDBRANCH   8  19
ENDBRANCH   5   8
ENDBRANCH   3   4
ENDBRANCH   2   3
ENDBRANCH   1   2
BRANCH   1  23
ATOM     23  C   UNL A   1      31.613  30.681  26.147  1.00  0.00     0.002 C 
BRANCH  23  24
ATOM     24  C   UNL A   1      31.418  32.139  26.567  1.00  0.00     0.021 C 
BRANCH  24  25
ATOM     25  C   UNL A   1      32.621  32.755  27.269  1.00  0.00     0.116 C 
BRANCH  25  26
ATOM     26  N   UNL A   1      32.404  34.153  27.597  1.00  0.00    -0.352 N 
ATOM     27  C   UNL A   1      32.986  34.910  28.579  1.00  0.00     0.251 C 
ATOM     28  H   UNL A   1      31.746  34.623  27.035  1.00  0.00     0.163 HD
ATOM     29  O   UNL A   1      32.545  36.025  28.850  1.00  0.00    -0.269 OA
BRANCH  27  30
ATOM     30  C   UNL A   1      34.137  34.370  29.331  1.00  0.00     0.039 A 
ATOM     31  C   UNL A   1      33.897  33.531  30.421  1.00  0.00     0.014 A 
ATOM     32  C   UNL A   1      35.447  34.688  28.959  1.00  0.00     0.014 A 
ATOM     33  C   UNL A   1      34.974  32.964  31.104  1.00  0.00     0.010 A 
ATOM     34  C   UNL A   1      36.515  34.059  29.589  1.00  0.00     0.010 A 
ATOM     35  C   UNL A   1      36.290  33.196  30.672  1.00  0.00    -0.014 A 
BRANCH  35  36
ATOM     36  C   UNL A   1      37.443  32.547  31.345  1.00  0.00     0.031 A 
ATOM     37  C   UNL A   1      38.157  31.401  30.684  1.00  0.00     0.074 A 
ATOM     38  C   UNL A   1      37.810  32.954  32.576  1.00  0.00     0.049 A 
ATOM     39  N   UNL A   1      39.145  30.669  31.136  1.00  0.00    -0.248 NA
ATOM     40  C   UNL A   1      37.680  31.006  29.350  1.00  0.00     0.031 C 
ATOM     41  C   UNL A   1      37.167  34.026  33.337  1.00  0.00     0.029 A 
ATOM     42  N   UNL A   1      38.808  32.508  33.406  1.00  0.00    -0.354 N 
ATOM     43  C   UNL A   1      39.398  29.726  30.149  1.00  0.00     0.074 A 
ATOM     44  C   UNL A   1      38.423  29.938  29.101  1.00  0.00     0.031 C 
ATOM     45  C   UNL A   1      37.802  34.172  34.512  1.00  0.00     0.029 A 
ATOM     46  C   UNL A   1      38.867  33.178  34.604  1.00  0.00     0.049 A 
ATOM     47  H   UNL A   1      39.423  31.778  33.166  1.00  0.00     0.167 HD
ATOM     48  C   UNL A   1      40.371  28.785  30.110  1.00  0.00     0.037 A 
ATOM     49  C   UNL A   1      39.683  33.003  35.660  1.00  0.00     0.037 A 
ATOM     50  C   UNL A   1      41.349  28.590  31.147  1.00  0.00     0.049 A 
ATOM     51  C   UNL A   1      40.743  31.936  35.599  1.00  0.00     0.074 A 
ATOM     52  C   UNL A   1      42.410  27.701  31.178  1.00  0.00     0.029 A 
ATOM     53  N   UNL A   1      41.382  29.292  32.343  1.00  0.00    -0.354 N 
ATOM     54  N   UNL A   1      41.019  31.097  34.631  1.00  0.00    -0.248 NA
ATOM     55  C   UNL A   1      41.611  31.798  36.777  1.00  0.00     0.031 C 
ATOM     56  C   UNL A   1      43.049  27.826  32.415  1.00  0.00     0.029 A 
ATOM     57  C   UNL A   1      42.428  28.836  33.130  1.00  0.00     0.049 A 
ATOM     58  H   UNL A   1      40.755  30.009  32.595  1.00  0.00     0.167 HD
ATOM     59  C   UNL A   1      42.108  30.354  35.067  1.00  0.00     0.074 A 
ATOM     60  C   UNL A   1      42.453  30.853  36.381  1.00  0.00     0.031 C 
ATOM     61  C   UNL A   1      42.764  29.349  34.435  1.00  0.00     0.037 A 
BRANCH  48  62
ATOM     62  C   UNL A   1      40.425  27.891  28.903  1.00  0.00     0.064 A 
ATOM     63  C   UNL A   1      39.714  26.682  28.848  1.00  0.00     0.173 A 
ATOM     64  C   UNL A   1      41.169  28.264  27.772  1.00  0.00     0.173 A 
ATOM     65  F   UNL A   1      38.996  26.272  29.904  1.00  0.00    -0.203 F 
ATOM     66  C   UNL A   1      39.771  25.865  27.720  1.00  0.00     0.198 A 
ATOM     67  C   UNL A   1      41.197  27.462  26.634  1.00  0.00     0.198 A 
ATOM     68  F   UNL A   1      41.862  29.412  27.767  1.00  0.00    -0.203 F 
ATOM     69  F   UNL A   1      39.128  24.690  27.714  1.00  0.00    -0.200 F 
ATOM     70  C   UNL A   1      40.506  26.260  26.613  1.00  0.00     0.200 A 
ATOM     71  F   UNL A   1      41.894  27.852  25.559  1.00  0.00    -0.200 F 
ATOM     72  F   UNL A   1      40.553  25.478  25.526  1.00  0.00    -0.200 F 
ENDBRANCH  48  62
BRANCH  49  73
ATOM     73  C   UNL A   1      39.544  33.872  36.859  1.00  0.00     0.064 A 
ATOM     74  C   UNL A   1      38.768  33.470  37.955  1.00  0.00     0.173 A 
ATOM     75  C   UNL A   1      40.174  35.123  36.931  1.00  0.00     0.173 A 
ATOM     76  F   UNL A   1      38.130  32.290  37.926  1.00  0.00    -0.203 F 
ATOM     77  C   UNL A   1      38.608  34.295  39.066  1.00  0.00     0.198 A 
ATOM     78  C   UNL A   1      40.040  35.934  38.057  1.00  0.00     0.198 A 
ATOM     79  F   UNL A   1      40.933  35.554  35.913  1.00  0.00    -0.203 F 
ATOM     80  F   UNL A   1      37.819  33.907  40.078  1.00  0.00    -0.200 F 
ATOM     81  C   UNL A   1      39.249  35.523  39.119  1.00  0.00     0.200 A 
ATOM     82  F   UNL A   1      40.674  37.112  38.110  1.00  0.00    -0.200 F 
ATOM     83  F   UNL A   1      39.099  36.315  40.189  1.00  0.00    -0.200 F 
ENDBRANCH  49  73
BRANCH  61  84
ATOM     84  C   UNL A   1      43.947  28.749  35.139  1.00  0.00     0.064 A 
ATOM     85  C   UNL A   1      45.235  29.292  35.016  1.00  0.00     0.173 A 
ATOM     86  C   UNL A   1      43.783  27.636  35.979  1.00  0.00     0.173 A 
ATOM     87  F   UNL A   1      45.450  30.346  34.214  1.00  0.00    -0.203 F 
ATOM     88  C   UNL A   1      46.318  28.726  35.685  1.00  0.00     0.198 A 
ATOM     89  C   UNL A   1      44.860  27.095  36.673  1.00  0.00     0.198 A 
ATOM     90  F   UNL A   1      42.571  27.082  36.137  1.00  0.00    -0.203 F 
ATOM     91  F   UNL A   1      47.547  29.230  35.510  1.00  0.00    -0.200 F 
ATOM     92  C   UNL A   1      46.128  27.635  36.519  1.00  0.00     0.200 A 
ATOM     93  F   UNL A   1      44.672  26.051  37.491  1.00  0.00    -0.200 F 
ATOM     94  F   UNL A   1      47.170  27.097  37.168  1.00  0.00    -0.200 F 
ENDBRANCH  61  84
ENDBRANCH  35  36
ENDBRANCH  27  30
ENDBRANCH  25  26
ENDBRANCH  24  25
ENDBRANCH  23  24
ENDBRANCH   1  23
TORSDOF 17
ENDMDL
MODEL 3
REMARK VINA RESULT:     -11.0      1.453      2.884
REMARK SMILES CC(C)[C@@H](C)C(=O)N[C@@](C)(C(=O)NCCCCCCNC(=O)c1ccc(-c2c3nc(c(-c4c(F)c(F)c(F)c(F)c4F)c4ccc([nH]4)c(-c4c(F)c(F)c(F)c(F)c4F)c4nc(c(-c5c(F)c(F)c(F)c(F)c5F)c5ccc2[nH]5)C=C4)C=C3)cc1)C(F)(F)F
REMARK SMILES IDX 16 1 15 2 14 3 13 4 11 5 12 6 9 8 10 9 8 10 6 11 7 12 4 14
REMARK SMILES IDX 5 15 2 16 1 17 3 18 86 19 87 20 88 21 89 22 17 23 18 24
REMARK SMILES IDX 19 25 20 26 21 27 22 29 23 30 24 31 85 32 25 33 84 34 26 35
REMARK SMILES IDX 27 36 28 37 78 38 29 39 83 40 77 41 79 42 30 43 82 44 76 45
REMARK SMILES IDX 75 46 31 48 63 49 43 50 62 51 44 52 47 53 61 54 80 55 45 56
REMARK SMILES IDX 46 57 60 59 81 60 48 61 32 62 33 63 41 64 34 65 35 66 39 67
REMARK SMILES IDX 42 68 36 69 37 70 40 71 38 72 64 73 65 74 73 75 66 76 67 77
REMARK SMILES IDX 71 78 74 79 68 80 69 81 72 82 70 83 49 84 50 85 58 86 51 87
REMARK SMILES IDX 52 88 56 89 59 90 53 91 54 92 57 93 55 94
REMARK H PARENT 13 7 8 13 20 28 79 47 47 58
REMARK Flexibility Score: inf
ROOT
ATOM      1  C   UNL A   1      35.942  21.345  25.626  1.00  0.00     0.002 C 
ENDROOT
BRANCH   1   2
ATOM      2  C   UNL A   1      34.689  20.505  25.349  1.00  0.00     0.021 C 
BRANCH   2   3
ATOM      3  C   UNL A   1      33.498  21.310  24.832  1.00  0.00     0.116 C 
BRANCH   3   4
ATOM      4  N   UNL A   1      33.869  22.064  23.647  1.00  0.00    -0.354 N 
ATOM      5  C   UNL A   1      33.710  23.355  23.247  1.00  0.00     0.254 C 
ATOM      6  O   UNL A   1      34.046  23.570  22.079  1.00  0.00    -0.272 OA
ATOM      7  H   UNL A   1      34.344  21.515  22.981  1.00  0.00     0.163 HD
BRANCH   5   8
ATOM      8  C   UNL A   1      33.093  24.446  24.151  1.00  0.00     0.212 C 
ATOM      9  C   UNL A   1      31.984  23.869  25.054  1.00  0.00     0.056 C 
BRANCH   8  10
ATOM     10  N   UNL A   1      32.479  25.399  23.148  1.00  0.00    -0.334 N 
ATOM     11  C   UNL A   1      31.531  26.341  23.002  1.00  0.00     0.224 C 
ATOM     12  O   UNL A   1      31.383  26.756  21.845  1.00  0.00    -0.275 OA
ATOM     13  H   UNL A   1      32.946  25.289  22.288  1.00  0.00     0.164 HD
BRANCH  11  14
ATOM     14  C   UNL A   1      30.712  26.947  24.120  1.00  0.00     0.078 C 
ATOM     15  C   UNL A   1      29.419  27.493  23.511  1.00  0.00     0.018 C 
BRANCH  14  16
ATOM     16  C   UNL A   1      31.597  27.829  25.024  1.00  0.00    -0.005 C 
ATOM     17  C   UNL A   1      31.382  29.329  24.850  1.00  0.00     0.008 C 
ATOM     18  C   UNL A   1      31.410  27.444  26.500  1.00  0.00     0.008 C 
ENDBRANCH  14  16
ENDBRANCH  11  14
ENDBRANCH   8  10
BRANCH   8  19
ATOM     19  C   UNL A   1      34.257  24.838  25.109  1.00  0.00     0.420 C 
ATOM     20  F   UNL A   1      35.477  24.452  24.699  1.00  0.00    -0.168 F 
ATOM     21  F   UNL A   1      34.313  26.177  25.313  1.00  0.00    -0.168 F 
ATOM     22  F   UNL A   1      34.063  24.324  26.353  1.00  0.00    -0.168 F 
ENDBRANCH   8  19
ENDBRANCH   5   8
ENDBRANCH   3   4
ENDBRANCH   2   3
ENDBRANCH   1   2
BRANCH   1  23
ATOM     23  C   UNL A   1      37.100  21.109  24.652  1.00  0.00     0.002 C 
BRANCH  23  24
ATOM     24  C   UNL A   1      37.986  19.909  24.991  1.00  0.00     0.021 C 
BRANCH  24  25
ATOM     25  C   UNL A   1      39.133  20.227  25.943  1.00  0.00     0.116 C 
BRANCH  25  26
ATOM     26  N   UNL A   1      40.163  19.204  25.915  1.00  0.00    -0.352 N 
ATOM     27  C   UNL A   1      41.523  19.345  26.016  1.00  0.00     0.251 C 
ATOM     28  H   UNL A   1      39.840  18.280  25.809  1.00  0.00     0.163 HD
ATOM     29  O   UNL A   1      42.266  18.396  25.775  1.00  0.00    -0.269 OA
BRANCH  27  30
ATOM     30  C   UNL A   1      42.094  20.652  26.396  1.00  0.00     0.039 A 
ATOM     31  C   UNL A   1      42.478  21.539  25.388  1.00  0.00     0.014 A 
ATOM     32  C   UNL A   1      42.248  21.002  27.742  1.00  0.00     0.014 A 
ATOM     33  C   UNL A   1      42.964  22.802  25.731  1.00  0.00     0.010 A 
ATOM     34  C   UNL A   1      42.656  22.288  28.078  1.00  0.00     0.010 A 
ATOM     35  C   UNL A   1      43.023  23.199  27.077  1.00  0.00    -0.014 A 
BRANCH  35  36
ATOM     36  C   UNL A   1      43.473  24.562  27.455  1.00  0.00     0.031 A 
ATOM     37  C   UNL A   1      42.466  25.616  27.822  1.00  0.00     0.074 A 
ATOM     38  C   UNL A   1      44.786  24.865  27.411  1.00  0.00     0.049 A 
ATOM     39  N   UNL A   1      42.658  26.876  28.123  1.00  0.00    -0.248 NA
ATOM     40  C   UNL A   1      41.053  25.208  27.825  1.00  0.00     0.031 C 
ATOM     41  C   UNL A   1      45.854  23.941  27.028  1.00  0.00     0.029 A 
ATOM     42  N   UNL A   1      45.443  26.039  27.685  1.00  0.00    -0.354 N 
ATOM     43  C   UNL A   1      41.394  27.409  28.340  1.00  0.00     0.074 A 
ATOM     44  C   UNL A   1      40.440  26.354  28.077  1.00  0.00     0.031 C 
ATOM     45  C   UNL A   1      47.034  24.575  27.114  1.00  0.00     0.029 A 
ATOM     46  C   UNL A   1      46.804  25.959  27.517  1.00  0.00     0.049 A 
ATOM     47  H   UNL A   1      44.983  26.860  27.972  1.00  0.00     0.167 HD
ATOM     48  C   UNL A   1      41.062  28.658  28.745  1.00  0.00     0.037 A 
ATOM     49  C   UNL A   1      47.756  26.899  27.663  1.00  0.00     0.037 A 
ATOM     50  C   UNL A   1      42.017  29.699  29.021  1.00  0.00     0.049 A 
ATOM     51  C   UNL A   1      47.358  28.285  28.095  1.00  0.00     0.074 A 
ATOM     52  C   UNL A   1      41.786  30.980  29.490  1.00  0.00     0.029 A 
ATOM     53  N   UNL A   1      43.389  29.578  28.848  1.00  0.00    -0.354 N 
ATOM     54  N   UNL A   1      46.167  28.758  28.365  1.00  0.00    -0.248 NA
ATOM     55  C   UNL A   1      48.441  29.266  28.248  1.00  0.00     0.031 C 
ATOM     56  C   UNL A   1      43.011  31.652  29.545  1.00  0.00     0.029 A 
ATOM     57  C   UNL A   1      44.013  30.772  29.173  1.00  0.00     0.049 A 
ATOM     58  H   UNL A   1      43.850  28.764  28.539  1.00  0.00     0.167 HD
ATOM     59  C   UNL A   1      46.357  30.079  28.750  1.00  0.00     0.074 A 
ATOM     60  C   UNL A   1      47.782  30.327  28.693  1.00  0.00     0.031 C 
ATOM     61  C   UNL A   1      45.435  31.001  29.118  1.00  0.00     0.037 A 
BRANCH  48  62
ATOM     62  C   UNL A   1      39.602  28.969  28.913  1.00  0.00     0.064 A 
ATOM     63  C   UNL A   1      38.800  29.355  27.827  1.00  0.00     0.173 A 
ATOM     64  C   UNL A   1      38.986  28.845  30.168  1.00  0.00     0.173 A 
ATOM     65  F   UNL A   1      39.339  29.499  26.607  1.00  0.00    -0.203 F 
ATOM     66  C   UNL A   1      37.446  29.636  27.998  1.00  0.00     0.198 A 
ATOM     67  C   UNL A   1      37.626  29.095  30.329  1.00  0.00     0.198 A 
ATOM     68  F   UNL A   1      39.703  28.474  31.239  1.00  0.00    -0.203 F 
ATOM     69  F   UNL A   1      36.715  30.056  26.956  1.00  0.00    -0.200 F 
ATOM     70  C   UNL A   1      36.860  29.499  29.246  1.00  0.00     0.200 A 
ATOM     71  F   UNL A   1      37.057  28.945  31.533  1.00  0.00    -0.200 F 
ATOM     72  F   UNL A   1      35.556  29.762  29.407  1.00  0.00    -0.200 F 
ENDBRANCH  48  62
BRANCH  49  73
ATOM     73  C   UNL A   1      49.183  26.556  27.420  1.00  0.00     0.064 A 
ATOM     74  C   UNL A   1      49.696  26.489  26.117  1.00  0.00     0.173 A 
ATOM     75  C   UNL A   1      50.059  26.280  28.480  1.00  0.00     0.173 A 
ATOM     76  F   UNL A   1      48.893  26.725  25.069  1.00  0.00    -0.203 F 
ATOM     77  C   UNL A   1      51.023  26.135  25.882  1.00  0.00     0.198 A 
ATOM     78  C   UNL A   1      51.395  25.959  28.246  1.00  0.00     0.198 A 
ATOM     79  F   UNL A   1      49.621  26.337  29.746  1.00  0.00    -0.203 F 
ATOM     80  F   UNL A   1      51.474  26.029  24.625  1.00  0.00    -0.200 F 
ATOM     81  C   UNL A   1      51.873  25.877  26.947  1.00  0.00     0.200 A 
ATOM     82  F   UNL A   1      52.216  25.727  29.278  1.00  0.00    -0.200 F 
ATOM     83  F   UNL A   1      53.150  25.542  26.722  1.00  0.00    -0.200 F 
ENDBRANCH  49  73
BRANCH  61  84
ATOM     84  C   UNL A   1      45.940  32.355  29.528  1.00  0.00     0.064 A 
ATOM     85  C   UNL A   1      46.062  33.409  28.609  1.00  0.00     0.173 A 
ATOM     86  C   UNL A   1      46.272  32.613  30.868  1.00  0.00     0.173 A 
ATOM     87  F   UNL A   1      45.773  33.213  27.314  1.00  0.00    -0.203 F 
ATOM     88  C   UNL A   1      46.524  34.660  29.011  1.00  0.00     0.198 A 
ATOM     89  C   UNL A   1      46.699  33.873  31.272  1.00  0.00     0.198 A 
ATOM     90  F   UNL A   1      46.166  31.642  31.788  1.00  0.00    -0.203 F 
ATOM     91  F   UNL A   1      46.683  35.635  28.106  1.00  0.00    -0.200 F 
ATOM     92  C   UNL A   1      46.833  34.893  30.343  1.00  0.00     0.200 A 
ATOM     93  F   UNL A   1      46.982  34.101  32.562  1.00  0.00    -0.200 F 
ATOM     94  F   UNL A   1      47.270  36.100  30.729  1.00  0.00    -0.200 F 
ENDBRANCH  61  84
ENDBRANCH  35  36
ENDBRANCH  27  30
ENDBRANCH  25  26
ENDBRANCH  24  25
ENDBRANCH  23  24
ENDBRANCH   1  23
TORSDOF 17
ENDMDL
