MODEL 1
REMARK VINA RESULT:     -12.6      0.000      0.000
REMARK SMILES Cc1cccc2nc(C(=O)NCC(=O)NCCCCCCNC(=O)c3ccc(-c4c5nc(c(-c6c(F)c(F)c(F)c(F)c6F)c6ccc([nH]6)c(-c6c(F)c(F)c(F)c(F)c6F)c6nc(c(-c7c(F)c(F)c(F)c(F)c7F)c7ccc4[nH]7)C=C6)C=C5)cc3)cn12
REMARK SMILES IDX 18 1 17 2 16 3 15 4 13 5 14 6 12 8 11 9 9 10 10 11 8 13 1 14
REMARK SMILES IDX 2 15 3 16 89 17 4 18 6 19 88 20 5 21 7 22 19 23 20 24 21 25
REMARK SMILES IDX 22 26 23 27 24 29 25 30 26 31 87 32 27 33 86 34 28 35 29 36
REMARK SMILES IDX 30 37 80 38 31 39 85 40 79 41 81 42 32 43 84 44 78 45 77 46
REMARK SMILES IDX 33 48 65 49 45 50 64 51 46 52 49 53 63 54 82 55 47 56 48 57
REMARK SMILES IDX 62 59 83 60 50 61 34 62 35 63 43 64 36 65 37 66 41 67 44 68
REMARK SMILES IDX 38 69 39 70 42 71 40 72 66 73 67 74 75 75 68 76 69 77 73 78
REMARK SMILES IDX 76 79 70 80 71 81 74 82 72 83 51 84 52 85 60 86 53 87 54 88
REMARK SMILES IDX 58 89 61 90 55 91 56 92 59 93 57 94
REMARK H PARENT 15 7 11 12 22 28 81 47 49 58
REMARK Flexibility Score: inf
ROOT
ATOM      1  C   UNL A   1      33.333  28.101  26.500  1.00  0.00     0.002 C 
ENDROOT
BRANCH   1   2
ATOM      2  C   UNL A   1      32.251  28.769  25.645  1.00  0.00     0.021 C 
BRANCH   2   3
ATOM      3  C   UNL A   1      32.692  29.033  24.208  1.00  0.00     0.116 C 
BRANCH   3   4
ATOM      4  N   UNL A   1      31.562  29.316  23.351  1.00  0.00    -0.355 N 
ATOM      5  C   UNL A   1      30.846  28.483  22.548  1.00  0.00     0.239 C 
ATOM      6  O   UNL A   1      29.852  28.958  21.987  1.00  0.00    -0.273 OA
ATOM      7  H   UNL A   1      31.265  30.254  23.350  1.00  0.00     0.163 HD
BRANCH   5   8
ATOM      8  C   UNL A   1      31.149  26.980  22.454  1.00  0.00     0.216 C 
BRANCH   8   9
ATOM      9  N   UNL A   1      31.771  26.535  21.213  1.00  0.00    -0.342 N 
ATOM     10  C   UNL A   1      32.643  25.505  20.950  1.00  0.00     0.271 C 
ATOM     11  O   UNL A   1      32.983  25.334  19.777  1.00  0.00    -0.267 OA
ATOM     12  H   UNL A   1      31.522  27.065  20.421  1.00  0.00     0.164 HD
BRANCH  10  13
ATOM     13  C   UNL A   1      33.202  24.682  22.033  1.00  0.00     0.147 A 
ATOM     14  C   UNL A   1      32.555  20.680  23.830  1.00  0.00     0.065 C 
ATOM     15  C   UNL A   1      33.582  21.740  24.085  1.00  0.00     0.021 A 
ATOM     16  C   UNL A   1      34.547  21.552  25.012  1.00  0.00     0.022 A 
ATOM     17  N   UNL A   1      33.577  22.957  23.375  1.00  0.00    -0.304 N 
ATOM     18  C   UNL A   1      35.540  22.586  25.249  1.00  0.00     0.006 A 
ATOM     19  C   UNL A   1      34.516  23.965  23.585  1.00  0.00     0.137 A 
ATOM     20  C   UNL A   1      32.748  23.422  22.384  1.00  0.00     0.127 A 
ATOM     21  C   UNL A   1      35.523  23.743  24.563  1.00  0.00     0.048 A 
ATOM     22  N   UNL A   1      34.310  24.995  22.794  1.00  0.00    -0.223 NA
ENDBRANCH  10  13
ENDBRANCH   8   9
ENDBRANCH   5   8
ENDBRANCH   3   4
ENDBRANCH   2   3
ENDBRANCH   1   2
BRANCH   1  23
ATOM     23  C   UNL A   1      34.205  29.066  27.319  1.00  0.00     0.002 C 
BRANCH  23  24
ATOM     24  C   UNL A   1      33.728  30.526  27.349  1.00  0.00     0.021 C 
BRANCH  24  25
ATOM     25  C   UNL A   1      34.846  31.511  27.654  1.00  0.00     0.116 C 
BRANCH  25  26
ATOM     26  N   UNL A   1      34.621  32.192  28.922  1.00  0.00    -0.352 N 
ATOM     27  C   UNL A   1      35.217  31.956  30.138  1.00  0.00     0.251 C 
ATOM     28  H   UNL A   1      33.954  32.917  28.906  1.00  0.00     0.163 HD
ATOM     29  O   UNL A   1      34.709  32.361  31.172  1.00  0.00    -0.269 OA
BRANCH  27  30
ATOM     30  C   UNL A   1      36.483  31.209  30.180  1.00  0.00     0.039 A 
ATOM     31  C   UNL A   1      36.465  29.823  30.371  1.00  0.00     0.014 A 
ATOM     32  C   UNL A   1      37.691  31.902  30.073  1.00  0.00     0.014 A 
ATOM     33  C   UNL A   1      37.669  29.132  30.405  1.00  0.00     0.010 A 
ATOM     34  C   UNL A   1      38.878  31.209  30.018  1.00  0.00     0.010 A 
ATOM     35  C   UNL A   1      38.870  29.832  30.223  1.00  0.00    -0.014 A 
BRANCH  35  36
ATOM     36  C   UNL A   1      40.129  29.103  30.168  1.00  0.00     0.031 A 
ATOM     37  C   UNL A   1      40.803  28.892  31.479  1.00  0.00     0.074 A 
ATOM     38  C   UNL A   1      40.560  28.489  29.048  1.00  0.00     0.049 A 
ATOM     39  N   UNL A   1      41.975  29.296  31.843  1.00  0.00    -0.248 NA
ATOM     40  C   UNL A   1      40.048  28.219  32.548  1.00  0.00     0.031 C 
ATOM     41  C   UNL A   1      39.871  28.336  27.764  1.00  0.00     0.029 A 
ATOM     42  N   UNL A   1      41.700  27.771  28.866  1.00  0.00    -0.354 N 
ATOM     43  C   UNL A   1      42.176  28.811  33.134  1.00  0.00     0.074 A 
ATOM     44  C   UNL A   1      40.914  28.262  33.562  1.00  0.00     0.031 C 
ATOM     45  C   UNL A   1      40.502  27.396  27.025  1.00  0.00     0.029 A 
ATOM     46  C   UNL A   1      41.715  26.998  27.715  1.00  0.00     0.049 A 
ATOM     47  H   UNL A   1      42.452  27.798  29.500  1.00  0.00     0.167 HD
ATOM     48  C   UNL A   1      43.422  28.739  33.682  1.00  0.00     0.037 A 
ATOM     49  C   UNL A   1      42.642  26.064  27.389  1.00  0.00     0.037 A 
ATOM     50  C   UNL A   1      44.358  29.559  32.960  1.00  0.00     0.049 A 
ATOM     51  C   UNL A   1      43.860  26.360  28.188  1.00  0.00     0.074 A 
ATOM     52  C   UNL A   1      44.453  30.914  32.701  1.00  0.00     0.029 A 
ATOM     53  N   UNL A   1      45.198  28.953  32.059  1.00  0.00    -0.354 N 
ATOM     54  N   UNL A   1      44.602  27.419  28.012  1.00  0.00    -0.248 NA
ATOM     55  C   UNL A   1      43.992  25.712  29.485  1.00  0.00     0.031 C 
ATOM     56  C   UNL A   1      44.921  30.996  31.357  1.00  0.00     0.029 A 
ATOM     57  C   UNL A   1      45.144  29.694  30.907  1.00  0.00     0.049 A 
ATOM     58  H   UNL A   1      45.734  28.142  32.210  1.00  0.00     0.167 HD
ATOM     59  C   UNL A   1      44.957  27.815  29.293  1.00  0.00     0.074 A 
ATOM     60  C   UNL A   1      44.625  26.680  30.151  1.00  0.00     0.031 C 
ATOM     61  C   UNL A   1      45.216  29.123  29.582  1.00  0.00     0.037 A 
BRANCH  48  62
ATOM     62  C   UNL A   1      43.876  27.693  34.669  1.00  0.00     0.064 A 
ATOM     63  C   UNL A   1      43.807  26.330  34.313  1.00  0.00     0.173 A 
ATOM     64  C   UNL A   1      44.085  27.955  36.039  1.00  0.00     0.173 A 
ATOM     65  F   UNL A   1      43.595  25.964  33.041  1.00  0.00    -0.203 F 
ATOM     66  C   UNL A   1      43.864  25.312  35.271  1.00  0.00     0.198 A 
ATOM     67  C   UNL A   1      44.195  26.936  36.984  1.00  0.00     0.198 A 
ATOM     68  F   UNL A   1      44.079  29.199  36.532  1.00  0.00    -0.203 F 
ATOM     69  F   UNL A   1      43.669  24.040  34.901  1.00  0.00    -0.200 F 
ATOM     70  C   UNL A   1      44.052  25.618  36.606  1.00  0.00     0.200 A 
ATOM     71  F   UNL A   1      44.359  27.251  38.276  1.00  0.00    -0.200 F 
ATOM     72  F   UNL A   1      44.046  24.651  37.533  1.00  0.00    -0.200 F 
ENDBRANCH  48  62
BRANCH  49  73
ATOM     73  C   UNL A   1      42.441  24.773  26.689  1.00  0.00     0.064 A 
ATOM     74  C   UNL A   1      43.155  24.469  25.518  1.00  0.00     0.173 A 
ATOM     75  C   UNL A   1      41.764  23.701  27.303  1.00  0.00     0.173 A 
ATOM     76  F   UNL A   1      43.860  25.422  24.892  1.00  0.00    -0.203 F 
ATOM     77  C   UNL A   1      43.218  23.165  25.015  1.00  0.00     0.198 A 
ATOM     78  C   UNL A   1      41.821  22.402  26.795  1.00  0.00     0.198 A 
ATOM     79  F   UNL A   1      41.113  23.869  28.463  1.00  0.00    -0.203 F 
ATOM     80  F   UNL A   1      43.968  22.902  23.935  1.00  0.00    -0.200 F 
ATOM     81  C   UNL A   1      42.562  22.131  25.661  1.00  0.00     0.200 A 
ATOM     82  F   UNL A   1      41.209  21.405  27.450  1.00  0.00    -0.200 F 
ATOM     83  F   UNL A   1      42.677  20.871  25.218  1.00  0.00    -0.200 F 
ENDBRANCH  49  73
BRANCH  61  84
ATOM     84  C   UNL A   1      45.329  30.095  28.441  1.00  0.00     0.064 A 
ATOM     85  C   UNL A   1      44.236  30.789  27.892  1.00  0.00     0.173 A 
ATOM     86  C   UNL A   1      46.609  30.473  28.013  1.00  0.00     0.173 A 
ATOM     87  F   UNL A   1      42.990  30.561  28.317  1.00  0.00    -0.203 F 
ATOM     88  C   UNL A   1      44.416  31.790  26.939  1.00  0.00     0.198 A 
ATOM     89  C   UNL A   1      46.788  31.498  27.088  1.00  0.00     0.198 A 
ATOM     90  F   UNL A   1      47.694  29.887  28.542  1.00  0.00    -0.203 F 
ATOM     91  F   UNL A   1      43.355  32.435  26.432  1.00  0.00    -0.200 F 
ATOM     92  C   UNL A   1      45.693  32.151  26.546  1.00  0.00     0.200 A 
ATOM     93  F   UNL A   1      48.028  31.879  26.750  1.00  0.00    -0.200 F 
ATOM     94  F   UNL A   1      45.870  33.149  25.669  1.00  0.00    -0.200 F 
ENDBRANCH  61  84
ENDBRANCH  35  36
ENDBRANCH  27  30
ENDBRANCH  25  26
ENDBRANCH  24  25
ENDBRANCH  23  24
ENDBRANCH   1  23
TORSDOF 15
ENDMDL
MODEL 2
REMARK VINA RESULT:     -12.2      3.479      8.813
REMARK SMILES Cc1cccc2nc(C(=O)NCC(=O)NCCCCCCNC(=O)c3ccc(-c4c5nc(c(-c6c(F)c(F)c(F)c(F)c6F)c6ccc([nH]6)c(-c6c(F)c(F)c(F)c(F)c6F)c6nc(c(-c7c(F)c(F)c(F)c(F)c7F)c7ccc4[nH]7)C=C6)C=C5)cc3)cn12
REMARK SMILES IDX 18 1 17 2 16 3 15 4 13 5 14 6 12 8 11 9 9 10 10 11 8 13 1 14
REMARK SMILES IDX 2 15 3 16 89 17 4 18 6 19 88 20 5 21 7 22 19 23 20 24 21 25
REMARK SMILES IDX 22 26 23 27 24 29 25 30 26 31 87 32 27 33 86 34 28 35 29 36
REMARK SMILES IDX 30 37 80 38 31 39 85 40 79 41 81 42 32 43 84 44 78 45 77 46
REMARK SMILES IDX 33 48 65 49 45 50 64 51 46 52 49 53 63 54 82 55 47 56 48 57
REMARK SMILES IDX 62 59 83 60 50 61 34 62 35 63 43 64 36 65 37 66 41 67 44 68
REMARK SMILES IDX 38 69 39 70 42 71 40 72 66 73 67 74 75 75 68 76 69 77 73 78
REMARK SMILES IDX 76 79 70 80 71 81 74 82 72 83 51 84 52 85 60 86 53 87 54 88
REMARK SMILES IDX 58 89 61 90 55 91 56 92 59 93 57 94
REMARK H PARENT 15 7 11 12 22 28 81 47 49 58
REMARK Flexibility Score: inf
ROOT
ATOM      1  C   UNL A   1      36.679  23.456  24.527  1.00  0.00     0.002 C 
ENDROOT
BRANCH   1   2
ATOM      2  C   UNL A   1      35.780  22.221  24.401  1.00  0.00     0.021 C 
BRANCH   2   3
ATOM      3  C   UNL A   1      34.368  22.546  23.921  1.00  0.00     0.116 C 
BRANCH   3   4
ATOM      4  N   UNL A   1      33.471  21.430  24.125  1.00  0.00    -0.355 N 
ATOM      5  C   UNL A   1      32.815  21.032  25.249  1.00  0.00     0.239 C 
ATOM      6  O   UNL A   1      32.021  20.092  25.134  1.00  0.00    -0.273 OA
ATOM      7  H   UNL A   1      33.310  20.874  23.329  1.00  0.00     0.163 HD
BRANCH   5   8
ATOM      8  C   UNL A   1      32.925  21.802  26.573  1.00  0.00     0.216 C 
BRANCH   8   9
ATOM      9  N   UNL A   1      31.680  22.357  27.090  1.00  0.00    -0.342 N 
ATOM     10  C   UNL A   1      30.919  23.426  26.679  1.00  0.00     0.271 C 
ATOM     11  O   UNL A   1      29.873  23.648  27.293  1.00  0.00    -0.267 OA
ATOM     12  H   UNL A   1      31.318  21.880  27.873  1.00  0.00     0.164 HD
BRANCH  10  13
ATOM     13  C   UNL A   1      31.368  24.311  25.594  1.00  0.00     0.147 A 
ATOM     14  C   UNL A   1      33.743  28.024  25.110  1.00  0.00     0.065 C 
ATOM     15  C   UNL A   1      33.127  27.090  24.114  1.00  0.00     0.021 A 
ATOM     16  C   UNL A   1      33.256  27.318  22.788  1.00  0.00     0.022 A 
ATOM     17  N   UNL A   1      32.398  25.955  24.520  1.00  0.00    -0.304 N 
ATOM     18  C   UNL A   1      32.656  26.404  21.832  1.00  0.00     0.006 A 
ATOM     19  C   UNL A   1      31.811  25.065  23.623  1.00  0.00     0.137 A 
ATOM     20  C   UNL A   1      32.112  25.464  25.771  1.00  0.00     0.127 A 
ATOM     21  C   UNL A   1      31.964  25.324  22.234  1.00  0.00     0.048 A 
ATOM     22  N   UNL A   1      31.198  24.081  24.243  1.00  0.00    -0.223 NA
ENDBRANCH  10  13
ENDBRANCH   8   9
ENDBRANCH   5   8
ENDBRANCH   3   4
ENDBRANCH   2   3
ENDBRANCH   1   2
BRANCH   1  23
ATOM     23  C   UNL A   1      37.605  23.467  25.753  1.00  0.00     0.002 C 
BRANCH  23  24
ATOM     24  C   UNL A   1      38.572  22.280  25.862  1.00  0.00     0.021 C 
BRANCH  24  25
ATOM     25  C   UNL A   1      39.680  22.507  26.879  1.00  0.00     0.116 C 
BRANCH  25  26
ATOM     26  N   UNL A   1      40.995  22.326  26.280  1.00  0.00    -0.352 N 
ATOM     27  C   UNL A   1      41.930  23.282  25.963  1.00  0.00     0.251 C 
ATOM     28  H   UNL A   1      41.248  21.397  26.075  1.00  0.00     0.163 HD
ATOM     29  O   UNL A   1      42.831  23.040  25.175  1.00  0.00    -0.269 OA
BRANCH  27  30
ATOM     30  C   UNL A   1      41.834  24.610  26.589  1.00  0.00     0.039 A 
ATOM     31  C   UNL A   1      41.151  25.639  25.933  1.00  0.00     0.014 A 
ATOM     32  C   UNL A   1      42.467  24.837  27.813  1.00  0.00     0.014 A 
ATOM     33  C   UNL A   1      41.068  26.886  26.540  1.00  0.00     0.010 A 
ATOM     34  C   UNL A   1      42.310  26.044  28.455  1.00  0.00     0.010 A 
ATOM     35  C   UNL A   1      41.645  27.078  27.802  1.00  0.00    -0.014 A 
BRANCH  35  36
ATOM     36  C   UNL A   1      41.485  28.353  28.483  1.00  0.00     0.031 A 
ATOM     37  C   UNL A   1      42.529  29.373  28.185  1.00  0.00     0.074 A 
ATOM     38  C   UNL A   1      40.372  28.668  29.177  1.00  0.00     0.049 A 
ATOM     39  N   UNL A   1      43.341  29.943  29.014  1.00  0.00    -0.248 NA
ATOM     40  C   UNL A   1      42.756  29.746  26.780  1.00  0.00     0.031 C 
ATOM     41  C   UNL A   1      39.127  27.905  29.307  1.00  0.00     0.029 A 
ATOM     42  N   UNL A   1      40.091  29.819  29.843  1.00  0.00    -0.354 N 
ATOM     43  C   UNL A   1      44.089  30.854  28.269  1.00  0.00     0.074 A 
ATOM     44  C   UNL A   1      43.773  30.603  26.886  1.00  0.00     0.031 C 
ATOM     45  C   UNL A   1      38.162  28.704  29.813  1.00  0.00     0.029 A 
ATOM     46  C   UNL A   1      38.756  29.976  30.182  1.00  0.00     0.049 A 
ATOM     47  H   UNL A   1      40.779  30.486  30.065  1.00  0.00     0.167 HD
ATOM     48  C   UNL A   1      44.776  31.868  28.867  1.00  0.00     0.037 A 
ATOM     49  C   UNL A   1      38.183  31.098  30.685  1.00  0.00     0.037 A 
ATOM     50  C   UNL A   1      44.947  31.623  30.275  1.00  0.00     0.049 A 
ATOM     51  C   UNL A   1      39.274  31.921  31.268  1.00  0.00     0.074 A 
ATOM     52  C   UNL A   1      45.579  30.641  31.013  1.00  0.00     0.029 A 
ATOM     53  N   UNL A   1      44.108  32.262  31.154  1.00  0.00    -0.354 N 
ATOM     54  N   UNL A   1      39.956  31.577  32.326  1.00  0.00    -0.248 NA
ATOM     55  C   UNL A   1      39.912  32.906  30.405  1.00  0.00     0.031 C 
ATOM     56  C   UNL A   1      44.719  30.411  32.126  1.00  0.00     0.029 A 
ATOM     57  C   UNL A   1      43.656  31.310  32.032  1.00  0.00     0.049 A 
ATOM     58  H   UNL A   1      43.875  33.218  31.155  1.00  0.00     0.167 HD
ATOM     59  C   UNL A   1      41.259  31.960  32.044  1.00  0.00     0.074 A 
ATOM     60  C   UNL A   1      41.156  32.848  30.888  1.00  0.00     0.031 C 
ATOM     61  C   UNL A   1      42.323  31.301  32.587  1.00  0.00     0.037 A 
BRANCH  48  62
ATOM     62  C   UNL A   1      45.021  33.225  28.258  1.00  0.00     0.064 A 
ATOM     63  C   UNL A   1      46.346  33.641  28.007  1.00  0.00     0.173 A 
ATOM     64  C   UNL A   1      44.042  34.238  28.195  1.00  0.00     0.173 A 
ATOM     65  F   UNL A   1      47.360  32.766  28.057  1.00  0.00    -0.203 F 
ATOM     66  C   UNL A   1      46.669  34.984  27.789  1.00  0.00     0.198 A 
ATOM     67  C   UNL A   1      44.363  35.568  27.924  1.00  0.00     0.198 A 
ATOM     68  F   UNL A   1      42.760  34.006  28.502  1.00  0.00    -0.203 F 
ATOM     69  F   UNL A   1      47.954  35.349  27.680  1.00  0.00    -0.200 F 
ATOM     70  C   UNL A   1      45.678  35.946  27.754  1.00  0.00     0.200 A 
ATOM     71  F   UNL A   1      43.390  36.490  27.911  1.00  0.00    -0.200 F 
ATOM     72  F   UNL A   1      45.990  37.241  27.607  1.00  0.00    -0.200 F 
ENDBRANCH  48  62
BRANCH  49  73
ATOM     73  C   UNL A   1      36.830  31.640  30.416  1.00  0.00     0.064 A 
ATOM     74  C   UNL A   1      35.963  31.968  31.471  1.00  0.00     0.173 A 
ATOM     75  C   UNL A   1      36.467  32.112  29.140  1.00  0.00     0.173 A 
ATOM     76  F   UNL A   1      36.253  31.592  32.725  1.00  0.00    -0.203 F 
ATOM     77  C   UNL A   1      34.822  32.753  31.267  1.00  0.00     0.198 A 
ATOM     78  C   UNL A   1      35.325  32.888  28.935  1.00  0.00     0.198 A 
ATOM     79  F   UNL A   1      37.263  31.915  28.079  1.00  0.00    -0.203 F 
ATOM     80  F   UNL A   1      34.058  33.104  32.310  1.00  0.00    -0.200 F 
ATOM     81  C   UNL A   1      34.512  33.223  30.002  1.00  0.00     0.200 A 
ATOM     82  F   UNL A   1      35.056  33.365  27.712  1.00  0.00    -0.200 F 
ATOM     83  F   UNL A   1      33.458  34.030  29.817  1.00  0.00    -0.200 F 
ENDBRANCH  49  73
BRANCH  61  84
ATOM     84  C   UNL A   1      42.058  30.294  33.672  1.00  0.00     0.064 A 
ATOM     85  C   UNL A   1      41.742  28.946  33.428  1.00  0.00     0.173 A 
ATOM     86  C   UNL A   1      42.313  30.664  34.999  1.00  0.00     0.173 A 
ATOM     87  F   UNL A   1      41.582  28.488  32.183  1.00  0.00    -0.203 F 
ATOM     88  C   UNL A   1      41.656  28.021  34.468  1.00  0.00     0.198 A 
ATOM     89  C   UNL A   1      42.262  29.731  36.031  1.00  0.00     0.198 A 
ATOM     90  F   UNL A   1      42.674  31.924  35.287  1.00  0.00    -0.203 F 
ATOM     91  F   UNL A   1      41.353  26.741  34.207  1.00  0.00    -0.200 F 
ATOM     92  C   UNL A   1      41.926  28.413  35.768  1.00  0.00     0.200 A 
ATOM     93  F   UNL A   1      42.575  30.104  37.280  1.00  0.00    -0.200 F 
ATOM     94  F   UNL A   1      41.895  27.514  36.762  1.00  0.00    -0.200 F 
ENDBRANCH  61  84
ENDBRANCH  35  36
ENDBRANCH  27  30
ENDBRANCH  25  26
ENDBRANCH  24  25
ENDBRANCH  23  24
ENDBRANCH   1  23
TORSDOF 15
ENDMDL
MODEL 3
REMARK VINA RESULT:     -12.2      1.844      2.222
REMARK SMILES Cc1cccc2nc(C(=O)NCC(=O)NCCCCCCNC(=O)c3ccc(-c4c5nc(c(-c6c(F)c(F)c(F)c(F)c6F)c6ccc([nH]6)c(-c6c(F)c(F)c(F)c(F)c6F)c6nc(c(-c7c(F)c(F)c(F)c(F)c7F)c7ccc4[nH]7)C=C6)C=C5)cc3)cn12
REMARK SMILES IDX 18 1 17 2 16 3 15 4 13 5 14 6 12 8 11 9 9 10 10 11 8 13 1 14
REMARK SMILES IDX 2 15 3 16 89 17 4 18 6 19 88 20 5 21 7 22 19 23 20 24 21 25
REMARK SMILES IDX 22 26 23 27 24 29 25 30 26 31 87 32 27 33 86 34 28 35 29 36
REMARK SMILES IDX 30 37 80 38 31 39 85 40 79 41 81 42 32 43 84 44 78 45 77 46
REMARK SMILES IDX 33 48 65 49 45 50 64 51 46 52 49 53 63 54 82 55 47 56 48 57
REMARK SMILES IDX 62 59 83 60 50 61 34 62 35 63 43 64 36 65 37 66 41 67 44 68
REMARK SMILES IDX 38 69 39 70 42 71 40 72 66 73 67 74 75 75 68 76 69 77 73 78
REMARK SMILES IDX 76 79 70 80 71 81 74 82 72 83 51 84 52 85 60 86 53 87 54 88
REMARK SMILES IDX 58 89 61 90 55 91 56 92 59 93 57 94
REMARK H PARENT 15 7 11 12 22 28 81 47 49 58
REMARK Flexibility Score: inf
ROOT
ATOM      1  C   UNL A   1      31.739  28.949  26.171  1.00  0.00     0.002 C 
ENDROOT
BRANCH   1   2
ATOM      2  C   UNL A   1      31.661  27.753  27.127  1.00  0.00     0.021 C 
BRANCH   2   3
ATOM      3  C   UNL A   1      31.896  26.412  26.439  1.00  0.00     0.116 C 
BRANCH   3   4
ATOM      4  N   UNL A   1      30.998  25.396  26.941  1.00  0.00    -0.355 N 
ATOM      5  C   UNL A   1      30.749  24.142  26.472  1.00  0.00     0.239 C 
ATOM      6  O   UNL A   1      30.001  23.427  27.147  1.00  0.00    -0.273 OA
ATOM      7  H   UNL A   1      30.489  25.649  27.744  1.00  0.00     0.163 HD
BRANCH   5   8
ATOM      8  C   UNL A   1      31.479  23.570  25.248  1.00  0.00     0.216 C 
BRANCH   8   9
ATOM      9  N   UNL A   1      31.430  22.121  25.099  1.00  0.00    -0.342 N 
ATOM     10  C   UNL A   1      32.409  21.161  25.203  1.00  0.00     0.271 C 
ATOM     11  O   UNL A   1      32.068  19.985  25.062  1.00  0.00    -0.267 OA
ATOM     12  H   UNL A   1      30.536  21.765  24.888  1.00  0.00     0.164 HD
BRANCH  10  13
ATOM     13  C   UNL A   1      33.819  21.527  25.407  1.00  0.00     0.147 A 
ATOM     14  C   UNL A   1      37.827  19.703  24.887  1.00  0.00     0.065 C 
ATOM     15  C   UNL A   1      37.396  21.080  25.292  1.00  0.00     0.021 A 
ATOM     16  C   UNL A   1      38.313  22.031  25.574  1.00  0.00     0.022 A 
ATOM     17  N   UNL A   1      36.034  21.425  25.394  1.00  0.00    -0.304 N 
ATOM     18  C   UNL A   1      37.882  23.363  25.962  1.00  0.00     0.006 A 
ATOM     19  C   UNL A   1      35.595  22.694  25.767  1.00  0.00     0.137 A 
ATOM     20  C   UNL A   1      34.895  20.691  25.164  1.00  0.00     0.127 A 
ATOM     21  C   UNL A   1      36.579  23.679  26.055  1.00  0.00     0.048 A 
ATOM     22  N   UNL A   1      34.283  22.773  25.778  1.00  0.00    -0.223 NA
ENDBRANCH  10  13
ENDBRANCH   8   9
ENDBRANCH   5   8
ENDBRANCH   3   4
ENDBRANCH   2   3
ENDBRANCH   1   2
BRANCH   1  23
ATOM     23  C   UNL A   1      33.091  29.681  26.152  1.00  0.00     0.002 C 
BRANCH  23  24
ATOM     24  C   UNL A   1      33.727  29.931  27.527  1.00  0.00     0.021 C 
BRANCH  24  25
ATOM     25  C   UNL A   1      34.686  31.111  27.532  1.00  0.00     0.116 C 
BRANCH  25  26
ATOM     26  N   UNL A   1      34.516  31.926  28.728  1.00  0.00    -0.352 N 
ATOM     27  C   UNL A   1      35.171  31.826  29.932  1.00  0.00     0.251 C 
ATOM     28  H   UNL A   1      33.844  32.643  28.666  1.00  0.00     0.163 HD
ATOM     29  O   UNL A   1      34.710  32.340  30.940  1.00  0.00    -0.269 OA
BRANCH  27  30
ATOM     30  C   UNL A   1      36.444  31.091  29.994  1.00  0.00     0.039 A 
ATOM     31  C   UNL A   1      36.436  29.707  30.200  1.00  0.00     0.014 A 
ATOM     32  C   UNL A   1      37.646  31.793  29.891  1.00  0.00     0.014 A 
ATOM     33  C   UNL A   1      37.647  29.028  30.253  1.00  0.00     0.010 A 
ATOM     34  C   UNL A   1      38.840  31.110  29.855  1.00  0.00     0.010 A 
ATOM     35  C   UNL A   1      38.843  29.736  30.075  1.00  0.00    -0.014 A 
BRANCH  35  36
ATOM     36  C   UNL A   1      40.108  29.018  30.039  1.00  0.00     0.031 A 
ATOM     37  C   UNL A   1      40.766  28.817  31.360  1.00  0.00     0.074 A 
ATOM     38  C   UNL A   1      40.560  28.404  28.927  1.00  0.00     0.049 A 
ATOM     39  N   UNL A   1      41.930  29.233  31.739  1.00  0.00    -0.248 NA
ATOM     40  C   UNL A   1      40.003  28.141  32.421  1.00  0.00     0.031 C 
ATOM     41  C   UNL A   1      39.889  28.240  27.634  1.00  0.00     0.029 A 
ATOM     42  N   UNL A   1      41.708  27.695  28.764  1.00  0.00    -0.354 N 
ATOM     43  C   UNL A   1      42.118  28.754  33.034  1.00  0.00     0.074 A 
ATOM     44  C   UNL A   1      40.855  28.196  33.447  1.00  0.00     0.031 C 
ATOM     45  C   UNL A   1      40.539  27.303  26.908  1.00  0.00     0.029 A 
ATOM     46  C   UNL A   1      41.746  26.918  27.616  1.00  0.00     0.049 A 
ATOM     47  H   UNL A   1      42.452  27.731  29.407  1.00  0.00     0.167 HD
ATOM     48  C   UNL A   1      43.357  28.695  33.599  1.00  0.00     0.037 A 
ATOM     49  C   UNL A   1      42.686  25.991  27.306  1.00  0.00     0.037 A 
ATOM     50  C   UNL A   1      44.295  29.522  32.886  1.00  0.00     0.049 A 
ATOM     51  C   UNL A   1      43.890  26.301  28.120  1.00  0.00     0.074 A 
ATOM     52  C   UNL A   1      44.381  30.876  32.624  1.00  0.00     0.029 A 
ATOM     53  N   UNL A   1      45.152  28.919  31.999  1.00  0.00    -0.354 N 
ATOM     54  N   UNL A   1      44.625  27.366  27.950  1.00  0.00    -0.248 NA
ATOM     55  C   UNL A   1      44.010  25.658  29.421  1.00  0.00     0.031 C 
ATOM     56  C   UNL A   1      44.867  30.958  31.286  1.00  0.00     0.029 A 
ATOM     57  C   UNL A   1      45.108  29.656  30.843  1.00  0.00     0.049 A 
ATOM     58  H   UNL A   1      45.694  28.113  32.160  1.00  0.00     0.167 HD
ATOM     59  C   UNL A   1      44.959  27.770  29.235  1.00  0.00     0.074 A 
ATOM     60  C   UNL A   1      44.626  26.635  30.092  1.00  0.00     0.031 C 
ATOM     61  C   UNL A   1      45.203  29.081  29.522  1.00  0.00     0.037 A 
BRANCH  48  62
ATOM     62  C   UNL A   1      43.806  27.657  34.596  1.00  0.00     0.064 A 
ATOM     63  C   UNL A   1      43.829  26.299  34.217  1.00  0.00     0.173 A 
ATOM     64  C   UNL A   1      43.922  27.906  35.979  1.00  0.00     0.173 A 
ATOM     65  F   UNL A   1      43.710  25.944  32.929  1.00  0.00    -0.203 F 
ATOM     66  C   UNL A   1      43.884  25.269  35.162  1.00  0.00     0.198 A 
ATOM     67  C   UNL A   1      44.030  26.878  36.914  1.00  0.00     0.198 A 
ATOM     68  F   UNL A   1      43.823  29.139  36.489  1.00  0.00    -0.203 F 
ATOM     69  F   UNL A   1      43.776  23.995  34.763  1.00  0.00    -0.200 F 
ATOM     70  C   UNL A   1      43.977  25.560  36.509  1.00  0.00     0.200 A 
ATOM     71  F   UNL A   1      44.103  27.179  38.218  1.00  0.00    -0.200 F 
ATOM     72  F   UNL A   1      43.968  24.578  37.421  1.00  0.00    -0.200 F 
ENDBRANCH  48  62
BRANCH  49  73
ATOM     73  C   UNL A   1      42.505  24.696  26.608  1.00  0.00     0.064 A 
ATOM     74  C   UNL A   1      43.271  24.375  25.475  1.00  0.00     0.173 A 
ATOM     75  C   UNL A   1      41.789  23.636  27.198  1.00  0.00     0.173 A 
ATOM     76  F   UNL A   1      44.015  25.315  24.875  1.00  0.00    -0.203 F 
ATOM     77  C   UNL A   1      43.345  23.066  24.986  1.00  0.00     0.198 A 
ATOM     78  C   UNL A   1      41.857  22.332  26.704  1.00  0.00     0.198 A 
ATOM     79  F   UNL A   1      41.085  23.821  28.324  1.00  0.00    -0.203 F 
ATOM     80  F   UNL A   1      44.143  22.786  23.946  1.00  0.00    -0.200 F 
ATOM     81  C   UNL A   1      42.649  22.044  25.609  1.00  0.00     0.200 A 
ATOM     82  F   UNL A   1      41.205  21.347  27.338  1.00  0.00    -0.200 F 
ATOM     83  F   UNL A   1      42.772  20.779  25.182  1.00  0.00    -0.200 F 
ENDBRANCH  49  73
BRANCH  61  84
ATOM     84  C   UNL A   1      45.323  30.050  28.379  1.00  0.00     0.064 A 
ATOM     85  C   UNL A   1      44.233  30.741  27.820  1.00  0.00     0.173 A 
ATOM     86  C   UNL A   1      46.605  30.428  27.959  1.00  0.00     0.173 A 
ATOM     87  F   UNL A   1      42.983  30.512  28.237  1.00  0.00    -0.203 F 
ATOM     88  C   UNL A   1      44.418  31.739  26.865  1.00  0.00     0.198 A 
ATOM     89  C   UNL A   1      46.789  31.451  27.033  1.00  0.00     0.198 A 
ATOM     90  F   UNL A   1      47.687  29.845  28.498  1.00  0.00    -0.203 F 
ATOM     91  F   UNL A   1      43.359  32.381  26.349  1.00  0.00    -0.200 F 
ATOM     92  C   UNL A   1      45.697  32.101  26.480  1.00  0.00     0.200 A 
ATOM     93  F   UNL A   1      48.031  31.833  26.702  1.00  0.00    -0.200 F 
ATOM     94  F   UNL A   1      45.880  33.096  25.602  1.00  0.00    -0.200 F 
ENDBRANCH  61  84
ENDBRANCH  35  36
ENDBRANCH  27  30
ENDBRANCH  25  26
ENDBRANCH  24  25
ENDBRANCH  23  24
ENDBRANCH   1  23
TORSDOF 15
ENDMDL
