MODEL 1
REMARK VINA RESULT:     -12.0      0.000      0.000
REMARK SMILES O=C(Cc1cccn1-c1ccccc1F)NCCCCCCNC(=O)c1ccc(-c2c3nc(c(-c4c(F)c(F)c(F)c(F)c4F)c4ccc([nH]4)c(-c4c(F)c(F)c(F)c(F)c4F)c4nc(c(-c5c(F)c(F)c(F)c(F)c5F)c5ccc2[nH]5)C=C4)C=C3)cc1
REMARK SMILES IDX 19 1 18 2 17 3 16 4 1 5 2 6 3 8 4 9 5 10 8 11 6 12 7 13 9 14
REMARK SMILES IDX 10 15 14 16 11 17 13 18 15 19 12 20 20 21 21 22 22 23 23 24
REMARK SMILES IDX 24 25 25 27 26 28 27 29 88 30 28 31 87 32 29 33 30 34 31 35
REMARK SMILES IDX 81 36 32 37 86 38 80 39 82 40 33 41 85 42 79 43 78 44 34 46
REMARK SMILES IDX 66 47 46 48 65 49 47 50 50 51 64 52 83 53 48 54 49 55 63 57
REMARK SMILES IDX 84 58 51 59 35 60 36 61 44 62 37 63 38 64 42 65 45 66 39 67
REMARK SMILES IDX 40 68 43 69 41 70 67 71 68 72 76 73 69 74 70 75 74 76 77 77
REMARK SMILES IDX 71 78 72 79 75 80 73 81 52 82 53 83 61 84 54 85 55 86 59 87
REMARK SMILES IDX 62 88 56 89 57 90 60 91 58 92
REMARK H PARENT 16 7 23 26 82 45 50 56
REMARK Flexibility Score: inf
ROOT
ATOM      1  C   UNL A   1      33.670  27.271  23.529  1.00  0.00     0.002 C 
ENDROOT
BRANCH   1   2
ATOM      2  C   UNL A   1      32.373  27.174  22.711  1.00  0.00     0.021 C 
BRANCH   2   3
ATOM      3  C   UNL A   1      32.130  25.956  21.812  1.00  0.00     0.116 C 
BRANCH   3   4
ATOM      4  N   UNL A   1      31.915  24.708  22.514  1.00  0.00    -0.356 N 
ATOM      5  O   UNL A   1      33.782  23.660  21.667  1.00  0.00    -0.275 OA
ATOM      6  C   UNL A   1      32.807  23.649  22.415  1.00  0.00     0.225 C 
ATOM      7  H   UNL A   1      31.114  24.606  23.078  1.00  0.00     0.163 HD
BRANCH   6   8
ATOM      8  C   UNL A   1      32.454  22.462  23.293  1.00  0.00     0.154 C 
BRANCH   8   9
ATOM      9  C   UNL A   1      32.296  22.688  24.778  1.00  0.00     0.032 A 
ATOM     10  C   UNL A   1      31.069  22.849  25.419  1.00  0.00     0.024 A 
ATOM     11  N   UNL A   1      33.269  22.717  25.773  1.00  0.00    -0.318 N 
ATOM     12  C   UNL A   1      31.290  22.988  26.802  1.00  0.00     0.020 A 
ATOM     13  C   UNL A   1      32.643  22.876  26.996  1.00  0.00     0.091 A 
BRANCH  11  14
ATOM     14  C   UNL A   1      34.667  22.659  25.669  1.00  0.00     0.081 A 
ATOM     15  C   UNL A   1      35.414  23.844  25.653  1.00  0.00     0.030 A 
ATOM     16  C   UNL A   1      35.297  21.440  25.491  1.00  0.00     0.147 A 
ATOM     17  C   UNL A   1      36.807  23.785  25.564  1.00  0.00     0.002 A 
ATOM     18  C   UNL A   1      36.679  21.399  25.362  1.00  0.00     0.041 A 
ATOM     19  F   UNL A   1      34.598  20.296  25.427  1.00  0.00    -0.205 F 
ATOM     20  C   UNL A   1      37.444  22.557  25.435  1.00  0.00     0.003 A 
ENDBRANCH  11  14
ENDBRANCH   8   9
ENDBRANCH   6   8
ENDBRANCH   3   4
ENDBRANCH   2   3
ENDBRANCH   1   2
BRANCH   1  21
ATOM     21  C   UNL A   1      33.656  27.197  25.062  1.00  0.00     0.002 C 
BRANCH  21  22
ATOM     22  C   UNL A   1      33.689  28.505  25.867  1.00  0.00     0.021 C 
BRANCH  22  23
ATOM     23  C   UNL A   1      34.827  28.580  26.875  1.00  0.00     0.116 C 
BRANCH  23  24
ATOM     24  N   UNL A   1      35.180  29.970  27.137  1.00  0.00    -0.352 N 
ATOM     25  C   UNL A   1      36.270  30.504  27.775  1.00  0.00     0.251 C 
ATOM     26  H   UNL A   1      34.532  30.632  26.802  1.00  0.00     0.163 HD
ATOM     27  O   UNL A   1      36.249  31.658  28.172  1.00  0.00    -0.269 OA
BRANCH  25  28
ATOM     28  C   UNL A   1      37.462  29.673  28.003  1.00  0.00     0.039 A 
ATOM     29  C   UNL A   1      38.472  29.689  27.037  1.00  0.00     0.014 A 
ATOM     30  C   UNL A   1      37.560  28.864  29.140  1.00  0.00     0.014 A 
ATOM     31  C   UNL A   1      39.625  28.949  27.250  1.00  0.00     0.010 A 
ATOM     32  C   UNL A   1      38.732  28.172  29.388  1.00  0.00     0.010 A 
ATOM     33  C   UNL A   1      39.760  28.225  28.443  1.00  0.00    -0.014 A 
BRANCH  33  34
ATOM     34  C   UNL A   1      41.062  27.605  28.744  1.00  0.00     0.031 A 
ATOM     35  C   UNL A   1      41.147  26.170  28.186  1.00  0.00     0.074 A 
ATOM     36  C   UNL A   1      41.923  28.388  29.462  1.00  0.00     0.049 A 
ATOM     37  N   UNL A   1      41.845  25.154  28.589  1.00  0.00    -0.248 NA
ATOM     38  C   UNL A   1      40.274  25.787  27.038  1.00  0.00     0.031 C 
ATOM     39  C   UNL A   1      41.650  29.789  29.854  1.00  0.00     0.029 A 
ATOM     40  N   UNL A   1      43.174  28.196  30.011  1.00  0.00    -0.354 N 
ATOM     41  C   UNL A   1      41.644  24.095  27.671  1.00  0.00     0.074 A 
ATOM     42  C   UNL A   1      40.585  24.510  26.804  1.00  0.00     0.031 C 
ATOM     43  C   UNL A   1      42.637  30.276  30.632  1.00  0.00     0.029 A 
ATOM     44  C   UNL A   1      43.644  29.257  30.832  1.00  0.00     0.049 A 
ATOM     45  H   UNL A   1      43.702  27.382  29.847  1.00  0.00     0.167 HD
ATOM     46  C   UNL A   1      42.454  22.994  27.618  1.00  0.00     0.037 A 
ATOM     47  C   UNL A   1      44.729  29.284  31.667  1.00  0.00     0.037 A 
ATOM     48  C   UNL A   1      43.444  23.081  28.637  1.00  0.00     0.049 A 
ATOM     49  C   UNL A   1      45.427  28.013  31.413  1.00  0.00     0.074 A 
ATOM     50  C   UNL A   1      43.370  22.920  29.995  1.00  0.00     0.029 A 
ATOM     51  N   UNL A   1      44.601  23.749  28.324  1.00  0.00    -0.354 N 
ATOM     52  N   UNL A   1      46.084  27.731  30.328  1.00  0.00    -0.248 NA
ATOM     53  C   UNL A   1      45.263  26.921  32.381  1.00  0.00     0.031 C 
ATOM     54  C   UNL A   1      44.222  23.930  30.484  1.00  0.00     0.029 A 
ATOM     55  C   UNL A   1      44.958  24.482  29.428  1.00  0.00     0.049 A 
ATOM     56  H   UNL A   1      45.085  23.710  27.467  1.00  0.00     0.167 HD
ATOM     57  C   UNL A   1      46.106  26.357  30.351  1.00  0.00     0.074 A 
ATOM     58  C   UNL A   1      45.893  25.955  31.722  1.00  0.00     0.031 C 
ATOM     59  C   UNL A   1      45.765  25.662  29.236  1.00  0.00     0.037 A 
BRANCH  46  60
ATOM     60  C   UNL A   1      42.626  21.890  26.609  1.00  0.00     0.064 A 
ATOM     61  C   UNL A   1      43.552  21.937  25.561  1.00  0.00     0.173 A 
ATOM     62  C   UNL A   1      42.103  20.606  26.921  1.00  0.00     0.173 A 
ATOM     63  F   UNL A   1      44.118  23.094  25.193  1.00  0.00    -0.203 F 
ATOM     64  C   UNL A   1      43.998  20.769  24.931  1.00  0.00     0.198 A 
ATOM     65  C   UNL A   1      42.584  19.443  26.324  1.00  0.00     0.198 A 
ATOM     66  F   UNL A   1      41.169  20.458  27.874  1.00  0.00    -0.203 F 
ATOM     67  F   UNL A   1      44.928  20.850  23.969  1.00  0.00    -0.200 F 
ATOM     68  C   UNL A   1      43.548  19.524  25.341  1.00  0.00     0.200 A 
ATOM     69  F   UNL A   1      42.160  18.245  26.754  1.00  0.00    -0.200 F 
ATOM     70  F   UNL A   1      44.067  18.407  24.813  1.00  0.00    -0.200 F 
ENDBRANCH  46  60
BRANCH  47  71
ATOM     71  C   UNL A   1      45.240  30.144  32.805  1.00  0.00     0.064 A 
ATOM     72  C   UNL A   1      46.530  30.739  32.713  1.00  0.00     0.173 A 
ATOM     73  C   UNL A   1      44.613  30.345  34.041  1.00  0.00     0.173 A 
ATOM     74  F   UNL A   1      47.190  30.810  31.549  1.00  0.00    -0.203 F 
ATOM     75  C   UNL A   1      47.212  31.278  33.804  1.00  0.00     0.198 A 
ATOM     76  C   UNL A   1      45.278  30.938  35.131  1.00  0.00     0.198 A 
ATOM     77  F   UNL A   1      43.337  29.999  34.237  1.00  0.00    -0.203 F 
ATOM     78  F   UNL A   1      48.479  31.692  33.656  1.00  0.00    -0.200 F 
ATOM     79  C   UNL A   1      46.592  31.355  35.026  1.00  0.00     0.200 A 
ATOM     80  F   UNL A   1      44.638  31.084  36.300  1.00  0.00    -0.200 F 
ATOM     81  F   UNL A   1      47.250  31.842  36.087  1.00  0.00    -0.200 F 
ENDBRANCH  47  71
BRANCH  59  82
ATOM     82  C   UNL A   1      45.960  26.420  27.939  1.00  0.00     0.064 A 
ATOM     83  C   UNL A   1      44.912  26.866  27.115  1.00  0.00     0.173 A 
ATOM     84  C   UNL A   1      47.251  26.806  27.550  1.00  0.00     0.173 A 
ATOM     85  F   UNL A   1      43.649  26.551  27.391  1.00  0.00    -0.203 F 
ATOM     86  C   UNL A   1      45.130  27.649  25.979  1.00  0.00     0.198 A 
ATOM     87  C   UNL A   1      47.474  27.594  26.416  1.00  0.00     0.198 A 
ATOM     88  F   UNL A   1      48.311  26.410  28.270  1.00  0.00    -0.203 F 
ATOM     89  F   UNL A   1      44.092  28.036  25.221  1.00  0.00    -0.200 F 
ATOM     90  C   UNL A   1      46.414  28.015  25.632  1.00  0.00     0.200 A 
ATOM     91  F   UNL A   1      48.725  27.935  26.079  1.00  0.00    -0.200 F 
ATOM     92  F   UNL A   1      46.631  28.756  24.535  1.00  0.00    -0.200 F 
ENDBRANCH  59  82
ENDBRANCH  33  34
ENDBRANCH  25  28
ENDBRANCH  23  24
ENDBRANCH  22  23
ENDBRANCH  21  22
ENDBRANCH   1  21
TORSDOF 15
ENDMDL
MODEL 2
REMARK VINA RESULT:     -11.9      0.869      1.576
REMARK SMILES O=C(Cc1cccn1-c1ccccc1F)NCCCCCCNC(=O)c1ccc(-c2c3nc(c(-c4c(F)c(F)c(F)c(F)c4F)c4ccc([nH]4)c(-c4c(F)c(F)c(F)c(F)c4F)c4nc(c(-c5c(F)c(F)c(F)c(F)c5F)c5ccc2[nH]5)C=C4)C=C3)cc1
REMARK SMILES IDX 19 1 18 2 17 3 16 4 1 5 2 6 3 8 4 9 5 10 8 11 6 12 7 13 9 14
REMARK SMILES IDX 10 15 14 16 11 17 13 18 15 19 12 20 20 21 21 22 22 23 23 24
REMARK SMILES IDX 24 25 25 27 26 28 27 29 88 30 28 31 87 32 29 33 30 34 31 35
REMARK SMILES IDX 81 36 32 37 86 38 80 39 82 40 33 41 85 42 79 43 78 44 34 46
REMARK SMILES IDX 66 47 46 48 65 49 47 50 50 51 64 52 83 53 48 54 49 55 63 57
REMARK SMILES IDX 84 58 51 59 35 60 36 61 44 62 37 63 38 64 42 65 45 66 39 67
REMARK SMILES IDX 40 68 43 69 41 70 67 71 68 72 76 73 69 74 70 75 74 76 77 77
REMARK SMILES IDX 71 78 72 79 75 80 73 81 52 82 53 83 61 84 54 85 55 86 59 87
REMARK SMILES IDX 62 88 56 89 57 90 60 91 58 92
REMARK H PARENT 16 7 23 26 82 45 50 56
REMARK Flexibility Score: inf
ROOT
ATOM      1  C   UNL A   1      32.234  28.080  24.737  1.00  0.00     0.002 C 
ENDROOT
BRANCH   1   2
ATOM      2  C   UNL A   1      33.188  28.684  23.694  1.00  0.00     0.021 C 
BRANCH   2   3
ATOM      3  C   UNL A   1      33.654  27.834  22.506  1.00  0.00     0.116 C 
BRANCH   3   4
ATOM      4  N   UNL A   1      33.646  26.404  22.735  1.00  0.00    -0.356 N 
ATOM      5  O   UNL A   1      31.965  25.953  21.227  1.00  0.00    -0.275 OA
ATOM      6  C   UNL A   1      32.809  25.553  22.025  1.00  0.00     0.225 C 
ATOM      7  H   UNL A   1      34.251  26.023  23.413  1.00  0.00     0.163 HD
BRANCH   6   8
ATOM      8  C   UNL A   1      33.011  24.083  22.346  1.00  0.00     0.154 C 
BRANCH   8   9
ATOM      9  C   UNL A   1      32.534  23.567  23.684  1.00  0.00     0.032 A 
ATOM     10  C   UNL A   1      31.199  23.540  24.080  1.00  0.00     0.024 A 
ATOM     11  N   UNL A   1      33.266  22.986  24.715  1.00  0.00    -0.318 N 
ATOM     12  C   UNL A   1      31.113  22.952  25.357  1.00  0.00     0.020 A 
ATOM     13  C   UNL A   1      32.389  22.597  25.711  1.00  0.00     0.091 A 
BRANCH  11  14
ATOM     14  C   UNL A   1      34.652  22.817  24.854  1.00  0.00     0.081 A 
ATOM     15  C   UNL A   1      35.216  21.543  24.709  1.00  0.00     0.030 A 
ATOM     16  C   UNL A   1      35.445  23.890  25.223  1.00  0.00     0.147 A 
ATOM     17  C   UNL A   1      36.598  21.378  24.833  1.00  0.00     0.002 A 
ATOM     18  C   UNL A   1      36.812  23.703  25.383  1.00  0.00     0.041 A 
ATOM     19  F   UNL A   1      34.919  25.104  25.442  1.00  0.00    -0.205 F 
ATOM     20  C   UNL A   1      37.402  22.466  25.154  1.00  0.00     0.003 A 
ENDBRANCH  11  14
ENDBRANCH   8   9
ENDBRANCH   6   8
ENDBRANCH   3   4
ENDBRANCH   2   3
ENDBRANCH   1   2
BRANCH   1  21
ATOM     21  C   UNL A   1      32.756  27.512  26.064  1.00  0.00     0.002 C 
BRANCH  21  22
ATOM     22  C   UNL A   1      33.366  28.477  27.092  1.00  0.00     0.021 C 
BRANCH  22  23
ATOM     23  C   UNL A   1      34.855  28.723  26.898  1.00  0.00     0.116 C 
BRANCH  23  24
ATOM     24  N   UNL A   1      35.195  30.092  27.270  1.00  0.00    -0.352 N 
ATOM     25  C   UNL A   1      36.256  30.579  27.989  1.00  0.00     0.251 C 
ATOM     26  H   UNL A   1      34.561  30.776  26.953  1.00  0.00     0.163 HD
ATOM     27  O   UNL A   1      36.216  31.704  28.463  1.00  0.00    -0.269 OA
BRANCH  25  28
ATOM     28  C   UNL A   1      37.438  29.733  28.212  1.00  0.00     0.039 A 
ATOM     29  C   UNL A   1      38.424  29.703  27.221  1.00  0.00     0.014 A 
ATOM     30  C   UNL A   1      37.550  28.954  29.368  1.00  0.00     0.014 A 
ATOM     31  C   UNL A   1      39.567  28.948  27.426  1.00  0.00     0.010 A 
ATOM     32  C   UNL A   1      38.715  28.248  29.606  1.00  0.00     0.010 A 
ATOM     33  C   UNL A   1      39.720  28.255  28.635  1.00  0.00    -0.014 A 
BRANCH  33  34
ATOM     34  C   UNL A   1      41.018  27.620  28.922  1.00  0.00     0.031 A 
ATOM     35  C   UNL A   1      41.093  26.197  28.331  1.00  0.00     0.074 A 
ATOM     36  C   UNL A   1      41.884  28.380  29.658  1.00  0.00     0.049 A 
ATOM     37  N   UNL A   1      41.784  25.168  28.709  1.00  0.00    -0.248 NA
ATOM     38  C   UNL A   1      40.217  25.848  27.175  1.00  0.00     0.031 C 
ATOM     39  C   UNL A   1      41.621  29.774  30.082  1.00  0.00     0.029 A 
ATOM     40  N   UNL A   1      43.133  28.167  30.202  1.00  0.00    -0.354 N 
ATOM     41  C   UNL A   1      41.576  24.131  27.768  1.00  0.00     0.074 A 
ATOM     42  C   UNL A   1      40.520  24.574  26.911  1.00  0.00     0.031 C 
ATOM     43  C   UNL A   1      42.610  30.236  30.871  1.00  0.00     0.029 A 
ATOM     44  C   UNL A   1      43.610  29.206  31.047  1.00  0.00     0.049 A 
ATOM     45  H   UNL A   1      43.656  27.354  30.019  1.00  0.00     0.167 HD
ATOM     46  C   UNL A   1      42.379  23.027  27.689  1.00  0.00     0.037 A 
ATOM     47  C   UNL A   1      44.696  29.205  31.882  1.00  0.00     0.037 A 
ATOM     48  C   UNL A   1      43.370  23.083  28.709  1.00  0.00     0.049 A 
ATOM     49  C   UNL A   1      45.386  27.936  31.600  1.00  0.00     0.074 A 
ATOM     50  C   UNL A   1      43.294  22.892  30.063  1.00  0.00     0.029 A 
ATOM     51  N   UNL A   1      44.531  23.751  28.412  1.00  0.00    -0.354 N 
ATOM     52  N   UNL A   1      46.040  27.676  30.507  1.00  0.00    -0.248 NA
ATOM     53  C   UNL A   1      45.214  26.824  32.542  1.00  0.00     0.031 C 
ATOM     54  C   UNL A   1      44.153  23.884  30.576  1.00  0.00     0.029 A 
ATOM     55  C   UNL A   1      44.893  24.455  29.533  1.00  0.00     0.049 A 
ATOM     56  H   UNL A   1      45.014  23.729  27.554  1.00  0.00     0.167 HD
ATOM     57  C   UNL A   1      46.053  26.301  30.498  1.00  0.00     0.074 A 
ATOM     58  C   UNL A   1      45.837  25.869  31.860  1.00  0.00     0.031 C 
ATOM     59  C   UNL A   1      45.708  25.634  29.368  1.00  0.00     0.037 A 
BRANCH  46  60
ATOM     60  C   UNL A   1      42.543  21.945  26.655  1.00  0.00     0.064 A 
ATOM     61  C   UNL A   1      43.514  21.980  25.648  1.00  0.00     0.173 A 
ATOM     62  C   UNL A   1      41.950  20.679  26.906  1.00  0.00     0.173 A 
ATOM     63  F   UNL A   1      44.147  23.119  25.338  1.00  0.00    -0.203 F 
ATOM     64  C   UNL A   1      43.933  20.811  25.001  1.00  0.00     0.198 A 
ATOM     65  C   UNL A   1      42.403  19.512  26.294  1.00  0.00     0.198 A 
ATOM     66  F   UNL A   1      40.970  20.547  27.814  1.00  0.00    -0.203 F 
ATOM     67  F   UNL A   1      44.906  20.876  24.081  1.00  0.00    -0.200 F 
ATOM     68  C   UNL A   1      43.411  19.576  25.353  1.00  0.00     0.200 A 
ATOM     69  F   UNL A   1      41.908  18.323  26.669  1.00  0.00    -0.200 F 
ATOM     70  F   UNL A   1      43.900  18.452  24.813  1.00  0.00    -0.200 F 
ENDBRANCH  46  60
BRANCH  47  71
ATOM     71  C   UNL A   1      45.212  30.036  33.040  1.00  0.00     0.064 A 
ATOM     72  C   UNL A   1      44.391  30.230  34.187  1.00  0.00     0.173 A 
ATOM     73  C   UNL A   1      46.410  30.760  33.075  1.00  0.00     0.173 A 
ATOM     74  F   UNL A   1      43.306  29.477  34.410  1.00  0.00    -0.203 F 
ATOM     75  C   UNL A   1      44.631  31.209  35.153  1.00  0.00     0.198 A 
ATOM     76  C   UNL A   1      46.682  31.710  34.077  1.00  0.00     0.198 A 
ATOM     77  F   UNL A   1      47.366  30.566  32.162  1.00  0.00    -0.203 F 
ATOM     78  F   UNL A   1      43.732  31.415  36.126  1.00  0.00    -0.200 F 
ATOM     79  C   UNL A   1      45.770  31.970  35.083  1.00  0.00     0.200 A 
ATOM     80  F   UNL A   1      47.836  32.394  34.049  1.00  0.00    -0.200 F 
ATOM     81  F   UNL A   1      45.994  32.933  35.988  1.00  0.00    -0.200 F 
ENDBRANCH  47  71
BRANCH  59  82
ATOM     82  C   UNL A   1      45.907  26.421  28.088  1.00  0.00     0.064 A 
ATOM     83  C   UNL A   1      44.863  26.940  27.305  1.00  0.00     0.173 A 
ATOM     84  C   UNL A   1      47.206  26.758  27.679  1.00  0.00     0.173 A 
ATOM     85  F   UNL A   1      43.593  26.676  27.603  1.00  0.00    -0.203 F 
ATOM     86  C   UNL A   1      45.091  27.745  26.187  1.00  0.00     0.198 A 
ATOM     87  C   UNL A   1      47.439  27.568  26.563  1.00  0.00     0.198 A 
ATOM     88  F   UNL A   1      48.262  26.292  28.361  1.00  0.00    -0.203 F 
ATOM     89  F   UNL A   1      44.055  28.203  25.466  1.00  0.00    -0.200 F 
ATOM     90  C   UNL A   1      46.382  28.062  25.818  1.00  0.00     0.200 A 
ATOM     91  F   UNL A   1      48.697  27.861  26.205  1.00  0.00    -0.200 F 
ATOM     92  F   UNL A   1      46.608  28.824  24.738  1.00  0.00    -0.200 F 
ENDBRANCH  59  82
ENDBRANCH  33  34
ENDBRANCH  25  28
ENDBRANCH  23  24
ENDBRANCH  22  23
ENDBRANCH  21  22
ENDBRANCH   1  21
TORSDOF 15
ENDMDL
MODEL 3
REMARK VINA RESULT:     -11.7      0.927      1.873
REMARK SMILES O=C(Cc1cccn1-c1ccccc1F)NCCCCCCNC(=O)c1ccc(-c2c3nc(c(-c4c(F)c(F)c(F)c(F)c4F)c4ccc([nH]4)c(-c4c(F)c(F)c(F)c(F)c4F)c4nc(c(-c5c(F)c(F)c(F)c(F)c5F)c5ccc2[nH]5)C=C4)C=C3)cc1
REMARK SMILES IDX 19 1 18 2 17 3 16 4 1 5 2 6 3 8 4 9 5 10 8 11 6 12 7 13 9 14
REMARK SMILES IDX 10 15 14 16 11 17 13 18 15 19 12 20 20 21 21 22 22 23 23 24
REMARK SMILES IDX 24 25 25 27 26 28 27 29 88 30 28 31 87 32 29 33 30 34 31 35
REMARK SMILES IDX 81 36 32 37 86 38 80 39 82 40 33 41 85 42 79 43 78 44 34 46
REMARK SMILES IDX 66 47 46 48 65 49 47 50 50 51 64 52 83 53 48 54 49 55 63 57
REMARK SMILES IDX 84 58 51 59 35 60 36 61 44 62 37 63 38 64 42 65 45 66 39 67
REMARK SMILES IDX 40 68 43 69 41 70 67 71 68 72 76 73 69 74 70 75 74 76 77 77
REMARK SMILES IDX 71 78 72 79 75 80 73 81 52 82 53 83 61 84 54 85 55 86 59 87
REMARK SMILES IDX 62 88 56 89 57 90 60 91 58 92
REMARK H PARENT 16 7 23 26 82 45 50 56
REMARK Flexibility Score: inf
ROOT
ATOM      1  C   UNL A   1      31.414  29.022  25.155  1.00  0.00     0.002 C 
ENDROOT
BRANCH   1   2
ATOM      2  C   UNL A   1      31.369  27.595  24.587  1.00  0.00     0.021 C 
BRANCH   2   3
ATOM      3  C   UNL A   1      32.258  27.222  23.395  1.00  0.00     0.116 C 
BRANCH   3   4
ATOM      4  N   UNL A   1      32.525  25.806  23.248  1.00  0.00    -0.356 N 
ATOM      5  O   UNL A   1      33.565  25.993  21.203  1.00  0.00    -0.275 OA
ATOM      6  C   UNL A   1      33.214  25.300  22.155  1.00  0.00     0.225 C 
ATOM      7  H   UNL A   1      32.210  25.184  23.944  1.00  0.00     0.163 HD
BRANCH   6   8
ATOM      8  C   UNL A   1      33.471  23.806  22.227  1.00  0.00     0.154 C 
BRANCH   8   9
ATOM      9  C   UNL A   1      34.405  23.287  23.295  1.00  0.00     0.032 A 
ATOM     10  C   UNL A   1      35.753  23.006  23.086  1.00  0.00     0.024 A 
ATOM     11  N   UNL A   1      34.157  23.055  24.645  1.00  0.00    -0.318 N 
ATOM     12  C   UNL A   1      36.329  22.592  24.302  1.00  0.00     0.020 A 
ATOM     13  C   UNL A   1      35.337  22.657  25.246  1.00  0.00     0.091 A 
BRANCH  11  14
ATOM     14  C   UNL A   1      32.956  23.127  25.367  1.00  0.00     0.081 A 
ATOM     15  C   UNL A   1      31.981  22.136  25.197  1.00  0.00     0.030 A 
ATOM     16  C   UNL A   1      32.698  24.222  26.173  1.00  0.00     0.147 A 
ATOM     17  C   UNL A   1      30.791  22.200  25.926  1.00  0.00     0.002 A 
ATOM     18  C   UNL A   1      31.494  24.294  26.861  1.00  0.00     0.041 A 
ATOM     19  F   UNL A   1      33.584  25.223  26.294  1.00  0.00    -0.205 F 
ATOM     20  C   UNL A   1      30.553  23.274  26.774  1.00  0.00     0.003 A 
ENDBRANCH  11  14
ENDBRANCH   8   9
ENDBRANCH   6   8
ENDBRANCH   3   4
ENDBRANCH   2   3
ENDBRANCH   1   2
BRANCH   1  21
ATOM     21  C   UNL A   1      32.608  29.516  25.984  1.00  0.00     0.002 C 
BRANCH  21  22
ATOM     22  C   UNL A   1      33.398  28.499  26.821  1.00  0.00     0.021 C 
BRANCH  22  23
ATOM     23  C   UNL A   1      34.905  28.712  26.788  1.00  0.00     0.116 C 
BRANCH  23  24
ATOM     24  N   UNL A   1      35.231  30.078  27.178  1.00  0.00    -0.352 N 
ATOM     25  C   UNL A   1      36.282  30.565  27.914  1.00  0.00     0.251 C 
ATOM     26  H   UNL A   1      34.596  30.762  26.864  1.00  0.00     0.163 HD
ATOM     27  O   UNL A   1      36.229  31.683  28.400  1.00  0.00    -0.269 OA
BRANCH  25  28
ATOM     28  C   UNL A   1      37.467  29.724  28.139  1.00  0.00     0.039 A 
ATOM     29  C   UNL A   1      38.470  29.724  27.164  1.00  0.00     0.014 A 
ATOM     30  C   UNL A   1      37.567  28.922  29.280  1.00  0.00     0.014 A 
ATOM     31  C   UNL A   1      39.617  28.974  27.373  1.00  0.00     0.010 A 
ATOM     32  C   UNL A   1      38.733  28.220  29.523  1.00  0.00     0.010 A 
ATOM     33  C   UNL A   1      39.755  28.257  28.570  1.00  0.00    -0.014 A 
BRANCH  33  34
ATOM     34  C   UNL A   1      41.053  27.627  28.865  1.00  0.00     0.031 A 
ATOM     35  C   UNL A   1      41.133  26.200  28.284  1.00  0.00     0.074 A 
ATOM     36  C   UNL A   1      41.915  28.394  29.598  1.00  0.00     0.049 A 
ATOM     37  N   UNL A   1      41.826  25.175  28.672  1.00  0.00    -0.248 NA
ATOM     38  C   UNL A   1      40.262  25.840  27.128  1.00  0.00     0.031 C 
ATOM     39  C   UNL A   1      41.647  29.790  30.012  1.00  0.00     0.029 A 
ATOM     40  N   UNL A   1      43.163  28.188  30.148  1.00  0.00    -0.354 N 
ATOM     41  C   UNL A   1      41.623  24.132  27.737  1.00  0.00     0.074 A 
ATOM     42  C   UNL A   1      40.569  24.566  26.874  1.00  0.00     0.031 C 
ATOM     43  C   UNL A   1      42.633  30.260  30.801  1.00  0.00     0.029 A 
ATOM     44  C   UNL A   1      43.635  29.234  30.987  1.00  0.00     0.049 A 
ATOM     45  H   UNL A   1      43.689  27.374  29.972  1.00  0.00     0.167 HD
ATOM     46  C   UNL A   1      42.429  23.028  27.668  1.00  0.00     0.037 A 
ATOM     47  C   UNL A   1      44.718  29.242  31.826  1.00  0.00     0.037 A 
ATOM     48  C   UNL A   1      43.416  23.094  28.692  1.00  0.00     0.049 A 
ATOM     49  C   UNL A   1      45.411  27.972  31.554  1.00  0.00     0.074 A 
ATOM     50  C   UNL A   1      43.336  22.912  30.047  1.00  0.00     0.029 A 
ATOM     51  N   UNL A   1      44.577  23.763  28.393  1.00  0.00    -0.354 N 
ATOM     52  N   UNL A   1      46.070  27.705  30.466  1.00  0.00    -0.248 NA
ATOM     53  C   UNL A   1      45.239  26.866  32.504  1.00  0.00     0.031 C 
ATOM     54  C   UNL A   1      44.192  23.910  30.555  1.00  0.00     0.029 A 
ATOM     55  C   UNL A   1      44.933  24.475  29.511  1.00  0.00     0.049 A 
ATOM     56  H   UNL A   1      45.063  23.735  27.537  1.00  0.00     0.167 HD
ATOM     57  C   UNL A   1      46.087  26.330  30.467  1.00  0.00     0.074 A 
ATOM     58  C   UNL A   1      45.867  25.908  31.831  1.00  0.00     0.031 C 
ATOM     59  C   UNL A   1      45.746  25.655  29.340  1.00  0.00     0.037 A 
BRANCH  46  60
ATOM     60  C   UNL A   1      42.599  21.940  26.642  1.00  0.00     0.064 A 
ATOM     61  C   UNL A   1      43.526  22.002  25.597  1.00  0.00     0.173 A 
ATOM     62  C   UNL A   1      42.072  20.653  26.933  1.00  0.00     0.173 A 
ATOM     63  F   UNL A   1      44.096  23.162  25.247  1.00  0.00    -0.203 F 
ATOM     64  C   UNL A   1      43.971  20.842  24.949  1.00  0.00     0.198 A 
ATOM     65  C   UNL A   1      42.551  19.498  26.318  1.00  0.00     0.198 A 
ATOM     66  F   UNL A   1      41.136  20.492  27.882  1.00  0.00    -0.203 F 
ATOM     67  F   UNL A   1      44.902  20.936  23.990  1.00  0.00    -0.200 F 
ATOM     68  C   UNL A   1      43.517  19.592  25.338  1.00  0.00     0.200 A 
ATOM     69  F   UNL A   1      42.123  18.295  26.729  1.00  0.00    -0.200 F 
ATOM     70  F   UNL A   1      44.033  18.482  24.793  1.00  0.00    -0.200 F 
ENDBRANCH  46  60
BRANCH  47  71
ATOM     71  C   UNL A   1      45.228  30.081  32.979  1.00  0.00     0.064 A 
ATOM     72  C   UNL A   1      46.439  30.817  32.832  1.00  0.00     0.173 A 
ATOM     73  C   UNL A   1      44.687  30.138  34.269  1.00  0.00     0.173 A 
ATOM     74  F   UNL A   1      46.991  31.028  31.630  1.00  0.00    -0.203 F 
ATOM     75  C   UNL A   1      47.149  31.359  33.905  1.00  0.00     0.198 A 
ATOM     76  C   UNL A   1      45.374  30.732  35.345  1.00  0.00     0.198 A 
ATOM     77  F   UNL A   1      43.474  29.645  34.537  1.00  0.00    -0.203 F 
ATOM     78  F   UNL A   1      48.351  31.915  33.692  1.00  0.00    -0.200 F 
ATOM     79  C   UNL A   1      46.626  31.294  35.171  1.00  0.00     0.200 A 
ATOM     80  F   UNL A   1      44.820  30.737  36.566  1.00  0.00    -0.200 F 
ATOM     81  F   UNL A   1      47.315  31.783  36.211  1.00  0.00    -0.200 F 
ENDBRANCH  47  71
BRANCH  59  82
ATOM     82  C   UNL A   1      45.948  26.434  28.056  1.00  0.00     0.064 A 
ATOM     83  C   UNL A   1      44.905  26.920  27.250  1.00  0.00     0.173 A 
ATOM     84  C   UNL A   1      47.245  26.797  27.664  1.00  0.00     0.173 A 
ATOM     85  F   UNL A   1      43.637  26.628  27.530  1.00  0.00    -0.203 F 
ATOM     86  C   UNL A   1      45.132  27.719  26.127  1.00  0.00     0.198 A 
ATOM     87  C   UNL A   1      47.477  27.601  26.543  1.00  0.00     0.198 A 
ATOM     88  F   UNL A   1      48.301  26.362  28.367  1.00  0.00    -0.203 F 
ATOM     89  F   UNL A   1      44.097  28.145  25.386  1.00  0.00    -0.200 F 
ATOM     90  C   UNL A   1      46.421  28.062  25.776  1.00  0.00     0.200 A 
ATOM     91  F   UNL A   1      48.733  27.920  26.202  1.00  0.00    -0.200 F 
ATOM     92  F   UNL A   1      46.646  28.819  24.691  1.00  0.00    -0.200 F 
ENDBRANCH  59  82
ENDBRANCH  33  34
ENDBRANCH  25  28
ENDBRANCH  23  24
ENDBRANCH  22  23
ENDBRANCH  21  22
ENDBRANCH   1  21
TORSDOF 15
ENDMDL
