MODEL 1
REMARK VINA RESULT:      -9.6      0.000      0.000
REMARK SMILES COc1cc2c(cc1OC)[C@H](c1cccc([N+](=O)[O-])c1)N(C(=O)CCC(=O)NCCCCCCNC(=O)c1ccc(-c3c4nc(c(-c5c(F)c(F)c(F)c(F)c5F)c5ccc([nH]5)c(-c5c(F)c(F)c(F)c(F)c5F)c5nc(c(-c6c(F)c(F)c(F)c(F)c6F)c6ccc3[nH]6)C=C5)C=C4)cc1)CC2
REMARK SMILES IDX 30 1 29 2 28 3 26 4 27 5 25 7 24 8 22 9 23 10 21 11 3 12
REMARK SMILES IDX 4 13 8 14 5 15 7 16 6 17 102 18 11 19 101 20 2 21 1 22 9 23
REMARK SMILES IDX 10 24 12 25 13 26 20 27 14 28 16 29 15 30 17 31 18 32 19 33
REMARK SMILES IDX 31 34 32 35 33 36 34 37 35 38 36 39 37 41 38 42 39 43 100 44
REMARK SMILES IDX 40 45 99 46 41 47 42 48 43 49 93 50 44 51 98 52 92 53 94 54
REMARK SMILES IDX 45 55 97 56 91 57 90 58 46 60 78 61 58 62 77 63 59 64 62 65
REMARK SMILES IDX 76 66 95 67 60 68 61 69 75 71 96 72 63 73 47 74 48 75 56 76
REMARK SMILES IDX 49 77 50 78 54 79 57 80 51 81 52 82 55 83 53 84 79 85 80 86
REMARK SMILES IDX 88 87 81 88 82 89 86 90 89 91 83 92 84 93 87 94 85 95 64 96
REMARK SMILES IDX 65 97 73 98 66 99 67 100 71 101 74 102 68 103 69 104 72 105
REMARK SMILES IDX 70 106
REMARK H PARENT 28 6 35 40 94 59 62 70
REMARK Flexibility Score: inf
ROOT
ATOM      1  C   UNL A   1      49.028  25.220  33.177  1.00  0.00     0.021 C 
ENDROOT
BRANCH   1   2
ATOM      2  C   UNL A   1      47.981  23.992  34.583  1.00  0.00     0.116 C 
BRANCH   2   3
ATOM      3  N   UNL A   1      46.555  23.334  34.539  1.00  0.00    -0.356 N 
ATOM      4  C   UNL A   1      45.445  23.451  33.762  1.00  0.00     0.220 C 
ATOM      5  O   UNL A   1      44.518  22.671  33.995  1.00  0.00    -0.275 OA
ATOM      6  H   UNL A   1      46.434  22.670  35.255  1.00  0.00     0.163 HD
BRANCH   4   7
ATOM      7  C   UNL A   1      45.321  24.483  32.676  1.00  0.00     0.110 C 
BRANCH   7   8
ATOM      8  C   UNL A   1      44.200  24.189  31.689  1.00  0.00     0.110 C 
BRANCH   8   9
ATOM      9  C   UNL A   1      44.110  25.385  30.801  1.00  0.00     0.223 C 
ATOM     10  O   UNL A   1      43.621  26.439  31.207  1.00  0.00    -0.275 OA
BRANCH   9  11
ATOM     11  N   UNL A   1      44.364  25.163  29.455  1.00  0.00    -0.331 N 
ATOM     12  C   UNL A   1      43.970  21.111  25.382  1.00  0.00     0.161 A 
ATOM     13  C   UNL A   1      45.063  21.955  25.609  1.00  0.00     0.054 A 
ATOM     14  C   UNL A   1      42.688  21.160  26.083  1.00  0.00     0.161 A 
ATOM     15  C   UNL A   1      44.802  22.979  26.487  1.00  0.00    -0.037 A 
ATOM     16  C   UNL A   1      42.305  22.170  27.014  1.00  0.00     0.057 A 
ATOM     17  C   UNL A   1      43.218  23.201  27.213  1.00  0.00    -0.014 A 
ATOM     18  C   UNL A   1      46.352  23.820  27.219  1.00  0.00     0.057 C 
ATOM     19  C   UNL A   1      42.855  24.526  28.567  1.00  0.00     0.146 C 
ATOM     20  C   UNL A   1      46.084  25.102  28.709  1.00  0.00     0.125 C 
BRANCH  12  21
ATOM     21  O   UNL A   1      44.185  20.147  24.410  1.00  0.00    -0.493 OA
ATOM     22  C   UNL A   1      45.237  19.270  24.826  1.00  0.00     0.278 C 
ENDBRANCH  12  21
BRANCH  14  23
ATOM     23  O   UNL A   1      41.885  20.067  25.811  1.00  0.00    -0.493 OA
ATOM     24  C   UNL A   1      40.496  20.223  26.051  1.00  0.00     0.278 C 
ENDBRANCH  14  23
BRANCH  19  25
ATOM     25  C   UNL A   1      41.959  25.776  28.207  1.00  0.00    -0.014 A 
ATOM     26  C   UNL A   1      40.614  25.904  28.560  1.00  0.00     0.007 A 
ATOM     27  C   UNL A   1      42.498  26.813  27.398  1.00  0.00     0.091 A 
ATOM     28  C   UNL A   1      39.804  26.884  27.947  1.00  0.00     0.007 A 
ATOM     29  C   UNL A   1      41.683  27.718  26.713  1.00  0.00     0.269 A 
ATOM     30  C   UNL A   1      40.319  27.750  26.975  1.00  0.00     0.085 A 
BRANCH  29  31
ATOM     31  N   UNL A   1      42.261  28.508  25.613  1.00  0.00     0.062 N 
ATOM     32  O   UNL A   1      42.496  27.923  24.546  1.00  0.00    -0.258 OA
ATOM     33  O   UNL A   1      42.531  29.699  25.832  1.00  0.00    -0.258 OA
ENDBRANCH  29  31
ENDBRANCH  19  25
ENDBRANCH   9  11
ENDBRANCH   8   9
ENDBRANCH   7   8
ENDBRANCH   4   7
ENDBRANCH   2   3
ENDBRANCH   1   2
BRANCH   1  34
ATOM     34  C   UNL A   1      49.811  25.137  31.585  1.00  0.00     0.002 C 
BRANCH  34  35
ATOM     35  C   UNL A   1      49.479  25.591  30.136  1.00  0.00     0.002 C 
BRANCH  35  36
ATOM     36  C   UNL A   1      50.502  25.302  29.039  1.00  0.00     0.021 C 
BRANCH  36  37
ATOM     37  C   UNL A   1      51.685  26.242  28.917  1.00  0.00     0.116 C 
BRANCH  37  38
ATOM     38  N   UNL A   1      51.714  26.948  27.653  1.00  0.00    -0.352 N 
ATOM     39  C   UNL A   1      50.838  27.879  27.143  1.00  0.00     0.251 C 
ATOM     40  H   UNL A   1      52.475  26.729  27.069  1.00  0.00     0.163 HD
ATOM     41  O   UNL A   1      50.961  28.244  25.978  1.00  0.00    -0.269 OA
BRANCH  39  42
ATOM     42  C   UNL A   1      49.722  28.424  27.964  1.00  0.00     0.039 A 
ATOM     43  C   UNL A   1      50.029  29.296  29.015  1.00  0.00     0.014 A 
ATOM     44  C   UNL A   1      48.387  28.074  27.741  1.00  0.00     0.014 A 
ATOM     45  C   UNL A   1      49.008  29.831  29.807  1.00  0.00     0.010 A 
ATOM     46  C   UNL A   1      47.365  28.701  28.448  1.00  0.00     0.010 A 
ATOM     47  C   UNL A   1      47.662  29.553  29.518  1.00  0.00    -0.014 A 
BRANCH  47  48
ATOM     48  C   UNL A   1      46.572  30.077  30.384  1.00  0.00     0.031 A 
ATOM     49  C   UNL A   1      45.898  31.381  30.033  1.00  0.00     0.074 A 
ATOM     50  C   UNL A   1      46.202  29.400  31.489  1.00  0.00     0.049 A 
ATOM     51  N   UNL A   1      44.927  32.006  30.651  1.00  0.00    -0.248 NA
ATOM     52  C   UNL A   1      46.410  32.102  28.855  1.00  0.00     0.031 C 
ATOM     53  C   UNL A   1      46.829  28.171  31.978  1.00  0.00     0.029 A 
ATOM     54  N   UNL A   1      45.204  29.645  32.399  1.00  0.00    -0.354 N 
ATOM     55  C   UNL A   1      44.738  33.194  29.955  1.00  0.00     0.074 A 
ATOM     56  C   UNL A   1      45.736  33.241  28.911  1.00  0.00     0.031 C 
ATOM     57  C   UNL A   1      46.178  27.748  33.074  1.00  0.00     0.029 A 
ATOM     58  C   UNL A   1      45.101  28.686  33.379  1.00  0.00     0.049 A 
ATOM     59  H   UNL A   1      44.616  30.434  32.355  1.00  0.00     0.167 HD
ATOM     60  C   UNL A   1      43.793  34.145  30.142  1.00  0.00     0.037 A 
ATOM     61  C   UNL A   1      44.226  28.572  34.397  1.00  0.00     0.037 A 
ATOM     62  C   UNL A   1      42.754  34.055  31.131  1.00  0.00     0.049 A 
ATOM     63  C   UNL A   1      43.136  29.602  34.536  1.00  0.00     0.074 A 
ATOM     64  C   UNL A   1      41.686  34.907  31.342  1.00  0.00     0.029 A 
ATOM     65  N   UNL A   1      42.653  33.040  32.071  1.00  0.00    -0.354 N 
ATOM     66  N   UNL A   1      42.909  30.669  33.808  1.00  0.00    -0.248 NA
ATOM     67  C   UNL A   1      42.171  29.406  35.627  1.00  0.00     0.031 C 
ATOM     68  C   UNL A   1      40.957  34.427  32.435  1.00  0.00     0.029 A 
ATOM     69  C   UNL A   1      41.549  33.254  32.877  1.00  0.00     0.049 A 
ATOM     70  H   UNL A   1      43.274  32.280  32.152  1.00  0.00     0.167 HD
ATOM     71  C   UNL A   1      41.767  31.256  34.335  1.00  0.00     0.074 A 
ATOM     72  C   UNL A   1      41.334  30.415  35.431  1.00  0.00     0.031 C 
ATOM     73  C   UNL A   1      41.135  32.392  33.953  1.00  0.00     0.037 A 
BRANCH  60  74
ATOM     74  C   UNL A   1      43.823  35.351  29.247  1.00  0.00     0.064 A 
ATOM     75  C   UNL A   1      43.202  35.352  27.989  1.00  0.00     0.173 A 
ATOM     76  C   UNL A   1      44.452  36.532  29.668  1.00  0.00     0.173 A 
ATOM     77  F   UNL A   1      42.599  34.244  27.531  1.00  0.00    -0.203 F 
ATOM     78  C   UNL A   1      43.235  36.481  27.173  1.00  0.00     0.198 A 
ATOM     79  C   UNL A   1      44.457  37.668  28.863  1.00  0.00     0.198 A 
ATOM     80  F   UNL A   1      45.058  36.586  30.863  1.00  0.00    -0.203 F 
ATOM     81  F   UNL A   1      42.680  36.441  25.954  1.00  0.00    -0.200 F 
ATOM     82  C   UNL A   1      43.855  37.639  27.614  1.00  0.00     0.200 A 
ATOM     83  F   UNL A   1      45.048  38.790  29.295  1.00  0.00    -0.200 F 
ATOM     84  F   UNL A   1      43.881  38.726  26.831  1.00  0.00    -0.200 F 
ENDBRANCH  60  74
BRANCH  61  85
ATOM     85  C   UNL A   1      44.317  27.422  35.337  1.00  0.00     0.064 A 
ATOM     86  C   UNL A   1      43.453  26.323  35.225  1.00  0.00     0.173 A 
ATOM     87  C   UNL A   1      45.263  27.401  36.373  1.00  0.00     0.173 A 
ATOM     88  F   UNL A   1      42.520  26.302  34.261  1.00  0.00    -0.203 F 
ATOM     89  C   UNL A   1      43.512  25.262  36.127  1.00  0.00     0.198 A 
ATOM     90  C   UNL A   1      45.341  26.327  37.257  1.00  0.00     0.198 A 
ATOM     91  F   UNL A   1      46.120  28.422  36.520  1.00  0.00    -0.203 F 
ATOM     92  F   UNL A   1      42.641  24.249  36.025  1.00  0.00    -0.200 F 
ATOM     93  C   UNL A   1      44.460  25.262  37.140  1.00  0.00     0.200 A 
ATOM     94  F   UNL A   1      46.269  26.323  38.224  1.00  0.00    -0.200 F 
ATOM     95  F   UNL A   1      44.518  24.242  38.006  1.00  0.00    -0.200 F 
ENDBRANCH  61  85
BRANCH  73  96
ATOM     96  C   UNL A   1      39.899  32.778  34.708  1.00  0.00     0.064 A 
ATOM     97  C   UNL A   1      38.619  32.481  34.216  1.00  0.00     0.173 A 
ATOM     98  C   UNL A   1      39.997  33.399  35.962  1.00  0.00     0.173 A 
ATOM     99  F   UNL A   1      38.476  31.900  33.016  1.00  0.00    -0.203 F 
ATOM    100  C   UNL A   1      37.481  32.814  34.944  1.00  0.00     0.198 A 
ATOM    101  C   UNL A   1      38.857  33.703  36.700  1.00  0.00     0.198 A 
ATOM    102  F   UNL A   1      41.199  33.693  36.479  1.00  0.00    -0.203 F 
ATOM    103  F   UNL A   1      36.267  32.559  34.437  1.00  0.00    -0.200 F 
ATOM    104  C   UNL A   1      37.600  33.416  36.188  1.00  0.00     0.200 A 
ATOM    105  F   UNL A   1      38.975  34.271  37.908  1.00  0.00    -0.200 F 
ATOM    106  F   UNL A   1      36.503  33.725  36.891  1.00  0.00    -0.200 F 
ENDBRANCH  73  96
ENDBRANCH  47  48
ENDBRANCH  39  42
ENDBRANCH  37  38
ENDBRANCH  36  37
ENDBRANCH  35  36
ENDBRANCH  34  35
ENDBRANCH   1  34
TORSDOF 20
ENDMDL
MODEL 2
REMARK VINA RESULT:      -9.4      4.368     10.213
REMARK SMILES COc1cc2c(cc1OC)[C@H](c1cccc([N+](=O)[O-])c1)N(C(=O)CCC(=O)NCCCCCCNC(=O)c1ccc(-c3c4nc(c(-c5c(F)c(F)c(F)c(F)c5F)c5ccc([nH]5)c(-c5c(F)c(F)c(F)c(F)c5F)c5nc(c(-c6c(F)c(F)c(F)c(F)c6F)c6ccc3[nH]6)C=C5)C=C4)cc1)CC2
REMARK SMILES IDX 30 1 29 2 28 3 26 4 27 5 25 7 24 8 22 9 23 10 21 11 3 12
REMARK SMILES IDX 4 13 8 14 5 15 7 16 6 17 102 18 11 19 101 20 2 21 1 22 9 23
REMARK SMILES IDX 10 24 12 25 13 26 20 27 14 28 16 29 15 30 17 31 18 32 19 33
REMARK SMILES IDX 31 34 32 35 33 36 34 37 35 38 36 39 37 41 38 42 39 43 100 44
REMARK SMILES IDX 40 45 99 46 41 47 42 48 43 49 93 50 44 51 98 52 92 53 94 54
REMARK SMILES IDX 45 55 97 56 91 57 90 58 46 60 78 61 58 62 77 63 59 64 62 65
REMARK SMILES IDX 76 66 95 67 60 68 61 69 75 71 96 72 63 73 47 74 48 75 56 76
REMARK SMILES IDX 49 77 50 78 54 79 57 80 51 81 52 82 55 83 53 84 79 85 80 86
REMARK SMILES IDX 88 87 81 88 82 89 86 90 89 91 83 92 84 93 87 94 85 95 64 96
REMARK SMILES IDX 65 97 73 98 66 99 67 100 71 101 74 102 68 103 69 104 72 105
REMARK SMILES IDX 70 106
REMARK H PARENT 28 6 35 40 94 59 62 70
REMARK Flexibility Score: inf
ROOT
ATOM      1  C   UNL A   1      33.965  25.312  25.697  1.00  0.00     0.021 C 
ENDROOT
BRANCH   1   2
ATOM      2  C   UNL A   1      33.798  27.420  25.365  1.00  0.00     0.116 C 
BRANCH   2   3
ATOM      3  N   UNL A   1      33.282  28.586  26.284  1.00  0.00    -0.356 N 
ATOM      4  C   UNL A   1      33.849  29.537  27.074  1.00  0.00     0.220 C 
ATOM      5  O   UNL A   1      33.088  30.360  27.587  1.00  0.00    -0.275 OA
ATOM      6  H   UNL A   1      32.299  28.641  26.291  1.00  0.00     0.163 HD
BRANCH   4   7
ATOM      7  C   UNL A   1      35.328  29.595  27.336  1.00  0.00     0.110 C 
BRANCH   7   8
ATOM      8  C   UNL A   1      35.738  30.759  28.227  1.00  0.00     0.110 C 
BRANCH   8   9
ATOM      9  C   UNL A   1      36.602  30.175  29.296  1.00  0.00     0.223 C 
ATOM     10  O   UNL A   1      36.122  29.463  30.178  1.00  0.00    -0.275 OA
BRANCH   9  11
ATOM     11  N   UNL A   1      37.891  30.681  29.379  1.00  0.00    -0.331 N 
ATOM     12  C   UNL A   1      42.309  31.239  33.029  1.00  0.00     0.161 A 
ATOM     13  C   UNL A   1      41.810  32.228  32.175  1.00  0.00     0.054 A 
ATOM     14  C   UNL A   1      41.857  29.850  33.091  1.00  0.00     0.161 A 
ATOM     15  C   UNL A   1      40.909  31.761  31.250  1.00  0.00    -0.037 A 
ATOM     16  C   UNL A   1      40.928  29.253  32.189  1.00  0.00     0.057 A 
ATOM     17  C   UNL A   1      40.472  30.062  31.152  1.00  0.00    -0.014 A 
ATOM     18  C   UNL A   1      39.829  33.107  30.432  1.00  0.00     0.057 C 
ATOM     19  C   UNL A   1      39.097  29.392  29.977  1.00  0.00     0.146 C 
ATOM     20  C   UNL A   1      38.307  32.508  29.309  1.00  0.00     0.125 C 
BRANCH  12  21
ATOM     21  O   UNL A   1      43.307  31.676  33.887  1.00  0.00    -0.493 OA
ATOM     22  C   UNL A   1      44.412  32.173  33.125  1.00  0.00     0.278 C 
ENDBRANCH  12  21
BRANCH  14  23
ATOM     23  O   UNL A   1      42.369  29.167  34.179  1.00  0.00    -0.493 OA
ATOM     24  C   UNL A   1      41.476  28.914  35.251  1.00  0.00     0.278 C 
ENDBRANCH  14  23
BRANCH  19  25
ATOM     25  C   UNL A   1      39.504  28.514  28.729  1.00  0.00    -0.014 A 
ATOM     26  C   UNL A   1      39.174  27.165  28.578  1.00  0.00     0.007 A 
ATOM     27  C   UNL A   1      40.335  29.075  27.721  1.00  0.00     0.091 A 
ATOM     28  C   UNL A   1      39.825  26.374  27.607  1.00  0.00     0.007 A 
ATOM     29  C   UNL A   1      41.056  28.278  26.828  1.00  0.00     0.269 A 
ATOM     30  C   UNL A   1      40.814  26.911  26.775  1.00  0.00     0.085 A 
BRANCH  29  31
ATOM     31  N   UNL A   1      42.170  28.879  26.075  1.00  0.00     0.062 N 
ATOM     32  O   UNL A   1      43.037  29.487  26.719  1.00  0.00    -0.258 OA
ATOM     33  O   UNL A   1      42.151  28.790  24.839  1.00  0.00    -0.258 OA
ENDBRANCH  29  31
ENDBRANCH  19  25
ENDBRANCH   9  11
ENDBRANCH   8   9
ENDBRANCH   7   8
ENDBRANCH   4   7
ENDBRANCH   2   3
ENDBRANCH   1   2
BRANCH   1  34
ATOM     34  C   UNL A   1      34.977  23.920  25.257  1.00  0.00     0.002 C 
BRANCH  34  35
ATOM     35  C   UNL A   1      36.477  23.668  24.938  1.00  0.00     0.002 C 
BRANCH  35  36
ATOM     36  C   UNL A   1      37.059  22.292  25.258  1.00  0.00     0.021 C 
BRANCH  36  37
ATOM     37  C   UNL A   1      38.462  22.239  25.828  1.00  0.00     0.116 C 
BRANCH  37  38
ATOM     38  N   UNL A   1      39.028  20.906  25.804  1.00  0.00    -0.352 N 
ATOM     39  C   UNL A   1      40.313  20.489  26.068  1.00  0.00     0.251 C 
ATOM     40  H   UNL A   1      38.398  20.189  25.562  1.00  0.00     0.163 HD
ATOM     41  O   UNL A   1      40.625  19.324  25.839  1.00  0.00    -0.269 OA
BRANCH  39  42
ATOM     42  C   UNL A   1      41.340  21.430  26.591  1.00  0.00     0.039 A 
ATOM     43  C   UNL A   1      42.691  21.114  26.408  1.00  0.00     0.014 A 
ATOM     44  C   UNL A   1      41.004  22.598  27.281  1.00  0.00     0.014 A 
ATOM     45  C   UNL A   1      43.686  21.975  26.883  1.00  0.00     0.010 A 
ATOM     46  C   UNL A   1      41.989  23.513  27.644  1.00  0.00     0.010 A 
ATOM     47  C   UNL A   1      43.344  23.195  27.489  1.00  0.00    -0.014 A 
BRANCH  47  48
ATOM     48  C   UNL A   1      44.392  24.093  28.042  1.00  0.00     0.031 A 
ATOM     49  C   UNL A   1      45.275  24.880  27.104  1.00  0.00     0.074 A 
ATOM     50  C   UNL A   1      44.567  24.188  29.375  1.00  0.00     0.049 A 
ATOM     51  N   UNL A   1      46.240  25.720  27.381  1.00  0.00    -0.248 NA
ATOM     52  C   UNL A   1      45.076  24.664  25.660  1.00  0.00     0.031 C 
ATOM     53  C   UNL A   1      43.832  23.420  30.382  1.00  0.00     0.029 A 
ATOM     54  N   UNL A   1      45.414  24.976  30.114  1.00  0.00    -0.354 N 
ATOM     55  C   UNL A   1      46.773  26.103  26.156  1.00  0.00     0.074 A 
ATOM     56  C   UNL A   1      46.075  25.357  25.135  1.00  0.00     0.031 C 
ATOM     57  C   UNL A   1      44.231  23.802  31.606  1.00  0.00     0.029 A 
ATOM     58  C   UNL A   1      45.264  24.825  31.473  1.00  0.00     0.049 A 
ATOM     59  H   UNL A   1      46.068  25.591  29.711  1.00  0.00     0.167 HD
ATOM     60  C   UNL A   1      47.731  27.024  25.899  1.00  0.00     0.037 A 
ATOM     61  C   UNL A   1      45.880  25.455  32.492  1.00  0.00     0.037 A 
ATOM     62  C   UNL A   1      48.366  27.820  26.913  1.00  0.00     0.049 A 
ATOM     63  C   UNL A   1      46.887  26.531  32.178  1.00  0.00     0.074 A 
ATOM     64  C   UNL A   1      49.273  28.853  26.758  1.00  0.00     0.029 A 
ATOM     65  N   UNL A   1      48.147  27.675  28.275  1.00  0.00    -0.354 N 
ATOM     66  N   UNL A   1      47.308  26.954  31.010  1.00  0.00    -0.248 NA
ATOM     67  C   UNL A   1      47.492  27.230  33.320  1.00  0.00     0.031 C 
ATOM     68  C   UNL A   1      49.633  29.308  28.031  1.00  0.00     0.029 A 
ATOM     69  C   UNL A   1      48.917  28.588  28.975  1.00  0.00     0.049 A 
ATOM     70  H   UNL A   1      47.535  27.020  28.683  1.00  0.00     0.167 HD
ATOM     71  C   UNL A   1      48.207  27.978  31.274  1.00  0.00     0.074 A 
ATOM     72  C   UNL A   1      48.253  28.130  32.714  1.00  0.00     0.031 C 
ATOM     73  C   UNL A   1      48.934  28.724  30.408  1.00  0.00     0.037 A 
BRANCH  60  74
ATOM     74  C   UNL A   1      48.134  27.237  24.468  1.00  0.00     0.064 A 
ATOM     75  C   UNL A   1      47.321  27.944  23.569  1.00  0.00     0.173 A 
ATOM     76  C   UNL A   1      49.366  26.758  23.999  1.00  0.00     0.173 A 
ATOM     77  F   UNL A   1      46.126  28.411  23.962  1.00  0.00    -0.203 F 
ATOM     78  C   UNL A   1      47.712  28.137  22.246  1.00  0.00     0.198 A 
ATOM     79  C   UNL A   1      49.768  26.979  22.684  1.00  0.00     0.198 A 
ATOM     80  F   UNL A   1      50.184  26.080  24.817  1.00  0.00    -0.203 F 
ATOM     81  F   UNL A   1      46.895  28.769  21.393  1.00  0.00    -0.200 F 
ATOM     82  C   UNL A   1      48.939  27.661  21.808  1.00  0.00     0.200 A 
ATOM     83  F   UNL A   1      50.958  26.528  22.265  1.00  0.00    -0.200 F 
ATOM     84  F   UNL A   1      49.317  27.853  20.536  1.00  0.00    -0.200 F 
ENDBRANCH  60  74
BRANCH  61  85
ATOM     85  C   UNL A   1      45.537  25.117  33.899  1.00  0.00     0.064 A 
ATOM     86  C   UNL A   1      46.318  24.220  34.641  1.00  0.00     0.173 A 
ATOM     87  C   UNL A   1      44.414  25.676  34.530  1.00  0.00     0.173 A 
ATOM     88  F   UNL A   1      47.392  23.646  34.079  1.00  0.00    -0.203 F 
ATOM     89  C   UNL A   1      45.977  23.873  35.948  1.00  0.00     0.198 A 
ATOM     90  C   UNL A   1      44.090  25.352  35.846  1.00  0.00     0.198 A 
ATOM     91  F   UNL A   1      43.638  26.546  33.869  1.00  0.00    -0.203 F 
ATOM     92  F   UNL A   1      46.715  22.976  36.615  1.00  0.00    -0.200 F 
ATOM     93  C   UNL A   1      44.866  24.444  36.551  1.00  0.00     0.200 A 
ATOM     94  F   UNL A   1      43.026  25.917  36.430  1.00  0.00    -0.200 F 
ATOM     95  F   UNL A   1      44.539  24.112  37.807  1.00  0.00    -0.200 F 
ENDBRANCH  61  85
BRANCH  73  96
ATOM     96  C   UNL A   1      49.821  29.783  30.988  1.00  0.00     0.064 A 
ATOM     97  C   UNL A   1      49.353  31.086  31.213  1.00  0.00     0.173 A 
ATOM     98  C   UNL A   1      51.133  29.476  31.377  1.00  0.00     0.173 A 
ATOM     99  F   UNL A   1      48.109  31.430  30.846  1.00  0.00    -0.203 F 
ATOM    100  C   UNL A   1      50.176  32.050  31.785  1.00  0.00     0.198 A 
ATOM    101  C   UNL A   1      51.943  30.436  31.976  1.00  0.00     0.198 A 
ATOM    102  F   UNL A   1      51.622  28.241  31.192  1.00  0.00    -0.203 F 
ATOM    103  F   UNL A   1      49.724  33.301  31.953  1.00  0.00    -0.200 F 
ATOM    104  C   UNL A   1      51.467  31.723  32.174  1.00  0.00     0.200 A 
ATOM    105  F   UNL A   1      53.184  30.112  32.365  1.00  0.00    -0.200 F 
ATOM    106  F   UNL A   1      52.254  32.650  32.735  1.00  0.00    -0.200 F 
ENDBRANCH  73  96
ENDBRANCH  47  48
ENDBRANCH  39  42
ENDBRANCH  37  38
ENDBRANCH  36  37
ENDBRANCH  35  36
ENDBRANCH  34  35
ENDBRANCH   1  34
TORSDOF 20
ENDMDL
MODEL 3
REMARK VINA RESULT:      -9.3      3.683      8.464
REMARK SMILES COc1cc2c(cc1OC)[C@H](c1cccc([N+](=O)[O-])c1)N(C(=O)CCC(=O)NCCCCCCNC(=O)c1ccc(-c3c4nc(c(-c5c(F)c(F)c(F)c(F)c5F)c5ccc([nH]5)c(-c5c(F)c(F)c(F)c(F)c5F)c5nc(c(-c6c(F)c(F)c(F)c(F)c6F)c6ccc3[nH]6)C=C5)C=C4)cc1)CC2
REMARK SMILES IDX 30 1 29 2 28 3 26 4 27 5 25 7 24 8 22 9 23 10 21 11 3 12
REMARK SMILES IDX 4 13 8 14 5 15 7 16 6 17 102 18 11 19 101 20 2 21 1 22 9 23
REMARK SMILES IDX 10 24 12 25 13 26 20 27 14 28 16 29 15 30 17 31 18 32 19 33
REMARK SMILES IDX 31 34 32 35 33 36 34 37 35 38 36 39 37 41 38 42 39 43 100 44
REMARK SMILES IDX 40 45 99 46 41 47 42 48 43 49 93 50 44 51 98 52 92 53 94 54
REMARK SMILES IDX 45 55 97 56 91 57 90 58 46 60 78 61 58 62 77 63 59 64 62 65
REMARK SMILES IDX 76 66 95 67 60 68 61 69 75 71 96 72 63 73 47 74 48 75 56 76
REMARK SMILES IDX 49 77 50 78 54 79 57 80 51 81 52 82 55 83 53 84 79 85 80 86
REMARK SMILES IDX 88 87 81 88 82 89 86 90 89 91 83 92 84 93 87 94 85 95 64 96
REMARK SMILES IDX 65 97 73 98 66 99 67 100 71 101 74 102 68 103 69 104 72 105
REMARK SMILES IDX 70 106
REMARK H PARENT 28 6 35 40 94 59 62 70
REMARK Flexibility Score: inf
ROOT
ATOM      1  C   UNL A   1      48.555  30.906  34.688  1.00  0.00     0.021 C 
ENDROOT
BRANCH   1   2
ATOM      2  C   UNL A   1      48.968  32.370  33.183  1.00  0.00     0.116 C 
BRANCH   2   3
ATOM      3  N   UNL A   1      49.029  32.270  31.615  1.00  0.00    -0.356 N 
ATOM      4  C   UNL A   1      49.413  31.334  30.707  1.00  0.00     0.220 C 
ATOM      5  O   UNL A   1      49.223  31.602  29.518  1.00  0.00    -0.275 OA
ATOM      6  H   UNL A   1      48.710  33.094  31.182  1.00  0.00     0.163 HD
BRANCH   4   7
ATOM      7  C   UNL A   1      50.054  30.034  31.106  1.00  0.00     0.110 C 
BRANCH   7   8
ATOM      8  C   UNL A   1      50.248  29.075  29.940  1.00  0.00     0.110 C 
BRANCH   8   9
ATOM      9  C   UNL A   1      49.346  27.915  30.207  1.00  0.00     0.223 C 
ATOM     10  O   UNL A   1      49.763  26.760  30.131  1.00  0.00    -0.275 OA
BRANCH   9  11
ATOM     11  N   UNL A   1      47.991  28.205  30.289  1.00  0.00    -0.331 N 
ATOM     12  C   UNL A   1      44.167  32.339  29.091  1.00  0.00     0.161 A 
ATOM     13  C   UNL A   1      44.237  31.591  30.270  1.00  0.00     0.054 A 
ATOM     14  C   UNL A   1      45.000  32.150  27.904  1.00  0.00     0.161 A 
ATOM     15  C   UNL A   1      45.092  30.519  30.200  1.00  0.00    -0.037 A 
ATOM     16  C   UNL A   1      45.922  31.078  27.717  1.00  0.00     0.057 A 
ATOM     17  C   UNL A   1      45.976  30.129  28.733  1.00  0.00    -0.014 A 
ATOM     18  C   UNL A   1      45.615  29.799  31.889  1.00  0.00     0.057 C 
ATOM     19  C   UNL A   1      47.302  28.731  28.640  1.00  0.00     0.146 C 
ATOM     20  C   UNL A   1      47.067  28.448  31.903  1.00  0.00     0.125 C 
BRANCH  12  21
ATOM     21  O   UNL A   1      43.220  33.351  29.110  1.00  0.00    -0.493 OA
ATOM     22  C   UNL A   1      43.279  34.040  30.363  1.00  0.00     0.278 C 
ENDBRANCH  12  21
BRANCH  14  23
ATOM     23  O   UNL A   1      44.865  33.173  26.984  1.00  0.00    -0.493 OA
ATOM     24  C   UNL A   1      44.193  32.858  25.775  1.00  0.00     0.278 C 
ENDBRANCH  14  23
BRANCH  19  25
ATOM     25  C   UNL A   1      46.987  27.417  27.822  1.00  0.00    -0.014 A 
ATOM     26  C   UNL A   1      46.398  26.275  28.369  1.00  0.00     0.007 A 
ATOM     27  C   UNL A   1      47.398  27.324  26.464  1.00  0.00     0.091 A 
ATOM     28  C   UNL A   1      46.432  25.049  27.671  1.00  0.00     0.007 A 
ATOM     29  C   UNL A   1      47.527  26.095  25.812  1.00  0.00     0.269 A 
ATOM     30  C   UNL A   1      47.055  24.939  26.422  1.00  0.00     0.085 A 
BRANCH  29  31
ATOM     31  N   UNL A   1      48.305  26.028  24.563  1.00  0.00     0.062 N 
ATOM     32  O   UNL A   1      49.283  26.781  24.454  1.00  0.00    -0.258 OA
ATOM     33  O   UNL A   1      47.907  25.263  23.672  1.00  0.00    -0.258 OA
ENDBRANCH  29  31
ENDBRANCH  19  25
ENDBRANCH   9  11
ENDBRANCH   8   9
ENDBRANCH   7   8
ENDBRANCH   4   7
ENDBRANCH   2   3
ENDBRANCH   1   2
BRANCH   1  34
ATOM     34  C   UNL A   1      49.307  29.526  35.516  1.00  0.00     0.002 C 
BRANCH  34  35
ATOM     35  C   UNL A   1      49.709  28.070  35.150  1.00  0.00     0.002 C 
BRANCH  35  36
ATOM     36  C   UNL A   1      49.715  27.024  36.264  1.00  0.00     0.021 C 
BRANCH  36  37
ATOM     37  C   UNL A   1      48.490  26.935  37.151  1.00  0.00     0.116 C 
BRANCH  37  38
ATOM     38  N   UNL A   1      48.038  25.574  37.351  1.00  0.00    -0.352 N 
ATOM     39  C   UNL A   1      46.847  24.980  37.001  1.00  0.00     0.251 C 
ATOM     40  H   UNL A   1      48.680  24.984  37.808  1.00  0.00     0.163 HD
ATOM     41  O   UNL A   1      46.600  23.847  37.404  1.00  0.00    -0.269 OA
BRANCH  39  42
ATOM     42  C   UNL A   1      45.838  25.697  36.175  1.00  0.00     0.039 A 
ATOM     43  C   UNL A   1      46.210  26.894  35.554  1.00  0.00     0.014 A 
ATOM     44  C   UNL A   1      44.528  25.232  36.022  1.00  0.00     0.014 A 
ATOM     45  C   UNL A   1      45.290  27.595  34.768  1.00  0.00     0.010 A 
ATOM     46  C   UNL A   1      43.653  25.862  35.142  1.00  0.00     0.010 A 
ATOM     47  C   UNL A   1      44.006  27.074  34.538  1.00  0.00    -0.014 A 
BRANCH  47  48
ATOM     48  C   UNL A   1      43.005  27.836  33.744  1.00  0.00     0.031 A 
ATOM     49  C   UNL A   1      42.864  27.572  32.265  1.00  0.00     0.074 A 
ATOM     50  C   UNL A   1      42.241  28.773  34.340  1.00  0.00     0.049 A 
ATOM     51  N   UNL A   1      42.050  28.120  31.397  1.00  0.00    -0.248 NA
ATOM     52  C   UNL A   1      43.787  26.589  31.670  1.00  0.00     0.031 C 
ATOM     53  C   UNL A   1      42.338  29.176  35.744  1.00  0.00     0.029 A 
ATOM     54  N   UNL A   1      41.227  29.553  33.842  1.00  0.00    -0.354 N 
ATOM     55  C   UNL A   1      42.386  27.572  30.165  1.00  0.00     0.074 A 
ATOM     56  C   UNL A   1      43.518  26.701  30.379  1.00  0.00     0.031 C 
ATOM     57  C   UNL A   1      41.397  30.098  36.004  1.00  0.00     0.029 A 
ATOM     58  C   UNL A   1      40.643  30.368  34.783  1.00  0.00     0.049 A 
ATOM     59  H   UNL A   1      40.944  29.531  32.899  1.00  0.00     0.167 HD
ATOM     60  C   UNL A   1      41.780  27.748  28.967  1.00  0.00     0.037 A 
ATOM     61  C   UNL A   1      39.608  31.222  34.672  1.00  0.00     0.037 A 
ATOM     62  C   UNL A   1      40.606  28.554  28.776  1.00  0.00     0.049 A 
ATOM     63  C   UNL A   1      38.902  31.341  33.347  1.00  0.00     0.074 A 
ATOM     64  C   UNL A   1      39.851  28.720  27.629  1.00  0.00     0.029 A 
ATOM     65  N   UNL A   1      40.013  29.321  29.766  1.00  0.00    -0.354 N 
ATOM     66  N   UNL A   1      39.169  30.739  32.212  1.00  0.00    -0.248 NA
ATOM     67  C   UNL A   1      37.744  32.243  33.288  1.00  0.00     0.031 C 
ATOM     68  C   UNL A   1      38.819  29.621  27.917  1.00  0.00     0.029 A 
ATOM     69  C   UNL A   1      38.909  29.980  29.253  1.00  0.00     0.049 A 
ATOM     70  H   UNL A   1      40.330  29.389  30.696  1.00  0.00     0.167 HD
ATOM     71  C   UNL A   1      38.201  31.170  31.314  1.00  0.00     0.074 A 
ATOM     72  C   UNL A   1      37.327  32.066  32.042  1.00  0.00     0.031 C 
ATOM     73  C   UNL A   1      38.050  30.858  30.004  1.00  0.00     0.037 A 
BRANCH  60  74
ATOM     74  C   UNL A   1      42.360  27.039  27.777  1.00  0.00     0.064 A 
ATOM     75  C   UNL A   1      43.247  27.678  26.896  1.00  0.00     0.173 A 
ATOM     76  C   UNL A   1      42.052  25.692  27.532  1.00  0.00     0.173 A 
ATOM     77  F   UNL A   1      43.563  28.970  27.075  1.00  0.00    -0.203 F 
ATOM     78  C   UNL A   1      43.780  27.005  25.799  1.00  0.00     0.198 A 
ATOM     79  C   UNL A   1      42.611  25.014  26.452  1.00  0.00     0.198 A 
ATOM     80  F   UNL A   1      41.214  25.032  28.344  1.00  0.00    -0.203 F 
ATOM     81  F   UNL A   1      44.583  27.653  24.943  1.00  0.00    -0.200 F 
ATOM     82  C   UNL A   1      43.467  25.672  25.583  1.00  0.00     0.200 A 
ATOM     83  F   UNL A   1      42.316  23.722  26.250  1.00  0.00    -0.200 F 
ATOM     84  F   UNL A   1      43.985  25.023  24.531  1.00  0.00    -0.200 F 
ENDBRANCH  60  74
BRANCH  61  85
ATOM     85  C   UNL A   1      39.149  32.001  35.855  1.00  0.00     0.064 A 
ATOM     86  C   UNL A   1      38.258  31.449  36.786  1.00  0.00     0.173 A 
ATOM     87  C   UNL A   1      39.585  33.316  36.075  1.00  0.00     0.173 A 
ATOM     88  F   UNL A   1      37.799  30.200  36.612  1.00  0.00    -0.203 F 
ATOM     89  C   UNL A   1      37.799  32.189  37.874  1.00  0.00     0.198 A 
ATOM     90  C   UNL A   1      39.149  34.046  37.179  1.00  0.00     0.198 A 
ATOM     91  F   UNL A   1      40.445  33.890  35.220  1.00  0.00    -0.203 F 
ATOM     92  F   UNL A   1      36.909  31.652  38.720  1.00  0.00    -0.200 F 
ATOM     93  C   UNL A   1      38.249  33.486  38.072  1.00  0.00     0.200 A 
ATOM     94  F   UNL A   1      39.599  35.292  37.376  1.00  0.00    -0.200 F 
ATOM     95  F   UNL A   1      37.809  34.196  39.119  1.00  0.00    -0.200 F 
ENDBRANCH  61  85
BRANCH  73  96
ATOM     96  C   UNL A   1      36.889  31.470  29.281  1.00  0.00     0.064 A 
ATOM     97  C   UNL A   1      35.757  30.714  28.943  1.00  0.00     0.173 A 
ATOM     98  C   UNL A   1      36.885  32.839  28.976  1.00  0.00     0.173 A 
ATOM     99  F   UNL A   1      35.721  29.399  29.204  1.00  0.00    -0.203 F 
ATOM    100  C   UNL A   1      34.672  31.303  28.303  1.00  0.00     0.198 A 
ATOM    101  C   UNL A   1      35.784  33.430  28.362  1.00  0.00     0.198 A 
ATOM    102  F   UNL A   1      37.940  33.606  29.288  1.00  0.00    -0.203 F 
ATOM    103  F   UNL A   1      33.617  30.555  27.951  1.00  0.00    -0.200 F 
ATOM    104  C   UNL A   1      34.682  32.661  28.021  1.00  0.00     0.200 A 
ATOM    105  F   UNL A   1      35.791  34.745  28.104  1.00  0.00    -0.200 F 
ATOM    106  F   UNL A   1      33.631  33.228  27.414  1.00  0.00    -0.200 F 
ENDBRANCH  73  96
ENDBRANCH  47  48
ENDBRANCH  39  42
ENDBRANCH  37  38
ENDBRANCH  36  37
ENDBRANCH  35  36
ENDBRANCH  34  35
ENDBRANCH   1  34
TORSDOF 20
ENDMDL
