MODEL 1
REMARK VINA RESULT:     -10.8      0.000      0.000
REMARK SMILES C=CCN(CC(=O)NCCCCCCNC(=O)c1ccc(-c2c3nc(c(-c4c(F)c(F)c(F)c(F)c4F)c4ccc([nH]4)c(-c4c(F)c(F)c(F)c(F)c4F)c4nc(c(-c5c(F)c(F)c(F)c(F)c5F)c5ccc2[nH]5)C=C4)C=C3)cc1)C(=O)NC1CC[NH+](CCC)CC1
REMARK SMILES IDX 10 1 9 2 8 3 6 4 7 5 5 7 4 8 3 9 2 10 1 11 81 12 82 13 83 14
REMARK SMILES IDX 84 16 85 17 92 18 86 19 91 20 87 21 88 23 89 24 90 25 11 26
REMARK SMILES IDX 12 27 13 28 14 29 15 30 16 31 17 33 18 34 19 35 80 36 20 37
REMARK SMILES IDX 79 38 21 39 22 40 23 41 73 42 24 43 78 44 72 45 74 46 25 47
REMARK SMILES IDX 77 48 71 49 70 50 26 52 58 53 38 54 57 55 39 56 42 57 56 58
REMARK SMILES IDX 75 59 40 60 41 61 55 63 76 64 43 65 27 66 28 67 36 68 29 69
REMARK SMILES IDX 30 70 34 71 37 72 31 73 32 74 35 75 33 76 59 77 60 78 68 79
REMARK SMILES IDX 61 80 62 81 66 82 69 83 63 84 64 85 67 86 65 87 44 88 45 89
REMARK SMILES IDX 53 90 46 91 47 92 51 93 54 94 48 95 49 96 52 97 50 98
REMARK H PARENT 8 6 83 15 87 22 15 32 74 51 42 62
REMARK Flexibility Score: inf
ROOT
ATOM      1  C   UNL A   1      36.007  22.763  23.870  1.00  0.00     0.021 C 
ENDROOT
BRANCH   1   2
ATOM      2  C   UNL A   1      35.256  23.148  25.138  1.00  0.00     0.116 C 
BRANCH   2   3
ATOM      3  N   UNL A   1      34.911  24.546  25.186  1.00  0.00    -0.355 N 
ATOM      4  C   UNL A   1      33.827  25.103  25.799  1.00  0.00     0.239 C 
ATOM      5  O   UNL A   1      33.890  26.292  26.119  1.00  0.00    -0.273 OA
ATOM      6  H   UNL A   1      35.521  25.166  24.727  1.00  0.00     0.163 HD
BRANCH   4   7
ATOM      7  C   UNL A   1      32.642  24.224  26.212  1.00  0.00     0.221 C 
BRANCH   7   8
ATOM      8  N   UNL A   1      31.378  24.458  25.505  1.00  0.00    -0.312 N 
BRANCH   8   9
ATOM      9  C   UNL A   1      30.882  23.336  24.701  1.00  0.00     0.149 C 
BRANCH   9  10
ATOM     10  C   UNL A   1      31.631  23.212  23.406  1.00  0.00    -0.013 C 
ATOM     11  C   UNL A   1      32.375  22.139  23.098  1.00  0.00     0.006 C 
ENDBRANCH   9  10
ENDBRANCH   8   9
BRANCH   8  12
ATOM     12  C   UNL A   1      30.582  25.564  25.545  1.00  0.00     0.318 C 
ATOM     13  O   UNL A   1      29.543  25.578  26.219  1.00  0.00    -0.249 OA
ATOM     14  N   UNL A   1      30.805  26.715  24.899  1.00  0.00    -0.335 N 
ATOM     15  H   UNL A   1      30.150  27.386  25.196  1.00  0.00     0.165 HD
BRANCH  14  16
ATOM     16  C   UNL A   1      31.697  27.317  23.896  1.00  0.00     0.095 C 
ATOM     17  C   UNL A   1      32.122  28.755  24.178  1.00  0.00     0.086 C 
ATOM     18  C   UNL A   1      31.019  27.299  22.508  1.00  0.00     0.086 C 
ATOM     19  C   UNL A   1      30.957  29.724  24.080  1.00  0.00     0.264 C 
ATOM     20  C   UNL A   1      29.903  28.346  22.378  1.00  0.00     0.264 C 
ATOM     21  N   UNL A   1      30.365  29.684  22.749  1.00  0.00    -0.335 N 
ATOM     22  H   UNL A   1      31.116  29.892  22.092  1.00  0.00     0.348 HD
BRANCH  21  23
ATOM     23  C   UNL A   1      29.378  30.745  22.531  1.00  0.00     0.261 C 
BRANCH  23  24
ATOM     24  C   UNL A   1      28.791  31.506  23.733  1.00  0.00     0.058 C 
ATOM     25  C   UNL A   1      27.278  31.464  23.874  1.00  0.00     0.010 C 
ENDBRANCH  23  24
ENDBRANCH  21  23
ENDBRANCH  14  16
ENDBRANCH   8  12
ENDBRANCH   7   8
ENDBRANCH   4   7
ENDBRANCH   2   3
ENDBRANCH   1   2
BRANCH   1  26
ATOM     26  C   UNL A   1      37.210  21.846  24.110  1.00  0.00     0.002 C 
BRANCH  26  27
ATOM     27  C   UNL A   1      36.904  20.555  24.877  1.00  0.00     0.002 C 
BRANCH  27  28
ATOM     28  C   UNL A   1      38.074  19.574  25.000  1.00  0.00     0.021 C 
BRANCH  28  29
ATOM     29  C   UNL A   1      39.277  20.120  25.753  1.00  0.00     0.116 C 
BRANCH  29  30
ATOM     30  N   UNL A   1      40.292  19.102  25.954  1.00  0.00    -0.352 N 
ATOM     31  C   UNL A   1      41.641  19.255  26.129  1.00  0.00     0.251 C 
ATOM     32  H   UNL A   1      39.965  18.172  25.966  1.00  0.00     0.163 HD
ATOM     33  O   UNL A   1      42.392  18.283  26.058  1.00  0.00    -0.269 OA
BRANCH  31  34
ATOM     34  C   UNL A   1      42.195  20.599  26.387  1.00  0.00     0.039 A 
ATOM     35  C   UNL A   1      42.467  21.438  25.304  1.00  0.00     0.014 A 
ATOM     36  C   UNL A   1      42.448  21.028  27.694  1.00  0.00     0.014 A 
ATOM     37  C   UNL A   1      42.945  22.728  25.535  1.00  0.00     0.010 A 
ATOM     38  C   UNL A   1      42.847  22.340  27.926  1.00  0.00     0.010 A 
ATOM     39  C   UNL A   1      43.111  23.199  26.849  1.00  0.00    -0.014 A 
BRANCH  39  40
ATOM     40  C   UNL A   1      43.564  24.587  27.114  1.00  0.00     0.031 A 
ATOM     41  C   UNL A   1      42.595  25.610  27.636  1.00  0.00     0.074 A 
ATOM     42  C   UNL A   1      44.834  24.937  26.830  1.00  0.00     0.049 A 
ATOM     43  N   UNL A   1      42.784  26.883  27.875  1.00  0.00    -0.248 NA
ATOM     44  C   UNL A   1      41.223  25.148  27.900  1.00  0.00     0.031 C 
ATOM     45  C   UNL A   1      45.853  24.044  26.277  1.00  0.00     0.029 A 
ATOM     46  N   UNL A   1      45.481  26.141  26.959  1.00  0.00    -0.354 N 
ATOM     47  C   UNL A   1      41.557  27.373  28.303  1.00  0.00     0.074 A 
ATOM     48  C   UNL A   1      40.616  26.276  28.236  1.00  0.00     0.031 C 
ATOM     49  C   UNL A   1      47.002  24.723  26.136  1.00  0.00     0.029 A 
ATOM     50  C   UNL A   1      46.792  26.107  26.550  1.00  0.00     0.049 A 
ATOM     51  H   UNL A   1      45.046  26.950  27.312  1.00  0.00     0.167 HD
ATOM     52  C   UNL A   1      41.249  28.619  28.736  1.00  0.00     0.037 A 
ATOM     53  C   UNL A   1      47.715  27.085  26.508  1.00  0.00     0.037 A 
ATOM     54  C   UNL A   1      42.195  29.700  28.820  1.00  0.00     0.049 A 
ATOM     55  C   UNL A   1      47.344  28.464  26.983  1.00  0.00     0.074 A 
ATOM     56  C   UNL A   1      41.998  30.983  29.299  1.00  0.00     0.029 A 
ATOM     57  N   UNL A   1      43.518  29.626  28.408  1.00  0.00    -0.354 N 
ATOM     58  N   UNL A   1      46.199  28.898  27.452  1.00  0.00    -0.248 NA
ATOM     59  C   UNL A   1      48.397  29.488  26.928  1.00  0.00     0.031 C 
ATOM     60  C   UNL A   1      43.187  31.701  29.128  1.00  0.00     0.029 A 
ATOM     61  C   UNL A   1      44.142  30.848  28.598  1.00  0.00     0.049 A 
ATOM     62  H   UNL A   1      43.950  28.823  28.036  1.00  0.00     0.167 HD
ATOM     63  C   UNL A   1      46.402  30.232  27.778  1.00  0.00     0.074 A 
ATOM     64  C   UNL A   1      47.784  30.533  27.465  1.00  0.00     0.031 C 
ATOM     65  C   UNL A   1      45.522  31.129  28.289  1.00  0.00     0.037 A 
BRANCH  52  66
ATOM     66  C   UNL A   1      39.830  28.879  29.154  1.00  0.00     0.064 A 
ATOM     67  C   UNL A   1      38.864  29.332  28.241  1.00  0.00     0.173 A 
ATOM     68  C   UNL A   1      39.421  28.638  30.474  1.00  0.00     0.173 A 
ATOM     69  F   UNL A   1      39.205  29.589  26.969  1.00  0.00    -0.203 F 
ATOM     70  C   UNL A   1      37.551  29.564  28.643  1.00  0.00     0.198 A 
ATOM     71  C   UNL A   1      38.099  28.838  30.863  1.00  0.00     0.198 A 
ATOM     72  F   UNL A   1      40.301  28.199  31.386  1.00  0.00    -0.203 F 
ATOM     73  F   UNL A   1      36.659  30.046  27.766  1.00  0.00    -0.200 F 
ATOM     74  C   UNL A   1      37.167  29.309  29.951  1.00  0.00     0.200 A 
ATOM     75  F   UNL A   1      37.726  28.576  32.123  1.00  0.00    -0.200 F 
ATOM     76  F   UNL A   1      35.901  29.522  30.333  1.00  0.00    -0.200 F 
ENDBRANCH  52  66
BRANCH  53  77
ATOM     77  C   UNL A   1      49.088  26.791  26.017  1.00  0.00     0.064 A 
ATOM     78  C   UNL A   1      49.436  27.008  24.677  1.00  0.00     0.173 A 
ATOM     79  C   UNL A   1      50.076  26.284  26.874  1.00  0.00     0.173 A 
ATOM     80  F   UNL A   1      48.521  27.474  23.815  1.00  0.00    -0.203 F 
ATOM     81  C   UNL A   1      50.712  26.706  24.206  1.00  0.00     0.198 A 
ATOM     82  C   UNL A   1      51.361  26.012  26.408  1.00  0.00     0.198 A 
ATOM     83  F   UNL A   1      49.798  26.065  28.167  1.00  0.00    -0.203 F 
ATOM     84  F   UNL A   1      51.002  26.876  22.909  1.00  0.00    -0.200 F 
ATOM     85  C   UNL A   1      51.675  26.213  25.074  1.00  0.00     0.200 A 
ATOM     86  F   UNL A   1      52.293  25.551  27.253  1.00  0.00    -0.200 F 
ATOM     87  F   UNL A   1      52.903  25.926  24.622  1.00  0.00    -0.200 F 
ENDBRANCH  53  77
BRANCH  65  88
ATOM     88  C   UNL A   1      46.036  32.508  28.582  1.00  0.00     0.064 A 
ATOM     89  C   UNL A   1      46.628  32.831  29.811  1.00  0.00     0.173 A 
ATOM     90  C   UNL A   1      45.970  33.511  27.601  1.00  0.00     0.173 A 
ATOM     91  F   UNL A   1      46.702  31.914  30.787  1.00  0.00    -0.203 F 
ATOM     92  C   UNL A   1      47.111  34.115  30.057  1.00  0.00     0.198 A 
ATOM     93  C   UNL A   1      46.484  34.782  27.840  1.00  0.00     0.198 A 
ATOM     94  F   UNL A   1      45.420  33.252  26.405  1.00  0.00    -0.203 F 
ATOM     95  F   UNL A   1      47.626  34.415  31.258  1.00  0.00    -0.200 F 
ATOM     96  C   UNL A   1      47.045  35.086  29.070  1.00  0.00     0.200 A 
ATOM     97  F   UNL A   1      46.435  35.715  26.877  1.00  0.00    -0.200 F 
ATOM     98  F   UNL A   1      47.519  36.317  29.307  1.00  0.00    -0.200 F 
ENDBRANCH  65  88
ENDBRANCH  39  40
ENDBRANCH  31  34
ENDBRANCH  29  30
ENDBRANCH  28  29
ENDBRANCH  27  28
ENDBRANCH  26  27
ENDBRANCH   1  26
TORSDOF 20
ENDMDL
MODEL 2
REMARK VINA RESULT:     -10.6      2.305      8.451
REMARK SMILES C=CCN(CC(=O)NCCCCCCNC(=O)c1ccc(-c2c3nc(c(-c4c(F)c(F)c(F)c(F)c4F)c4ccc([nH]4)c(-c4c(F)c(F)c(F)c(F)c4F)c4nc(c(-c5c(F)c(F)c(F)c(F)c5F)c5ccc2[nH]5)C=C4)C=C3)cc1)C(=O)NC1CC[NH+](CCC)CC1
REMARK SMILES IDX 10 1 9 2 8 3 6 4 7 5 5 7 4 8 3 9 2 10 1 11 81 12 82 13 83 14
REMARK SMILES IDX 84 16 85 17 92 18 86 19 91 20 87 21 88 23 89 24 90 25 11 26
REMARK SMILES IDX 12 27 13 28 14 29 15 30 16 31 17 33 18 34 19 35 80 36 20 37
REMARK SMILES IDX 79 38 21 39 22 40 23 41 73 42 24 43 78 44 72 45 74 46 25 47
REMARK SMILES IDX 77 48 71 49 70 50 26 52 58 53 38 54 57 55 39 56 42 57 56 58
REMARK SMILES IDX 75 59 40 60 41 61 55 63 76 64 43 65 27 66 28 67 36 68 29 69
REMARK SMILES IDX 30 70 34 71 37 72 31 73 32 74 35 75 33 76 59 77 60 78 68 79
REMARK SMILES IDX 61 80 62 81 66 82 69 83 63 84 64 85 67 86 65 87 44 88 45 89
REMARK SMILES IDX 53 90 46 91 47 92 51 93 54 94 48 95 49 96 52 97 50 98
REMARK H PARENT 8 6 83 15 87 22 15 32 74 51 42 62
REMARK Flexibility Score: inf
ROOT
ATOM      1  C   UNL A   1      39.262  22.949  26.383  1.00  0.00     0.021 C 
ENDROOT
BRANCH   1   2
ATOM      2  C   UNL A   1      37.996  22.183  26.024  1.00  0.00     0.116 C 
BRANCH   2   3
ATOM      3  N   UNL A   1      37.686  22.234  24.618  1.00  0.00    -0.355 N 
ATOM      4  C   UNL A   1      36.864  23.124  23.991  1.00  0.00     0.239 C 
ATOM      5  O   UNL A   1      37.029  23.315  22.783  1.00  0.00    -0.273 OA
ATOM      6  H   UNL A   1      38.112  21.554  24.048  1.00  0.00     0.163 HD
BRANCH   4   7
ATOM      7  C   UNL A   1      35.880  23.968  24.807  1.00  0.00     0.221 C 
BRANCH   7   8
ATOM      8  N   UNL A   1      34.567  24.210  24.199  1.00  0.00    -0.312 N 
BRANCH   8   9
ATOM      9  C   UNL A   1      34.035  25.568  24.351  1.00  0.00     0.149 C 
BRANCH   9  10
ATOM     10  C   UNL A   1      33.524  25.808  25.742  1.00  0.00    -0.013 C 
ATOM     11  C   UNL A   1      32.632  26.767  26.032  1.00  0.00     0.006 C 
ENDBRANCH   9  10
ENDBRANCH   8   9
BRANCH   8  12
ATOM     12  C   UNL A   1      33.806  23.347  23.467  1.00  0.00     0.318 C 
ATOM     13  O   UNL A   1      33.573  23.562  22.270  1.00  0.00    -0.249 OA
ATOM     14  N   UNL A   1      33.242  22.221  23.919  1.00  0.00    -0.335 N 
ATOM     15  H   UNL A   1      32.855  21.726  23.161  1.00  0.00     0.165 HD
BRANCH  14  16
ATOM     16  C   UNL A   1      33.005  21.471  25.162  1.00  0.00     0.095 C 
ATOM     17  C   UNL A   1      34.257  20.964  25.869  1.00  0.00     0.086 C 
ATOM     18  C   UNL A   1      32.107  20.247  24.877  1.00  0.00     0.086 C 
ATOM     19  C   UNL A   1      34.969  19.887  25.068  1.00  0.00     0.264 C 
ATOM     20  C   UNL A   1      32.853  19.118  24.150  1.00  0.00     0.264 C 
ATOM     21  N   UNL A   1      34.088  18.748  24.843  1.00  0.00    -0.335 N 
ATOM     22  H   UNL A   1      33.785  18.429  25.763  1.00  0.00     0.348 HD
BRANCH  21  23
ATOM     23  C   UNL A   1      34.783  17.595  24.262  1.00  0.00     0.261 C 
BRANCH  23  24
ATOM     24  C   UNL A   1      34.771  16.243  24.997  1.00  0.00     0.058 C 
ATOM     25  C   UNL A   1      33.401  15.703  25.373  1.00  0.00     0.010 C 
ENDBRANCH  23  24
ENDBRANCH  21  23
ENDBRANCH  14  16
ENDBRANCH   8  12
ENDBRANCH   7   8
ENDBRANCH   4   7
ENDBRANCH   2   3
ENDBRANCH   1   2
BRANCH   1  26
ATOM     26  C   UNL A   1      40.557  22.170  26.131  1.00  0.00     0.002 C 
BRANCH  26  27
ATOM     27  C   UNL A   1      40.708  20.876  26.938  1.00  0.00     0.002 C 
BRANCH  27  28
ATOM     28  C   UNL A   1      41.092  19.638  26.124  1.00  0.00     0.021 C 
BRANCH  28  29
ATOM     29  C   UNL A   1      42.358  18.940  26.599  1.00  0.00     0.116 C 
BRANCH  29  30
ATOM     30  N   UNL A   1      43.265  18.667  25.499  1.00  0.00    -0.352 N 
ATOM     31  C   UNL A   1      43.981  19.549  24.736  1.00  0.00     0.251 C 
ATOM     32  H   UNL A   1      43.380  17.716  25.269  1.00  0.00     0.163 HD
ATOM     33  O   UNL A   1      44.525  19.176  23.697  1.00  0.00    -0.269 OA
BRANCH  31  34
ATOM     34  C   UNL A   1      44.085  20.961  25.156  1.00  0.00     0.039 A 
ATOM     35  C   UNL A   1      44.483  21.250  26.463  1.00  0.00     0.014 A 
ATOM     36  C   UNL A   1      43.789  21.995  24.263  1.00  0.00     0.014 A 
ATOM     37  C   UNL A   1      44.633  22.579  26.860  1.00  0.00     0.010 A 
ATOM     38  C   UNL A   1      44.016  23.316  24.635  1.00  0.00     0.010 A 
ATOM     39  C   UNL A   1      44.429  23.622  25.940  1.00  0.00    -0.014 A 
BRANCH  39  40
ATOM     40  C   UNL A   1      44.638  25.038  26.328  1.00  0.00     0.031 A 
ATOM     41  C   UNL A   1      46.003  25.657  26.216  1.00  0.00     0.074 A 
ATOM     42  C   UNL A   1      43.611  25.747  26.835  1.00  0.00     0.049 A 
ATOM     43  N   UNL A   1      46.399  26.857  26.559  1.00  0.00    -0.248 NA
ATOM     44  C   UNL A   1      47.073  24.806  25.671  1.00  0.00     0.031 C 
ATOM     45  C   UNL A   1      42.253  25.241  27.036  1.00  0.00     0.029 A 
ATOM     46  N   UNL A   1      43.552  27.043  27.284  1.00  0.00    -0.354 N 
ATOM     47  C   UNL A   1      47.759  26.899  26.282  1.00  0.00     0.074 A 
ATOM     48  C   UNL A   1      48.134  25.588  25.800  1.00  0.00     0.031 C 
ATOM     49  C   UNL A   1      41.489  26.221  27.545  1.00  0.00     0.029 A 
ATOM     50  C   UNL A   1      42.311  27.411  27.743  1.00  0.00     0.049 A 
ATOM     51  H   UNL A   1      44.327  27.651  27.276  1.00  0.00     0.167 HD
ATOM     52  C   UNL A   1      48.613  27.944  26.398  1.00  0.00     0.037 A 
ATOM     53  C   UNL A   1      41.888  28.574  28.273  1.00  0.00     0.037 A 
ATOM     54  C   UNL A   1      48.229  29.252  26.860  1.00  0.00     0.049 A 
ATOM     55  C   UNL A   1      42.860  29.716  28.402  1.00  0.00     0.074 A 
ATOM     56  C   UNL A   1      49.004  30.394  26.958  1.00  0.00     0.029 A 
ATOM     57  N   UNL A   1      46.959  29.592  27.305  1.00  0.00    -0.354 N 
ATOM     58  N   UNL A   1      44.128  29.765  28.072  1.00  0.00    -0.248 NA
ATOM     59  C   UNL A   1      42.339  30.966  28.972  1.00  0.00     0.031 C 
ATOM     60  C   UNL A   1      48.218  31.409  27.514  1.00  0.00     0.029 A 
ATOM     61  C   UNL A   1      46.936  30.918  27.704  1.00  0.00     0.049 A 
ATOM     62  H   UNL A   1      46.188  28.979  27.333  1.00  0.00     0.167 HD
ATOM     63  C   UNL A   1      44.548  31.056  28.363  1.00  0.00     0.074 A 
ATOM     64  C   UNL A   1      43.395  31.762  28.884  1.00  0.00     0.031 C 
ATOM     65  C   UNL A   1      45.778  31.608  28.213  1.00  0.00     0.037 A 
BRANCH  52  66
ATOM     66  C   UNL A   1      50.048  27.715  26.019  1.00  0.00     0.064 A 
ATOM     67  C   UNL A   1      51.045  27.521  26.988  1.00  0.00     0.173 A 
ATOM     68  C   UNL A   1      50.426  27.653  24.669  1.00  0.00     0.173 A 
ATOM     69  F   UNL A   1      50.740  27.581  28.293  1.00  0.00    -0.203 F 
ATOM     70  C   UNL A   1      52.371  27.304  26.619  1.00  0.00     0.198 A 
ATOM     71  C   UNL A   1      51.747  27.402  24.305  1.00  0.00     0.198 A 
ATOM     72  F   UNL A   1      49.514  27.826  23.702  1.00  0.00    -0.203 F 
ATOM     73  F   UNL A   1      53.313  27.173  27.564  1.00  0.00    -0.200 F 
ATOM     74  C   UNL A   1      52.719  27.236  25.279  1.00  0.00     0.200 A 
ATOM     75  F   UNL A   1      52.079  27.322  23.009  1.00  0.00    -0.200 F 
ATOM     76  F   UNL A   1      53.993  27.018  24.927  1.00  0.00    -0.200 F 
ENDBRANCH  52  66
BRANCH  53  77
ATOM     77  C   UNL A   1      40.472  28.725  28.700  1.00  0.00     0.064 A 
ATOM     78  C   UNL A   1      39.481  29.106  27.785  1.00  0.00     0.173 A 
ATOM     79  C   UNL A   1      40.082  28.496  30.027  1.00  0.00     0.173 A 
ATOM     80  F   UNL A   1      39.808  29.354  26.509  1.00  0.00    -0.203 F 
ATOM     81  C   UNL A   1      38.158  29.278  28.187  1.00  0.00     0.198 A 
ATOM     82  C   UNL A   1      38.752  28.638  30.421  1.00  0.00     0.198 A 
ATOM     83  F   UNL A   1      40.989  28.122  30.941  1.00  0.00    -0.203 F 
ATOM     84  F   UNL A   1      37.241  29.692  27.303  1.00  0.00    -0.200 F 
ATOM     85  C   UNL A   1      37.793  29.038  29.504  1.00  0.00     0.200 A 
ATOM     86  F   UNL A   1      38.402  28.389  31.690  1.00  0.00    -0.200 F 
ATOM     87  F   UNL A   1      36.521  29.199  29.889  1.00  0.00    -0.200 F 
ENDBRANCH  53  77
BRANCH  65  88
ATOM     88  C   UNL A   1      45.932  33.055  28.579  1.00  0.00     0.064 A 
ATOM     89  C   UNL A   1      45.702  34.081  27.650  1.00  0.00     0.173 A 
ATOM     90  C   UNL A   1      46.278  33.422  29.890  1.00  0.00     0.173 A 
ATOM     91  F   UNL A   1      45.384  33.784  26.381  1.00  0.00    -0.203 F 
ATOM     92  C   UNL A   1      45.838  35.419  28.014  1.00  0.00     0.198 A 
ATOM     93  C   UNL A   1      46.380  34.760  30.256  1.00  0.00     0.198 A 
ATOM     94  F   UNL A   1      46.502  32.480  30.818  1.00  0.00    -0.203 F 
ATOM     95  F   UNL A   1      45.664  36.380  27.096  1.00  0.00    -0.200 F 
ATOM     96  C   UNL A   1      46.169  35.757  29.317  1.00  0.00     0.200 A 
ATOM     97  F   UNL A   1      46.684  35.085  31.522  1.00  0.00    -0.200 F 
ATOM     98  F   UNL A   1      46.291  37.045  29.666  1.00  0.00    -0.200 F 
ENDBRANCH  65  88
ENDBRANCH  39  40
ENDBRANCH  31  34
ENDBRANCH  29  30
ENDBRANCH  28  29
ENDBRANCH  27  28
ENDBRANCH  26  27
ENDBRANCH   1  26
TORSDOF 20
ENDMDL
MODEL 3
REMARK VINA RESULT:     -10.6      1.706      2.681
REMARK SMILES C=CCN(CC(=O)NCCCCCCNC(=O)c1ccc(-c2c3nc(c(-c4c(F)c(F)c(F)c(F)c4F)c4ccc([nH]4)c(-c4c(F)c(F)c(F)c(F)c4F)c4nc(c(-c5c(F)c(F)c(F)c(F)c5F)c5ccc2[nH]5)C=C4)C=C3)cc1)C(=O)NC1CC[NH+](CCC)CC1
REMARK SMILES IDX 10 1 9 2 8 3 6 4 7 5 5 7 4 8 3 9 2 10 1 11 81 12 82 13 83 14
REMARK SMILES IDX 84 16 85 17 92 18 86 19 91 20 87 21 88 23 89 24 90 25 11 26
REMARK SMILES IDX 12 27 13 28 14 29 15 30 16 31 17 33 18 34 19 35 80 36 20 37
REMARK SMILES IDX 79 38 21 39 22 40 23 41 73 42 24 43 78 44 72 45 74 46 25 47
REMARK SMILES IDX 77 48 71 49 70 50 26 52 58 53 38 54 57 55 39 56 42 57 56 58
REMARK SMILES IDX 75 59 40 60 41 61 55 63 76 64 43 65 27 66 28 67 36 68 29 69
REMARK SMILES IDX 30 70 34 71 37 72 31 73 32 74 35 75 33 76 59 77 60 78 68 79
REMARK SMILES IDX 61 80 62 81 66 82 69 83 63 84 64 85 67 86 65 87 44 88 45 89
REMARK SMILES IDX 53 90 46 91 47 92 51 93 54 94 48 95 49 96 52 97 50 98
REMARK H PARENT 8 6 83 15 87 22 15 32 74 51 42 62
REMARK Flexibility Score: inf
ROOT
ATOM      1  C   UNL A   1      37.089  21.831  24.681  1.00  0.00     0.021 C 
ENDROOT
BRANCH   1   2
ATOM      2  C   UNL A   1      35.845  21.117  25.191  1.00  0.00     0.116 C 
BRANCH   2   3
ATOM      3  N   UNL A   1      35.455  21.539  26.512  1.00  0.00    -0.355 N 
ATOM      4  C   UNL A   1      34.395  22.332  26.840  1.00  0.00     0.239 C 
ATOM      5  O   UNL A   1      33.945  22.254  27.986  1.00  0.00    -0.273 OA
ATOM      6  H   UNL A   1      36.012  21.221  27.258  1.00  0.00     0.163 HD
BRANCH   4   7
ATOM      7  C   UNL A   1      33.698  23.169  25.763  1.00  0.00     0.221 C 
BRANCH   7   8
ATOM      8  N   UNL A   1      32.255  22.959  25.605  1.00  0.00    -0.312 N 
BRANCH   8   9
ATOM      9  C   UNL A   1      31.864  21.756  24.863  1.00  0.00     0.149 C 
BRANCH   9  10
ATOM     10  C   UNL A   1      32.618  21.634  23.571  1.00  0.00    -0.013 C 
ATOM     11  C   UNL A   1      32.038  21.246  22.426  1.00  0.00     0.006 C 
ENDBRANCH   9  10
ENDBRANCH   8   9
BRANCH   8  12
ATOM     12  C   UNL A   1      31.234  23.712  26.106  1.00  0.00     0.318 C 
ATOM     13  O   UNL A   1      30.877  23.597  27.286  1.00  0.00    -0.249 OA
ATOM     14  N   UNL A   1      30.523  24.621  25.428  1.00  0.00    -0.335 N 
ATOM     15  H   UNL A   1      29.936  25.105  26.052  1.00  0.00     0.165 HD
BRANCH  14  16
ATOM     16  C   UNL A   1      30.322  25.143  24.067  1.00  0.00     0.095 C 
ATOM     17  C   UNL A   1      31.571  25.192  23.194  1.00  0.00     0.086 C 
ATOM     18  C   UNL A   1      29.745  26.574  24.131  1.00  0.00     0.086 C 
ATOM     19  C   UNL A   1      32.580  26.210  23.697  1.00  0.00     0.264 C 
ATOM     20  C   UNL A   1      30.792  27.619  24.548  1.00  0.00     0.264 C 
ATOM     21  N   UNL A   1      31.996  27.544  23.721  1.00  0.00    -0.335 N 
ATOM     22  H   UNL A   1      31.672  27.736  22.773  1.00  0.00     0.348 HD
BRANCH  21  23
ATOM     23  C   UNL A   1      32.981  28.595  23.994  1.00  0.00     0.261 C 
BRANCH  23  24
ATOM     24  C   UNL A   1      33.004  29.287  25.368  1.00  0.00     0.058 C 
ATOM     25  C   UNL A   1      33.926  28.671  26.408  1.00  0.00     0.010 C 
ENDBRANCH  23  24
ENDBRANCH  21  23
ENDBRANCH  14  16
ENDBRANCH   8  12
ENDBRANCH   7   8
ENDBRANCH   4   7
ENDBRANCH   2   3
ENDBRANCH   1   2
BRANCH   1  26
ATOM     26  C   UNL A   1      37.863  22.589  25.763  1.00  0.00     0.002 C 
BRANCH  26  27
ATOM     27  C   UNL A   1      39.230  21.997  26.125  1.00  0.00     0.002 C 
BRANCH  27  28
ATOM     28  C   UNL A   1      39.552  20.649  25.474  1.00  0.00     0.021 C 
BRANCH  28  29
ATOM     29  C   UNL A   1      39.950  19.556  26.454  1.00  0.00     0.116 C 
BRANCH  29  30
ATOM     30  N   UNL A   1      41.176  18.893  26.049  1.00  0.00    -0.352 N 
ATOM     31  C   UNL A   1      42.420  19.431  25.852  1.00  0.00     0.251 C 
ATOM     32  H   UNL A   1      41.103  17.923  25.895  1.00  0.00     0.163 HD
ATOM     33  O   UNL A   1      43.298  18.778  25.290  1.00  0.00    -0.269 OA
BRANCH  31  34
ATOM     34  C   UNL A   1      42.699  20.809  26.302  1.00  0.00     0.039 A 
ATOM     35  C   UNL A   1      42.579  21.115  27.659  1.00  0.00     0.014 A 
ATOM     36  C   UNL A   1      43.075  21.797  25.386  1.00  0.00     0.014 A 
ATOM     37  C   UNL A   1      42.888  22.400  28.105  1.00  0.00     0.010 A 
ATOM     38  C   UNL A   1      43.458  23.053  25.842  1.00  0.00     0.010 A 
ATOM     39  C   UNL A   1      43.358  23.371  27.205  1.00  0.00    -0.014 A 
BRANCH  39  40
ATOM     40  C   UNL A   1      43.743  24.726  27.670  1.00  0.00     0.031 A 
ATOM     41  C   UNL A   1      42.683  25.738  28.002  1.00  0.00     0.074 A 
ATOM     42  C   UNL A   1      45.046  25.061  27.737  1.00  0.00     0.049 A 
ATOM     43  N   UNL A   1      42.817  26.989  28.367  1.00  0.00    -0.248 NA
ATOM     44  C   UNL A   1      41.284  25.296  27.882  1.00  0.00     0.031 C 
ATOM     45  C   UNL A   1      46.163  24.179  27.396  1.00  0.00     0.029 A 
ATOM     46  N   UNL A   1      45.651  26.237  28.107  1.00  0.00    -0.354 N 
ATOM     47  C   UNL A   1      41.526  27.482  28.508  1.00  0.00     0.074 A 
ATOM     48  C   UNL A   1      40.623  26.416  28.132  1.00  0.00     0.031 C 
ATOM     49  C   UNL A   1      47.317  24.836  27.594  1.00  0.00     0.029 A 
ATOM     50  C   UNL A   1      47.022  26.195  28.037  1.00  0.00     0.049 A 
ATOM     51  H   UNL A   1      45.148  27.033  28.394  1.00  0.00     0.167 HD
ATOM     52  C   UNL A   1      41.131  28.705  28.934  1.00  0.00     0.037 A 
ATOM     53  C   UNL A   1      47.935  27.149  28.294  1.00  0.00     0.037 A 
ATOM     54  C   UNL A   1      42.035  29.753  29.326  1.00  0.00     0.049 A 
ATOM     55  C   UNL A   1      47.470  28.504  28.755  1.00  0.00     0.074 A 
ATOM     56  C   UNL A   1      41.736  31.008  29.828  1.00  0.00     0.029 A 
ATOM     57  N   UNL A   1      43.419  29.672  29.255  1.00  0.00    -0.354 N 
ATOM     58  N   UNL A   1      46.247  28.937  28.952  1.00  0.00    -0.248 NA
ATOM     59  C   UNL A   1      48.511  29.502  29.036  1.00  0.00     0.031 C 
ATOM     60  C   UNL A   1      42.936  31.704  30.009  1.00  0.00     0.029 A 
ATOM     61  C   UNL A   1      43.986  30.862  29.679  1.00  0.00     0.049 A 
ATOM     62  H   UNL A   1      43.923  28.883  28.948  1.00  0.00     0.167 HD
ATOM     63  C   UNL A   1      46.373  30.242  29.410  1.00  0.00     0.074 A 
ATOM     64  C   UNL A   1      47.792  30.526  29.474  1.00  0.00     0.031 C 
ATOM     65  C   UNL A   1      45.401  31.126  29.745  1.00  0.00     0.037 A 
BRANCH  52  66
ATOM     66  C   UNL A   1      39.655  28.975  29.001  1.00  0.00     0.064 A 
ATOM     67  C   UNL A   1      38.930  29.390  27.873  1.00  0.00     0.173 A 
ATOM     68  C   UNL A   1      38.949  28.780  30.197  1.00  0.00     0.173 A 
ATOM     69  F   UNL A   1      39.558  29.601  26.706  1.00  0.00    -0.203 F 
ATOM     70  C   UNL A   1      37.560  29.630  27.949  1.00  0.00     0.198 A 
ATOM     71  C   UNL A   1      37.574  28.990  30.261  1.00  0.00     0.198 A 
ATOM     72  F   UNL A   1      39.590  28.379  31.305  1.00  0.00    -0.203 F 
ATOM     73  F   UNL A   1      36.899  30.076  26.871  1.00  0.00    -0.200 F 
ATOM     74  C   UNL A   1      36.882  29.422  29.140  1.00  0.00     0.200 A 
ATOM     75  F   UNL A   1      36.917  28.773  31.409  1.00  0.00    -0.200 F 
ATOM     76  F   UNL A   1      35.562  29.645  29.210  1.00  0.00    -0.200 F 
ENDBRANCH  52  66
BRANCH  53  77
ATOM     77  C   UNL A   1      49.384  26.852  28.144  1.00  0.00     0.064 A 
ATOM     78  C   UNL A   1      50.152  26.436  29.240  1.00  0.00     0.173 A 
ATOM     79  C   UNL A   1      50.031  26.979  26.906  1.00  0.00     0.173 A 
ATOM     80  F   UNL A   1      49.584  26.318  30.449  1.00  0.00    -0.203 F 
ATOM     81  C   UNL A   1      51.516  26.185  29.110  1.00  0.00     0.198 A 
ATOM     82  C   UNL A   1      51.389  26.697  26.770  1.00  0.00     0.198 A 
ATOM     83  F   UNL A   1      49.341  27.366  25.822  1.00  0.00    -0.203 F 
ATOM     84  F   UNL A   1      52.236  25.838  30.185  1.00  0.00    -0.200 F 
ATOM     85  C   UNL A   1      52.133  26.309  27.874  1.00  0.00     0.200 A 
ATOM     86  F   UNL A   1      51.977  26.803  25.571  1.00  0.00    -0.200 F 
ATOM     87  F   UNL A   1      53.443  26.063  27.748  1.00  0.00    -0.200 F 
ENDBRANCH  53  77
BRANCH  65  88
ATOM     88  C   UNL A   1      45.838  32.470  30.250  1.00  0.00     0.064 A 
ATOM     89  C   UNL A   1      45.996  33.567  29.391  1.00  0.00     0.173 A 
ATOM     90  C   UNL A   1      46.062  32.672  31.621  1.00  0.00     0.173 A 
ATOM     91  F   UNL A   1      45.808  33.423  28.070  1.00  0.00    -0.203 F 
ATOM     92  C   UNL A   1      46.389  34.810  29.882  1.00  0.00     0.198 A 
ATOM     93  C   UNL A   1      46.422  33.924  32.112  1.00  0.00     0.198 A 
ATOM     94  F   UNL A   1      45.918  31.658  32.487  1.00  0.00    -0.203 F 
ATOM     95  F   UNL A   1      46.584  35.830  29.036  1.00  0.00    -0.200 F 
ATOM     96  C   UNL A   1      46.594  34.989  31.242  1.00  0.00     0.200 A 
ATOM     97  F   UNL A   1      46.603  34.099  33.429  1.00  0.00    -0.200 F 
ATOM     98  F   UNL A   1      46.963  36.188  31.713  1.00  0.00    -0.200 F 
ENDBRANCH  65  88
ENDBRANCH  39  40
ENDBRANCH  31  34
ENDBRANCH  29  30
ENDBRANCH  28  29
ENDBRANCH  27  28
ENDBRANCH  26  27
ENDBRANCH   1  26
TORSDOF 20
ENDMDL
