MODEL 1
REMARK VINA RESULT:     -10.4      0.000      0.000
REMARK SMILES C[C@]1(O)CC[C@@H]2[C@H]3CCC4=C/C(=N/OCC(=O)NCCCCCCNC(=O)c5ccc(-c6c7nc(c(-c8c(F)c(F)c(F)c(F)c8F)c8ccc([nH]8)c(-c8c(F)c(F)c(F)c(F)c8F)c8nc(c(-c9c(F)c(F)c(F)c(F)c9F)c9ccc6[nH]9)C=C8)C=C7)cc5)CC[C@@]4(C)[C@@H]3CC[C@]21C
REMARK SMILES IDX 21 1 20 2 19 3 18 4 16 5 17 6 15 8 14 9 13 10 1 11 2 12 4 13
REMARK SMILES IDX 98 14 5 15 6 16 97 17 99 18 7 19 96 20 8 21 95 22 9 23 93 24
REMARK SMILES IDX 10 25 92 26 94 27 11 28 91 29 12 30 3 31 22 33 23 34 24 35
REMARK SMILES IDX 25 36 26 37 27 39 28 40 29 41 90 42 30 43 89 44 31 45 32 46
REMARK SMILES IDX 33 47 83 48 34 49 88 50 82 51 84 52 35 53 87 54 81 55 80 56
REMARK SMILES IDX 36 58 68 59 48 60 67 61 49 62 52 63 66 64 85 65 50 66 51 67
REMARK SMILES IDX 65 69 86 70 53 71 37 72 38 73 46 74 39 75 40 76 44 77 47 78
REMARK SMILES IDX 41 79 42 80 45 81 43 82 69 83 70 84 78 85 71 86 72 87 76 88
REMARK SMILES IDX 79 89 73 90 74 91 77 92 75 93 54 94 55 95 63 96 56 97 57 98
REMARK SMILES IDX 61 99 64 100 58 101 59 102 62 103 60 104
REMARK H PARENT 18 7 3 32 25 38 84 57 52 68
REMARK Flexibility Score: inf
ROOT
ATOM      1  C   UNL A   1      43.728  24.461  26.990  1.00  0.00     0.002 C 
ENDROOT
BRANCH   1   2
ATOM      2  C   UNL A   1      45.253  24.563  26.857  1.00  0.00     0.021 C 
BRANCH   2   3
ATOM      3  C   UNL A   1      45.784  25.994  26.742  1.00  0.00     0.116 C 
BRANCH   3   4
ATOM      4  N   UNL A   1      46.149  26.321  25.380  1.00  0.00    -0.353 N 
ATOM      5  C   UNL A   1      46.500  27.537  24.865  1.00  0.00     0.260 C 
ATOM      6  O   UNL A   1      46.726  27.611  23.653  1.00  0.00    -0.271 OA
ATOM      7  H   UNL A   1      46.144  25.571  24.743  1.00  0.00     0.163 HD
BRANCH   5   8
ATOM      8  C   UNL A   1      46.722  28.737  25.798  1.00  0.00     0.363 C 
BRANCH   8   9
ATOM      9  O   UNL A   1      46.472  30.060  25.354  1.00  0.00    -0.385 OA
BRANCH   9  10
ATOM     10  N   UNL A   1      45.311  30.544  25.955  1.00  0.00    -0.091 NA
ATOM     11  C   UNL A   1      43.474  41.009  27.942  1.00  0.00     0.042 C 
ATOM     12  C   UNL A   1      43.663  39.902  26.884  1.00  0.00     0.068 C 
ATOM     13  C   UNL A   1      42.252  39.361  26.561  1.00  0.00     0.036 C 
ATOM     14  C   UNL A   1      44.495  38.627  27.333  1.00  0.00    -0.001 C 
ATOM     15  C   UNL A   1      42.101  38.156  27.488  1.00  0.00     0.007 C 
ATOM     16  C   UNL A   1      43.436  37.493  27.231  1.00  0.00     0.001 C 
ATOM     17  C   UNL A   1      45.635  38.123  26.413  1.00  0.00     0.010 C 
ATOM     18  C   UNL A   1      45.100  38.851  28.742  1.00  0.00     0.015 C 
ATOM     19  C   UNL A   1      43.864  36.229  27.958  1.00  0.00    -0.003 C 
ATOM     20  C   UNL A   1      46.178  36.731  26.863  1.00  0.00     0.005 C 
ATOM     21  C   UNL A   1      42.734  35.199  28.034  1.00  0.00     0.008 C 
ATOM     22  C   UNL A   1      45.086  35.655  27.168  1.00  0.00     0.002 C 
ATOM     23  C   UNL A   1      43.212  33.908  28.683  1.00  0.00     0.032 C 
ATOM     24  C   UNL A   1      45.619  34.310  27.790  1.00  0.00    -0.008 C 
ATOM     25  C   UNL A   1      44.419  33.360  27.963  1.00  0.00    -0.062 C 
ATOM     26  C   UNL A   1      46.684  33.703  26.825  1.00  0.00     0.018 C 
ATOM     27  C   UNL A   1      46.276  34.518  29.172  1.00  0.00     0.016 C 
ATOM     28  C   UNL A   1      44.373  32.114  27.464  1.00  0.00     0.027 C 
ATOM     29  C   UNL A   1      46.871  32.202  27.004  1.00  0.00     0.061 C 
ATOM     30  C   UNL A   1      45.535  31.548  26.748  1.00  0.00     0.080 C 
BRANCH  12  31
ATOM     31  O   UNL A   1      44.219  40.504  25.724  1.00  0.00    -0.390 OA
ATOM     32  H   UNL A   1      44.890  41.154  25.986  1.00  0.00     0.211 HD
ENDBRANCH  12  31
ENDBRANCH   9  10
ENDBRANCH   8   9
ENDBRANCH   5   8
ENDBRANCH   3   4
ENDBRANCH   2   3
ENDBRANCH   1   2
BRANCH   1  33
ATOM     33  C   UNL A   1      43.230  23.477  28.054  1.00  0.00     0.002 C 
BRANCH  33  34
ATOM     34  C   UNL A   1      42.257  22.413  27.543  1.00  0.00     0.021 C 
BRANCH  34  35
ATOM     35  C   UNL A   1      41.921  22.516  26.059  1.00  0.00     0.116 C 
BRANCH  35  36
ATOM     36  N   UNL A   1      40.497  22.370  25.805  1.00  0.00    -0.352 N 
ATOM     37  C   UNL A   1      39.451  23.153  26.221  1.00  0.00     0.251 C 
ATOM     38  H   UNL A   1      40.246  21.594  25.251  1.00  0.00     0.163 HD
ATOM     39  O   UNL A   1      38.292  22.772  26.067  1.00  0.00    -0.269 OA
BRANCH  37  40
ATOM     40  C   UNL A   1      39.714  24.449  26.881  1.00  0.00     0.039 A 
ATOM     41  C   UNL A   1      39.358  24.607  28.223  1.00  0.00     0.014 A 
ATOM     42  C   UNL A   1      40.305  25.507  26.183  1.00  0.00     0.014 A 
ATOM     43  C   UNL A   1      39.655  25.802  28.882  1.00  0.00     0.010 A 
ATOM     44  C   UNL A   1      40.670  26.666  26.862  1.00  0.00     0.010 A 
ATOM     45  C   UNL A   1      40.350  26.826  28.218  1.00  0.00    -0.014 A 
BRANCH  45  46
ATOM     46  C   UNL A   1      40.762  28.061  28.936  1.00  0.00     0.031 A 
ATOM     47  C   UNL A   1      42.168  28.213  29.446  1.00  0.00     0.074 A 
ATOM     48  C   UNL A   1      39.849  29.022  29.177  1.00  0.00     0.049 A 
ATOM     49  N   UNL A   1      42.697  29.196  30.132  1.00  0.00    -0.248 NA
ATOM     50  C   UNL A   1      43.095  27.105  29.173  1.00  0.00     0.031 C 
ATOM     51  C   UNL A   1      38.442  28.969  28.778  1.00  0.00     0.029 A 
ATOM     52  N   UNL A   1      39.965  30.227  29.824  1.00  0.00    -0.354 N 
ATOM     53  C   UNL A   1      44.012  28.822  30.375  1.00  0.00     0.074 A 
ATOM     54  C   UNL A   1      44.185  27.498  29.817  1.00  0.00     0.031 C 
ATOM     55  C   UNL A   1      37.833  30.102  29.161  1.00  0.00     0.029 A 
ATOM     56  C   UNL A   1      38.792  30.941  29.873  1.00  0.00     0.049 A 
ATOM     57  H   UNL A   1      40.809  30.550  30.214  1.00  0.00     0.167 HD
ATOM     58  C   UNL A   1      44.993  29.528  30.988  1.00  0.00     0.037 A 
ATOM     59  C   UNL A   1      38.517  32.133  30.435  1.00  0.00     0.037 A 
ATOM     60  C   UNL A   1      44.819  30.852  31.530  1.00  0.00     0.049 A 
ATOM     61  C   UNL A   1      39.621  32.887  31.129  1.00  0.00     0.074 A 
ATOM     62  C   UNL A   1      45.765  31.673  32.119  1.00  0.00     0.029 A 
ATOM     63  N   UNL A   1      43.618  31.544  31.558  1.00  0.00    -0.354 N 
ATOM     64  N   UNL A   1      40.879  32.556  31.287  1.00  0.00    -0.248 NA
ATOM     65  C   UNL A   1      39.264  34.185  31.716  1.00  0.00     0.031 C 
ATOM     66  C   UNL A   1      45.123  32.836  32.558  1.00  0.00     0.029 A 
ATOM     67  C   UNL A   1      43.791  32.769  32.182  1.00  0.00     0.049 A 
ATOM     68  H   UNL A   1      42.766  31.214  31.189  1.00  0.00     0.167 HD
ATOM     69  C   UNL A   1      41.470  33.614  31.963  1.00  0.00     0.074 A 
ATOM     70  C   UNL A   1      40.437  34.608  32.169  1.00  0.00     0.031 C 
ATOM     71  C   UNL A   1      42.755  33.751  32.378  1.00  0.00     0.037 A 
BRANCH  58  72
ATOM     72  C   UNL A   1      46.346  28.884  31.107  1.00  0.00     0.064 A 
ATOM     73  C   UNL A   1      46.703  28.118  32.227  1.00  0.00     0.173 A 
ATOM     74  C   UNL A   1      47.283  29.000  30.068  1.00  0.00     0.173 A 
ATOM     75  F   UNL A   1      45.849  27.983  33.252  1.00  0.00    -0.203 F 
ATOM     76  C   UNL A   1      47.957  27.519  32.317  1.00  0.00     0.198 A 
ATOM     77  C   UNL A   1      48.523  28.370  30.146  1.00  0.00     0.198 A 
ATOM     78  F   UNL A   1      46.993  29.715  28.970  1.00  0.00    -0.203 F 
ATOM     79  F   UNL A   1      48.294  26.836  33.420  1.00  0.00    -0.200 F 
ATOM     80  C   UNL A   1      48.862  27.638  31.273  1.00  0.00     0.200 A 
ATOM     81  F   UNL A   1      49.390  28.473  29.129  1.00  0.00    -0.200 F 
ATOM     82  F   UNL A   1      50.064  27.052  31.357  1.00  0.00    -0.200 F 
ENDBRANCH  58  72
BRANCH  59  83
ATOM     83  C   UNL A   1      37.143  32.698  30.352  1.00  0.00     0.064 A 
ATOM     84  C   UNL A   1      36.746  33.472  29.253  1.00  0.00     0.173 A 
ATOM     85  C   UNL A   1      36.205  32.487  31.374  1.00  0.00     0.173 A 
ATOM     86  F   UNL A   1      37.614  33.719  28.260  1.00  0.00    -0.203 F 
ATOM     87  C   UNL A   1      35.473  34.034  29.190  1.00  0.00     0.198 A 
ATOM     88  C   UNL A   1      34.921  33.022  31.294  1.00  0.00     0.198 A 
ATOM     89  F   UNL A   1      36.532  31.750  32.445  1.00  0.00    -0.203 F 
ATOM     90  F   UNL A   1      35.139  34.814  28.154  1.00  0.00    -0.200 F 
ATOM     91  C   UNL A   1      34.560  33.804  30.207  1.00  0.00     0.200 A 
ATOM     92  F   UNL A   1      34.036  32.783  32.271  1.00  0.00    -0.200 F 
ATOM     93  F   UNL A   1      33.335  34.343  30.145  1.00  0.00    -0.200 F 
ENDBRANCH  59  83
BRANCH  71  94
ATOM     94  C   UNL A   1      43.124  35.037  33.062  1.00  0.00     0.064 A 
ATOM     95  C   UNL A   1      43.609  36.143  32.347  1.00  0.00     0.173 A 
ATOM     96  C   UNL A   1      42.962  35.175  34.450  1.00  0.00     0.173 A 
ATOM     97  F   UNL A   1      43.797  36.061  31.021  1.00  0.00    -0.203 F 
ATOM     98  C   UNL A   1      43.946  37.326  33.000  1.00  0.00     0.198 A 
ATOM     99  C   UNL A   1      43.266  36.371  35.094  1.00  0.00     0.198 A 
ATOM    100  F   UNL A   1      42.495  34.151  35.180  1.00  0.00    -0.203 F 
ATOM    101  F   UNL A   1      44.462  38.349  32.304  1.00  0.00    -0.200 F 
ATOM    102  C   UNL A   1      43.767  37.442  34.369  1.00  0.00     0.200 A 
ATOM    103  F   UNL A   1      43.075  36.486  36.414  1.00  0.00    -0.200 F 
ATOM    104  F   UNL A   1      44.086  38.584  34.995  1.00  0.00    -0.200 F 
ENDBRANCH  71  94
ENDBRANCH  45  46
ENDBRANCH  37  40
ENDBRANCH  35  36
ENDBRANCH  34  35
ENDBRANCH  33  34
ENDBRANCH   1  33
TORSDOF 16
ENDMDL
MODEL 2
REMARK VINA RESULT:     -10.4      3.806     10.720
REMARK SMILES C[C@]1(O)CC[C@@H]2[C@H]3CCC4=C/C(=N/OCC(=O)NCCCCCCNC(=O)c5ccc(-c6c7nc(c(-c8c(F)c(F)c(F)c(F)c8F)c8ccc([nH]8)c(-c8c(F)c(F)c(F)c(F)c8F)c8nc(c(-c9c(F)c(F)c(F)c(F)c9F)c9ccc6[nH]9)C=C8)C=C7)cc5)CC[C@@]4(C)[C@@H]3CC[C@]21C
REMARK SMILES IDX 21 1 20 2 19 3 18 4 16 5 17 6 15 8 14 9 13 10 1 11 2 12 4 13
REMARK SMILES IDX 98 14 5 15 6 16 97 17 99 18 7 19 96 20 8 21 95 22 9 23 93 24
REMARK SMILES IDX 10 25 92 26 94 27 11 28 91 29 12 30 3 31 22 33 23 34 24 35
REMARK SMILES IDX 25 36 26 37 27 39 28 40 29 41 90 42 30 43 89 44 31 45 32 46
REMARK SMILES IDX 33 47 83 48 34 49 88 50 82 51 84 52 35 53 87 54 81 55 80 56
REMARK SMILES IDX 36 58 68 59 48 60 67 61 49 62 52 63 66 64 85 65 50 66 51 67
REMARK SMILES IDX 65 69 86 70 53 71 37 72 38 73 46 74 39 75 40 76 44 77 47 78
REMARK SMILES IDX 41 79 42 80 45 81 43 82 69 83 70 84 78 85 71 86 72 87 76 88
REMARK SMILES IDX 79 89 73 90 74 91 77 92 75 93 54 94 55 95 63 96 56 97 57 98
REMARK SMILES IDX 61 99 64 100 58 101 59 102 62 103 60 104
REMARK H PARENT 18 7 3 32 25 38 84 57 52 68
REMARK Flexibility Score: inf
ROOT
ATOM      1  C   UNL A   1      34.056  35.245  28.195  1.00  0.00     0.002 C 
ENDROOT
BRANCH   1   2
ATOM      2  C   UNL A   1      33.196  36.154  29.082  1.00  0.00     0.021 C 
BRANCH   2   3
ATOM      3  C   UNL A   1      33.131  35.728  30.551  1.00  0.00     0.116 C 
BRANCH   3   4
ATOM      4  N   UNL A   1      33.384  36.841  31.443  1.00  0.00    -0.353 N 
ATOM      5  C   UNL A   1      34.004  36.829  32.659  1.00  0.00     0.260 C 
ATOM      6  O   UNL A   1      34.070  37.889  33.288  1.00  0.00    -0.271 OA
ATOM      7  H   UNL A   1      33.067  37.720  31.131  1.00  0.00     0.163 HD
BRANCH   5   8
ATOM      8  C   UNL A   1      34.699  35.554  33.159  1.00  0.00     0.363 C 
BRANCH   8   9
ATOM      9  O   UNL A   1      35.650  34.879  32.352  1.00  0.00    -0.385 OA
BRANCH   9  10
ATOM     10  N   UNL A   1      36.907  34.953  32.949  1.00  0.00    -0.091 NA
ATOM     11  C   UNL A   1      43.835  26.670  33.442  1.00  0.00     0.042 C 
ATOM     12  C   UNL A   1      43.090  27.688  32.555  1.00  0.00     0.068 C 
ATOM     13  C   UNL A   1      44.025  28.911  32.413  1.00  0.00     0.036 C 
ATOM     14  C   UNL A   1      41.736  28.278  33.135  1.00  0.00    -0.001 C 
ATOM     15  C   UNL A   1      43.563  29.856  33.521  1.00  0.00     0.007 C 
ATOM     16  C   UNL A   1      42.070  29.789  33.278  1.00  0.00     0.001 C 
ATOM     17  C   UNL A   1      40.479  28.284  32.228  1.00  0.00     0.010 C 
ATOM     18  C   UNL A   1      41.355  27.551  34.449  1.00  0.00     0.015 C 
ATOM     19  C   UNL A   1      41.075  30.527  34.158  1.00  0.00    -0.003 C 
ATOM     20  C   UNL A   1      39.315  29.118  32.846  1.00  0.00     0.005 C 
ATOM     21  C   UNL A   1      41.529  31.956  34.465  1.00  0.00     0.008 C 
ATOM     22  C   UNL A   1      39.716  30.529  33.384  1.00  0.00     0.002 C 
ATOM     23  C   UNL A   1      40.475  32.704  35.270  1.00  0.00     0.032 C 
ATOM     24  C   UNL A   1      38.587  31.300  34.166  1.00  0.00    -0.008 C 
ATOM     25  C   UNL A   1      39.142  32.681  34.562  1.00  0.00    -0.062 C 
ATOM     26  C   UNL A   1      37.343  31.439  33.235  1.00  0.00     0.018 C 
ATOM     27  C   UNL A   1      38.153  30.565  35.453  1.00  0.00     0.016 C 
ATOM     28  C   UNL A   1      38.541  33.844  34.262  1.00  0.00     0.027 C 
ATOM     29  C   UNL A   1      36.424  32.589  33.627  1.00  0.00     0.061 C 
ATOM     30  C   UNL A   1      37.238  33.858  33.564  1.00  0.00     0.080 C 
BRANCH  12  31
ATOM     31  O   UNL A   1      42.893  27.089  31.282  1.00  0.00    -0.390 OA
ATOM     32  H   UNL A   1      42.329  26.306  31.376  1.00  0.00     0.211 HD
ENDBRANCH  12  31
ENDBRANCH   9  10
ENDBRANCH   8   9
ENDBRANCH   5   8
ENDBRANCH   3   4
ENDBRANCH   2   3
ENDBRANCH   1   2
BRANCH   1  33
ATOM     33  C   UNL A   1      35.434  34.894  28.764  1.00  0.00     0.002 C 
BRANCH  33  34
ATOM     34  C   UNL A   1      35.769  33.401  28.766  1.00  0.00     0.021 C 
BRANCH  34  35
ATOM     35  C   UNL A   1      34.911  32.556  29.702  1.00  0.00     0.116 C 
BRANCH  35  36
ATOM     36  N   UNL A   1      34.169  31.527  28.991  1.00  0.00    -0.352 N 
ATOM     37  C   UNL A   1      34.630  30.416  28.332  1.00  0.00     0.251 C 
ATOM     38  H   UNL A   1      33.191  31.645  28.982  1.00  0.00     0.163 HD
ATOM     39  O   UNL A   1      33.870  29.755  27.626  1.00  0.00    -0.269 OA
BRANCH  37  40
ATOM     40  C   UNL A   1      36.050  30.023  28.447  1.00  0.00     0.039 A 
ATOM     41  C   UNL A   1      36.859  30.079  27.310  1.00  0.00     0.014 A 
ATOM     42  C   UNL A   1      36.583  29.598  29.668  1.00  0.00     0.014 A 
ATOM     43  C   UNL A   1      38.218  29.772  27.412  1.00  0.00     0.010 A 
ATOM     44  C   UNL A   1      37.951  29.368  29.784  1.00  0.00     0.010 A 
ATOM     45  C   UNL A   1      38.783  29.453  28.658  1.00  0.00    -0.014 A 
BRANCH  45  46
ATOM     46  C   UNL A   1      40.245  29.224  28.797  1.00  0.00     0.031 A 
ATOM     47  C   UNL A   1      41.138  30.304  29.342  1.00  0.00     0.074 A 
ATOM     48  C   UNL A   1      40.776  28.058  28.379  1.00  0.00     0.049 A 
ATOM     49  N   UNL A   1      42.439  30.304  29.495  1.00  0.00    -0.248 NA
ATOM     50  C   UNL A   1      40.487  31.560  29.745  1.00  0.00     0.031 C 
ATOM     51  C   UNL A   1      40.022  26.952  27.787  1.00  0.00     0.029 A 
ATOM     52  N   UNL A   1      42.074  27.612  28.379  1.00  0.00    -0.354 N 
ATOM     53  C   UNL A   1      42.760  31.556  30.004  1.00  0.00     0.074 A 
ATOM     54  C   UNL A   1      41.528  32.310  30.078  1.00  0.00     0.031 C 
ATOM     55  C   UNL A   1      40.864  25.945  27.508  1.00  0.00     0.029 A 
ATOM     56  C   UNL A   1      42.222  26.349  27.858  1.00  0.00     0.049 A 
ATOM     57  H   UNL A   1      42.827  28.146  28.721  1.00  0.00     0.167 HD
ATOM     58  C   UNL A   1      43.970  32.024  30.395  1.00  0.00     0.037 A 
ATOM     59  C   UNL A   1      43.328  25.604  27.676  1.00  0.00     0.037 A 
ATOM     60  C   UNL A   1      45.192  31.263  30.332  1.00  0.00     0.049 A 
ATOM     61  C   UNL A   1      44.663  26.157  28.100  1.00  0.00     0.074 A 
ATOM     62  C   UNL A   1      46.457  31.628  30.757  1.00  0.00     0.029 A 
ATOM     63  N   UNL A   1      45.302  29.987  29.802  1.00  0.00    -0.354 N 
ATOM     64  N   UNL A   1      44.944  27.314  28.649  1.00  0.00    -0.248 NA
ATOM     65  C   UNL A   1      45.833  25.296  27.884  1.00  0.00     0.031 C 
ATOM     66  C   UNL A   1      47.344  30.597  30.428  1.00  0.00     0.029 A 
ATOM     67  C   UNL A   1      46.620  29.561  29.860  1.00  0.00     0.049 A 
ATOM     68  H   UNL A   1      44.554  29.459  29.438  1.00  0.00     0.167 HD
ATOM     69  C   UNL A   1      46.314  27.308  28.871  1.00  0.00     0.074 A 
ATOM     70  C   UNL A   1      46.805  26.024  28.415  1.00  0.00     0.031 C 
ATOM     71  C   UNL A   1      47.096  28.280  29.406  1.00  0.00     0.037 A 
BRANCH  58  72
ATOM     72  C   UNL A   1      44.035  33.428  30.929  1.00  0.00     0.064 A 
ATOM     73  C   UNL A   1      43.949  34.544  30.082  1.00  0.00     0.173 A 
ATOM     74  C   UNL A   1      44.141  33.661  32.309  1.00  0.00     0.173 A 
ATOM     75  F   UNL A   1      43.856  34.378  28.754  1.00  0.00    -0.203 F 
ATOM     76  C   UNL A   1      44.000  35.839  30.593  1.00  0.00     0.198 A 
ATOM     77  C   UNL A   1      44.156  34.957  32.819  1.00  0.00     0.198 A 
ATOM     78  F   UNL A   1      44.219  32.631  33.165  1.00  0.00    -0.203 F 
ATOM     79  F   UNL A   1      43.970  36.887  29.759  1.00  0.00    -0.200 F 
ATOM     80  C   UNL A   1      44.094  36.043  31.961  1.00  0.00     0.200 A 
ATOM     81  F   UNL A   1      44.230  35.153  34.143  1.00  0.00    -0.200 F 
ATOM     82  F   UNL A   1      44.132  37.290  32.452  1.00  0.00    -0.200 F 
ENDBRANCH  58  72
BRANCH  59  83
ATOM     83  C   UNL A   1      43.222  24.246  27.078  1.00  0.00     0.064 A 
ATOM     84  C   UNL A   1      43.548  24.022  25.733  1.00  0.00     0.173 A 
ATOM     85  C   UNL A   1      42.780  23.149  27.833  1.00  0.00     0.173 A 
ATOM     86  F   UNL A   1      43.955  25.043  24.964  1.00  0.00    -0.203 F 
ATOM     87  C   UNL A   1      43.412  22.760  25.159  1.00  0.00     0.198 A 
ATOM     88  C   UNL A   1      42.678  21.880  27.266  1.00  0.00     0.198 A 
ATOM     89  F   UNL A   1      42.461  23.307  29.125  1.00  0.00    -0.203 F 
ATOM     90  F   UNL A   1      43.679  22.586  23.858  1.00  0.00    -0.200 F 
ATOM     91  C   UNL A   1      42.983  21.689  25.927  1.00  0.00     0.200 A 
ATOM     92  F   UNL A   1      42.279  20.844  28.017  1.00  0.00    -0.200 F 
ATOM     93  F   UNL A   1      42.856  20.474  25.376  1.00  0.00    -0.200 F 
ENDBRANCH  59  83
BRANCH  71  94
ATOM     94  C   UNL A   1      48.560  27.977  29.561  1.00  0.00     0.064 A 
ATOM     95  C   UNL A   1      49.083  27.444  30.748  1.00  0.00     0.173 A 
ATOM     96  C   UNL A   1      49.447  28.196  28.495  1.00  0.00     0.173 A 
ATOM     97  F   UNL A   1      48.283  27.228  31.803  1.00  0.00    -0.203 F 
ATOM     98  C   UNL A   1      50.444  27.171  30.872  1.00  0.00     0.198 A 
ATOM     99  C   UNL A   1      50.800  27.888  28.610  1.00  0.00     0.198 A 
ATOM    100  F   UNL A   1      48.998  28.698  27.334  1.00  0.00    -0.203 F 
ATOM    101  F   UNL A   1      50.930  26.716  32.036  1.00  0.00    -0.200 F 
ATOM    102  C   UNL A   1      51.298  27.386  29.802  1.00  0.00     0.200 A 
ATOM    103  F   UNL A   1      51.620  28.080  27.569  1.00  0.00    -0.200 F 
ATOM    104  F   UNL A   1      52.606  27.116  29.921  1.00  0.00    -0.200 F 
ENDBRANCH  71  94
ENDBRANCH  45  46
ENDBRANCH  37  40
ENDBRANCH  35  36
ENDBRANCH  34  35
ENDBRANCH  33  34
ENDBRANCH   1  33
TORSDOF 16
ENDMDL
MODEL 3
REMARK VINA RESULT:     -10.3      5.611     11.850
REMARK SMILES C[C@]1(O)CC[C@@H]2[C@H]3CCC4=C/C(=N/OCC(=O)NCCCCCCNC(=O)c5ccc(-c6c7nc(c(-c8c(F)c(F)c(F)c(F)c8F)c8ccc([nH]8)c(-c8c(F)c(F)c(F)c(F)c8F)c8nc(c(-c9c(F)c(F)c(F)c(F)c9F)c9ccc6[nH]9)C=C8)C=C7)cc5)CC[C@@]4(C)[C@@H]3CC[C@]21C
REMARK SMILES IDX 21 1 20 2 19 3 18 4 16 5 17 6 15 8 14 9 13 10 1 11 2 12 4 13
REMARK SMILES IDX 98 14 5 15 6 16 97 17 99 18 7 19 96 20 8 21 95 22 9 23 93 24
REMARK SMILES IDX 10 25 92 26 94 27 11 28 91 29 12 30 3 31 22 33 23 34 24 35
REMARK SMILES IDX 25 36 26 37 27 39 28 40 29 41 90 42 30 43 89 44 31 45 32 46
REMARK SMILES IDX 33 47 83 48 34 49 88 50 82 51 84 52 35 53 87 54 81 55 80 56
REMARK SMILES IDX 36 58 68 59 48 60 67 61 49 62 52 63 66 64 85 65 50 66 51 67
REMARK SMILES IDX 65 69 86 70 53 71 37 72 38 73 46 74 39 75 40 76 44 77 47 78
REMARK SMILES IDX 41 79 42 80 45 81 43 82 69 83 70 84 78 85 71 86 72 87 76 88
REMARK SMILES IDX 79 89 73 90 74 91 77 92 75 93 54 94 55 95 63 96 56 97 57 98
REMARK SMILES IDX 61 99 64 100 58 101 59 102 62 103 60 104
REMARK H PARENT 18 7 3 32 25 38 84 57 52 68
REMARK Flexibility Score: inf
ROOT
ATOM      1  C   UNL A   1      30.371  26.003  26.515  1.00  0.00     0.002 C 
ENDROOT
BRANCH   1   2
ATOM      2  C   UNL A   1      30.313  24.626  25.840  1.00  0.00     0.021 C 
BRANCH   2   3
ATOM      3  C   UNL A   1      30.343  23.444  26.812  1.00  0.00     0.116 C 
BRANCH   3   4
ATOM      4  N   UNL A   1      30.594  22.194  26.125  1.00  0.00    -0.353 N 
ATOM      5  C   UNL A   1      31.795  21.638  25.789  1.00  0.00     0.260 C 
ATOM      6  O   UNL A   1      31.788  20.580  25.152  1.00  0.00    -0.271 OA
ATOM      7  H   UNL A   1      29.795  21.679  25.868  1.00  0.00     0.163 HD
BRANCH   5   8
ATOM      8  C   UNL A   1      33.104  22.258  26.301  1.00  0.00     0.363 C 
BRANCH   8   9
ATOM      9  O   UNL A   1      34.170  22.547  25.411  1.00  0.00    -0.385 OA
BRANCH   9  10
ATOM     10  N   UNL A   1      34.506  23.896  25.508  1.00  0.00    -0.091 NA
ATOM     11  C   UNL A   1      28.020  31.955  22.374  1.00  0.00     0.042 C 
ATOM     12  C   UNL A   1      28.264  30.793  23.358  1.00  0.00     0.068 C 
ATOM     13  C   UNL A   1      29.000  31.398  24.575  1.00  0.00     0.036 C 
ATOM     14  C   UNL A   1      29.208  29.622  22.853  1.00  0.00    -0.001 C 
ATOM     15  C   UNL A   1      30.477  31.164  24.262  1.00  0.00     0.007 C 
ATOM     16  C   UNL A   1      30.401  29.711  23.845  1.00  0.00     0.001 C 
ATOM     17  C   UNL A   1      28.727  28.158  23.018  1.00  0.00     0.010 C 
ATOM     18  C   UNL A   1      29.563  29.828  21.359  1.00  0.00     0.015 C 
ATOM     19  C   UNL A   1      31.621  28.945  23.360  1.00  0.00    -0.003 C 
ATOM     20  C   UNL A   1      29.862  27.132  22.712  1.00  0.00     0.005 C 
ATOM     21  C   UNL A   1      32.851  29.213  24.232  1.00  0.00     0.008 C 
ATOM     22  C   UNL A   1      31.235  27.430  23.396  1.00  0.00     0.002 C 
ATOM     23  C   UNL A   1      34.034  28.366  23.785  1.00  0.00     0.032 C 
ATOM     24  C   UNL A   1      32.427  26.501  22.951  1.00  0.00    -0.008 C 
ATOM     25  C   UNL A   1      33.670  26.901  23.768  1.00  0.00    -0.062 C 
ATOM     26  C   UNL A   1      32.028  25.017  23.222  1.00  0.00     0.018 C 
ATOM     27  C   UNL A   1      32.763  26.650  21.451  1.00  0.00     0.016 C 
ATOM     28  C   UNL A   1      34.395  26.039  24.498  1.00  0.00     0.027 C 
ATOM     29  C   UNL A   1      33.228  24.088  23.360  1.00  0.00     0.061 C 
ATOM     30  C   UNL A   1      34.062  24.599  24.510  1.00  0.00     0.080 C 
BRANCH  12  31
ATOM     31  O   UNL A   1      26.996  30.300  23.767  1.00  0.00    -0.390 OA
ATOM     32  H   UNL A   1      26.783  30.644  24.648  1.00  0.00     0.211 HD
ENDBRANCH  12  31
ENDBRANCH   9  10
ENDBRANCH   8   9
ENDBRANCH   5   8
ENDBRANCH   3   4
ENDBRANCH   2   3
ENDBRANCH   1   2
BRANCH   1  33
ATOM     33  C   UNL A   1      31.780  26.552  26.756  1.00  0.00     0.002 C 
BRANCH  33  34
ATOM     34  C   UNL A   1      31.831  27.981  27.302  1.00  0.00     0.021 C 
BRANCH  34  35
ATOM     35  C   UNL A   1      33.232  28.494  27.616  1.00  0.00     0.116 C 
BRANCH  35  36
ATOM     36  N   UNL A   1      33.306  29.946  27.592  1.00  0.00    -0.352 N 
ATOM     37  C   UNL A   1      34.325  30.774  27.989  1.00  0.00     0.251 C 
ATOM     38  H   UNL A   1      32.507  30.402  27.239  1.00  0.00     0.163 HD
ATOM     39  O   UNL A   1      34.140  31.987  28.072  1.00  0.00    -0.269 OA
BRANCH  37  40
ATOM     40  C   UNL A   1      35.643  30.209  28.343  1.00  0.00     0.039 A 
ATOM     41  C   UNL A   1      36.651  30.191  27.377  1.00  0.00     0.014 A 
ATOM     42  C   UNL A   1      35.886  29.693  29.620  1.00  0.00     0.014 A 
ATOM     43  C   UNL A   1      37.923  29.719  27.710  1.00  0.00     0.010 A 
ATOM     44  C   UNL A   1      37.173  29.296  29.973  1.00  0.00     0.010 A 
ATOM     45  C   UNL A   1      38.205  29.305  29.023  1.00  0.00    -0.014 A 
BRANCH  45  46
ATOM     46  C   UNL A   1      39.579  28.897  29.416  1.00  0.00     0.031 A 
ATOM     47  C   UNL A   1      40.417  29.785  30.294  1.00  0.00     0.074 A 
ATOM     48  C   UNL A   1      40.092  27.748  28.935  1.00  0.00     0.049 A 
ATOM     49  N   UNL A   1      41.650  29.617  30.704  1.00  0.00    -0.248 NA
ATOM     50  C   UNL A   1      39.798  31.038  30.751  1.00  0.00     0.031 C 
ATOM     51  C   UNL A   1      39.397  26.825  28.035  1.00  0.00     0.029 A 
ATOM     52  N   UNL A   1      41.319  27.163  29.126  1.00  0.00    -0.354 N 
ATOM     53  C   UNL A   1      41.953  30.743  31.458  1.00  0.00     0.074 A 
ATOM     54  C   UNL A   1      40.799  31.614  31.401  1.00  0.00     0.031 C 
ATOM     55  C   UNL A   1      40.196  25.778  27.776  1.00  0.00     0.029 A 
ATOM     56  C   UNL A   1      41.474  25.975  28.453  1.00  0.00     0.049 A 
ATOM     57  H   UNL A   1      42.021  27.557  29.693  1.00  0.00     0.167 HD
ATOM     58  C   UNL A   1      43.083  31.015  32.155  1.00  0.00     0.037 A 
ATOM     59  C   UNL A   1      42.530  25.143  28.382  1.00  0.00     0.037 A 
ATOM     60  C   UNL A   1      44.225  30.138  32.220  1.00  0.00     0.049 A 
ATOM     61  C   UNL A   1      43.781  25.480  29.148  1.00  0.00     0.074 A 
ATOM     62  C   UNL A   1      45.394  30.297  32.943  1.00  0.00     0.029 A 
ATOM     63  N   UNL A   1      44.344  28.942  31.528  1.00  0.00    -0.354 N 
ATOM     64  N   UNL A   1      44.029  26.511  29.918  1.00  0.00    -0.248 NA
ATOM     65  C   UNL A   1      44.897  24.531  29.039  1.00  0.00     0.031 C 
ATOM     66  C   UNL A   1      46.245  29.228  32.641  1.00  0.00     0.029 A 
ATOM     67  C   UNL A   1      45.580  28.368  31.782  1.00  0.00     0.049 A 
ATOM     68  H   UNL A   1      43.653  28.557  30.941  1.00  0.00     0.167 HD
ATOM     69  C   UNL A   1      45.314  26.321  30.408  1.00  0.00     0.074 A 
ATOM     70  C   UNL A   1      45.787  25.065  29.864  1.00  0.00     0.031 C 
ATOM     71  C   UNL A   1      46.038  27.116  31.236  1.00  0.00     0.037 A 
BRANCH  58  72
ATOM     72  C   UNL A   1      43.144  32.316  32.905  1.00  0.00     0.064 A 
ATOM     73  C   UNL A   1      42.773  32.407  34.256  1.00  0.00     0.173 A 
ATOM     74  C   UNL A   1      43.619  33.478  32.278  1.00  0.00     0.173 A 
ATOM     75  F   UNL A   1      42.303  31.330  34.901  1.00  0.00    -0.203 F 
ATOM     76  C   UNL A   1      42.845  33.618  34.940  1.00  0.00     0.198 A 
ATOM     77  C   UNL A   1      43.724  34.679  32.975  1.00  0.00     0.198 A 
ATOM     78  F   UNL A   1      43.994  33.447  30.990  1.00  0.00    -0.203 F 
ATOM     79  F   UNL A   1      42.435  33.691  36.213  1.00  0.00    -0.200 F 
ATOM     80  C   UNL A   1      43.329  34.750  34.301  1.00  0.00     0.200 A 
ATOM     81  F   UNL A   1      44.206  35.768  32.361  1.00  0.00    -0.200 F 
ATOM     82  F   UNL A   1      43.407  35.912  34.965  1.00  0.00    -0.200 F 
ENDBRANCH  58  72
BRANCH  59  83
ATOM     83  C   UNL A   1      42.446  23.901  27.567  1.00  0.00     0.064 A 
ATOM     84  C   UNL A   1      41.956  22.708  28.118  1.00  0.00     0.173 A 
ATOM     85  C   UNL A   1      42.865  23.876  26.229  1.00  0.00     0.173 A 
ATOM     86  F   UNL A   1      41.562  22.675  29.400  1.00  0.00    -0.203 F 
ATOM     87  C   UNL A   1      41.912  21.534  27.371  1.00  0.00     0.198 A 
ATOM     88  C   UNL A   1      42.789  22.708  25.472  1.00  0.00     0.198 A 
ATOM     89  F   UNL A   1      43.337  24.990  25.651  1.00  0.00    -0.203 F 
ATOM     90  F   UNL A   1      41.490  20.396  27.938  1.00  0.00    -0.200 F 
ATOM     91  C   UNL A   1      42.323  21.536  26.046  1.00  0.00     0.200 A 
ATOM     92  F   UNL A   1      43.171  22.719  24.187  1.00  0.00    -0.200 F 
ATOM     93  F   UNL A   1      42.278  20.407  25.327  1.00  0.00    -0.200 F 
ENDBRANCH  59  83
BRANCH  71  94
ATOM     94  C   UNL A   1      47.404  26.633  31.633  1.00  0.00     0.064 A 
ATOM     95  C   UNL A   1      47.596  25.768  32.722  1.00  0.00     0.173 A 
ATOM     96  C   UNL A   1      48.535  27.016  30.895  1.00  0.00     0.173 A 
ATOM     97  F   UNL A   1      46.551  25.382  33.470  1.00  0.00    -0.203 F 
ATOM     98  C   UNL A   1      48.871  25.333  33.074  1.00  0.00     0.198 A 
ATOM     99  C   UNL A   1      49.804  26.550  31.228  1.00  0.00     0.198 A 
ATOM    100  F   UNL A   1      48.408  27.836  29.840  1.00  0.00    -0.203 F 
ATOM    101  F   UNL A   1      49.036  24.553  34.153  1.00  0.00    -0.200 F 
ATOM    102  C   UNL A   1      49.971  25.716  32.324  1.00  0.00     0.200 A 
ATOM    103  F   UNL A   1      50.862  26.908  30.491  1.00  0.00    -0.200 F 
ATOM    104  F   UNL A   1      51.197  25.291  32.660  1.00  0.00    -0.200 F 
ENDBRANCH  71  94
ENDBRANCH  45  46
ENDBRANCH  37  40
ENDBRANCH  35  36
ENDBRANCH  34  35
ENDBRANCH  33  34
ENDBRANCH   1  33
TORSDOF 16
ENDMDL
