MODEL 1
REMARK VINA RESULT:      -7.9      0.000      0.000
REMARK SMILES CCCCCCCNC(=O)Oc1cccc(-c2ccc([C@@H](C)C(=O)NCCCCCCNC(=O)c3ccc(-c4c5nc(c(-c6c(F)c(F)c(F)c(F)c6F)c6ccc([nH]6)c(-c6c(F)c(F)c(F)c(F)c6F)c6nc(c(-c7c(F)c(F)c(F)c(F)c7F)c7ccc4[nH]7)C=C6)C=C5)cc3)cc2F)c1
REMARK SMILES IDX 21 1 22 2 20 3 17 4 18 5 99 6 19 7 98 8 100 9 16 10 12 11
REMARK SMILES IDX 13 12 101 13 14 14 15 15 11 16 9 17 8 18 10 20 7 21 6 22
REMARK SMILES IDX 5 23 4 24 3 25 2 26 1 27 23 28 24 29 25 30 26 32 27 33 28 34
REMARK SMILES IDX 29 35 30 36 31 37 32 38 33 39 34 41 35 42 36 43 97 44 37 45
REMARK SMILES IDX 96 46 38 47 39 48 40 49 90 50 41 51 95 52 89 53 91 54 42 55
REMARK SMILES IDX 94 56 88 57 87 58 43 60 75 61 55 62 74 63 56 64 59 65 73 66
REMARK SMILES IDX 92 67 57 68 58 69 72 71 93 72 60 73 44 74 45 75 53 76 46 77
REMARK SMILES IDX 47 78 51 79 54 80 48 81 49 82 52 83 50 84 76 85 77 86 85 87
REMARK SMILES IDX 78 88 79 89 83 90 86 91 80 92 81 93 84 94 82 95 61 96 62 97
REMARK SMILES IDX 70 98 63 99 64 100 68 101 71 102 65 103 66 104 69 105 67 106
REMARK H PARENT 8 19 25 31 32 40 91 59 59 70
REMARK Flexibility Score: inf
ROOT
ATOM      1  C   UNL A   1      39.285  31.369  34.807  1.00  0.00     0.105 C 
ATOM      2  C   UNL A   1      38.844  31.538  36.262  1.00  0.00     0.023 C 
ENDROOT
BRANCH   1   3
ATOM      3  C   UNL A   1      40.228  30.210  34.528  1.00  0.00    -0.033 A 
ATOM      4  C   UNL A   1      41.950  27.948  34.153  1.00  0.00     0.018 A 
ATOM      5  C   UNL A   1      40.998  28.324  33.190  1.00  0.00     0.012 A 
ATOM      6  C   UNL A   1      42.035  28.762  35.292  1.00  0.00     0.131 A 
ATOM      7  C   UNL A   1      40.180  29.449  33.358  1.00  0.00     0.005 A 
ATOM      8  C   UNL A   1      41.183  29.854  35.490  1.00  0.00     0.044 A 
ATOM      9  F   UNL A   1      42.956  28.522  36.239  1.00  0.00    -0.206 F 
BRANCH   4  10
ATOM     10  C   UNL A   1      42.793  26.744  33.955  1.00  0.00    -0.012 A 
ATOM     11  C   UNL A   1      43.448  24.476  34.550  1.00  0.00     0.133 A 
ATOM     12  C   UNL A   1      44.390  24.440  33.527  1.00  0.00     0.047 A 
ATOM     13  C   UNL A   1      42.657  25.606  34.769  1.00  0.00     0.056 A 
ATOM     14  C   UNL A   1      44.540  25.549  32.707  1.00  0.00     0.004 A 
ATOM     15  C   UNL A   1      43.759  26.688  32.927  1.00  0.00     0.009 A 
BRANCH  11  16
ATOM     16  O   UNL A   1      43.442  23.388  35.436  1.00  0.00    -0.410 OA
BRANCH  16  17
ATOM     17  C   UNL A   1      44.554  22.566  35.519  1.00  0.00     0.412 C 
ATOM     18  N   UNL A   1      45.387  22.912  36.547  1.00  0.00    -0.321 N 
ATOM     19  H   UNL A   1      46.210  22.381  36.649  1.00  0.00     0.167 HD
ATOM     20  O   UNL A   1      44.819  21.632  34.772  1.00  0.00    -0.224 OA
BRANCH  18  21
ATOM     21  C   UNL A   1      45.176  23.982  37.502  1.00  0.00     0.119 C 
BRANCH  21  22
ATOM     22  C   UNL A   1      45.812  25.294  37.043  1.00  0.00     0.021 C 
BRANCH  22  23
ATOM     23  C   UNL A   1      45.037  26.555  37.442  1.00  0.00     0.002 C 
BRANCH  23  24
ATOM     24  C   UNL A   1      45.845  27.602  38.217  1.00  0.00     0.000 C 
BRANCH  24  25
ATOM     25  C   UNL A   1      46.601  28.615  37.350  1.00  0.00    -0.000 C 
BRANCH  25  26
ATOM     26  C   UNL A   1      46.025  28.833  35.949  1.00  0.00    -0.003 C 
ATOM     27  C   UNL A   1      46.278  30.230  35.404  1.00  0.00     0.004 C 
ENDBRANCH  25  26
ENDBRANCH  24  25
ENDBRANCH  23  24
ENDBRANCH  22  23
ENDBRANCH  21  22
ENDBRANCH  18  21
ENDBRANCH  16  17
ENDBRANCH  11  16
ENDBRANCH   4  10
ENDBRANCH   1   3
BRANCH   1  28
ATOM     28  C   UNL A   1      39.704  32.680  34.126  1.00  0.00     0.227 C 
ATOM     29  O   UNL A   1      40.685  33.305  34.546  1.00  0.00    -0.274 OA
ATOM     30  N   UNL A   1      39.062  33.213  33.051  1.00  0.00    -0.356 N 
ATOM     31  H   UNL A   1      39.497  34.013  32.678  1.00  0.00     0.163 HD
BRANCH  30  32
ATOM     32  C   UNL A   1      37.855  32.817  32.359  1.00  0.00     0.116 C 
BRANCH  32  33
ATOM     33  C   UNL A   1      37.570  33.716  31.155  1.00  0.00     0.021 C 
BRANCH  33  34
ATOM     34  C   UNL A   1      37.584  32.979  29.812  1.00  0.00     0.002 C 
BRANCH  34  35
ATOM     35  C   UNL A   1      36.730  33.617  28.708  1.00  0.00     0.002 C 
BRANCH  35  36
ATOM     36  C   UNL A   1      35.214  33.462  28.873  1.00  0.00     0.021 C 
BRANCH  36  37
ATOM     37  C   UNL A   1      34.775  32.201  29.613  1.00  0.00     0.116 C 
BRANCH  37  38
ATOM     38  N   UNL A   1      34.214  31.210  28.710  1.00  0.00    -0.352 N 
ATOM     39  C   UNL A   1      34.836  30.226  27.985  1.00  0.00     0.251 C 
ATOM     40  H   UNL A   1      33.235  31.252  28.601  1.00  0.00     0.163 HD
ATOM     41  O   UNL A   1      34.225  29.632  27.103  1.00  0.00    -0.269 OA
BRANCH  39  42
ATOM     42  C   UNL A   1      36.249  29.879  28.256  1.00  0.00     0.039 A 
ATOM     43  C   UNL A   1      36.589  29.373  29.514  1.00  0.00     0.014 A 
ATOM     44  C   UNL A   1      37.241  30.097  27.297  1.00  0.00     0.014 A 
ATOM     45  C   UNL A   1      37.915  29.036  29.792  1.00  0.00     0.010 A 
ATOM     46  C   UNL A   1      38.553  29.700  27.552  1.00  0.00     0.010 A 
ATOM     47  C   UNL A   1      38.904  29.174  28.805  1.00  0.00    -0.014 A 
BRANCH  47  48
ATOM     48  C   UNL A   1      40.312  28.781  29.068  1.00  0.00     0.031 A 
ATOM     49  C   UNL A   1      41.240  29.725  29.779  1.00  0.00     0.074 A 
ATOM     50  C   UNL A   1      40.766  27.597  28.615  1.00  0.00     0.049 A 
ATOM     51  N   UNL A   1      42.516  29.589  30.044  1.00  0.00    -0.248 NA
ATOM     52  C   UNL A   1      40.667  31.002  30.228  1.00  0.00     0.031 C 
ATOM     53  C   UNL A   1      39.974  26.616  27.873  1.00  0.00     0.029 A 
ATOM     54  N   UNL A   1      42.010  27.023  28.701  1.00  0.00    -0.354 N 
ATOM     55  C   UNL A   1      42.898  30.765  30.675  1.00  0.00     0.074 A 
ATOM     56  C   UNL A   1      41.734  31.624  30.709  1.00  0.00     0.031 C 
ATOM     57  C   UNL A   1      40.745  25.553  27.589  1.00  0.00     0.029 A 
ATOM     58  C   UNL A   1      42.092  25.792  28.098  1.00  0.00     0.049 A 
ATOM     59  H   UNL A   1      42.772  27.454  29.153  1.00  0.00     0.167 HD
ATOM     60  C   UNL A   1      44.105  31.090  31.198  1.00  0.00     0.037 A 
ATOM     61  C   UNL A   1      43.138  24.954  27.967  1.00  0.00     0.037 A 
ATOM     62  C   UNL A   1      45.253  30.223  31.186  1.00  0.00     0.049 A 
ATOM     63  C   UNL A   1      44.466  25.337  28.560  1.00  0.00     0.074 A 
ATOM     64  C   UNL A   1      46.503  30.435  31.742  1.00  0.00     0.029 A 
ATOM     65  N   UNL A   1      45.291  28.972  30.586  1.00  0.00    -0.354 N 
ATOM     66  N   UNL A   1      44.798  26.426  29.212  1.00  0.00    -0.248 NA
ATOM     67  C   UNL A   1      45.563  24.373  28.405  1.00  0.00     0.031 C 
ATOM     68  C   UNL A   1      47.309  29.332  31.442  1.00  0.00     0.029 A 
ATOM     69  C   UNL A   1      46.548  28.411  30.741  1.00  0.00     0.049 A 
ATOM     70  H   UNL A   1      44.535  28.547  30.118  1.00  0.00     0.167 HD
ATOM     71  C   UNL A   1      46.129  26.265  29.569  1.00  0.00     0.074 A 
ATOM     72  C   UNL A   1      46.541  24.969  29.073  1.00  0.00     0.031 C 
ATOM     73  C   UNL A   1      46.939  27.116  30.247  1.00  0.00     0.037 A 
BRANCH  60  74
ATOM     74  C   UNL A   1      44.244  32.444  31.833  1.00  0.00     0.064 A 
ATOM     75  C   UNL A   1      43.992  32.644  33.199  1.00  0.00     0.173 A 
ATOM     76  C   UNL A   1      44.669  33.546  31.076  1.00  0.00     0.173 A 
ATOM     77  F   UNL A   1      43.574  31.625  33.964  1.00  0.00    -0.203 F 
ATOM     78  C   UNL A   1      44.134  33.902  33.777  1.00  0.00     0.198 A 
ATOM     79  C   UNL A   1      44.837  34.797  31.664  1.00  0.00     0.198 A 
ATOM     80  F   UNL A   1      44.929  33.408  29.767  1.00  0.00    -0.203 F 
ATOM     81  F   UNL A   1      43.842  34.079  35.073  1.00  0.00    -0.200 F 
ATOM     82  C   UNL A   1      44.562  34.976  33.012  1.00  0.00     0.200 A 
ATOM     83  F   UNL A   1      45.265  35.831  30.926  1.00  0.00    -0.200 F 
ATOM     84  F   UNL A   1      44.705  36.186  33.571  1.00  0.00    -0.200 F 
ENDBRANCH  60  74
BRANCH  61  85
ATOM     85  C   UNL A   1      42.962  23.655  27.267  1.00  0.00     0.064 A 
ATOM     86  C   UNL A   1      42.394  22.557  27.926  1.00  0.00     0.173 A 
ATOM     87  C   UNL A   1      43.358  23.485  25.933  1.00  0.00     0.173 A 
ATOM     88  F   UNL A   1      42.020  22.665  29.209  1.00  0.00    -0.203 F 
ATOM     89  C   UNL A   1      42.246  21.329  27.283  1.00  0.00     0.198 A 
ATOM     90  C   UNL A   1      43.183  22.265  25.282  1.00  0.00     0.198 A 
ATOM     91  F   UNL A   1      43.901  24.508  25.257  1.00  0.00    -0.203 F 
ATOM     92  F   UNL A   1      41.740  20.282  27.949  1.00  0.00    -0.200 F 
ATOM     93  C   UNL A   1      42.635  21.186  25.959  1.00  0.00     0.200 A 
ATOM     94  F   UNL A   1      43.547  22.136  23.998  1.00  0.00    -0.200 F 
ATOM     95  F   UNL A   1      42.489  20.008  25.339  1.00  0.00    -0.200 F 
ENDBRANCH  61  85
BRANCH  73  96
ATOM     96  C   UNL A   1      48.341  26.657  30.521  1.00  0.00     0.064 A 
ATOM     97  C   UNL A   1      49.396  26.955  29.647  1.00  0.00     0.173 A 
ATOM     98  C   UNL A   1      48.637  25.941  31.691  1.00  0.00     0.173 A 
ATOM     99  F   UNL A   1      49.161  27.623  28.508  1.00  0.00    -0.203 F 
ATOM    100  C   UNL A   1      50.694  26.532  29.924  1.00  0.00     0.198 A 
ATOM    101  C   UNL A   1      49.939  25.546  31.979  1.00  0.00     0.198 A 
ATOM    102  F   UNL A   1      47.664  25.636  32.562  1.00  0.00    -0.203 F 
ATOM    103  F   UNL A   1      51.679  26.788  29.053  1.00  0.00    -0.200 F 
ATOM    104  C   UNL A   1      50.966  25.834  31.091  1.00  0.00     0.200 A 
ATOM    105  F   UNL A   1      50.202  24.882  33.113  1.00  0.00    -0.200 F 
ATOM    106  F   UNL A   1      52.217  25.435  31.359  1.00  0.00    -0.200 F 
ENDBRANCH  73  96
ENDBRANCH  47  48
ENDBRANCH  39  42
ENDBRANCH  37  38
ENDBRANCH  36  37
ENDBRANCH  35  36
ENDBRANCH  34  35
ENDBRANCH  33  34
ENDBRANCH  32  33
ENDBRANCH  30  32
ENDBRANCH   1  28
TORSDOF 23
ENDMDL
MODEL 2
REMARK VINA RESULT:      -7.7      3.834     10.171
REMARK SMILES CCCCCCCNC(=O)Oc1cccc(-c2ccc([C@@H](C)C(=O)NCCCCCCNC(=O)c3ccc(-c4c5nc(c(-c6c(F)c(F)c(F)c(F)c6F)c6ccc([nH]6)c(-c6c(F)c(F)c(F)c(F)c6F)c6nc(c(-c7c(F)c(F)c(F)c(F)c7F)c7ccc4[nH]7)C=C6)C=C5)cc3)cc2F)c1
REMARK SMILES IDX 21 1 22 2 20 3 17 4 18 5 99 6 19 7 98 8 100 9 16 10 12 11
REMARK SMILES IDX 13 12 101 13 14 14 15 15 11 16 9 17 8 18 10 20 7 21 6 22
REMARK SMILES IDX 5 23 4 24 3 25 2 26 1 27 23 28 24 29 25 30 26 32 27 33 28 34
REMARK SMILES IDX 29 35 30 36 31 37 32 38 33 39 34 41 35 42 36 43 97 44 37 45
REMARK SMILES IDX 96 46 38 47 39 48 40 49 90 50 41 51 95 52 89 53 91 54 42 55
REMARK SMILES IDX 94 56 88 57 87 58 43 60 75 61 55 62 74 63 56 64 59 65 73 66
REMARK SMILES IDX 92 67 57 68 58 69 72 71 93 72 60 73 44 74 45 75 53 76 46 77
REMARK SMILES IDX 47 78 51 79 54 80 48 81 49 82 52 83 50 84 76 85 77 86 85 87
REMARK SMILES IDX 78 88 79 89 83 90 86 91 80 92 81 93 84 94 82 95 61 96 62 97
REMARK SMILES IDX 70 98 63 99 64 100 68 101 71 102 65 103 66 104 69 105 67 106
REMARK H PARENT 8 19 25 31 32 40 91 59 59 70
REMARK Flexibility Score: inf
ROOT
ATOM      1  C   UNL A   1      40.061  26.921  27.076  1.00  0.00     0.105 C 
ATOM      2  C   UNL A   1      41.220  27.140  26.102  1.00  0.00     0.023 C 
ENDROOT
BRANCH   1   3
ATOM      3  C   UNL A   1      39.706  28.101  27.965  1.00  0.00    -0.033 A 
ATOM      4  C   UNL A   1      39.165  30.421  29.561  1.00  0.00     0.018 A 
ATOM      5  C   UNL A   1      38.169  29.807  28.783  1.00  0.00     0.012 A 
ATOM      6  C   UNL A   1      40.429  29.815  29.541  1.00  0.00     0.131 A 
ATOM      7  C   UNL A   1      38.425  28.653  28.030  1.00  0.00     0.005 A 
ATOM      8  C   UNL A   1      40.705  28.696  28.748  1.00  0.00     0.044 A 
ATOM      9  F   UNL A   1      41.430  30.291  30.301  1.00  0.00    -0.206 F 
BRANCH   4  10
ATOM     10  C   UNL A   1      38.869  31.650  30.337  1.00  0.00    -0.012 A 
ATOM     11  C   UNL A   1      37.615  32.843  32.049  1.00  0.00     0.133 A 
ATOM     12  C   UNL A   1      38.352  34.002  31.835  1.00  0.00     0.047 A 
ATOM     13  C   UNL A   1      37.861  31.679  31.317  1.00  0.00     0.056 A 
ATOM     14  C   UNL A   1      39.355  33.997  30.876  1.00  0.00     0.004 A 
ATOM     15  C   UNL A   1      39.601  32.839  30.131  1.00  0.00     0.009 A 
BRANCH  11  16
ATOM     16  O   UNL A   1      36.521  32.948  32.922  1.00  0.00    -0.410 OA
BRANCH  16  17
ATOM     17  C   UNL A   1      35.994  34.195  33.213  1.00  0.00     0.412 C 
ATOM     18  N   UNL A   1      34.967  34.540  32.379  1.00  0.00    -0.321 N 
ATOM     19  H   UNL A   1      34.561  35.426  32.516  1.00  0.00     0.167 HD
ATOM     20  O   UNL A   1      36.378  34.953  34.096  1.00  0.00    -0.224 OA
BRANCH  18  21
ATOM     21  C   UNL A   1      34.416  33.727  31.312  1.00  0.00     0.119 C 
BRANCH  21  22
ATOM     22  C   UNL A   1      33.866  34.578  30.168  1.00  0.00     0.021 C 
BRANCH  22  23
ATOM     23  C   UNL A   1      34.801  34.710  28.961  1.00  0.00     0.002 C 
BRANCH  23  24
ATOM     24  C   UNL A   1      35.997  33.752  28.952  1.00  0.00     0.000 C 
BRANCH  24  25
ATOM     25  C   UNL A   1      35.891  32.586  27.961  1.00  0.00    -0.000 C 
BRANCH  25  26
ATOM     26  C   UNL A   1      34.605  31.763  28.058  1.00  0.00    -0.003 C 
ATOM     27  C   UNL A   1      34.784  30.313  27.631  1.00  0.00     0.004 C 
ENDBRANCH  25  26
ENDBRANCH  24  25
ENDBRANCH  23  24
ENDBRANCH  22  23
ENDBRANCH  21  22
ENDBRANCH  18  21
ENDBRANCH  16  17
ENDBRANCH  11  16
ENDBRANCH   4  10
ENDBRANCH   1   3
BRANCH   1  28
ATOM     28  C   UNL A   1      40.122  25.582  27.826  1.00  0.00     0.227 C 
ATOM     29  O   UNL A   1      39.116  24.865  27.888  1.00  0.00    -0.274 OA
ATOM     30  N   UNL A   1      41.241  25.106  28.435  1.00  0.00    -0.356 N 
ATOM     31  H   UNL A   1      41.145  24.199  28.804  1.00  0.00     0.163 HD
BRANCH  30  32
ATOM     32  C   UNL A   1      42.548  25.694  28.641  1.00  0.00     0.116 C 
BRANCH  32  33
ATOM     33  C   UNL A   1      43.662  24.815  28.071  1.00  0.00     0.021 C 
BRANCH  33  34
ATOM     34  C   UNL A   1      43.235  23.974  26.863  1.00  0.00     0.002 C 
BRANCH  34  35
ATOM     35  C   UNL A   1      44.367  23.204  26.170  1.00  0.00     0.002 C 
BRANCH  35  36
ATOM     36  C   UNL A   1      45.143  23.987  25.106  1.00  0.00     0.021 C 
BRANCH  36  37
ATOM     37  C   UNL A   1      46.535  24.444  25.535  1.00  0.00     0.116 C 
BRANCH  37  38
ATOM     38  N   UNL A   1      47.084  25.439  24.627  1.00  0.00    -0.352 N 
ATOM     39  C   UNL A   1      46.935  26.802  24.619  1.00  0.00     0.251 C 
ATOM     40  H   UNL A   1      47.649  25.077  23.905  1.00  0.00     0.163 HD
ATOM     41  O   UNL A   1      47.287  27.453  23.641  1.00  0.00    -0.269 OA
BRANCH  39  42
ATOM     42  C   UNL A   1      46.344  27.495  25.785  1.00  0.00     0.039 A 
ATOM     43  C   UNL A   1      47.192  27.955  26.797  1.00  0.00     0.014 A 
ATOM     44  C   UNL A   1      44.960  27.648  25.907  1.00  0.00     0.014 A 
ATOM     45  C   UNL A   1      46.657  28.614  27.905  1.00  0.00     0.010 A 
ATOM     46  C   UNL A   1      44.432  28.362  26.982  1.00  0.00     0.010 A 
ATOM     47  C   UNL A   1      45.275  28.845  27.995  1.00  0.00    -0.014 A 
BRANCH  47  48
ATOM     48  C   UNL A   1      44.693  29.582  29.145  1.00  0.00     0.031 A 
ATOM     49  C   UNL A   1      44.430  31.058  29.043  1.00  0.00     0.074 A 
ATOM     50  C   UNL A   1      44.456  28.931  30.300  1.00  0.00     0.049 A 
ATOM     51  N   UNL A   1      43.987  31.886  29.956  1.00  0.00    -0.248 NA
ATOM     52  C   UNL A   1      44.729  31.695  27.751  1.00  0.00     0.031 C 
ATOM     53  C   UNL A   1      44.711  27.510  30.536  1.00  0.00     0.029 A 
ATOM     54  N   UNL A   1      43.958  29.383  31.497  1.00  0.00    -0.354 N 
ATOM     55  C   UNL A   1      43.969  33.138  29.356  1.00  0.00     0.074 A 
ATOM     56  C   UNL A   1      44.493  32.972  28.016  1.00  0.00     0.031 C 
ATOM     57  C   UNL A   1      44.350  27.201  31.792  1.00  0.00     0.029 A 
ATOM     58  C   UNL A   1      43.871  28.408  32.460  1.00  0.00     0.049 A 
ATOM     59  H   UNL A   1      43.689  30.317  31.650  1.00  0.00     0.167 HD
ATOM     60  C   UNL A   1      43.535  34.315  29.867  1.00  0.00     0.037 A 
ATOM     61  C   UNL A   1      43.455  28.481  33.739  1.00  0.00     0.037 A 
ATOM     62  C   UNL A   1      42.991  34.471  31.190  1.00  0.00     0.049 A 
ATOM     63  C   UNL A   1      42.975  29.799  34.280  1.00  0.00     0.074 A 
ATOM     64  C   UNL A   1      42.468  35.609  31.781  1.00  0.00     0.029 A 
ATOM     65  N   UNL A   1      42.897  33.455  32.130  1.00  0.00    -0.354 N 
ATOM     66  N   UNL A   1      42.902  30.963  33.682  1.00  0.00    -0.248 NA
ATOM     67  C   UNL A   1      42.513  29.812  35.675  1.00  0.00     0.031 C 
ATOM     68  C   UNL A   1      42.098  35.292  33.092  1.00  0.00     0.029 A 
ATOM     69  C   UNL A   1      42.344  33.944  33.302  1.00  0.00     0.049 A 
ATOM     70  H   UNL A   1      43.182  32.524  31.985  1.00  0.00     0.167 HD
ATOM     71  C   UNL A   1      42.361  31.838  34.613  1.00  0.00     0.074 A 
ATOM     72  C   UNL A   1      42.112  31.068  35.813  1.00  0.00     0.031 C 
ATOM     73  C   UNL A   1      42.095  33.162  34.486  1.00  0.00     0.037 A 
BRANCH  60  74
ATOM     74  C   UNL A   1      43.629  35.529  28.990  1.00  0.00     0.064 A 
ATOM     75  C   UNL A   1      44.834  36.233  28.837  1.00  0.00     0.173 A 
ATOM     76  C   UNL A   1      42.514  35.973  28.264  1.00  0.00     0.173 A 
ATOM     77  F   UNL A   1      45.927  35.856  29.516  1.00  0.00    -0.203 F 
ATOM     78  C   UNL A   1      44.910  37.353  28.013  1.00  0.00     0.198 A 
ATOM     79  C   UNL A   1      42.602  37.076  27.419  1.00  0.00     0.198 A 
ATOM     80  F   UNL A   1      41.340  35.333  28.369  1.00  0.00    -0.203 F 
ATOM     81  F   UNL A   1      46.059  38.038  27.919  1.00  0.00    -0.200 F 
ATOM     82  C   UNL A   1      43.797  37.770  27.299  1.00  0.00     0.200 A 
ATOM     83  F   UNL A   1      41.528  37.469  26.719  1.00  0.00    -0.200 F 
ATOM     84  F   UNL A   1      43.873  38.844  26.501  1.00  0.00    -0.200 F 
ENDBRANCH  60  74
BRANCH  61  85
ATOM     85  C   UNL A   1      43.449  27.261  34.586  1.00  0.00     0.064 A 
ATOM     86  C   UNL A   1      44.608  26.849  35.257  1.00  0.00     0.173 A 
ATOM     87  C   UNL A   1      42.293  26.485  34.742  1.00  0.00     0.173 A 
ATOM     88  F   UNL A   1      45.745  27.547  35.122  1.00  0.00    -0.203 F 
ATOM     89  C   UNL A   1      44.616  25.694  36.037  1.00  0.00     0.198 A 
ATOM     90  C   UNL A   1      42.294  25.345  35.545  1.00  0.00     0.198 A 
ATOM     91  F   UNL A   1      41.156  26.840  34.125  1.00  0.00    -0.203 F 
ATOM     92  F   UNL A   1      45.749  25.297  36.633  1.00  0.00    -0.200 F 
ATOM     93  C   UNL A   1      43.457  24.946  36.185  1.00  0.00     0.200 A 
ATOM     94  F   UNL A   1      41.168  24.634  35.696  1.00  0.00    -0.200 F 
ATOM     95  F   UNL A   1      43.463  23.838  36.938  1.00  0.00    -0.200 F 
ENDBRANCH  61  85
BRANCH  73  96
ATOM     96  C   UNL A   1      41.473  33.853  35.663  1.00  0.00     0.064 A 
ATOM     97  C   UNL A   1      42.249  34.546  36.603  1.00  0.00     0.173 A 
ATOM     98  C   UNL A   1      40.080  33.852  35.830  1.00  0.00     0.173 A 
ATOM     99  F   UNL A   1      43.585  34.562  36.496  1.00  0.00    -0.203 F 
ATOM    100  C   UNL A   1      41.652  35.193  37.684  1.00  0.00     0.198 A 
ATOM    101  C   UNL A   1      39.486  34.524  36.894  1.00  0.00     0.198 A 
ATOM    102  F   UNL A   1      39.293  33.209  34.955  1.00  0.00    -0.203 F 
ATOM    103  F   UNL A   1      42.416  35.810  38.596  1.00  0.00    -0.200 F 
ATOM    104  C   UNL A   1      40.273  35.187  37.824  1.00  0.00     0.200 A 
ATOM    105  F   UNL A   1      38.151  34.528  37.022  1.00  0.00    -0.200 F 
ATOM    106  F   UNL A   1      39.701  35.817  38.860  1.00  0.00    -0.200 F 
ENDBRANCH  73  96
ENDBRANCH  47  48
ENDBRANCH  39  42
ENDBRANCH  37  38
ENDBRANCH  36  37
ENDBRANCH  35  36
ENDBRANCH  34  35
ENDBRANCH  33  34
ENDBRANCH  32  33
ENDBRANCH  30  32
ENDBRANCH   1  28
TORSDOF 23
ENDMDL
MODEL 3
REMARK VINA RESULT:      -7.5      5.581     11.168
REMARK SMILES CCCCCCCNC(=O)Oc1cccc(-c2ccc([C@@H](C)C(=O)NCCCCCCNC(=O)c3ccc(-c4c5nc(c(-c6c(F)c(F)c(F)c(F)c6F)c6ccc([nH]6)c(-c6c(F)c(F)c(F)c(F)c6F)c6nc(c(-c7c(F)c(F)c(F)c(F)c7F)c7ccc4[nH]7)C=C6)C=C5)cc3)cc2F)c1
REMARK SMILES IDX 21 1 22 2 20 3 17 4 18 5 99 6 19 7 98 8 100 9 16 10 12 11
REMARK SMILES IDX 13 12 101 13 14 14 15 15 11 16 9 17 8 18 10 20 7 21 6 22
REMARK SMILES IDX 5 23 4 24 3 25 2 26 1 27 23 28 24 29 25 30 26 32 27 33 28 34
REMARK SMILES IDX 29 35 30 36 31 37 32 38 33 39 34 41 35 42 36 43 97 44 37 45
REMARK SMILES IDX 96 46 38 47 39 48 40 49 90 50 41 51 95 52 89 53 91 54 42 55
REMARK SMILES IDX 94 56 88 57 87 58 43 60 75 61 55 62 74 63 56 64 59 65 73 66
REMARK SMILES IDX 92 67 57 68 58 69 72 71 93 72 60 73 44 74 45 75 53 76 46 77
REMARK SMILES IDX 47 78 51 79 54 80 48 81 49 82 52 83 50 84 76 85 77 86 85 87
REMARK SMILES IDX 78 88 79 89 83 90 86 91 80 92 81 93 84 94 82 95 61 96 62 97
REMARK SMILES IDX 70 98 63 99 64 100 68 101 71 102 65 103 66 104 69 105 67 106
REMARK H PARENT 8 19 25 31 32 40 91 59 59 70
REMARK Flexibility Score: inf
ROOT
ATOM      1  C   UNL A   1      37.161  31.141  29.487  1.00  0.00     0.105 C 
ATOM      2  C   UNL A   1      37.615  32.557  29.124  1.00  0.00     0.023 C 
ENDROOT
BRANCH   1   3
ATOM      3  C   UNL A   1      36.091  30.535  28.594  1.00  0.00    -0.033 A 
ATOM      4  C   UNL A   1      34.087  29.534  26.803  1.00  0.00     0.018 A 
ATOM      5  C   UNL A   1      35.240  28.794  27.117  1.00  0.00     0.012 A 
ATOM      6  C   UNL A   1      33.955  30.775  27.443  1.00  0.00     0.131 A 
ATOM      7  C   UNL A   1      36.202  29.268  28.018  1.00  0.00     0.005 A 
ATOM      8  C   UNL A   1      34.939  31.279  28.301  1.00  0.00     0.044 A 
ATOM      9  F   UNL A   1      32.859  31.529  27.257  1.00  0.00    -0.206 F 
BRANCH   4  10
ATOM     10  C   UNL A   1      33.093  29.014  25.835  1.00  0.00    -0.012 A 
ATOM     11  C   UNL A   1      31.168  27.627  25.290  1.00  0.00     0.133 A 
ATOM     12  C   UNL A   1      31.177  28.066  23.970  1.00  0.00     0.047 A 
ATOM     13  C   UNL A   1      32.107  28.087  26.216  1.00  0.00     0.056 A 
ATOM     14  C   UNL A   1      32.138  28.984  23.571  1.00  0.00     0.004 A 
ATOM     15  C   UNL A   1      33.089  29.441  24.489  1.00  0.00     0.009 A 
BRANCH  11  16
ATOM     16  O   UNL A   1      30.271  26.593  25.600  1.00  0.00    -0.410 OA
BRANCH  16  17
ATOM     17  C   UNL A   1      29.609  25.931  24.579  1.00  0.00     0.412 C 
ATOM     18  N   UNL A   1      30.198  24.739  24.258  1.00  0.00    -0.321 N 
ATOM     19  H   UNL A   1      29.791  24.226  23.523  1.00  0.00     0.167 HD
ATOM     20  O   UNL A   1      28.615  26.329  23.985  1.00  0.00    -0.224 OA
BRANCH  18  21
ATOM     21  C   UNL A   1      31.363  24.156  24.895  1.00  0.00     0.119 C 
BRANCH  21  22
ATOM     22  C   UNL A   1      32.555  24.068  23.942  1.00  0.00     0.021 C 
BRANCH  22  23
ATOM     23  C   UNL A   1      33.510  25.266  23.998  1.00  0.00     0.002 C 
BRANCH  23  24
ATOM     24  C   UNL A   1      34.420  25.320  25.230  1.00  0.00     0.000 C 
BRANCH  24  25
ATOM     25  C   UNL A   1      35.047  23.982  25.637  1.00  0.00    -0.000 C 
BRANCH  25  26
ATOM     26  C   UNL A   1      36.430  23.703  25.044  1.00  0.00    -0.003 C 
ATOM     27  C   UNL A   1      36.389  22.817  23.808  1.00  0.00     0.004 C 
ENDBRANCH  25  26
ENDBRANCH  24  25
ENDBRANCH  23  24
ENDBRANCH  22  23
ENDBRANCH  21  22
ENDBRANCH  18  21
ENDBRANCH  16  17
ENDBRANCH  11  16
ENDBRANCH   4  10
ENDBRANCH   1   3
BRANCH   1  28
ATOM     28  C   UNL A   1      36.900  30.936  30.986  1.00  0.00     0.227 C 
ATOM     29  O   UNL A   1      36.442  31.864  31.663  1.00  0.00    -0.274 OA
ATOM     30  N   UNL A   1      37.130  29.766  31.641  1.00  0.00    -0.356 N 
ATOM     31  H   UNL A   1      36.837  29.766  32.581  1.00  0.00     0.163 HD
BRANCH  30  32
ATOM     32  C   UNL A   1      37.729  28.523  31.206  1.00  0.00     0.116 C 
BRANCH  32  33
ATOM     33  C   UNL A   1      39.197  28.422  31.624  1.00  0.00     0.021 C 
BRANCH  33  34
ATOM     34  C   UNL A   1      40.108  27.816  30.551  1.00  0.00     0.002 C 
BRANCH  34  35
ATOM     35  C   UNL A   1      39.443  27.579  29.189  1.00  0.00     0.002 C 
BRANCH  35  36
ATOM     36  C   UNL A   1      39.740  26.225  28.536  1.00  0.00     0.021 C 
BRANCH  36  37
ATOM     37  C   UNL A   1      39.342  26.122  27.065  1.00  0.00     0.116 C 
BRANCH  37  38
ATOM     38  N   UNL A   1      40.411  25.563  26.253  1.00  0.00    -0.352 N 
ATOM     39  C   UNL A   1      41.612  26.109  25.880  1.00  0.00     0.251 C 
ATOM     40  H   UNL A   1      40.246  24.651  25.918  1.00  0.00     0.163 HD
ATOM     41  O   UNL A   1      42.285  25.575  25.004  1.00  0.00    -0.269 OA
BRANCH  39  42
ATOM     42  C   UNL A   1      42.101  27.348  26.524  1.00  0.00     0.039 A 
ATOM     43  C   UNL A   1      41.712  28.582  25.993  1.00  0.00     0.014 A 
ATOM     44  C   UNL A   1      42.976  27.298  27.613  1.00  0.00     0.014 A 
ATOM     45  C   UNL A   1      42.159  29.764  26.586  1.00  0.00     0.010 A 
ATOM     46  C   UNL A   1      43.370  28.477  28.243  1.00  0.00     0.010 A 
ATOM     47  C   UNL A   1      42.972  29.722  27.731  1.00  0.00    -0.014 A 
BRANCH  47  48
ATOM     48  C   UNL A   1      43.421  30.969  28.400  1.00  0.00     0.031 A 
ATOM     49  C   UNL A   1      42.608  31.564  29.515  1.00  0.00     0.074 A 
ATOM     50  C   UNL A   1      44.531  31.594  27.963  1.00  0.00     0.049 A 
ATOM     51  N   UNL A   1      42.801  32.677  30.178  1.00  0.00    -0.248 NA
ATOM     52  C   UNL A   1      41.403  30.826  29.921  1.00  0.00     0.031 C 
ATOM     53  C   UNL A   1      45.379  31.138  26.861  1.00  0.00     0.029 A 
ATOM     54  N   UNL A   1      45.130  32.754  28.386  1.00  0.00    -0.354 N 
ATOM     55  C   UNL A   1      41.738  32.778  31.065  1.00  0.00     0.074 A 
ATOM     56  C   UNL A   1      40.876  31.641  30.824  1.00  0.00     0.031 C 
ATOM     57  C   UNL A   1      46.399  31.998  26.707  1.00  0.00     0.029 A 
ATOM     58  C   UNL A   1      46.259  33.081  27.676  1.00  0.00     0.049 A 
ATOM     59  H   UNL A   1      44.784  33.300  29.128  1.00  0.00     0.167 HD
ATOM     60  C   UNL A   1      41.513  33.722  32.011  1.00  0.00     0.037 A 
ATOM     61  C   UNL A   1      47.085  34.139  27.790  1.00  0.00     0.037 A 
ATOM     62  C   UNL A   1      42.387  34.836  32.267  1.00  0.00     0.049 A 
ATOM     63  C   UNL A   1      46.814  35.171  28.851  1.00  0.00     0.074 A 
ATOM     64  C   UNL A   1      42.279  35.813  33.242  1.00  0.00     0.029 A 
ATOM     65  N   UNL A   1      43.534  35.122  31.541  1.00  0.00    -0.354 N 
ATOM     66  N   UNL A   1      45.840  35.221  29.727  1.00  0.00    -0.248 NA
ATOM     67  C   UNL A   1      47.762  36.290  28.942  1.00  0.00     0.031 C 
ATOM     68  C   UNL A   1      43.337  36.714  33.079  1.00  0.00     0.029 A 
ATOM     69  C   UNL A   1      44.132  36.271  32.034  1.00  0.00     0.049 A 
ATOM     70  H   UNL A   1      43.873  34.588  30.786  1.00  0.00     0.167 HD
ATOM     71  C   UNL A   1      46.073  36.356  30.491  1.00  0.00     0.074 A 
ATOM     72  C   UNL A   1      47.287  36.959  29.983  1.00  0.00     0.031 C 
ATOM     73  C   UNL A   1      45.345  36.854  31.521  1.00  0.00     0.037 A 
BRANCH  60  74
ATOM     74  C   UNL A   1      40.272  33.587  32.844  1.00  0.00     0.064 A 
ATOM     75  C   UNL A   1      40.266  32.850  34.039  1.00  0.00     0.173 A 
ATOM     76  C   UNL A   1      39.084  34.231  32.465  1.00  0.00     0.173 A 
ATOM     77  F   UNL A   1      41.372  32.207  34.441  1.00  0.00    -0.203 F 
ATOM     78  C   UNL A   1      39.110  32.740  34.808  1.00  0.00     0.198 A 
ATOM     79  C   UNL A   1      37.939  34.142  33.251  1.00  0.00     0.198 A 
ATOM     80  F   UNL A   1      39.038  34.953  31.335  1.00  0.00    -0.203 F 
ATOM     81  F   UNL A   1      39.115  31.992  35.920  1.00  0.00    -0.200 F 
ATOM     82  C   UNL A   1      37.949  33.391  34.417  1.00  0.00     0.200 A 
ATOM     83  F   UNL A   1      36.822  34.783  32.879  1.00  0.00    -0.200 F 
ATOM     84  F   UNL A   1      36.839  33.290  35.161  1.00  0.00    -0.200 F 
ENDBRANCH  60  74
BRANCH  61  85
ATOM     85  C   UNL A   1      48.261  34.261  26.891  1.00  0.00     0.064 A 
ATOM     86  C   UNL A   1      49.386  33.444  27.069  1.00  0.00     0.173 A 
ATOM     87  C   UNL A   1      48.287  35.190  25.843  1.00  0.00     0.173 A 
ATOM     88  F   UNL A   1      49.416  32.555  28.072  1.00  0.00    -0.203 F 
ATOM     89  C   UNL A   1      50.502  33.567  26.244  1.00  0.00     0.198 A 
ATOM     90  C   UNL A   1      49.393  35.293  25.000  1.00  0.00     0.198 A 
ATOM     91  F   UNL A   1      47.233  35.990  25.627  1.00  0.00    -0.203 F 
ATOM     92  F   UNL A   1      51.583  32.804  26.463  1.00  0.00    -0.200 F 
ATOM     93  C   UNL A   1      50.502  34.488  25.206  1.00  0.00     0.200 A 
ATOM     94  F   UNL A   1      49.383  36.174  23.990  1.00  0.00    -0.200 F 
ATOM     95  F   UNL A   1      51.574  34.602  24.410  1.00  0.00    -0.200 F 
ENDBRANCH  61  85
BRANCH  73  96
ATOM     96  C   UNL A   1      45.861  38.095  32.188  1.00  0.00     0.064 A 
ATOM     97  C   UNL A   1      45.418  39.371  31.812  1.00  0.00     0.173 A 
ATOM     98  C   UNL A   1      46.783  38.002  33.243  1.00  0.00     0.173 A 
ATOM     99  F   UNL A   1      44.550  39.513  30.799  1.00  0.00    -0.203 F 
ATOM    100  C   UNL A   1      45.899  40.512  32.451  1.00  0.00     0.198 A 
ATOM    101  C   UNL A   1      47.238  39.142  33.899  1.00  0.00     0.198 A 
ATOM    102  F   UNL A   1      47.232  36.804  33.645  1.00  0.00    -0.203 F 
ATOM    103  F   UNL A   1      45.497  41.724  32.045  1.00  0.00    -0.200 F 
ATOM    104  C   UNL A   1      46.802  40.396  33.497  1.00  0.00     0.200 A 
ATOM    105  F   UNL A   1      48.101  39.028  34.918  1.00  0.00    -0.200 F 
ATOM    106  F   UNL A   1      47.257  41.494  34.116  1.00  0.00    -0.200 F 
ENDBRANCH  73  96
ENDBRANCH  47  48
ENDBRANCH  39  42
ENDBRANCH  37  38
ENDBRANCH  36  37
ENDBRANCH  35  36
ENDBRANCH  34  35
ENDBRANCH  33  34
ENDBRANCH  32  33
ENDBRANCH  30  32
ENDBRANCH   1  28
TORSDOF 23
ENDMDL
