MODEL 1
REMARK VINA RESULT:      -9.9      0.000      0.000
REMARK SMILES CC(C)(C)SSC[C@H]([NH3+])C(=O)NCCCCCCNC(=O)c1ccc(-c2c3nc(c(-c4c(F)c(F)c(F)c(F)c4F)c4ccc([nH]4)c(-c4c(F)c(F)c(F)c(F)c4F)c4nc(c(-c5c(F)c(F)c(F)c(F)c5F)c5ccc2[nH]5)C=C4)C=C3)cc1
REMARK SMILES IDX 14 1 13 2 12 3 10 4 11 5 8 7 7 8 6 9 5 10 2 11 1 12 3 13
REMARK SMILES IDX 4 14 9 15 15 19 16 20 17 21 18 22 19 23 20 24 21 26 22 27
REMARK SMILES IDX 23 28 84 29 24 30 83 31 25 32 26 33 27 34 77 35 28 36 82 37
REMARK SMILES IDX 76 38 78 39 29 40 81 41 75 42 74 43 30 45 62 46 42 47 61 48
REMARK SMILES IDX 43 49 46 50 60 51 79 52 44 53 45 54 59 56 80 57 47 58 31 59
REMARK SMILES IDX 32 60 40 61 33 62 34 63 38 64 41 65 35 66 36 67 39 68 37 69
REMARK SMILES IDX 63 70 64 71 72 72 65 73 66 74 70 75 73 76 67 77 68 78 71 79
REMARK SMILES IDX 69 80 48 81 49 82 57 83 50 84 51 85 55 86 58 87 52 88 53 89
REMARK SMILES IDX 56 90 54 91
REMARK H PARENT 12 6 9 16 9 17 9 18 19 25 78 44 46 55
REMARK Flexibility Score: inf
ROOT
ATOM      1  C   UNL A   1      30.693  28.822  23.375  1.00  0.00     0.021 C 
ENDROOT
BRANCH   1   2
ATOM      2  C   UNL A   1      30.466  27.471  22.699  1.00  0.00     0.116 C 
BRANCH   2   3
ATOM      3  N   UNL A   1      31.566  27.120  21.818  1.00  0.00    -0.351 N 
ATOM      4  C   UNL A   1      32.493  26.125  21.937  1.00  0.00     0.279 C 
ATOM      5  O   UNL A   1      33.370  26.046  21.072  1.00  0.00    -0.268 OA
ATOM      6  H   UNL A   1      31.656  27.682  21.016  1.00  0.00     0.163 HD
BRANCH   4   7
ATOM      7  C   UNL A   1      32.419  25.097  23.080  1.00  0.00     0.281 C 
BRANCH   7   8
ATOM      8  C   UNL A   1      33.809  24.980  23.730  1.00  0.00     0.157 C 
BRANCH   8   9
ATOM      9  S   UNL A   1      33.892  24.042  25.298  1.00  0.00    -0.087 SA
BRANCH   9  10
ATOM     10  S   UNL A   1      34.573  22.193  24.714  1.00  0.00    -0.088 SA
BRANCH  10  11
ATOM     11  C   UNL A   1      36.404  22.402  24.524  1.00  0.00     0.018 C 
ATOM     12  C   UNL A   1      36.819  23.503  25.511  1.00  0.00     0.023 C 
ATOM     13  C   UNL A   1      36.742  22.848  23.095  1.00  0.00     0.023 C 
ATOM     14  C   UNL A   1      37.143  21.103  24.872  1.00  0.00     0.023 C 
ENDBRANCH  10  11
ENDBRANCH   9  10
ENDBRANCH   8   9
ENDBRANCH   7   8
BRANCH   7  15
ATOM     15  N   UNL A   1      31.814  23.831  22.600  1.00  0.00    -0.347 N 
ATOM     16  H   UNL A   1      30.864  23.750  22.962  1.00  0.00     0.345 HD
ATOM     17  H   UNL A   1      32.371  23.042  22.927  1.00  0.00     0.345 HD
ATOM     18  H   UNL A   1      31.790  23.831  21.581  1.00  0.00     0.345 HD
ENDBRANCH   7  15
ENDBRANCH   4   7
ENDBRANCH   2   3
ENDBRANCH   1   2
BRANCH   1  19
ATOM     19  C   UNL A   1      31.374  28.741  24.747  1.00  0.00     0.002 C 
BRANCH  19  20
ATOM     20  C   UNL A   1      32.868  29.083  24.763  1.00  0.00     0.002 C 
BRANCH  20  21
ATOM     21  C   UNL A   1      33.757  28.115  25.547  1.00  0.00     0.021 C 
BRANCH  21  22
ATOM     22  C   UNL A   1      33.791  28.342  27.054  1.00  0.00     0.116 C 
BRANCH  22  23
ATOM     23  N   UNL A   1      33.655  29.744  27.411  1.00  0.00    -0.352 N 
ATOM     24  C   UNL A   1      34.532  30.569  28.066  1.00  0.00     0.251 C 
ATOM     25  H   UNL A   1      32.805  30.164  27.144  1.00  0.00     0.163 HD
ATOM     26  O   UNL A   1      34.173  31.694  28.414  1.00  0.00    -0.269 OA
BRANCH  24  27
ATOM     27  C   UNL A   1      35.902  30.110  28.383  1.00  0.00     0.039 A 
ATOM     28  C   UNL A   1      36.895  30.247  27.409  1.00  0.00     0.014 A 
ATOM     29  C   UNL A   1      36.207  29.522  29.614  1.00  0.00     0.014 A 
ATOM     30  C   UNL A   1      38.203  29.848  27.689  1.00  0.00     0.010 A 
ATOM     31  C   UNL A   1      37.525  29.182  29.915  1.00  0.00     0.010 A 
ATOM     32  C   UNL A   1      38.535  29.338  28.955  1.00  0.00    -0.014 A 
BRANCH  32  33
ATOM     33  C   UNL A   1      39.934  28.961  29.281  1.00  0.00     0.031 A 
ATOM     34  C   UNL A   1      40.801  29.885  30.091  1.00  0.00     0.074 A 
ATOM     35  C   UNL A   1      40.437  27.804  28.811  1.00  0.00     0.049 A 
ATOM     36  N   UNL A   1      42.056  29.751  30.438  1.00  0.00    -0.248 NA
ATOM     37  C   UNL A   1      40.181  31.136  30.554  1.00  0.00     0.031 C 
ATOM     38  C   UNL A   1      39.714  26.845  27.975  1.00  0.00     0.029 A 
ATOM     39  N   UNL A   1      41.681  27.241  28.962  1.00  0.00    -0.354 N 
ATOM     40  C   UNL A   1      42.375  30.896  31.155  1.00  0.00     0.074 A 
ATOM     41  C   UNL A   1      41.201  31.741  31.144  1.00  0.00     0.031 C 
ATOM     42  C   UNL A   1      40.518  25.805  27.701  1.00  0.00     0.029 A 
ATOM     43  C   UNL A   1      41.823  26.038  28.315  1.00  0.00     0.049 A 
ATOM     44  H   UNL A   1      42.402  27.661  29.483  1.00  0.00     0.167 HD
ATOM     45  C   UNL A   1      43.533  31.204  31.789  1.00  0.00     0.037 A 
ATOM     46  C   UNL A   1      42.885  25.217  28.224  1.00  0.00     0.037 A 
ATOM     47  C   UNL A   1      44.696  30.357  31.811  1.00  0.00     0.049 A 
ATOM     48  C   UNL A   1      44.160  25.582  28.937  1.00  0.00     0.074 A 
ATOM     49  C   UNL A   1      45.907  30.567  32.447  1.00  0.00     0.029 A 
ATOM     50  N   UNL A   1      44.791  29.131  31.169  1.00  0.00    -0.354 N 
ATOM     51  N   UNL A   1      44.430  26.644  29.657  1.00  0.00    -0.248 NA
ATOM     52  C   UNL A   1      45.273  24.629  28.833  1.00  0.00     0.031 C 
ATOM     53  C   UNL A   1      46.746  29.484  32.163  1.00  0.00     0.029 A 
ATOM     54  C   UNL A   1      46.044  28.578  31.387  1.00  0.00     0.049 A 
ATOM     55  H   UNL A   1      44.075  28.714  30.637  1.00  0.00     0.167 HD
ATOM     56  C   UNL A   1      45.730  26.474  30.112  1.00  0.00     0.074 A 
ATOM     57  C   UNL A   1      46.189  25.199  29.603  1.00  0.00     0.031 C 
ATOM     58  C   UNL A   1      46.479  27.302  30.882  1.00  0.00     0.037 A 
BRANCH  45  59
ATOM     59  C   UNL A   1      43.591  32.509  32.526  1.00  0.00     0.064 A 
ATOM     60  C   UNL A   1      43.921  33.704  31.868  1.00  0.00     0.173 A 
ATOM     61  C   UNL A   1      43.277  32.578  33.891  1.00  0.00     0.173 A 
ATOM     62  F   UNL A   1      44.241  33.691  30.565  1.00  0.00    -0.203 F 
ATOM     63  C   UNL A   1      43.957  34.915  32.555  1.00  0.00     0.198 A 
ATOM     64  C   UNL A   1      43.286  33.794  34.568  1.00  0.00     0.198 A 
ATOM     65  F   UNL A   1      42.950  31.465  34.567  1.00  0.00    -0.203 F 
ATOM     66  F   UNL A   1      44.317  36.036  31.915  1.00  0.00    -0.200 F 
ATOM     67  C   UNL A   1      43.633  34.960  33.902  1.00  0.00     0.200 A 
ATOM     68  F   UNL A   1      42.962  33.839  35.868  1.00  0.00    -0.200 F 
ATOM     69  F   UNL A   1      43.661  36.127  34.560  1.00  0.00    -0.200 F 
ENDBRANCH  45  59
BRANCH  46  70
ATOM     70  C   UNL A   1      42.788  23.955  27.446  1.00  0.00     0.064 A 
ATOM     71  C   UNL A   1      42.393  22.757  28.059  1.00  0.00     0.173 A 
ATOM     72  C   UNL A   1      43.103  23.916  26.080  1.00  0.00     0.173 A 
ATOM     73  F   UNL A   1      42.101  22.742  29.368  1.00  0.00    -0.203 F 
ATOM     74  C   UNL A   1      42.344  21.565  27.343  1.00  0.00     0.198 A 
ATOM     75  C   UNL A   1      43.026  22.727  25.358  1.00  0.00     0.198 A 
ATOM     76  F   UNL A   1      43.482  25.035  25.445  1.00  0.00    -0.203 F 
ATOM     77  F   UNL A   1      42.014  20.425  27.967  1.00  0.00    -0.200 F 
ATOM     78  C   UNL A   1      42.657  21.550  25.992  1.00  0.00     0.200 A 
ATOM     79  F   UNL A   1      43.317  22.719  24.049  1.00  0.00    -0.200 F 
ATOM     80  F   UNL A   1      42.611  20.402  25.304  1.00  0.00    -0.200 F 
ENDBRANCH  46  70
BRANCH  58  81
ATOM     81  C   UNL A   1      47.858  26.837  31.246  1.00  0.00     0.064 A 
ATOM     82  C   UNL A   1      48.976  27.169  30.466  1.00  0.00     0.173 A 
ATOM     83  C   UNL A   1      48.066  26.072  32.403  1.00  0.00     0.173 A 
ATOM     84  F   UNL A   1      48.826  27.886  29.342  1.00  0.00    -0.203 F 
ATOM     85  C   UNL A   1      50.249  26.729  30.818  1.00  0.00     0.198 A 
ATOM     86  C   UNL A   1      49.345  25.657  32.767  1.00  0.00     0.198 A 
ATOM     87  F   UNL A   1      47.031  25.733  33.186  1.00  0.00    -0.203 F 
ATOM     88  F   UNL A   1      51.295  27.017  30.032  1.00  0.00    -0.200 F 
ATOM     89  C   UNL A   1      50.433  25.979  31.971  1.00  0.00     0.200 A 
ATOM     90  F   UNL A   1      49.522  24.942  33.887  1.00  0.00    -0.200 F 
ATOM     91  F   UNL A   1      51.659  25.559  32.308  1.00  0.00    -0.200 F 
ENDBRANCH  58  81
ENDBRANCH  32  33
ENDBRANCH  24  27
ENDBRANCH  22  23
ENDBRANCH  21  22
ENDBRANCH  20  21
ENDBRANCH  19  20
ENDBRANCH   1  19
TORSDOF 18
ENDMDL
MODEL 2
REMARK VINA RESULT:      -9.7      3.528      4.954
REMARK SMILES CC(C)(C)SSC[C@H]([NH3+])C(=O)NCCCCCCNC(=O)c1ccc(-c2c3nc(c(-c4c(F)c(F)c(F)c(F)c4F)c4ccc([nH]4)c(-c4c(F)c(F)c(F)c(F)c4F)c4nc(c(-c5c(F)c(F)c(F)c(F)c5F)c5ccc2[nH]5)C=C4)C=C3)cc1
REMARK SMILES IDX 14 1 13 2 12 3 10 4 11 5 8 7 7 8 6 9 5 10 2 11 1 12 3 13
REMARK SMILES IDX 4 14 9 15 15 19 16 20 17 21 18 22 19 23 20 24 21 26 22 27
REMARK SMILES IDX 23 28 84 29 24 30 83 31 25 32 26 33 27 34 77 35 28 36 82 37
REMARK SMILES IDX 76 38 78 39 29 40 81 41 75 42 74 43 30 45 62 46 42 47 61 48
REMARK SMILES IDX 43 49 46 50 60 51 79 52 44 53 45 54 59 56 80 57 47 58 31 59
REMARK SMILES IDX 32 60 40 61 33 62 34 63 38 64 41 65 35 66 36 67 39 68 37 69
REMARK SMILES IDX 63 70 64 71 72 72 65 73 66 74 70 75 73 76 67 77 68 78 71 79
REMARK SMILES IDX 69 80 48 81 49 82 57 83 50 84 51 85 55 86 58 87 52 88 53 89
REMARK SMILES IDX 56 90 54 91
REMARK H PARENT 12 6 9 16 9 17 9 18 19 25 78 44 46 55
REMARK Flexibility Score: inf
ROOT
ATOM      1  C   UNL A   1      32.747  28.649  26.306  1.00  0.00     0.021 C 
ENDROOT
BRANCH   1   2
ATOM      2  C   UNL A   1      31.755  27.707  25.627  1.00  0.00     0.116 C 
BRANCH   2   3
ATOM      3  N   UNL A   1      31.387  26.599  26.492  1.00  0.00    -0.351 N 
ATOM      4  C   UNL A   1      31.731  25.281  26.412  1.00  0.00     0.279 C 
ATOM      5  O   UNL A   1      31.256  24.508  27.248  1.00  0.00    -0.268 OA
ATOM      6  H   UNL A   1      30.802  26.835  27.247  1.00  0.00     0.163 HD
BRANCH   4   7
ATOM      7  C   UNL A   1      32.725  24.779  25.349  1.00  0.00     0.281 C 
BRANCH   7   8
ATOM      8  C   UNL A   1      32.608  23.248  25.249  1.00  0.00     0.157 C 
BRANCH   8   9
ATOM      9  S   UNL A   1      33.621  22.443  23.955  1.00  0.00    -0.087 SA
BRANCH   9  10
ATOM     10  S   UNL A   1      34.925  21.272  25.028  1.00  0.00    -0.088 SA
BRANCH  10  11
ATOM     11  C   UNL A   1      36.581  22.072  24.795  1.00  0.00     0.018 C 
ATOM     12  C   UNL A   1      36.694  23.156  25.877  1.00  0.00     0.023 C 
ATOM     13  C   UNL A   1      36.663  22.726  23.410  1.00  0.00     0.023 C 
ATOM     14  C   UNL A   1      37.712  21.052  24.977  1.00  0.00     0.023 C 
ENDBRANCH  10  11
ENDBRANCH   9  10
ENDBRANCH   8   9
ENDBRANCH   7   8
BRANCH   7  15
ATOM     15  N   UNL A   1      34.083  25.314  25.616  1.00  0.00    -0.347 N 
ATOM     16  H   UNL A   1      34.760  24.552  25.582  1.00  0.00     0.345 HD
ATOM     17  H   UNL A   1      34.102  25.746  26.539  1.00  0.00     0.345 HD
ATOM     18  H   UNL A   1      34.318  26.010  24.909  1.00  0.00     0.345 HD
ENDBRANCH   7  15
ENDBRANCH   4   7
ENDBRANCH   2   3
ENDBRANCH   1   2
BRANCH   1  19
ATOM     19  C   UNL A   1      32.109  29.874  26.971  1.00  0.00     0.002 C 
BRANCH  19  20
ATOM     20  C   UNL A   1      31.418  30.857  26.020  1.00  0.00     0.002 C 
BRANCH  20  21
ATOM     21  C   UNL A   1      31.312  32.298  26.523  1.00  0.00     0.021 C 
BRANCH  21  22
ATOM     22  C   UNL A   1      32.607  32.894  27.063  1.00  0.00     0.116 C 
BRANCH  22  23
ATOM     23  N   UNL A   1      32.419  34.219  27.630  1.00  0.00    -0.352 N 
ATOM     24  C   UNL A   1      33.067  34.822  28.676  1.00  0.00     0.251 C 
ATOM     25  H   UNL A   1      31.721  34.764  27.199  1.00  0.00     0.163 HD
ATOM     26  O   UNL A   1      32.660  35.901  29.111  1.00  0.00    -0.269 OA
BRANCH  24  27
ATOM     27  C   UNL A   1      34.238  34.177  29.308  1.00  0.00     0.039 A 
ATOM     28  C   UNL A   1      34.022  33.275  30.353  1.00  0.00     0.014 A 
ATOM     29  C   UNL A   1      35.542  34.475  28.900  1.00  0.00     0.014 A 
ATOM     30  C   UNL A   1      35.106  32.630  30.950  1.00  0.00     0.010 A 
ATOM     31  C   UNL A   1      36.619  33.784  29.453  1.00  0.00     0.010 A 
ATOM     32  C   UNL A   1      36.412  32.857  30.486  1.00  0.00    -0.014 A 
BRANCH  32  33
ATOM     33  C   UNL A   1      37.567  32.136  31.078  1.00  0.00     0.031 A 
ATOM     34  C   UNL A   1      38.067  32.498  32.449  1.00  0.00     0.074 A 
ATOM     35  C   UNL A   1      38.194  31.184  30.362  1.00  0.00     0.049 A 
ATOM     36  N   UNL A   1      39.087  32.015  33.114  1.00  0.00    -0.248 NA
ATOM     37  C   UNL A   1      37.338  33.560  33.159  1.00  0.00     0.031 C 
ATOM     38  C   UNL A   1      37.836  30.775  29.003  1.00  0.00     0.029 A 
ATOM     39  N   UNL A   1      39.272  30.392  30.674  1.00  0.00    -0.354 N 
ATOM     40  C   UNL A   1      39.122  32.712  34.313  1.00  0.00     0.074 A 
ATOM     41  C   UNL A   1      38.059  33.692  34.264  1.00  0.00     0.031 C 
ATOM     42  C   UNL A   1      38.666  29.797  28.604  1.00  0.00     0.029 A 
ATOM     43  C   UNL A   1      39.633  29.531  29.666  1.00  0.00     0.049 A 
ATOM     44  H   UNL A   1      39.741  30.437  31.537  1.00  0.00     0.167 HD
ATOM     45  C   UNL A   1      39.948  32.533  35.373  1.00  0.00     0.037 A 
ATOM     46  C   UNL A   1      40.634  28.633  29.603  1.00  0.00     0.037 A 
ATOM     47  C   UNL A   1      40.997  31.549  35.428  1.00  0.00     0.049 A 
ATOM     48  C   UNL A   1      41.537  28.455  30.793  1.00  0.00     0.074 A 
ATOM     49  C   UNL A   1      41.869  31.272  36.466  1.00  0.00     0.029 A 
ATOM     50  N   UNL A   1      41.312  30.675  34.398  1.00  0.00    -0.354 N 
ATOM     51  N   UNL A   1      41.525  29.084  31.944  1.00  0.00    -0.248 NA
ATOM     52  C   UNL A   1      42.587  27.433  30.680  1.00  0.00     0.031 C 
ATOM     53  C   UNL A   1      42.734  30.253  36.053  1.00  0.00     0.029 A 
ATOM     54  C   UNL A   1      42.373  29.864  34.774  1.00  0.00     0.049 A 
ATOM     55  H   UNL A   1      40.852  30.636  33.528  1.00  0.00     0.167 HD
ATOM     56  C   UNL A   1      42.543  28.518  32.698  1.00  0.00     0.074 A 
ATOM     57  C   UNL A   1      43.141  27.482  31.883  1.00  0.00     0.031 C 
ATOM     58  C   UNL A   1      42.948  28.830  33.954  1.00  0.00     0.037 A 
BRANCH  45  59
ATOM     59  C   UNL A   1      39.738  33.414  36.569  1.00  0.00     0.064 A 
ATOM     60  C   UNL A   1      40.416  34.635  36.704  1.00  0.00     0.173 A 
ATOM     61  C   UNL A   1      38.823  33.058  37.571  1.00  0.00     0.173 A 
ATOM     62  F   UNL A   1      41.310  35.015  35.778  1.00  0.00    -0.203 F 
ATOM     63  C   UNL A   1      40.204  35.456  37.808  1.00  0.00     0.198 A 
ATOM     64  C   UNL A   1      38.592  33.894  38.660  1.00  0.00     0.198 A 
ATOM     65  F   UNL A   1      38.144  31.903  37.488  1.00  0.00    -0.203 F 
ATOM     66  F   UNL A   1      40.895  36.596  37.937  1.00  0.00    -0.200 F 
ATOM     67  C   UNL A   1      39.287  35.088  38.782  1.00  0.00     0.200 A 
ATOM     68  F   UNL A   1      37.697  33.544  39.595  1.00  0.00    -0.200 F 
ATOM     69  F   UNL A   1      39.078  35.883  39.840  1.00  0.00    -0.200 F 
ENDBRANCH  45  59
BRANCH  46  70
ATOM     70  C   UNL A   1      40.825  27.815  28.377  1.00  0.00     0.064 A 
ATOM     71  C   UNL A   1      40.225  26.554  28.251  1.00  0.00     0.173 A 
ATOM     72  C   UNL A   1      41.623  28.267  27.317  1.00  0.00     0.173 A 
ATOM     73  F   UNL A   1      39.469  26.071  29.249  1.00  0.00    -0.203 F 
ATOM     74  C   UNL A   1      40.438  25.766  27.124  1.00  0.00     0.198 A 
ATOM     75  C   UNL A   1      41.812  27.489  26.177  1.00  0.00     0.198 A 
ATOM     76  F   UNL A   1      42.215  29.468  27.387  1.00  0.00    -0.203 F 
ATOM     77  F   UNL A   1      39.895  24.543  27.053  1.00  0.00    -0.200 F 
ATOM     78  C   UNL A   1      41.228  26.235  26.086  1.00  0.00     0.200 A 
ATOM     79  F   UNL A   1      42.566  27.951  25.170  1.00  0.00    -0.200 F 
ATOM     80  F   UNL A   1      41.434  25.475  25.002  1.00  0.00    -0.200 F 
ENDBRANCH  46  70
BRANCH  58  81
ATOM     81  C   UNL A   1      44.069  28.019  34.533  1.00  0.00     0.064 A 
ATOM     82  C   UNL A   1      43.832  26.818  35.216  1.00  0.00     0.173 A 
ATOM     83  C   UNL A   1      45.400  28.437  34.379  1.00  0.00     0.173 A 
ATOM     84  F   UNL A   1      42.576  26.384  35.402  1.00  0.00    -0.203 F 
ATOM     85  C   UNL A   1      44.884  26.078  35.748  1.00  0.00     0.198 A 
ATOM     86  C   UNL A   1      46.452  27.681  34.889  1.00  0.00     0.198 A 
ATOM     87  F   UNL A   1      45.680  29.577  33.729  1.00  0.00    -0.203 F 
ATOM     88  F   UNL A   1      44.631  24.958  36.440  1.00  0.00    -0.200 F 
ATOM     89  C   UNL A   1      46.193  26.507  35.579  1.00  0.00     0.200 A 
ATOM     90  F   UNL A   1      47.716  28.091  34.715  1.00  0.00    -0.200 F 
ATOM     91  F   UNL A   1      47.204  25.792  36.090  1.00  0.00    -0.200 F 
ENDBRANCH  58  81
ENDBRANCH  32  33
ENDBRANCH  24  27
ENDBRANCH  22  23
ENDBRANCH  21  22
ENDBRANCH  20  21
ENDBRANCH  19  20
ENDBRANCH   1  19
TORSDOF 18
ENDMDL
MODEL 3
REMARK VINA RESULT:      -9.7      3.408      4.974
REMARK SMILES CC(C)(C)SSC[C@H]([NH3+])C(=O)NCCCCCCNC(=O)c1ccc(-c2c3nc(c(-c4c(F)c(F)c(F)c(F)c4F)c4ccc([nH]4)c(-c4c(F)c(F)c(F)c(F)c4F)c4nc(c(-c5c(F)c(F)c(F)c(F)c5F)c5ccc2[nH]5)C=C4)C=C3)cc1
REMARK SMILES IDX 14 1 13 2 12 3 10 4 11 5 8 7 7 8 6 9 5 10 2 11 1 12 3 13
REMARK SMILES IDX 4 14 9 15 15 19 16 20 17 21 18 22 19 23 20 24 21 26 22 27
REMARK SMILES IDX 23 28 84 29 24 30 83 31 25 32 26 33 27 34 77 35 28 36 82 37
REMARK SMILES IDX 76 38 78 39 29 40 81 41 75 42 74 43 30 45 62 46 42 47 61 48
REMARK SMILES IDX 43 49 46 50 60 51 79 52 44 53 45 54 59 56 80 57 47 58 31 59
REMARK SMILES IDX 32 60 40 61 33 62 34 63 38 64 41 65 35 66 36 67 39 68 37 69
REMARK SMILES IDX 63 70 64 71 72 72 65 73 66 74 70 75 73 76 67 77 68 78 71 79
REMARK SMILES IDX 69 80 48 81 49 82 57 83 50 84 51 85 55 86 58 87 52 88 53 89
REMARK SMILES IDX 56 90 54 91
REMARK H PARENT 12 6 9 16 9 17 9 18 19 25 78 44 46 55
REMARK Flexibility Score: inf
ROOT
ATOM      1  C   UNL A   1      31.037  28.729  24.740  1.00  0.00     0.021 C 
ENDROOT
BRANCH   1   2
ATOM      2  C   UNL A   1      30.937  28.446  23.243  1.00  0.00     0.116 C 
BRANCH   2   3
ATOM      3  N   UNL A   1      32.248  28.329  22.628  1.00  0.00    -0.351 N 
ATOM      4  C   UNL A   1      32.822  27.264  21.998  1.00  0.00     0.279 C 
ATOM      5  O   UNL A   1      33.979  27.390  21.588  1.00  0.00    -0.268 OA
ATOM      6  H   UNL A   1      32.805  29.139  22.673  1.00  0.00     0.163 HD
BRANCH   4   7
ATOM      7  C   UNL A   1      32.037  25.963  21.755  1.00  0.00     0.281 C 
BRANCH   7   8
ATOM      8  C   UNL A   1      32.476  24.919  22.797  1.00  0.00     0.157 C 
BRANCH   8   9
ATOM      9  S   UNL A   1      33.361  23.454  22.150  1.00  0.00    -0.087 SA
BRANCH   9  10
ATOM     10  S   UNL A   1      33.572  22.254  23.804  1.00  0.00    -0.088 SA
BRANCH  10  11
ATOM     11  C   UNL A   1      35.285  22.598  24.423  1.00  0.00     0.018 C 
ATOM     12  C   UNL A   1      35.737  21.334  25.169  1.00  0.00     0.023 C 
ATOM     13  C   UNL A   1      35.269  23.784  25.396  1.00  0.00     0.023 C 
ATOM     14  C   UNL A   1      36.244  22.870  23.257  1.00  0.00     0.023 C 
ENDBRANCH  10  11
ENDBRANCH   9  10
ENDBRANCH   8   9
ENDBRANCH   7   8
BRANCH   7  15
ATOM     15  N   UNL A   1      32.144  25.551  20.334  1.00  0.00    -0.347 N 
ATOM     16  H   UNL A   1      33.083  25.755  19.991  1.00  0.00     0.345 HD
ATOM     17  H   UNL A   1      31.461  26.064  19.778  1.00  0.00     0.345 HD
ATOM     18  H   UNL A   1      31.964  24.551  20.255  1.00  0.00     0.345 HD
ENDBRANCH   7  15
ENDBRANCH   4   7
ENDBRANCH   2   3
ENDBRANCH   1   2
BRANCH   1  19
ATOM     19  C   UNL A   1      31.689  30.072  25.092  1.00  0.00     0.002 C 
BRANCH  19  20
ATOM     20  C   UNL A   1      31.591  30.487  26.564  1.00  0.00     0.002 C 
BRANCH  20  21
ATOM     21  C   UNL A   1      31.428  31.988  26.817  1.00  0.00     0.021 C 
BRANCH  21  22
ATOM     22  C   UNL A   1      32.727  32.754  27.036  1.00  0.00     0.116 C 
BRANCH  22  23
ATOM     23  N   UNL A   1      32.506  34.081  27.586  1.00  0.00    -0.352 N 
ATOM     24  C   UNL A   1      33.128  34.706  28.637  1.00  0.00     0.251 C 
ATOM     25  H   UNL A   1      31.806  34.609  27.140  1.00  0.00     0.163 HD
ATOM     26  O   UNL A   1      32.695  35.781  29.054  1.00  0.00    -0.269 OA
BRANCH  24  27
ATOM     27  C   UNL A   1      34.301  34.088  29.292  1.00  0.00     0.039 A 
ATOM     28  C   UNL A   1      34.083  33.145  30.300  1.00  0.00     0.014 A 
ATOM     29  C   UNL A   1      35.605  34.450  28.942  1.00  0.00     0.014 A 
ATOM     30  C   UNL A   1      35.171  32.525  30.918  1.00  0.00     0.010 A 
ATOM     31  C   UNL A   1      36.688  33.785  29.514  1.00  0.00     0.010 A 
ATOM     32  C   UNL A   1      36.482  32.819  30.511  1.00  0.00    -0.014 A 
BRANCH  32  33
ATOM     33  C   UNL A   1      37.644  32.126  31.123  1.00  0.00     0.031 A 
ATOM     34  C   UNL A   1      38.114  32.504  32.501  1.00  0.00     0.074 A 
ATOM     35  C   UNL A   1      38.303  31.184  30.421  1.00  0.00     0.049 A 
ATOM     36  N   UNL A   1      39.134  32.045  33.183  1.00  0.00    -0.248 NA
ATOM     37  C   UNL A   1      37.350  33.552  33.195  1.00  0.00     0.031 C 
ATOM     38  C   UNL A   1      37.975  30.762  29.058  1.00  0.00     0.029 A 
ATOM     39  N   UNL A   1      39.392  30.417  30.753  1.00  0.00    -0.354 N 
ATOM     40  C   UNL A   1      39.134  32.747  34.380  1.00  0.00     0.074 A 
ATOM     41  C   UNL A   1      38.051  33.703  34.310  1.00  0.00     0.031 C 
ATOM     42  C   UNL A   1      38.832  29.802  28.677  1.00  0.00     0.029 A 
ATOM     43  C   UNL A   1      39.788  29.562  29.754  1.00  0.00     0.049 A 
ATOM     44  H   UNL A   1      39.847  30.476  31.624  1.00  0.00     0.167 HD
ATOM     45  C   UNL A   1      39.947  32.591  35.453  1.00  0.00     0.037 A 
ATOM     46  C   UNL A   1      40.809  28.685  29.711  1.00  0.00     0.037 A 
ATOM     47  C   UNL A   1      41.016  31.630  35.529  1.00  0.00     0.049 A 
ATOM     48  C   UNL A   1      41.698  28.532  30.916  1.00  0.00     0.074 A 
ATOM     49  C   UNL A   1      41.878  31.376  36.582  1.00  0.00     0.029 A 
ATOM     50  N   UNL A   1      41.367  30.760  34.507  1.00  0.00    -0.354 N 
ATOM     51  N   UNL A   1      41.653  29.165  32.063  1.00  0.00    -0.248 NA
ATOM     52  C   UNL A   1      42.771  27.532  30.824  1.00  0.00     0.031 C 
ATOM     53  C   UNL A   1      42.771  30.375  36.186  1.00  0.00     0.029 A 
ATOM     54  C   UNL A   1      42.439  29.974  34.903  1.00  0.00     0.049 A 
ATOM     55  H   UNL A   1      40.921  30.707  33.631  1.00  0.00     0.167 HD
ATOM     56  C   UNL A   1      42.671  28.624  32.836  1.00  0.00     0.074 A 
ATOM     57  C   UNL A   1      43.305  27.598  32.035  1.00  0.00     0.031 C 
ATOM     58  C   UNL A   1      43.050  28.949  34.096  1.00  0.00     0.037 A 
BRANCH  45  59
ATOM     59  C   UNL A   1      39.699  33.471  36.643  1.00  0.00     0.064 A 
ATOM     60  C   UNL A   1      38.811  33.089  37.660  1.00  0.00     0.173 A 
ATOM     61  C   UNL A   1      40.383  34.687  36.791  1.00  0.00     0.173 A 
ATOM     62  F   UNL A   1      38.124  31.942  37.560  1.00  0.00    -0.203 F 
ATOM     63  C   UNL A   1      38.598  33.904  38.769  1.00  0.00     0.198 A 
ATOM     64  C   UNL A   1      40.190  35.485  37.915  1.00  0.00     0.198 A 
ATOM     65  F   UNL A   1      41.248  35.096  35.850  1.00  0.00    -0.203 F 
ATOM     66  F   UNL A   1      37.712  33.539  39.706  1.00  0.00    -0.200 F 
ATOM     67  C   UNL A   1      39.293  35.097  38.899  1.00  0.00     0.200 A 
ATOM     68  F   UNL A   1      40.869  36.633  38.046  1.00  0.00    -0.200 F 
ATOM     69  F   UNL A   1      39.093  35.876  39.972  1.00  0.00    -0.200 F 
ENDBRANCH  45  59
BRANCH  46  70
ATOM     70  C   UNL A   1      41.037  27.867  28.492  1.00  0.00     0.064 A 
ATOM     71  C   UNL A   1      41.894  28.310  27.475  1.00  0.00     0.173 A 
ATOM     72  C   UNL A   1      40.391  26.635  28.311  1.00  0.00     0.173 A 
ATOM     73  F   UNL A   1      42.518  29.491  27.595  1.00  0.00    -0.203 F 
ATOM     74  C   UNL A   1      42.075  27.567  26.312  1.00  0.00     0.198 A 
ATOM     75  C   UNL A   1      40.595  25.879  27.159  1.00  0.00     0.198 A 
ATOM     76  F   UNL A   1      39.565  26.165  29.256  1.00  0.00    -0.203 F 
ATOM     77  F   UNL A   1      42.859  28.040  25.333  1.00  0.00    -0.200 F 
ATOM     78  C   UNL A   1      41.429  26.350  26.156  1.00  0.00     0.200 A 
ATOM     79  F   UNL A   1      39.979  24.697  27.017  1.00  0.00    -0.200 F 
ATOM     80  F   UNL A   1      41.603  25.636  25.035  1.00  0.00    -0.200 F 
ENDBRANCH  46  70
BRANCH  58  81
ATOM     81  C   UNL A   1      44.180  28.166  34.696  1.00  0.00     0.064 A 
ATOM     82  C   UNL A   1      45.510  28.597  34.593  1.00  0.00     0.173 A 
ATOM     83  C   UNL A   1      43.924  26.982  35.404  1.00  0.00     0.173 A 
ATOM     84  F   UNL A   1      45.807  29.714  33.912  1.00  0.00    -0.203 F 
ATOM     85  C   UNL A   1      46.547  27.857  35.155  1.00  0.00     0.198 A 
ATOM     86  C   UNL A   1      44.960  26.259  35.989  1.00  0.00     0.198 A 
ATOM     87  F   UNL A   1      42.668  26.529  35.536  1.00  0.00    -0.203 F 
ATOM     88  F   UNL A   1      47.815  28.262  35.002  1.00  0.00    -0.200 F 
ATOM     89  C   UNL A   1      46.271  26.692  35.857  1.00  0.00     0.200 A 
ATOM     90  F   UNL A   1      44.690  25.140  36.676  1.00  0.00    -0.200 F 
ATOM     91  F   UNL A   1      47.270  25.983  36.399  1.00  0.00    -0.200 F 
ENDBRANCH  58  81
ENDBRANCH  32  33
ENDBRANCH  24  27
ENDBRANCH  22  23
ENDBRANCH  21  22
ENDBRANCH  20  21
ENDBRANCH  19  20
ENDBRANCH   1  19
TORSDOF 18
ENDMDL
