MODEL 1
REMARK VINA RESULT:     -12.5      0.000      0.000
REMARK SMILES C[C@@H](NC(=O)c1cc(C(=O)NCCCCCCNC(=O)c2ccc(-c3c4nc(c(-c5c(F)c(F)c(F)c(F)c5F)c5ccc([nH]5)c(-c5c(F)c(F)c(F)c(F)c5F)c5nc(c(-c6c(F)c(F)c(F)c(F)c6F)c6ccc3[nH]6)C=C5)C=C4)cc2)n(C)n1)c1ccccc1
REMARK SMILES IDX 14 1 13 2 12 3 11 4 9 5 10 6 8 8 6 9 7 10 86 11 84 12 85 13
REMARK SMILES IDX 4 14 3 15 5 17 2 18 1 19 87 20 88 21 92 22 89 23 91 24 90 25
REMARK SMILES IDX 15 26 16 27 17 28 18 29 19 30 20 32 21 33 22 34 83 35 23 36
REMARK SMILES IDX 82 37 24 38 25 39 26 40 76 41 27 42 81 43 75 44 77 45 28 46
REMARK SMILES IDX 80 47 74 48 73 49 29 51 61 52 41 53 60 54 42 55 45 56 59 57
REMARK SMILES IDX 78 58 43 59 44 60 58 62 79 63 46 64 30 65 31 66 39 67 32 68
REMARK SMILES IDX 33 69 37 70 40 71 34 72 35 73 38 74 36 75 62 76 63 77 71 78
REMARK SMILES IDX 64 79 65 80 69 81 72 82 66 83 67 84 70 85 68 86 47 87 48 88
REMARK SMILES IDX 56 89 49 90 50 91 54 92 57 93 51 94 52 95 55 96 53 97
REMARK H PARENT 11 7 3 16 18 31 77 50 45 61
REMARK Flexibility Score: inf
ROOT
ATOM      1  C   UNL A   1      32.085  29.805  27.034  1.00  0.00     0.002 C 
ENDROOT
BRANCH   1   2
ATOM      2  C   UNL A   1      33.608  29.798  27.216  1.00  0.00     0.021 C 
BRANCH   2   3
ATOM      3  C   UNL A   1      34.315  28.619  26.541  1.00  0.00     0.116 C 
BRANCH   3   4
ATOM      4  N   UNL A   1      34.158  28.665  25.111  1.00  0.00    -0.351 N 
ATOM      5  C   UNL A   1      33.386  28.019  24.191  1.00  0.00     0.269 C 
ATOM      6  O   UNL A   1      33.496  28.513  23.060  1.00  0.00    -0.268 OA
ATOM      7  H   UNL A   1      34.756  29.328  24.695  1.00  0.00     0.163 HD
BRANCH   5   8
ATOM      8  C   UNL A   1      32.512  26.880  24.406  1.00  0.00     0.126 A 
ATOM      9  C   UNL A   1      31.853  24.938  25.349  1.00  0.00     0.151 A 
ATOM     10  C   UNL A   1      32.972  25.739  25.073  1.00  0.00     0.069 A 
ATOM     11  N   UNL A   1      30.788  25.407  24.691  1.00  0.00    -0.167 NA
ATOM     12  N   UNL A   1      31.171  26.613  24.228  1.00  0.00    -0.262 N 
ATOM     13  C   UNL A   1      30.072  27.429  23.783  1.00  0.00     0.174 C 
BRANCH   9  14
ATOM     14  C   UNL A   1      31.727  23.785  26.226  1.00  0.00     0.272 C 
ATOM     15  N   UNL A   1      32.436  22.643  25.944  1.00  0.00    -0.344 N 
ATOM     16  H   UNL A   1      32.647  22.110  26.744  1.00  0.00     0.164 HD
ATOM     17  O   UNL A   1      31.087  23.821  27.281  1.00  0.00    -0.267 OA
BRANCH  15  18
ATOM     18  C   UNL A   1      32.944  22.050  24.703  1.00  0.00     0.109 C 
ATOM     19  C   UNL A   1      32.331  20.651  24.541  1.00  0.00     0.036 C 
BRANCH  18  20
ATOM     20  C   UNL A   1      34.442  21.945  24.495  1.00  0.00    -0.026 A 
ATOM     21  C   UNL A   1      35.171  22.886  23.754  1.00  0.00     0.006 A 
ATOM     22  C   UNL A   1      35.146  20.898  25.120  1.00  0.00     0.006 A 
ATOM     23  C   UNL A   1      36.558  22.765  23.621  1.00  0.00     0.000 A 
ATOM     24  C   UNL A   1      36.530  20.779  24.983  1.00  0.00     0.000 A 
ATOM     25  C   UNL A   1      37.236  21.710  24.229  1.00  0.00     0.000 A 
ENDBRANCH  18  20
ENDBRANCH  15  18
ENDBRANCH   9  14
ENDBRANCH   5   8
ENDBRANCH   3   4
ENDBRANCH   2   3
ENDBRANCH   1   2
BRANCH   1  26
ATOM     26  C   UNL A   1      31.542  30.922  26.133  1.00  0.00     0.002 C 
BRANCH  26  27
ATOM     27  C   UNL A   1      31.382  32.285  26.812  1.00  0.00     0.021 C 
BRANCH  27  28
ATOM     28  C   UNL A   1      32.700  32.972  27.157  1.00  0.00     0.116 C 
BRANCH  28  29
ATOM     29  N   UNL A   1      32.482  34.332  27.624  1.00  0.00    -0.352 N 
ATOM     30  C   UNL A   1      33.019  34.978  28.708  1.00  0.00     0.251 C 
ATOM     31  H   UNL A   1      31.860  34.869  27.082  1.00  0.00     0.163 HD
ATOM     32  O   UNL A   1      32.526  36.031  29.105  1.00  0.00    -0.269 OA
BRANCH  30  33
ATOM     33  C   UNL A   1      34.190  34.409  29.408  1.00  0.00     0.039 A 
ATOM     34  C   UNL A   1      33.994  33.708  30.600  1.00  0.00     0.014 A 
ATOM     35  C   UNL A   1      35.482  34.601  28.910  1.00  0.00     0.014 A 
ATOM     36  C   UNL A   1      35.089  33.154  31.268  1.00  0.00     0.010 A 
ATOM     37  C   UNL A   1      36.566  33.994  29.541  1.00  0.00     0.010 A 
ATOM     38  C   UNL A   1      36.380  33.269  30.728  1.00  0.00    -0.014 A 
BRANCH  38  39
ATOM     39  C   UNL A   1      37.552  32.641  31.389  1.00  0.00     0.031 A 
ATOM     40  C   UNL A   1      38.277  31.506  30.723  1.00  0.00     0.074 A 
ATOM     41  C   UNL A   1      37.917  33.049  32.620  1.00  0.00     0.049 A 
ATOM     42  N   UNL A   1      39.260  30.770  31.178  1.00  0.00    -0.248 NA
ATOM     43  C   UNL A   1      37.820  31.129  29.376  1.00  0.00     0.031 C 
ATOM     44  C   UNL A   1      37.267  34.115  33.386  1.00  0.00     0.029 A 
ATOM     45  N   UNL A   1      38.915  32.606  33.451  1.00  0.00    -0.354 N 
ATOM     46  C   UNL A   1      39.526  29.838  30.184  1.00  0.00     0.074 A 
ATOM     47  C   UNL A   1      38.574  30.070  29.119  1.00  0.00     0.031 C 
ATOM     48  C   UNL A   1      37.890  34.251  34.567  1.00  0.00     0.029 A 
ATOM     49  C   UNL A   1      38.958  33.260  34.658  1.00  0.00     0.049 A 
ATOM     50  H   UNL A   1      39.542  31.887  33.205  1.00  0.00     0.167 HD
ATOM     51  C   UNL A   1      40.492  28.888  30.154  1.00  0.00     0.037 A 
ATOM     52  C   UNL A   1      39.761  33.072  35.723  1.00  0.00     0.037 A 
ATOM     53  C   UNL A   1      41.457  28.681  31.203  1.00  0.00     0.049 A 
ATOM     54  C   UNL A   1      40.820  32.005  35.664  1.00  0.00     0.074 A 
ATOM     55  C   UNL A   1      42.513  27.787  31.238  1.00  0.00     0.029 A 
ATOM     56  N   UNL A   1      41.482  29.378  32.401  1.00  0.00    -0.354 N 
ATOM     57  N   UNL A   1      41.104  31.173  34.691  1.00  0.00    -0.248 NA
ATOM     58  C   UNL A   1      41.674  31.854  36.850  1.00  0.00     0.031 C 
ATOM     59  C   UNL A   1      43.151  27.912  32.477  1.00  0.00     0.029 A 
ATOM     60  C   UNL A   1      42.523  28.918  33.192  1.00  0.00     0.049 A 
ATOM     61  H   UNL A   1      40.853  30.093  32.653  1.00  0.00     0.167 HD
ATOM     62  C   UNL A   1      42.186  30.424  35.135  1.00  0.00     0.074 A 
ATOM     63  C   UNL A   1      42.517  30.910  36.458  1.00  0.00     0.031 C 
ATOM     64  C   UNL A   1      42.845  29.422  34.503  1.00  0.00     0.037 A 
BRANCH  51  65
ATOM     65  C   UNL A   1      40.560  27.998  28.948  1.00  0.00     0.064 A 
ATOM     66  C   UNL A   1      39.794  26.827  28.854  1.00  0.00     0.173 A 
ATOM     67  C   UNL A   1      41.356  28.351  27.847  1.00  0.00     0.173 A 
ATOM     68  F   UNL A   1      39.025  26.439  29.882  1.00  0.00    -0.203 F 
ATOM     69  C   UNL A   1      39.840  26.030  27.713  1.00  0.00     0.198 A 
ATOM     70  C   UNL A   1      41.377  27.568  26.696  1.00  0.00     0.198 A 
ATOM     71  F   UNL A   1      42.104  29.464  27.883  1.00  0.00    -0.203 F 
ATOM     72  F   UNL A   1      39.130  24.894  27.662  1.00  0.00    -0.200 F 
ATOM     73  C   UNL A   1      40.623  26.405  26.632  1.00  0.00     0.200 A 
ATOM     74  F   UNL A   1      42.125  27.939  25.647  1.00  0.00    -0.200 F 
ATOM     75  F   UNL A   1      40.656  25.644  25.529  1.00  0.00    -0.200 F 
ENDBRANCH  51  65
BRANCH  52  76
ATOM     76  C   UNL A   1      39.605  33.920  36.934  1.00  0.00     0.064 A 
ATOM     77  C   UNL A   1      38.844  33.481  38.027  1.00  0.00     0.173 A 
ATOM     78  C   UNL A   1      40.196  35.189  37.018  1.00  0.00     0.173 A 
ATOM     79  F   UNL A   1      38.243  32.284  37.985  1.00  0.00    -0.203 F 
ATOM     80  C   UNL A   1      38.657  34.291  39.146  1.00  0.00     0.198 A 
ATOM     81  C   UNL A   1      40.033  35.985  38.150  1.00  0.00     0.198 A 
ATOM     82  F   UNL A   1      40.940  35.653  36.003  1.00  0.00    -0.203 F 
ATOM     83  F   UNL A   1      37.881  33.868  40.152  1.00  0.00    -0.200 F 
ATOM     84  C   UNL A   1      39.255  35.540  39.208  1.00  0.00     0.200 A 
ATOM     85  F   UNL A   1      40.625  37.186  38.213  1.00  0.00    -0.200 F 
ATOM     86  F   UNL A   1      39.075  36.318  40.284  1.00  0.00    -0.200 F 
ENDBRANCH  52  76
BRANCH  64  87
ATOM     87  C   UNL A   1      44.015  28.811  35.218  1.00  0.00     0.064 A 
ATOM     88  C   UNL A   1      45.320  29.291  35.037  1.00  0.00     0.173 A 
ATOM     89  C   UNL A   1      43.820  27.756  36.122  1.00  0.00     0.173 A 
ATOM     90  F   UNL A   1      45.559  30.288  34.171  1.00  0.00    -0.203 F 
ATOM     91  C   UNL A   1      46.392  28.721  35.717  1.00  0.00     0.198 A 
ATOM     92  C   UNL A   1      44.890  27.208  36.823  1.00  0.00     0.198 A 
ATOM     93  F   UNL A   1      42.590  27.265  36.334  1.00  0.00    -0.203 F 
ATOM     94  F   UNL A   1      47.637  29.163  35.494  1.00  0.00    -0.200 F 
ATOM     95  C   UNL A   1      46.175  27.686  36.615  1.00  0.00     0.200 A 
ATOM     96  F   UNL A   1      44.678  26.217  37.700  1.00  0.00    -0.200 F 
ATOM     97  F   UNL A   1      47.209  27.142  37.275  1.00  0.00    -0.200 F 
ENDBRANCH  64  87
ENDBRANCH  38  39
ENDBRANCH  30  33
ENDBRANCH  28  29
ENDBRANCH  27  28
ENDBRANCH  26  27
ENDBRANCH   1  26
TORSDOF 16
ENDMDL
MODEL 2
REMARK VINA RESULT:     -12.3      5.277     10.697
REMARK SMILES C[C@@H](NC(=O)c1cc(C(=O)NCCCCCCNC(=O)c2ccc(-c3c4nc(c(-c5c(F)c(F)c(F)c(F)c5F)c5ccc([nH]5)c(-c5c(F)c(F)c(F)c(F)c5F)c5nc(c(-c6c(F)c(F)c(F)c(F)c6F)c6ccc3[nH]6)C=C5)C=C4)cc2)n(C)n1)c1ccccc1
REMARK SMILES IDX 14 1 13 2 12 3 11 4 9 5 10 6 8 8 6 9 7 10 86 11 84 12 85 13
REMARK SMILES IDX 4 14 3 15 5 17 2 18 1 19 87 20 88 21 92 22 89 23 91 24 90 25
REMARK SMILES IDX 15 26 16 27 17 28 18 29 19 30 20 32 21 33 22 34 83 35 23 36
REMARK SMILES IDX 82 37 24 38 25 39 26 40 76 41 27 42 81 43 75 44 77 45 28 46
REMARK SMILES IDX 80 47 74 48 73 49 29 51 61 52 41 53 60 54 42 55 45 56 59 57
REMARK SMILES IDX 78 58 43 59 44 60 58 62 79 63 46 64 30 65 31 66 39 67 32 68
REMARK SMILES IDX 33 69 37 70 40 71 34 72 35 73 38 74 36 75 62 76 63 77 71 78
REMARK SMILES IDX 64 79 65 80 69 81 72 82 66 83 67 84 70 85 68 86 47 87 48 88
REMARK SMILES IDX 56 89 49 90 50 91 54 92 57 93 51 94 52 95 55 96 53 97
REMARK H PARENT 11 7 3 16 18 31 77 50 45 61
REMARK Flexibility Score: inf
ROOT
ATOM      1  C   UNL A   1      36.950  22.099  25.141  1.00  0.00     0.002 C 
ENDROOT
BRANCH   1   2
ATOM      2  C   UNL A   1      35.942  22.889  25.984  1.00  0.00     0.021 C 
BRANCH   2   3
ATOM      3  C   UNL A   1      34.975  23.747  25.163  1.00  0.00     0.116 C 
BRANCH   3   4
ATOM      4  N   UNL A   1      33.690  23.846  25.805  1.00  0.00    -0.351 N 
ATOM      5  C   UNL A   1      32.444  24.263  25.440  1.00  0.00     0.269 C 
ATOM      6  O   UNL A   1      31.596  24.017  26.309  1.00  0.00    -0.268 OA
ATOM      7  H   UNL A   1      33.719  23.537  26.739  1.00  0.00     0.163 HD
BRANCH   5   8
ATOM      8  C   UNL A   1      32.053  24.927  24.209  1.00  0.00     0.126 A 
ATOM      9  C   UNL A   1      31.327  26.642  22.934  1.00  0.00     0.151 A 
ATOM     10  C   UNL A   1      31.328  26.124  24.238  1.00  0.00     0.069 A 
ATOM     11  N   UNL A   1      31.799  25.726  22.082  1.00  0.00    -0.167 NA
ATOM     12  N   UNL A   1      32.323  24.763  22.866  1.00  0.00    -0.262 N 
ATOM     13  C   UNL A   1      33.179  23.850  22.156  1.00  0.00     0.174 C 
BRANCH   9  14
ATOM     14  C   UNL A   1      30.943  27.961  22.457  1.00  0.00     0.272 C 
ATOM     15  N   UNL A   1      31.888  28.957  22.397  1.00  0.00    -0.344 N 
ATOM     16  H   UNL A   1      31.699  29.629  21.703  1.00  0.00     0.164 HD
ATOM     17  O   UNL A   1      29.822  28.201  22.001  1.00  0.00    -0.267 OA
BRANCH  15  18
ATOM     18  C   UNL A   1      33.117  29.231  23.148  1.00  0.00     0.109 C 
ATOM     19  C   UNL A   1      34.243  28.357  22.580  1.00  0.00     0.036 C 
BRANCH  18  20
ATOM     20  C   UNL A   1      33.108  29.084  24.656  1.00  0.00    -0.026 A 
ATOM     21  C   UNL A   1      34.028  28.280  25.344  1.00  0.00     0.006 A 
ATOM     22  C   UNL A   1      32.182  29.831  25.409  1.00  0.00     0.006 A 
ATOM     23  C   UNL A   1      34.002  28.204  26.740  1.00  0.00     0.000 A 
ATOM     24  C   UNL A   1      32.157  29.752  26.803  1.00  0.00     0.000 A 
ATOM     25  C   UNL A   1      33.064  28.935  27.469  1.00  0.00     0.000 A 
ENDBRANCH  18  20
ENDBRANCH  15  18
ENDBRANCH   9  14
ENDBRANCH   5   8
ENDBRANCH   3   4
ENDBRANCH   2   3
ENDBRANCH   1   2
BRANCH   1  26
ATOM     26  C   UNL A   1      36.589  20.627  24.904  1.00  0.00     0.002 C 
BRANCH  26  27
ATOM     27  C   UNL A   1      37.759  19.645  25.001  1.00  0.00     0.021 C 
BRANCH  27  28
ATOM     28  C   UNL A   1      38.972  20.189  25.750  1.00  0.00     0.116 C 
BRANCH  28  29
ATOM     29  N   UNL A   1      40.033  19.197  25.832  1.00  0.00    -0.352 N 
ATOM     30  C   UNL A   1      41.386  19.378  25.967  1.00  0.00     0.251 C 
ATOM     31  H   UNL A   1      39.738  18.259  25.784  1.00  0.00     0.163 HD
ATOM     32  O   UNL A   1      42.157  18.445  25.753  1.00  0.00    -0.269 OA
BRANCH  30  33
ATOM     33  C   UNL A   1      41.924  20.695  26.367  1.00  0.00     0.039 A 
ATOM     34  C   UNL A   1      42.288  21.609  25.375  1.00  0.00     0.014 A 
ATOM     35  C   UNL A   1      42.108  21.012  27.716  1.00  0.00     0.014 A 
ATOM     36  C   UNL A   1      42.787  22.863  25.736  1.00  0.00     0.010 A 
ATOM     37  C   UNL A   1      42.545  22.284  28.076  1.00  0.00     0.010 A 
ATOM     38  C   UNL A   1      42.893  23.220  27.090  1.00  0.00    -0.014 A 
BRANCH  38  39
ATOM     39  C   UNL A   1      43.368  24.567  27.498  1.00  0.00     0.031 A 
ATOM     40  C   UNL A   1      42.379  25.634  27.874  1.00  0.00     0.074 A 
ATOM     41  C   UNL A   1      44.685  24.845  27.461  1.00  0.00     0.049 A 
ATOM     42  N   UNL A   1      42.590  26.893  28.169  1.00  0.00    -0.248 NA
ATOM     43  C   UNL A   1      40.960  25.243  27.898  1.00  0.00     0.031 C 
ATOM     44  C   UNL A   1      45.738  23.905  27.075  1.00  0.00     0.029 A 
ATOM     45  N   UNL A   1      45.362  26.006  27.738  1.00  0.00    -0.354 N 
ATOM     46  C   UNL A   1      41.336  27.444  28.396  1.00  0.00     0.074 A 
ATOM     47  C   UNL A   1      40.364  26.398  28.162  1.00  0.00     0.031 C 
ATOM     48  C   UNL A   1      46.928  24.521  27.152  1.00  0.00     0.029 A 
ATOM     49  C   UNL A   1      46.721  25.908  27.555  1.00  0.00     0.049 A 
ATOM     50  H   UNL A   1      44.918  26.831  28.040  1.00  0.00     0.167 HD
ATOM     51  C   UNL A   1      41.026  28.704  28.784  1.00  0.00     0.037 A 
ATOM     52  C   UNL A   1      47.687  26.837  27.686  1.00  0.00     0.037 A 
ATOM     53  C   UNL A   1      41.999  29.734  29.045  1.00  0.00     0.049 A 
ATOM     54  C   UNL A   1      47.312  28.230  28.113  1.00  0.00     0.074 A 
ATOM     55  C   UNL A   1      41.788  31.023  29.503  1.00  0.00     0.029 A 
ATOM     56  N   UNL A   1      43.367  29.590  28.869  1.00  0.00    -0.354 N 
ATOM     57  N   UNL A   1      46.128  28.722  28.388  1.00  0.00    -0.248 NA
ATOM     58  C   UNL A   1      48.409  29.198  28.252  1.00  0.00     0.031 C 
ATOM     59  C   UNL A   1      43.024  31.674  29.563  1.00  0.00     0.029 A 
ATOM     60  C   UNL A   1      44.010  30.775  29.190  1.00  0.00     0.049 A 
ATOM     61  H   UNL A   1      43.815  28.768  28.563  1.00  0.00     0.167 HD
ATOM     62  C   UNL A   1      46.341  30.042  28.761  1.00  0.00     0.074 A 
ATOM     63  C   UNL A   1      47.769  30.271  28.692  1.00  0.00     0.031 C 
ATOM     64  C   UNL A   1      45.434  30.981  29.127  1.00  0.00     0.037 A 
BRANCH  51  65
ATOM     65  C   UNL A   1      39.575  29.046  28.956  1.00  0.00     0.064 A 
ATOM     66  C   UNL A   1      38.774  29.419  27.866  1.00  0.00     0.173 A 
ATOM     67  C   UNL A   1      38.963  28.941  30.215  1.00  0.00     0.173 A 
ATOM     68  F   UNL A   1      39.311  29.544  26.644  1.00  0.00    -0.203 F 
ATOM     69  C   UNL A   1      37.420  29.697  28.035  1.00  0.00     0.198 A 
ATOM     70  C   UNL A   1      37.603  29.192  30.375  1.00  0.00     0.198 A 
ATOM     71  F   UNL A   1      39.684  28.583  31.289  1.00  0.00    -0.203 F 
ATOM     72  F   UNL A   1      36.682  30.091  26.987  1.00  0.00    -0.200 F 
ATOM     73  C   UNL A   1      36.834  29.575  29.286  1.00  0.00     0.200 A 
ATOM     74  F   UNL A   1      37.036  29.061  31.582  1.00  0.00    -0.200 F 
ATOM     75  F   UNL A   1      35.528  29.830  29.445  1.00  0.00    -0.200 F 
ENDBRANCH  51  65
BRANCH  52  76
ATOM     76  C   UNL A   1      49.106  26.480  27.425  1.00  0.00     0.064 A 
ATOM     77  C   UNL A   1      49.996  26.247  28.483  1.00  0.00     0.173 A 
ATOM     78  C   UNL A   1      49.606  26.383  26.118  1.00  0.00     0.173 A 
ATOM     79  F   UNL A   1      49.569  26.348  29.750  1.00  0.00    -0.203 F 
ATOM     80  C   UNL A   1      51.337  25.956  28.245  1.00  0.00     0.198 A 
ATOM     81  C   UNL A   1      50.942  26.063  25.881  1.00  0.00     0.198 A 
ATOM     82  F   UNL A   1      48.795  26.590  25.071  1.00  0.00    -0.203 F 
ATOM     83  F   UNL A   1      52.177  25.790  29.276  1.00  0.00    -0.200 F 
ATOM     84  C   UNL A   1      51.808  25.860  26.945  1.00  0.00     0.200 A 
ATOM     85  F   UNL A   1      51.389  25.957  24.623  1.00  0.00    -0.200 F 
ATOM     86  F   UNL A   1      53.099  25.582  26.716  1.00  0.00    -0.200 F 
ENDBRANCH  52  76
BRANCH  64  87
ATOM     87  C   UNL A   1      45.962  32.331  29.519  1.00  0.00     0.064 A 
ATOM     88  C   UNL A   1      46.054  33.382  28.594  1.00  0.00     0.173 A 
ATOM     89  C   UNL A   1      46.346  32.584  30.844  1.00  0.00     0.173 A 
ATOM     90  F   UNL A   1      45.714  33.184  27.312  1.00  0.00    -0.203 F 
ATOM     91  C   UNL A   1      46.535  34.630  28.977  1.00  0.00     0.198 A 
ATOM     92  C   UNL A   1      46.798  33.842  31.230  1.00  0.00     0.198 A 
ATOM     93  F   UNL A   1      46.271  31.614  31.767  1.00  0.00    -0.203 F 
ATOM     94  F   UNL A   1      46.660  35.606  28.068  1.00  0.00    -0.200 F 
ATOM     95  C   UNL A   1      46.899  34.862  30.296  1.00  0.00     0.200 A 
ATOM     96  F   UNL A   1      47.136  34.069  32.507  1.00  0.00    -0.200 F 
ATOM     97  F   UNL A   1      47.356  36.068  30.664  1.00  0.00    -0.200 F 
ENDBRANCH  64  87
ENDBRANCH  38  39
ENDBRANCH  30  33
ENDBRANCH  28  29
ENDBRANCH  27  28
ENDBRANCH  26  27
ENDBRANCH   1  26
TORSDOF 16
ENDMDL
MODEL 3
REMARK VINA RESULT:     -12.2      0.816      7.348
REMARK SMILES C[C@@H](NC(=O)c1cc(C(=O)NCCCCCCNC(=O)c2ccc(-c3c4nc(c(-c5c(F)c(F)c(F)c(F)c5F)c5ccc([nH]5)c(-c5c(F)c(F)c(F)c(F)c5F)c5nc(c(-c6c(F)c(F)c(F)c(F)c6F)c6ccc3[nH]6)C=C5)C=C4)cc2)n(C)n1)c1ccccc1
REMARK SMILES IDX 14 1 13 2 12 3 11 4 9 5 10 6 8 8 6 9 7 10 86 11 84 12 85 13
REMARK SMILES IDX 4 14 3 15 5 17 2 18 1 19 87 20 88 21 92 22 89 23 91 24 90 25
REMARK SMILES IDX 15 26 16 27 17 28 18 29 19 30 20 32 21 33 22 34 83 35 23 36
REMARK SMILES IDX 82 37 24 38 25 39 26 40 76 41 27 42 81 43 75 44 77 45 28 46
REMARK SMILES IDX 80 47 74 48 73 49 29 51 61 52 41 53 60 54 42 55 45 56 59 57
REMARK SMILES IDX 78 58 43 59 44 60 58 62 79 63 46 64 30 65 31 66 39 67 32 68
REMARK SMILES IDX 33 69 37 70 40 71 34 72 35 73 38 74 36 75 62 76 63 77 71 78
REMARK SMILES IDX 64 79 65 80 69 81 72 82 66 83 67 84 70 85 68 86 47 87 48 88
REMARK SMILES IDX 56 89 49 90 50 91 54 92 57 93 51 94 52 95 55 96 53 97
REMARK H PARENT 11 7 3 16 18 31 77 50 45 61
REMARK Flexibility Score: inf
ROOT
ATOM      1  C   UNL A   1      32.152  29.784  27.173  1.00  0.00     0.002 C 
ENDROOT
BRANCH   1   2
ATOM      2  C   UNL A   1      33.677  29.862  27.322  1.00  0.00     0.021 C 
BRANCH   2   3
ATOM      3  C   UNL A   1      34.429  28.684  26.696  1.00  0.00     0.116 C 
BRANCH   3   4
ATOM      4  N   UNL A   1      34.361  28.727  25.258  1.00  0.00    -0.351 N 
ATOM      5  C   UNL A   1      33.608  28.122  24.296  1.00  0.00     0.269 C 
ATOM      6  O   UNL A   1      33.816  28.598  23.171  1.00  0.00    -0.268 OA
ATOM      7  H   UNL A   1      35.024  29.347  24.876  1.00  0.00     0.163 HD
BRANCH   5   8
ATOM      8  C   UNL A   1      32.652  27.042  24.464  1.00  0.00     0.126 A 
ATOM      9  C   UNL A   1      31.823  25.146  25.366  1.00  0.00     0.151 A 
ATOM     10  C   UNL A   1      33.004  25.873  25.149  1.00  0.00     0.069 A 
ATOM     11  N   UNL A   1      30.824  25.683  24.659  1.00  0.00    -0.167 NA
ATOM     12  N   UNL A   1      31.307  26.862  24.219  1.00  0.00    -0.262 N 
ATOM     13  C   UNL A   1      30.287  27.748  23.723  1.00  0.00     0.174 C 
BRANCH   9  14
ATOM     14  C   UNL A   1      31.580  24.004  26.232  1.00  0.00     0.272 C 
ATOM     15  N   UNL A   1      32.231  22.820  25.984  1.00  0.00    -0.344 N 
ATOM     16  H   UNL A   1      32.366  22.275  26.792  1.00  0.00     0.164 HD
ATOM     17  O   UNL A   1      30.888  24.079  27.251  1.00  0.00    -0.267 OA
BRANCH  15  18
ATOM     18  C   UNL A   1      32.767  22.196  24.770  1.00  0.00     0.109 C 
ATOM     19  C   UNL A   1      32.161  20.792  24.632  1.00  0.00     0.036 C 
BRANCH  18  20
ATOM     20  C   UNL A   1      34.269  22.090  24.597  1.00  0.00    -0.026 A 
ATOM     21  C   UNL A   1      35.035  21.095  25.221  1.00  0.00     0.006 A 
ATOM     22  C   UNL A   1      34.920  22.983  23.725  1.00  0.00     0.006 A 
ATOM     23  C   UNL A   1      36.414  21.017  25.001  1.00  0.00     0.000 A 
ATOM     24  C   UNL A   1      36.296  22.905  23.509  1.00  0.00     0.000 A 
ATOM     25  C   UNL A   1      37.045  21.924  24.151  1.00  0.00     0.000 A 
ENDBRANCH  18  20
ENDBRANCH  15  18
ENDBRANCH   9  14
ENDBRANCH   5   8
ENDBRANCH   3   4
ENDBRANCH   2   3
ENDBRANCH   1   2
BRANCH   1  26
ATOM     26  C   UNL A   1      31.534  30.843  26.250  1.00  0.00     0.002 C 
BRANCH  26  27
ATOM     27  C   UNL A   1      31.403  32.241  26.860  1.00  0.00     0.021 C 
BRANCH  27  28
ATOM     28  C   UNL A   1      32.705  33.037  26.886  1.00  0.00     0.116 C 
BRANCH  28  29
ATOM     29  N   UNL A   1      32.551  34.280  27.626  1.00  0.00    -0.352 N 
ATOM     30  C   UNL A   1      33.119  34.663  28.815  1.00  0.00     0.251 C 
ATOM     31  H   UNL A   1      31.953  34.944  27.214  1.00  0.00     0.163 HD
ATOM     32  O   UNL A   1      32.676  35.632  29.425  1.00  0.00    -0.269 OA
BRANCH  30  33
ATOM     33  C   UNL A   1      34.264  33.909  29.368  1.00  0.00     0.039 A 
ATOM     34  C   UNL A   1      35.561  34.318  29.052  1.00  0.00     0.014 A 
ATOM     35  C   UNL A   1      34.058  32.779  30.164  1.00  0.00     0.014 A 
ATOM     36  C   UNL A   1      36.655  33.624  29.576  1.00  0.00     0.010 A 
ATOM     37  C   UNL A   1      35.147  32.127  30.738  1.00  0.00     0.010 A 
ATOM     38  C   UNL A   1      36.455  32.540  30.446  1.00  0.00    -0.014 A 
BRANCH  38  39
ATOM     39  C   UNL A   1      37.601  31.823  31.060  1.00  0.00     0.031 A 
ATOM     40  C   UNL A   1      38.070  32.189  32.440  1.00  0.00     0.074 A 
ATOM     41  C   UNL A   1      38.259  30.890  30.346  1.00  0.00     0.049 A 
ATOM     42  N   UNL A   1      39.104  31.745  33.109  1.00  0.00    -0.248 NA
ATOM     43  C   UNL A   1      37.288  33.211  33.155  1.00  0.00     0.031 C 
ATOM     44  C   UNL A   1      37.924  30.475  28.983  1.00  0.00     0.029 A 
ATOM     45  N   UNL A   1      39.359  30.132  30.661  1.00  0.00    -0.354 N 
ATOM     46  C   UNL A   1      39.106  32.441  34.310  1.00  0.00     0.074 A 
ATOM     47  C   UNL A   1      37.998  33.371  34.263  1.00  0.00     0.031 C 
ATOM     48  C   UNL A   1      38.790  29.530  28.584  1.00  0.00     0.029 A 
ATOM     49  C   UNL A   1      39.763  29.299  29.646  1.00  0.00     0.049 A 
ATOM     50  H   UNL A   1      39.815  30.180  31.533  1.00  0.00     0.167 HD
ATOM     51  C   UNL A   1      39.945  32.303  35.365  1.00  0.00     0.037 A 
ATOM     52  C   UNL A   1      40.810  28.453  29.578  1.00  0.00     0.037 A 
ATOM     53  C   UNL A   1      41.027  31.355  35.419  1.00  0.00     0.049 A 
ATOM     54  C   UNL A   1      41.728  28.325  30.763  1.00  0.00     0.074 A 
ATOM     55  C   UNL A   1      41.893  31.095  36.468  1.00  0.00     0.029 A 
ATOM     56  N   UNL A   1      41.392  30.513  34.380  1.00  0.00    -0.354 N 
ATOM     57  N   UNL A   1      41.680  28.942  31.919  1.00  0.00    -0.248 NA
ATOM     58  C   UNL A   1      42.844  27.378  30.636  1.00  0.00     0.031 C 
ATOM     59  C   UNL A   1      42.810  30.126  36.048  1.00  0.00     0.029 A 
ATOM     60  C   UNL A   1      42.485  29.747  34.756  1.00  0.00     0.049 A 
ATOM     61  H   UNL A   1      40.942  30.466  33.505  1.00  0.00     0.167 HD
ATOM     62  C   UNL A   1      42.737  28.437  32.664  1.00  0.00     0.074 A 
ATOM     63  C   UNL A   1      43.400  27.452  31.836  1.00  0.00     0.031 C 
ATOM     64  C   UNL A   1      43.125  28.762  33.922  1.00  0.00     0.037 A 
BRANCH  51  65
ATOM     65  C   UNL A   1      39.726  33.193  36.553  1.00  0.00     0.064 A 
ATOM     66  C   UNL A   1      40.400  34.416  36.689  1.00  0.00     0.173 A 
ATOM     67  C   UNL A   1      38.789  32.848  37.539  1.00  0.00     0.173 A 
ATOM     68  F   UNL A   1      41.313  34.788  35.780  1.00  0.00    -0.203 F 
ATOM     69  C   UNL A   1      40.160  35.249  37.779  1.00  0.00     0.198 A 
ATOM     70  C   UNL A   1      38.530  33.696  38.612  1.00  0.00     0.198 A 
ATOM     71  F   UNL A   1      38.114  31.691  37.454  1.00  0.00    -0.203 F 
ATOM     72  F   UNL A   1      40.844  36.395  37.908  1.00  0.00    -0.200 F 
ATOM     73  C   UNL A   1      39.219  34.893  38.734  1.00  0.00     0.200 A 
ATOM     74  F   UNL A   1      37.612  33.357  39.527  1.00  0.00    -0.200 F 
ATOM     75  F   UNL A   1      38.980  35.702  39.775  1.00  0.00    -0.200 F 
ENDBRANCH  51  65
BRANCH  52  76
ATOM     76  C   UNL A   1      41.041  27.650  28.349  1.00  0.00     0.064 A 
ATOM     77  C   UNL A   1      40.424  26.402  28.179  1.00  0.00     0.173 A 
ATOM     78  C   UNL A   1      41.893  28.100  27.330  1.00  0.00     0.173 A 
ATOM     79  F   UNL A   1      39.616  25.920  29.135  1.00  0.00    -0.203 F 
ATOM     80  C   UNL A   1      40.671  25.624  27.050  1.00  0.00     0.198 A 
ATOM     81  C   UNL A   1      42.116  27.334  26.188  1.00  0.00     0.198 A 
ATOM     82  F   UNL A   1      42.502  29.289  27.441  1.00  0.00    -0.203 F 
ATOM     83  F   UNL A   1      40.110  24.413  26.939  1.00  0.00    -0.200 F 
ATOM     84  C   UNL A   1      41.514  26.092  26.054  1.00  0.00     0.200 A 
ATOM     85  F   UNL A   1      42.920  27.797  25.221  1.00  0.00    -0.200 F 
ATOM     86  F   UNL A   1      41.753  25.343  24.968  1.00  0.00    -0.200 F 
ENDBRANCH  52  76
BRANCH  64  87
ATOM     87  C   UNL A   1      44.296  28.017  34.494  1.00  0.00     0.064 A 
ATOM     88  C   UNL A   1      44.134  26.796  35.165  1.00  0.00     0.173 A 
ATOM     89  C   UNL A   1      45.597  28.515  34.336  1.00  0.00     0.173 A 
ATOM     90  F   UNL A   1      42.908  26.287  35.355  1.00  0.00    -0.203 F 
ATOM     91  C   UNL A   1      45.233  26.112  35.678  1.00  0.00     0.198 A 
ATOM     92  C   UNL A   1      46.696  27.814  34.825  1.00  0.00     0.198 A 
ATOM     93  F   UNL A   1      45.805  29.676  33.697  1.00  0.00    -0.203 F 
ATOM     94  F   UNL A   1      45.052  24.971  36.357  1.00  0.00    -0.200 F 
ATOM     95  C   UNL A   1      46.512  26.617  35.501  1.00  0.00     0.200 A 
ATOM     96  F   UNL A   1      47.933  28.296  34.641  1.00  0.00    -0.200 F 
ATOM     97  F   UNL A   1      47.570  25.954  35.991  1.00  0.00    -0.200 F 
ENDBRANCH  64  87
ENDBRANCH  38  39
ENDBRANCH  30  33
ENDBRANCH  28  29
ENDBRANCH  27  28
ENDBRANCH  26  27
ENDBRANCH   1  26
TORSDOF 16
ENDMDL
