MODEL 1
REMARK VINA RESULT:     -12.6      0.000      0.000
REMARK SMILES NC(=O)C[C@H](C(=O)NCCCCCCNC(=O)c1ccc(-c2c3nc(c(-c4c(F)c(F)c(F)c(F)c4F)c4ccc([nH]4)c(-c4c(F)c(F)c(F)c(F)c4F)c4nc(c(-c5c(F)c(F)c(F)c(F)c5F)c5ccc2[nH]5)C=C4)C=C3)cc1)N1C(=O)/C(=C/c2ccccc2)SC1=S
REMARK SMILES IDX 11 1 10 2 9 3 8 4 6 5 7 6 5 8 4 9 2 10 1 11 3 14 81 15 82 16
REMARK SMILES IDX 93 17 83 18 84 19 92 20 94 21 85 22 86 23 87 24 91 25 88 26
REMARK SMILES IDX 90 27 89 28 12 29 13 30 14 31 15 32 16 33 17 35 18 36 19 37
REMARK SMILES IDX 80 38 20 39 79 40 21 41 22 42 23 43 73 44 24 45 78 46 72 47
REMARK SMILES IDX 74 48 25 49 77 50 71 51 70 52 26 54 58 55 38 56 57 57 39 58
REMARK SMILES IDX 42 59 56 60 75 61 40 62 41 63 55 65 76 66 43 67 27 68 28 69
REMARK SMILES IDX 36 70 29 71 30 72 34 73 37 74 31 75 32 76 35 77 33 78 59 79
REMARK SMILES IDX 60 80 68 81 61 82 62 83 66 84 69 85 63 86 64 87 67 88 65 89
REMARK SMILES IDX 44 90 45 91 53 92 46 93 47 94 51 95 54 96 48 97 49 98 52 99
REMARK SMILES IDX 50 100
REMARK H PARENT 8 7 1 12 1 13 15 34 74 53 42 64
REMARK Flexibility Score: inf
ROOT
ATOM      1  C   UNL A   1      32.188  29.524  26.973  1.00  0.00     0.002 C 
ENDROOT
BRANCH   1   2
ATOM      2  C   UNL A   1      31.426  28.197  27.046  1.00  0.00     0.021 C 
BRANCH   2   3
ATOM      3  C   UNL A   1      32.301  26.953  26.869  1.00  0.00     0.116 C 
BRANCH   3   4
ATOM      4  N   UNL A   1      31.485  25.756  26.962  1.00  0.00    -0.354 N 
ATOM      5  C   UNL A   1      30.998  24.907  26.022  1.00  0.00     0.243 C 
ATOM      6  O   UNL A   1      30.263  23.993  26.414  1.00  0.00    -0.273 OA
ATOM      7  H   UNL A   1      31.237  25.514  27.884  1.00  0.00     0.163 HD
BRANCH   5   8
ATOM      8  C   UNL A   1      31.333  25.016  24.519  1.00  0.00     0.190 C 
BRANCH   8   9
ATOM      9  C   UNL A   1      30.971  23.790  23.662  1.00  0.00     0.135 C 
BRANCH   9  10
ATOM     10  C   UNL A   1      32.034  22.777  23.321  1.00  0.00     0.220 C 
ATOM     11  N   UNL A   1      31.942  22.115  22.141  1.00  0.00    -0.370 N 
ATOM     12  H   UNL A   1      32.625  21.449  21.896  1.00  0.00     0.159 HD
ATOM     13  H   UNL A   1      31.194  22.301  21.529  1.00  0.00     0.159 HD
ATOM     14  O   UNL A   1      32.928  22.499  24.119  1.00  0.00    -0.275 OA
ENDBRANCH   9  10
ENDBRANCH   8   9
BRANCH   8  15
ATOM     15  N   UNL A   1      31.051  26.340  23.867  1.00  0.00    -0.280 N 
ATOM     16  C   UNL A   1      29.772  26.888  23.867  1.00  0.00     0.266 C 
ATOM     17  C   UNL A   1      32.034  27.172  23.348  1.00  0.00     0.149 C 
ATOM     18  O   UNL A   1      28.752  26.404  24.326  1.00  0.00    -0.268 OA
ATOM     19  C   UNL A   1      29.763  28.232  23.228  1.00  0.00     0.081 C 
ATOM     20  S   UNL A   1      31.318  28.613  22.637  1.00  0.00    -0.054 SA
ATOM     21  S   UNL A   1      33.693  26.980  23.344  1.00  0.00    -0.052 S 
ATOM     22  C   UNL A   1      28.654  28.985  23.197  1.00  0.00     0.029 C 
BRANCH  22  23
ATOM     23  C   UNL A   1      28.508  30.300  22.565  1.00  0.00    -0.024 A 
ATOM     24  C   UNL A   1      28.700  31.463  23.319  1.00  0.00     0.008 A 
ATOM     25  C   UNL A   1      28.106  30.411  21.227  1.00  0.00     0.008 A 
ATOM     26  C   UNL A   1      28.511  32.719  22.738  1.00  0.00     0.001 A 
ATOM     27  C   UNL A   1      27.919  31.666  20.648  1.00  0.00     0.001 A 
ATOM     28  C   UNL A   1      28.121  32.820  21.402  1.00  0.00     0.000 A 
ENDBRANCH  22  23
ENDBRANCH   8  15
ENDBRANCH   5   8
ENDBRANCH   3   4
ENDBRANCH   2   3
ENDBRANCH   1   2
BRANCH   1  29
ATOM     29  C   UNL A   1      31.645  30.516  25.947  1.00  0.00     0.002 C 
BRANCH  29  30
ATOM     30  C   UNL A   1      31.396  31.924  26.490  1.00  0.00     0.021 C 
BRANCH  30  31
ATOM     31  C   UNL A   1      32.587  32.543  27.214  1.00  0.00     0.116 C 
BRANCH  31  32
ATOM     32  N   UNL A   1      32.385  33.962  27.467  1.00  0.00    -0.352 N 
ATOM     33  C   UNL A   1      32.966  34.742  28.435  1.00  0.00     0.251 C 
ATOM     34  H   UNL A   1      31.751  34.418  26.869  1.00  0.00     0.163 HD
ATOM     35  O   UNL A   1      32.528  35.857  28.694  1.00  0.00    -0.269 OA
BRANCH  33  36
ATOM     36  C   UNL A   1      34.130  34.212  29.171  1.00  0.00     0.039 A 
ATOM     37  C   UNL A   1      33.920  33.385  30.276  1.00  0.00     0.014 A 
ATOM     38  C   UNL A   1      35.427  34.521  28.749  1.00  0.00     0.014 A 
ATOM     39  C   UNL A   1      35.017  32.827  30.932  1.00  0.00     0.010 A 
ATOM     40  C   UNL A   1      36.515  33.906  29.359  1.00  0.00     0.010 A 
ATOM     41  C   UNL A   1      36.321  33.062  30.462  1.00  0.00    -0.014 A 
BRANCH  41  42
ATOM     42  C   UNL A   1      37.495  32.442  31.125  1.00  0.00     0.031 A 
ATOM     43  C   UNL A   1      38.242  31.330  30.443  1.00  0.00     0.074 A 
ATOM     44  C   UNL A   1      37.856  32.844  32.359  1.00  0.00     0.049 A 
ATOM     45  N   UNL A   1      39.259  30.627  30.875  1.00  0.00    -0.248 NA
ATOM     46  C   UNL A   1      37.768  30.937  29.107  1.00  0.00     0.031 C 
ATOM     47  C   UNL A   1      37.178  33.879  33.140  1.00  0.00     0.029 A 
ATOM     48  N   UNL A   1      38.874  32.422  33.176  1.00  0.00    -0.354 N 
ATOM     49  C   UNL A   1      39.538  29.710  29.870  1.00  0.00     0.074 A 
ATOM     50  C   UNL A   1      38.546  29.900  28.835  1.00  0.00     0.031 C 
ATOM     51  C   UNL A   1      37.812  34.027  34.314  1.00  0.00     0.029 A 
ATOM     52  C   UNL A   1      38.914  33.072  34.386  1.00  0.00     0.049 A 
ATOM     53  H   UNL A   1      39.516  31.720  32.920  1.00  0.00     0.167 HD
ATOM     54  C   UNL A   1      40.548  28.810  29.805  1.00  0.00     0.037 A 
ATOM     55  C   UNL A   1      39.740  32.907  35.437  1.00  0.00     0.037 A 
ATOM     56  C   UNL A   1      41.539  28.633  30.834  1.00  0.00     0.049 A 
ATOM     57  C   UNL A   1      40.841  31.884  35.347  1.00  0.00     0.074 A 
ATOM     58  C   UNL A   1      42.630  27.782  30.845  1.00  0.00     0.029 A 
ATOM     59  N   UNL A   1      41.554  29.318  32.041  1.00  0.00    -0.354 N 
ATOM     60  N   UNL A   1      41.140  31.072  34.363  1.00  0.00    -0.248 NA
ATOM     61  C   UNL A   1      41.727  31.763  36.513  1.00  0.00     0.031 C 
ATOM     62  C   UNL A   1      43.272  27.910  32.081  1.00  0.00     0.029 A 
ATOM     63  C   UNL A   1      42.621  28.890  32.814  1.00  0.00     0.049 A 
ATOM     64  H   UNL A   1      40.903  30.007  32.307  1.00  0.00     0.167 HD
ATOM     65  C   UNL A   1      42.262  30.365  34.776  1.00  0.00     0.074 A 
ATOM     66  C   UNL A   1      42.601  30.859  36.095  1.00  0.00     0.031 C 
ATOM     67  C   UNL A   1      42.948  29.396  34.124  1.00  0.00     0.037 A 
BRANCH  54  68
ATOM     68  C   UNL A   1      40.632  27.948  28.576  1.00  0.00     0.064 A 
ATOM     69  C   UNL A   1      41.394  28.329  27.460  1.00  0.00     0.173 A 
ATOM     70  C   UNL A   1      39.972  26.711  28.525  1.00  0.00     0.173 A 
ATOM     71  F   UNL A   1      42.038  29.506  27.452  1.00  0.00    -0.203 F 
ATOM     72  C   UNL A   1      41.466  27.520  26.329  1.00  0.00     0.198 A 
ATOM     73  C   UNL A   1      40.073  25.889  27.406  1.00  0.00     0.198 A 
ATOM     74  F   UNL A   1      39.234  26.295  29.565  1.00  0.00    -0.203 F 
ATOM     75  F   UNL A   1      42.155  27.931  25.256  1.00  0.00    -0.200 F 
ATOM     76  C   UNL A   1      40.811  26.297  26.306  1.00  0.00     0.200 A 
ATOM     77  F   UNL A   1      39.453  24.701  27.391  1.00  0.00    -0.200 F 
ATOM     78  F   UNL A   1      40.887  25.516  25.220  1.00  0.00    -0.200 F 
ENDBRANCH  54  68
BRANCH  55  79
ATOM     79  C   UNL A   1      39.566  33.739  36.656  1.00  0.00     0.064 A 
ATOM     80  C   UNL A   1      38.791  33.289  37.736  1.00  0.00     0.173 A 
ATOM     81  C   UNL A   1      40.164  35.003  36.768  1.00  0.00     0.173 A 
ATOM     82  F   UNL A   1      38.184  32.096  37.671  1.00  0.00    -0.203 F 
ATOM     83  C   UNL A   1      38.600  34.081  38.865  1.00  0.00     0.198 A 
ATOM     84  C   UNL A   1      39.999  35.781  37.912  1.00  0.00     0.198 A 
ATOM     85  F   UNL A   1      40.920  35.479  35.768  1.00  0.00    -0.203 F 
ATOM     86  F   UNL A   1      37.811  33.649  39.859  1.00  0.00    -0.200 F 
ATOM     87  C   UNL A   1      39.209  35.324  38.955  1.00  0.00     0.200 A 
ATOM     88  F   UNL A   1      40.603  36.974  38.001  1.00  0.00    -0.200 F 
ATOM     89  F   UNL A   1      39.027  36.085  40.043  1.00  0.00    -0.200 F 
ENDBRANCH  55  79
BRANCH  67  90
ATOM     90  C   UNL A   1      44.160  28.829  34.808  1.00  0.00     0.064 A 
ATOM     91  C   UNL A   1      45.430  29.406  34.661  1.00  0.00     0.173 A 
ATOM     92  C   UNL A   1      44.038  27.716  35.654  1.00  0.00     0.173 A 
ATOM     93  F   UNL A   1      45.603  30.463  33.853  1.00  0.00    -0.203 F 
ATOM     94  C   UNL A   1      46.538  28.871  35.312  1.00  0.00     0.198 A 
ATOM     95  C   UNL A   1      45.142  27.205  36.332  1.00  0.00     0.198 A 
ATOM     96  F   UNL A   1      42.845  27.130  35.836  1.00  0.00    -0.203 F 
ATOM     97  F   UNL A   1      47.752  29.406  35.115  1.00  0.00    -0.200 F 
ATOM     98  C   UNL A   1      46.392  27.777  36.154  1.00  0.00     0.200 A 
ATOM     99  F   UNL A   1      44.995  26.160  37.158  1.00  0.00    -0.200 F 
ATOM    100  F   UNL A   1      47.459  27.270  36.787  1.00  0.00    -0.200 F 
ENDBRANCH  67  90
ENDBRANCH  41  42
ENDBRANCH  33  36
ENDBRANCH  31  32
ENDBRANCH  30  31
ENDBRANCH  29  30
ENDBRANCH   1  29
TORSDOF 17
ENDMDL
MODEL 2
REMARK VINA RESULT:     -12.4      0.566      7.305
REMARK SMILES NC(=O)C[C@H](C(=O)NCCCCCCNC(=O)c1ccc(-c2c3nc(c(-c4c(F)c(F)c(F)c(F)c4F)c4ccc([nH]4)c(-c4c(F)c(F)c(F)c(F)c4F)c4nc(c(-c5c(F)c(F)c(F)c(F)c5F)c5ccc2[nH]5)C=C4)C=C3)cc1)N1C(=O)/C(=C/c2ccccc2)SC1=S
REMARK SMILES IDX 11 1 10 2 9 3 8 4 6 5 7 6 5 8 4 9 2 10 1 11 3 14 81 15 82 16
REMARK SMILES IDX 93 17 83 18 84 19 92 20 94 21 85 22 86 23 87 24 91 25 88 26
REMARK SMILES IDX 90 27 89 28 12 29 13 30 14 31 15 32 16 33 17 35 18 36 19 37
REMARK SMILES IDX 80 38 20 39 79 40 21 41 22 42 23 43 73 44 24 45 78 46 72 47
REMARK SMILES IDX 74 48 25 49 77 50 71 51 70 52 26 54 58 55 38 56 57 57 39 58
REMARK SMILES IDX 42 59 56 60 75 61 40 62 41 63 55 65 76 66 43 67 27 68 28 69
REMARK SMILES IDX 36 70 29 71 30 72 34 73 37 74 31 75 32 76 35 77 33 78 59 79
REMARK SMILES IDX 60 80 68 81 61 82 62 83 66 84 69 85 63 86 64 87 67 88 65 89
REMARK SMILES IDX 44 90 45 91 53 92 46 93 47 94 51 95 54 96 48 97 49 98 52 99
REMARK SMILES IDX 50 100
REMARK H PARENT 8 7 1 12 1 13 15 34 74 53 42 64
REMARK Flexibility Score: inf
ROOT
ATOM      1  C   UNL A   1      32.139  29.489  26.978  1.00  0.00     0.002 C 
ENDROOT
BRANCH   1   2
ATOM      2  C   UNL A   1      31.399  28.149  27.061  1.00  0.00     0.021 C 
BRANCH   2   3
ATOM      3  C   UNL A   1      32.281  26.922  26.814  1.00  0.00     0.116 C 
BRANCH   3   4
ATOM      4  N   UNL A   1      31.477  25.714  26.876  1.00  0.00    -0.354 N 
ATOM      5  C   UNL A   1      31.006  24.880  25.916  1.00  0.00     0.243 C 
ATOM      6  O   UNL A   1      30.278  23.950  26.283  1.00  0.00    -0.273 OA
ATOM      7  H   UNL A   1      31.227  25.450  27.791  1.00  0.00     0.163 HD
BRANCH   5   8
ATOM      8  C   UNL A   1      31.347  25.025  24.417  1.00  0.00     0.190 C 
BRANCH   8   9
ATOM      9  C   UNL A   1      31.006  23.813  23.532  1.00  0.00     0.135 C 
BRANCH   9  10
ATOM     10  C   UNL A   1      32.115  23.038  22.867  1.00  0.00     0.220 C 
ATOM     11  N   UNL A   1      32.152  21.693  23.030  1.00  0.00    -0.370 N 
ATOM     12  H   UNL A   1      32.866  21.165  22.605  1.00  0.00     0.159 HD
ATOM     13  H   UNL A   1      31.464  21.243  23.572  1.00  0.00     0.159 HD
ATOM     14  O   UNL A   1      33.009  23.612  22.248  1.00  0.00    -0.275 OA
ENDBRANCH   9  10
ENDBRANCH   8   9
BRANCH   8  15
ATOM     15  N   UNL A   1      31.050  26.359  23.791  1.00  0.00    -0.280 N 
ATOM     16  C   UNL A   1      29.764  26.891  23.796  1.00  0.00     0.266 C 
ATOM     17  C   UNL A   1      32.025  27.214  23.295  1.00  0.00     0.149 C 
ATOM     18  O   UNL A   1      28.749  26.384  24.240  1.00  0.00    -0.268 OA
ATOM     19  C   UNL A   1      29.741  28.247  23.185  1.00  0.00     0.081 C 
ATOM     20  S   UNL A   1      31.294  28.661  22.610  1.00  0.00    -0.054 SA
ATOM     21  S   UNL A   1      33.687  27.044  23.294  1.00  0.00    -0.052 S 
ATOM     22  C   UNL A   1      28.623  28.986  23.165  1.00  0.00     0.029 C 
BRANCH  22  23
ATOM     23  C   UNL A   1      28.462  30.313  22.559  1.00  0.00    -0.024 A 
ATOM     24  C   UNL A   1      28.609  31.462  23.345  1.00  0.00     0.008 A 
ATOM     25  C   UNL A   1      28.093  30.446  21.215  1.00  0.00     0.008 A 
ATOM     26  C   UNL A   1      28.406  32.726  22.788  1.00  0.00     0.001 A 
ATOM     27  C   UNL A   1      27.891  31.709  20.659  1.00  0.00     0.001 A 
ATOM     28  C   UNL A   1      28.048  32.850  21.446  1.00  0.00     0.000 A 
ENDBRANCH  22  23
ENDBRANCH   8  15
ENDBRANCH   5   8
ENDBRANCH   3   4
ENDBRANCH   2   3
ENDBRANCH   1   2
BRANCH   1  29
ATOM     29  C   UNL A   1      31.551  30.480  25.976  1.00  0.00     0.002 C 
BRANCH  29  30
ATOM     30  C   UNL A   1      31.403  31.908  26.504  1.00  0.00     0.021 C 
BRANCH  30  31
ATOM     31  C   UNL A   1      32.624  32.437  27.248  1.00  0.00     0.116 C 
BRANCH  31  32
ATOM     32  N   UNL A   1      32.502  33.857  27.542  1.00  0.00    -0.352 N 
ATOM     33  C   UNL A   1      33.143  34.581  28.515  1.00  0.00     0.251 C 
ATOM     34  H   UNL A   1      31.881  34.361  26.970  1.00  0.00     0.163 HD
ATOM     35  O   UNL A   1      32.769  35.710  28.812  1.00  0.00    -0.269 OA
BRANCH  33  36
ATOM     36  C   UNL A   1      34.293  33.972  29.213  1.00  0.00     0.039 A 
ATOM     37  C   UNL A   1      34.063  33.153  30.319  1.00  0.00     0.014 A 
ATOM     38  C   UNL A   1      35.593  34.200  28.752  1.00  0.00     0.014 A 
ATOM     39  C   UNL A   1      35.142  32.521  30.938  1.00  0.00     0.010 A 
ATOM     40  C   UNL A   1      36.657  33.511  29.324  1.00  0.00     0.010 A 
ATOM     41  C   UNL A   1      36.444  32.675  30.429  1.00  0.00    -0.014 A 
BRANCH  41  42
ATOM     42  C   UNL A   1      37.595  31.976  31.051  1.00  0.00     0.031 A 
ATOM     43  C   UNL A   1      38.051  32.359  32.432  1.00  0.00     0.074 A 
ATOM     44  C   UNL A   1      38.261  31.034  30.355  1.00  0.00     0.049 A 
ATOM     45  N   UNL A   1      39.063  31.904  33.127  1.00  0.00    -0.248 NA
ATOM     46  C   UNL A   1      37.282  33.412  33.112  1.00  0.00     0.031 C 
ATOM     47  C   UNL A   1      37.943  30.612  28.990  1.00  0.00     0.029 A 
ATOM     48  N   UNL A   1      39.349  30.270  30.695  1.00  0.00    -0.354 N 
ATOM     49  C   UNL A   1      39.054  32.619  34.317  1.00  0.00     0.074 A 
ATOM     50  C   UNL A   1      37.978  33.581  34.226  1.00  0.00     0.031 C 
ATOM     51  C   UNL A   1      38.802  29.650  28.617  1.00  0.00     0.029 A 
ATOM     52  C   UNL A   1      39.755  29.416  29.698  1.00  0.00     0.049 A 
ATOM     53  H   UNL A   1      39.796  30.329  31.570  1.00  0.00     0.167 HD
ATOM     54  C   UNL A   1      39.853  32.466  35.400  1.00  0.00     0.037 A 
ATOM     55  C   UNL A   1      40.786  28.551  29.659  1.00  0.00     0.037 A 
ATOM     56  C   UNL A   1      40.915  31.498  35.489  1.00  0.00     0.049 A 
ATOM     57  C   UNL A   1      41.673  28.416  30.867  1.00  0.00     0.074 A 
ATOM     58  C   UNL A   1      41.752  31.232  36.557  1.00  0.00     0.029 A 
ATOM     59  N   UNL A   1      41.290  30.642  34.463  1.00  0.00    -0.354 N 
ATOM     60  N   UNL A   1      41.612  29.047  32.016  1.00  0.00    -0.248 NA
ATOM     61  C   UNL A   1      42.769  27.441  30.778  1.00  0.00     0.031 C 
ATOM     62  C   UNL A   1      42.671  30.254  36.160  1.00  0.00     0.029 A 
ATOM     63  C   UNL A   1      42.363  29.864  34.865  1.00  0.00     0.049 A 
ATOM     64  H   UNL A   1      40.856  30.594  33.580  1.00  0.00     0.167 HD
ATOM     65  C   UNL A   1      42.637  28.526  32.794  1.00  0.00     0.074 A 
ATOM     66  C   UNL A   1      43.295  27.514  31.992  1.00  0.00     0.031 C 
ATOM     67  C   UNL A   1      43.002  28.856  34.057  1.00  0.00     0.037 A 
BRANCH  54  68
ATOM     68  C   UNL A   1      39.607  33.367  36.578  1.00  0.00     0.064 A 
ATOM     69  C   UNL A   1      38.745  32.994  37.622  1.00  0.00     0.173 A 
ATOM     70  C   UNL A   1      40.264  34.601  36.683  1.00  0.00     0.173 A 
ATOM     71  F   UNL A   1      38.083  31.828  37.569  1.00  0.00    -0.203 F 
ATOM     72  C   UNL A   1      38.528  33.837  38.709  1.00  0.00     0.198 A 
ATOM     73  C   UNL A   1      40.071  35.426  37.788  1.00  0.00     0.198 A 
ATOM     74  F   UNL A   1      41.103  35.006  35.716  1.00  0.00    -0.203 F 
ATOM     75  F   UNL A   1      37.659  33.482  39.666  1.00  0.00    -0.200 F 
ATOM     76  C   UNL A   1      39.197  35.049  38.795  1.00  0.00     0.200 A 
ATOM     77  F   UNL A   1      40.730  36.590  37.876  1.00  0.00    -0.200 F 
ATOM     78  F   UNL A   1      38.992  35.855  39.845  1.00  0.00    -0.200 F 
ENDBRANCH  54  68
BRANCH  55  79
ATOM     79  C   UNL A   1      41.026  27.736  28.439  1.00  0.00     0.064 A 
ATOM     80  C   UNL A   1      41.911  28.170  27.441  1.00  0.00     0.173 A 
ATOM     81  C   UNL A   1      40.373  26.510  28.241  1.00  0.00     0.173 A 
ATOM     82  F   UNL A   1      42.546  29.343  27.574  1.00  0.00    -0.203 F 
ATOM     83  C   UNL A   1      42.111  27.423  26.282  1.00  0.00     0.198 A 
ATOM     84  C   UNL A   1      40.600  25.749  27.097  1.00  0.00     0.198 A 
ATOM     85  F   UNL A   1      39.522  26.045  29.167  1.00  0.00    -0.203 F 
ATOM     86  F   UNL A   1      42.921  27.887  25.320  1.00  0.00    -0.200 F 
ATOM     87  C   UNL A   1      41.461  26.210  26.113  1.00  0.00     0.200 A 
ATOM     88  F   UNL A   1      39.981  24.569  26.947  1.00  0.00    -0.200 F 
ATOM     89  F   UNL A   1      41.657  25.491  25.000  1.00  0.00    -0.200 F 
ENDBRANCH  55  79
BRANCH  67  90
ATOM     90  C   UNL A   1      44.141  28.090  34.668  1.00  0.00     0.064 A 
ATOM     91  C   UNL A   1      43.946  26.854  35.301  1.00  0.00     0.173 A 
ATOM     92  C   UNL A   1      45.453  28.583  34.582  1.00  0.00     0.173 A 
ATOM     93  F   UNL A   1      42.711  26.344  35.422  1.00  0.00    -0.203 F 
ATOM     94  C   UNL A   1      45.017  26.155  35.852  1.00  0.00     0.198 A 
ATOM     95  C   UNL A   1      46.526  27.865  35.103  1.00  0.00     0.198 A 
ATOM     96  F   UNL A   1      45.696  29.757  33.980  1.00  0.00    -0.203 F 
ATOM     97  F   UNL A   1      44.800  25.001  36.500  1.00  0.00    -0.200 F 
ATOM     98  C   UNL A   1      46.306  26.656  35.745  1.00  0.00     0.200 A 
ATOM     99  F   UNL A   1      47.772  28.343  34.983  1.00  0.00    -0.200 F 
ATOM    100  F   UNL A   1      47.336  25.978  36.268  1.00  0.00    -0.200 F 
ENDBRANCH  67  90
ENDBRANCH  41  42
ENDBRANCH  33  36
ENDBRANCH  31  32
ENDBRANCH  30  31
ENDBRANCH  29  30
ENDBRANCH   1  29
TORSDOF 17
ENDMDL
MODEL 3
REMARK VINA RESULT:     -12.1      5.420     10.537
REMARK SMILES NC(=O)C[C@H](C(=O)NCCCCCCNC(=O)c1ccc(-c2c3nc(c(-c4c(F)c(F)c(F)c(F)c4F)c4ccc([nH]4)c(-c4c(F)c(F)c(F)c(F)c4F)c4nc(c(-c5c(F)c(F)c(F)c(F)c5F)c5ccc2[nH]5)C=C4)C=C3)cc1)N1C(=O)/C(=C/c2ccccc2)SC1=S
REMARK SMILES IDX 11 1 10 2 9 3 8 4 6 5 7 6 5 8 4 9 2 10 1 11 3 14 81 15 82 16
REMARK SMILES IDX 93 17 83 18 84 19 92 20 94 21 85 22 86 23 87 24 91 25 88 26
REMARK SMILES IDX 90 27 89 28 12 29 13 30 14 31 15 32 16 33 17 35 18 36 19 37
REMARK SMILES IDX 80 38 20 39 79 40 21 41 22 42 23 43 73 44 24 45 78 46 72 47
REMARK SMILES IDX 74 48 25 49 77 50 71 51 70 52 26 54 58 55 38 56 57 57 39 58
REMARK SMILES IDX 42 59 56 60 75 61 40 62 41 63 55 65 76 66 43 67 27 68 28 69
REMARK SMILES IDX 36 70 29 71 30 72 34 73 37 74 31 75 32 76 35 77 33 78 59 79
REMARK SMILES IDX 60 80 68 81 61 82 62 83 66 84 69 85 63 86 64 87 67 88 65 89
REMARK SMILES IDX 44 90 45 91 53 92 46 93 47 94 51 95 54 96 48 97 49 98 52 99
REMARK SMILES IDX 50 100
REMARK H PARENT 8 7 1 12 1 13 15 34 74 53 42 64
REMARK Flexibility Score: inf
ROOT
ATOM      1  C   UNL A   1      37.379  22.003  24.626  1.00  0.00     0.002 C 
ENDROOT
BRANCH   1   2
ATOM      2  C   UNL A   1      36.265  22.886  24.053  1.00  0.00     0.021 C 
BRANCH   2   3
ATOM      3  C   UNL A   1      35.829  24.032  24.971  1.00  0.00     0.116 C 
BRANCH   3   4
ATOM      4  N   UNL A   1      35.142  23.499  26.134  1.00  0.00    -0.354 N 
ATOM      5  C   UNL A   1      33.866  23.081  26.330  1.00  0.00     0.243 C 
ATOM      6  O   UNL A   1      33.556  22.734  27.475  1.00  0.00    -0.273 OA
ATOM      7  H   UNL A   1      35.712  23.429  26.934  1.00  0.00     0.163 HD
BRANCH   5   8
ATOM      8  C   UNL A   1      32.813  23.000  25.204  1.00  0.00     0.190 C 
BRANCH   8   9
ATOM      9  C   UNL A   1      32.174  21.617  24.982  1.00  0.00     0.135 C 
BRANCH   9  10
ATOM     10  C   UNL A   1      32.994  20.372  25.205  1.00  0.00     0.220 C 
ATOM     11  N   UNL A   1      33.110  19.891  26.467  1.00  0.00    -0.370 N 
ATOM     12  H   UNL A   1      33.640  19.079  26.638  1.00  0.00     0.159 HD
ATOM     13  H   UNL A   1      32.664  20.353  27.214  1.00  0.00     0.159 HD
ATOM     14  O   UNL A   1      33.604  19.839  24.281  1.00  0.00    -0.275 OA
ENDBRANCH   9  10
ENDBRANCH   8   9
BRANCH   8  15
ATOM     15  N   UNL A   1      31.856  24.154  25.101  1.00  0.00    -0.280 N 
ATOM     16  C   UNL A   1      32.014  25.142  24.134  1.00  0.00     0.266 C 
ATOM     17  C   UNL A   1      30.687  24.258  25.845  1.00  0.00     0.149 C 
ATOM     18  O   UNL A   1      32.904  25.241  23.307  1.00  0.00    -0.268 OA
ATOM     19  C   UNL A   1      30.904  26.130  24.188  1.00  0.00     0.081 C 
ATOM     20  S   UNL A   1      29.848  25.761  25.477  1.00  0.00    -0.054 SA
ATOM     21  S   UNL A   1      30.032  23.189  26.948  1.00  0.00    -0.052 S 
ATOM     22  C   UNL A   1      30.803  27.120  23.289  1.00  0.00     0.029 C 
BRANCH  22  23
ATOM     23  C   UNL A   1      29.785  28.176  23.261  1.00  0.00    -0.024 A 
ATOM     24  C   UNL A   1      30.154  29.508  23.480  1.00  0.00     0.008 A 
ATOM     25  C   UNL A   1      28.432  27.861  23.086  1.00  0.00     0.008 A 
ATOM     26  C   UNL A   1      29.184  30.512  23.507  1.00  0.00     0.001 A 
ATOM     27  C   UNL A   1      27.464  28.865  23.111  1.00  0.00     0.001 A 
ATOM     28  C   UNL A   1      27.840  30.191  23.322  1.00  0.00     0.000 A 
ENDBRANCH  22  23
ENDBRANCH   8  15
ENDBRANCH   5   8
ENDBRANCH   3   4
ENDBRANCH   2   3
ENDBRANCH   1   2
BRANCH   1  29
ATOM     29  C   UNL A   1      36.945  20.581  24.981  1.00  0.00     0.002 C 
BRANCH  29  30
ATOM     30  C   UNL A   1      38.089  19.568  25.062  1.00  0.00     0.021 C 
BRANCH  30  31
ATOM     31  C   UNL A   1      39.354  20.094  25.732  1.00  0.00     0.116 C 
BRANCH  31  32
ATOM     32  N   UNL A   1      40.334  19.039  25.934  1.00  0.00    -0.352 N 
ATOM     33  C   UNL A   1      41.690  19.161  26.110  1.00  0.00     0.251 C 
ATOM     34  H   UNL A   1      39.981  18.121  25.946  1.00  0.00     0.163 HD
ATOM     35  O   UNL A   1      42.429  18.187  26.025  1.00  0.00    -0.269 OA
BRANCH  33  36
ATOM     36  C   UNL A   1      42.252  20.496  26.397  1.00  0.00     0.039 A 
ATOM     37  C   UNL A   1      42.730  21.275  25.343  1.00  0.00     0.014 A 
ATOM     38  C   UNL A   1      42.280  20.977  27.710  1.00  0.00     0.014 A 
ATOM     39  C   UNL A   1      43.198  22.564  25.602  1.00  0.00     0.010 A 
ATOM     40  C   UNL A   1      42.678  22.287  27.955  1.00  0.00     0.010 A 
ATOM     41  C   UNL A   1      43.151  23.089  26.905  1.00  0.00    -0.014 A 
BRANCH  41  42
ATOM     42  C   UNL A   1      43.606  24.472  27.189  1.00  0.00     0.031 A 
ATOM     43  C   UNL A   1      42.630  25.493  27.705  1.00  0.00     0.074 A 
ATOM     44  C   UNL A   1      44.881  24.822  26.934  1.00  0.00     0.049 A 
ATOM     45  N   UNL A   1      42.819  26.762  27.967  1.00  0.00    -0.248 NA
ATOM     46  C   UNL A   1      41.252  25.033  27.935  1.00  0.00     0.031 C 
ATOM     47  C   UNL A   1      45.906  23.932  26.386  1.00  0.00     0.029 A 
ATOM     48  N   UNL A   1      45.530  26.020  27.091  1.00  0.00    -0.354 N 
ATOM     49  C   UNL A   1      41.587  27.249  28.382  1.00  0.00     0.074 A 
ATOM     50  C   UNL A   1      40.643  26.158  28.278  1.00  0.00     0.031 C 
ATOM     51  C   UNL A   1      47.060  24.609  26.273  1.00  0.00     0.029 A 
ATOM     52  C   UNL A   1      46.848  25.989  26.701  1.00  0.00     0.049 A 
ATOM     53  H   UNL A   1      45.094  26.827  27.448  1.00  0.00     0.167 HD
ATOM     54  C   UNL A   1      41.278  28.487  28.837  1.00  0.00     0.037 A 
ATOM     55  C   UNL A   1      47.774  26.965  26.682  1.00  0.00     0.037 A 
ATOM     56  C   UNL A   1      42.225  29.565  28.949  1.00  0.00     0.049 A 
ATOM     57  C   UNL A   1      47.399  28.338  27.172  1.00  0.00     0.074 A 
ATOM     58  C   UNL A   1      42.024  30.843  29.440  1.00  0.00     0.029 A 
ATOM     59  N   UNL A   1      43.554  29.492  28.556  1.00  0.00    -0.354 N 
ATOM     60  N   UNL A   1      46.248  28.770  27.631  1.00  0.00    -0.248 NA
ATOM     61  C   UNL A   1      48.455  29.360  27.152  1.00  0.00     0.031 C 
ATOM     62  C   UNL A   1      43.215  31.561  29.292  1.00  0.00     0.029 A 
ATOM     63  C   UNL A   1      44.178  30.710  28.770  1.00  0.00     0.049 A 
ATOM     64  H   UNL A   1      43.989  28.692  28.180  1.00  0.00     0.167 HD
ATOM     65  C   UNL A   1      46.448  30.099  27.980  1.00  0.00     0.074 A 
ATOM     66  C   UNL A   1      47.837  30.398  27.696  1.00  0.00     0.031 C 
ATOM     67  C   UNL A   1      45.564  30.990  28.488  1.00  0.00     0.037 A 
BRANCH  54  68
ATOM     68  C   UNL A   1      39.855  28.740  29.250  1.00  0.00     0.064 A 
ATOM     69  C   UNL A   1      38.902  29.231  28.342  1.00  0.00     0.173 A 
ATOM     70  C   UNL A   1      39.428  28.458  30.556  1.00  0.00     0.173 A 
ATOM     71  F   UNL A   1      39.258  29.526  27.083  1.00  0.00    -0.203 F 
ATOM     72  C   UNL A   1      37.586  29.459  28.736  1.00  0.00     0.198 A 
ATOM     73  C   UNL A   1      38.104  28.655  30.937  1.00  0.00     0.198 A 
ATOM     74  F   UNL A   1      40.295  27.983  31.463  1.00  0.00    -0.203 F 
ATOM     75  F   UNL A   1      36.709  29.979  27.867  1.00  0.00    -0.200 F 
ATOM     76  C   UNL A   1      37.186  29.163  30.031  1.00  0.00     0.200 A 
ATOM     77  F   UNL A   1      37.715  28.355  32.184  1.00  0.00    -0.200 F 
ATOM     78  F   UNL A   1      35.917  29.376  30.406  1.00  0.00    -0.200 F 
ENDBRANCH  54  68
BRANCH  55  79
ATOM     79  C   UNL A   1      49.149  26.677  26.196  1.00  0.00     0.064 A 
ATOM     80  C   UNL A   1      49.513  26.923  24.864  1.00  0.00     0.173 A 
ATOM     81  C   UNL A   1      50.127  26.142  27.048  1.00  0.00     0.173 A 
ATOM     82  F   UNL A   1      48.609  27.417  24.005  1.00  0.00    -0.203 F 
ATOM     83  C   UNL A   1      50.790  26.622  24.398  1.00  0.00     0.198 A 
ATOM     84  C   UNL A   1      51.414  25.872  26.590  1.00  0.00     0.198 A 
ATOM     85  F   UNL A   1      49.834  25.893  28.333  1.00  0.00    -0.203 F 
ATOM     86  F   UNL A   1      51.094  26.818  23.108  1.00  0.00    -0.200 F 
ATOM     87  C   UNL A   1      51.742  26.102  25.263  1.00  0.00     0.200 A 
ATOM     88  F   UNL A   1      52.335  25.385  27.433  1.00  0.00    -0.200 F 
ATOM     89  F   UNL A   1      52.972  25.815  24.815  1.00  0.00    -0.200 F 
ENDBRANCH  55  79
BRANCH  67  90
ATOM     90  C   UNL A   1      46.077  32.366  28.808  1.00  0.00     0.064 A 
ATOM     91  C   UNL A   1      46.026  33.410  27.874  1.00  0.00     0.173 A 
ATOM     92  C   UNL A   1      46.589  32.650  30.084  1.00  0.00     0.173 A 
ATOM     93  F   UNL A   1      45.558  33.188  26.637  1.00  0.00    -0.203 F 
ATOM     94  C   UNL A   1      46.497  34.681  28.195  1.00  0.00     0.198 A 
ATOM     95  C   UNL A   1      47.027  33.930  30.413  1.00  0.00     0.198 A 
ATOM     96  F   UNL A   1      46.653  31.689  31.018  1.00  0.00    -0.203 F 
ATOM     97  F   UNL A   1      46.489  35.650  27.269  1.00  0.00    -0.200 F 
ATOM     98  C   UNL A   1      46.989  34.942  29.466  1.00  0.00     0.200 A 
ATOM     99  F   UNL A   1      47.484  34.184  31.646  1.00  0.00    -0.200 F 
ATOM    100  F   UNL A   1      47.433  36.168  29.775  1.00  0.00    -0.200 F 
ENDBRANCH  67  90
ENDBRANCH  41  42
ENDBRANCH  33  36
ENDBRANCH  31  32
ENDBRANCH  30  31
ENDBRANCH  29  30
ENDBRANCH   1  29
TORSDOF 17
ENDMDL
