MODEL 1
REMARK VINA RESULT:     -11.0      0.000      0.000
REMARK SMILES COc1ccc([C@@H]([NH3+])CC(=O)NCCCCCCNC(=O)c2ccc(-c3c4nc(c(-c5c(F)c(F)c(F)c(F)c5F)c5ccc([nH]5)c(-c5c(F)c(F)c(F)c(F)c5F)c5nc(c(-c6c(F)c(F)c(F)c(F)c6F)c6ccc3[nH]6)C=C5)C=C4)cc2)cc1
REMARK SMILES IDX 15 1 14 2 13 3 12 4 10 5 11 6 9 8 7 9 6 10 3 11 4 12 86 13
REMARK SMILES IDX 5 14 85 15 2 16 1 17 8 18 16 22 17 23 18 24 19 25 20 26
REMARK SMILES IDX 21 28 22 29 23 30 84 31 24 32 83 33 25 34 26 35 27 36 77 37
REMARK SMILES IDX 28 38 82 39 76 40 78 41 29 42 81 43 75 44 74 45 30 47 62 48
REMARK SMILES IDX 42 49 61 50 43 51 46 52 60 53 79 54 44 55 45 56 59 58 80 59
REMARK SMILES IDX 47 60 31 61 32 62 40 63 33 64 34 65 38 66 41 67 35 68 36 69
REMARK SMILES IDX 39 70 37 71 63 72 64 73 72 74 65 75 66 76 70 77 73 78 67 79
REMARK SMILES IDX 68 80 71 81 69 82 48 83 49 84 57 85 50 86 51 87 55 88 58 89
REMARK SMILES IDX 52 90 53 91 56 92 54 93
REMARK H PARENT 12 7 8 19 8 20 8 21 19 27 78 46 46 57
REMARK Flexibility Score: inf
ROOT
ATOM      1  C   UNL A   1      32.937  25.673  26.187  1.00  0.00     0.002 C 
ENDROOT
BRANCH   1   2
ATOM      2  C   UNL A   1      33.839  24.457  25.954  1.00  0.00     0.021 C 
BRANCH   2   3
ATOM      3  C   UNL A   1      33.574  23.258  26.869  1.00  0.00     0.116 C 
BRANCH   3   4
ATOM      4  N   UNL A   1      33.158  22.103  26.094  1.00  0.00    -0.356 N 
ATOM      5  C   UNL A   1      32.009  21.884  25.396  1.00  0.00     0.226 C 
ATOM      6  O   UNL A   1      31.803  20.745  24.967  1.00  0.00    -0.275 OA
ATOM      7  H   UNL A   1      33.807  21.363  26.069  1.00  0.00     0.163 HD
BRANCH   5   8
ATOM      8  C   UNL A   1      31.019  22.999  25.120  1.00  0.00     0.170 C 
BRANCH   8   9
ATOM      9  C   UNL A   1      30.861  23.285  23.616  1.00  0.00     0.221 C 
BRANCH   9  10
ATOM     10  C   UNL A   1      30.781  24.767  23.286  1.00  0.00     0.010 A 
ATOM     11  C   UNL A   1      30.570  27.474  22.556  1.00  0.00     0.118 A 
ATOM     12  C   UNL A   1      29.719  26.944  23.524  1.00  0.00     0.047 A 
ATOM     13  C   UNL A   1      31.588  26.684  22.024  1.00  0.00     0.047 A 
ATOM     14  C   UNL A   1      29.830  25.603  23.894  1.00  0.00     0.014 A 
ATOM     15  C   UNL A   1      31.690  25.336  22.382  1.00  0.00     0.014 A 
BRANCH  11  16
ATOM     16  O   UNL A   1      30.314  28.766  22.193  1.00  0.00    -0.497 OA
ATOM     17  C   UNL A   1      29.830  29.594  23.243  1.00  0.00     0.278 C 
ENDBRANCH  11  16
ENDBRANCH   9  10
BRANCH   9  18
ATOM     18  N   UNL A   1      31.989  22.708  22.869  1.00  0.00    -0.351 N 
ATOM     19  H   UNL A   1      32.711  23.418  22.739  1.00  0.00     0.345 HD
ATOM     20  H   UNL A   1      31.665  22.383  21.959  1.00  0.00     0.345 HD
ATOM     21  H   UNL A   1      32.376  21.922  23.392  1.00  0.00     0.345 HD
ENDBRANCH   9  18
ENDBRANCH   8   9
ENDBRANCH   5   8
ENDBRANCH   3   4
ENDBRANCH   2   3
ENDBRANCH   1   2
BRANCH   1  22
ATOM     22  C   UNL A   1      33.302  26.924  25.376  1.00  0.00     0.002 C 
BRANCH  22  23
ATOM     23  C   UNL A   1      32.460  28.179  25.643  1.00  0.00     0.021 C 
BRANCH  23  24
ATOM     24  C   UNL A   1      33.050  29.500  25.148  1.00  0.00     0.116 C 
BRANCH  24  25
ATOM     25  N   UNL A   1      32.551  30.664  25.858  1.00  0.00    -0.352 N 
ATOM     26  C   UNL A   1      33.095  31.370  26.903  1.00  0.00     0.251 C 
ATOM     27  H   UNL A   1      31.683  31.002  25.539  1.00  0.00     0.163 HD
ATOM     28  O   UNL A   1      32.479  32.326  27.371  1.00  0.00    -0.269 OA
BRANCH  26  29
ATOM     29  C   UNL A   1      34.385  30.977  27.519  1.00  0.00     0.039 A 
ATOM     30  C   UNL A   1      35.302  31.988  27.813  1.00  0.00     0.014 A 
ATOM     31  C   UNL A   1      34.729  29.647  27.770  1.00  0.00     0.014 A 
ATOM     32  C   UNL A   1      36.526  31.674  28.411  1.00  0.00     0.010 A 
ATOM     33  C   UNL A   1      35.927  29.338  28.434  1.00  0.00     0.010 A 
ATOM     34  C   UNL A   1      36.841  30.350  28.767  1.00  0.00    -0.014 A 
BRANCH  34  35
ATOM     35  C   UNL A   1      38.103  30.077  29.516  1.00  0.00     0.031 A 
ATOM     36  C   UNL A   1      38.327  30.594  30.912  1.00  0.00     0.074 A 
ATOM     37  C   UNL A   1      39.056  29.316  28.939  1.00  0.00     0.049 A 
ATOM     38  N   UNL A   1      39.304  30.323  31.747  1.00  0.00    -0.248 NA
ATOM     39  C   UNL A   1      37.344  31.551  31.438  1.00  0.00     0.031 C 
ATOM     40  C   UNL A   1      39.005  28.803  27.568  1.00  0.00     0.029 A 
ATOM     41  N   UNL A   1      40.238  28.818  29.433  1.00  0.00    -0.354 N 
ATOM     42  C   UNL A   1      39.047  31.065  32.892  1.00  0.00     0.074 A 
ATOM     43  C   UNL A   1      37.858  31.845  32.625  1.00  0.00     0.031 C 
ATOM     44  C   UNL A   1      40.071  28.017  27.352  1.00  0.00     0.029 A 
ATOM     45  C   UNL A   1      40.902  27.996  28.554  1.00  0.00     0.049 A 
ATOM     46  H   UNL A   1      40.578  29.030  30.333  1.00  0.00     0.167 HD
ATOM     47  C   UNL A   1      39.722  31.075  34.069  1.00  0.00     0.037 A 
ATOM     48  C   UNL A   1      42.040  27.292  28.696  1.00  0.00     0.037 A 
ATOM     49  C   UNL A   1      40.905  30.296  34.343  1.00  0.00     0.049 A 
ATOM     50  C   UNL A   1      42.772  27.323  30.011  1.00  0.00     0.074 A 
ATOM     51  C   UNL A   1      41.619  30.198  35.525  1.00  0.00     0.029 A 
ATOM     52  N   UNL A   1      41.559  29.495  33.418  1.00  0.00    -0.354 N 
ATOM     53  N   UNL A   1      42.458  27.947  31.119  1.00  0.00    -0.248 NA
ATOM     54  C   UNL A   1      44.012  26.539  30.096  1.00  0.00     0.031 C 
ATOM     55  C   UNL A   1      42.738  29.387  35.299  1.00  0.00     0.029 A 
ATOM     56  C   UNL A   1      42.685  28.925  33.995  1.00  0.00     0.049 A 
ATOM     57  H   UNL A   1      41.265  29.350  32.489  1.00  0.00     0.167 HD
ATOM     58  C   UNL A   1      43.447  27.615  32.037  1.00  0.00     0.074 A 
ATOM     59  C   UNL A   1      44.353  26.709  31.364  1.00  0.00     0.031 C 
ATOM     60  C   UNL A   1      43.591  28.030  33.321  1.00  0.00     0.037 A 
BRANCH  47  61
ATOM     61  C   UNL A   1      39.196  31.958  35.167  1.00  0.00     0.064 A 
ATOM     62  C   UNL A   1      38.420  31.444  36.218  1.00  0.00     0.173 A 
ATOM     63  C   UNL A   1      39.520  33.324  35.203  1.00  0.00     0.173 A 
ATOM     64  F   UNL A   1      38.077  30.148  36.232  1.00  0.00    -0.203 F 
ATOM     65  C   UNL A   1      37.961  32.269  37.243  1.00  0.00     0.198 A 
ATOM     66  C   UNL A   1      39.088  34.139  36.247  1.00  0.00     0.198 A 
ATOM     67  F   UNL A   1      40.269  33.868  34.233  1.00  0.00    -0.203 F 
ATOM     68  F   UNL A   1      37.180  31.764  38.208  1.00  0.00    -0.200 F 
ATOM     69  C   UNL A   1      38.302  33.613  37.261  1.00  0.00     0.200 A 
ATOM     70  F   UNL A   1      39.434  35.433  36.273  1.00  0.00    -0.200 F 
ATOM     71  F   UNL A   1      37.869  34.402  38.254  1.00  0.00    -0.200 F 
ENDBRANCH  47  61
BRANCH  48  72
ATOM     72  C   UNL A   1      42.552  26.469  27.566  1.00  0.00     0.064 A 
ATOM     73  C   UNL A   1      42.100  25.157  27.360  1.00  0.00     0.173 A 
ATOM     74  C   UNL A   1      43.515  26.971  26.678  1.00  0.00     0.173 A 
ATOM     75  F   UNL A   1      41.195  24.621  28.194  1.00  0.00    -0.203 F 
ATOM     76  C   UNL A   1      42.609  24.373  26.327  1.00  0.00     0.198 A 
ATOM     77  C   UNL A   1      43.997  26.199  25.625  1.00  0.00     0.198 A 
ATOM     78  F   UNL A   1      43.978  28.220  26.828  1.00  0.00    -0.203 F 
ATOM     79  F   UNL A   1      42.201  23.104  26.187  1.00  0.00    -0.200 F 
ATOM     80  C   UNL A   1      43.552  24.897  25.456  1.00  0.00     0.200 A 
ATOM     81  F   UNL A   1      44.896  26.715  24.777  1.00  0.00    -0.200 F 
ATOM     82  F   UNL A   1      44.039  24.144  24.460  1.00  0.00    -0.200 F 
ENDBRANCH  48  72
BRANCH  60  83
ATOM     83  C   UNL A   1      44.765  27.486  34.090  1.00  0.00     0.064 A 
ATOM     84  C   UNL A   1      45.994  28.160  34.135  1.00  0.00     0.173 A 
ATOM     85  C   UNL A   1      44.655  26.280  34.800  1.00  0.00     0.173 A 
ATOM     86  F   UNL A   1      46.160  29.310  33.464  1.00  0.00    -0.203 F 
ATOM     87  C   UNL A   1      47.081  27.628  34.826  1.00  0.00     0.198 A 
ATOM     88  C   UNL A   1      45.731  25.769  35.520  1.00  0.00     0.198 A 
ATOM     89  F   UNL A   1      43.501  25.597  34.801  1.00  0.00    -0.203 F 
ATOM     90  F   UNL A   1      48.265  28.256  34.798  1.00  0.00    -0.200 F 
ATOM     91  C   UNL A   1      46.947  26.436  35.522  1.00  0.00     0.200 A 
ATOM     92  F   UNL A   1      45.595  24.627  36.206  1.00  0.00    -0.200 F 
ATOM     93  F   UNL A   1      47.993  25.924  36.185  1.00  0.00    -0.200 F 
ENDBRANCH  60  83
ENDBRANCH  34  35
ENDBRANCH  26  29
ENDBRANCH  24  25
ENDBRANCH  23  24
ENDBRANCH  22  23
ENDBRANCH   1  22
TORSDOF 17
ENDMDL
MODEL 2
REMARK VINA RESULT:     -10.8      6.850     15.049
REMARK SMILES COc1ccc([C@@H]([NH3+])CC(=O)NCCCCCCNC(=O)c2ccc(-c3c4nc(c(-c5c(F)c(F)c(F)c(F)c5F)c5ccc([nH]5)c(-c5c(F)c(F)c(F)c(F)c5F)c5nc(c(-c6c(F)c(F)c(F)c(F)c6F)c6ccc3[nH]6)C=C5)C=C4)cc2)cc1
REMARK SMILES IDX 15 1 14 2 13 3 12 4 10 5 11 6 9 8 7 9 6 10 3 11 4 12 86 13
REMARK SMILES IDX 5 14 85 15 2 16 1 17 8 18 16 22 17 23 18 24 19 25 20 26
REMARK SMILES IDX 21 28 22 29 23 30 84 31 24 32 83 33 25 34 26 35 27 36 77 37
REMARK SMILES IDX 28 38 82 39 76 40 78 41 29 42 81 43 75 44 74 45 30 47 62 48
REMARK SMILES IDX 42 49 61 50 43 51 46 52 60 53 79 54 44 55 45 56 59 58 80 59
REMARK SMILES IDX 47 60 31 61 32 62 40 63 33 64 34 65 38 66 41 67 35 68 36 69
REMARK SMILES IDX 39 70 37 71 63 72 64 73 72 74 65 75 66 76 70 77 73 78 67 79
REMARK SMILES IDX 68 80 71 81 69 82 48 83 49 84 57 85 50 86 51 87 55 88 58 89
REMARK SMILES IDX 52 90 53 91 56 92 54 93
REMARK H PARENT 12 7 8 19 8 20 8 21 19 27 78 46 46 57
REMARK Flexibility Score: inf
ROOT
ATOM      1  C   UNL A   1      46.180  19.345  36.405  1.00  0.00     0.002 C 
ENDROOT
BRANCH   1   2
ATOM      2  C   UNL A   1      46.854  19.393  37.780  1.00  0.00     0.021 C 
BRANCH   2   3
ATOM      3  C   UNL A   1      46.298  18.415  38.818  1.00  0.00     0.116 C 
BRANCH   3   4
ATOM      4  N   UNL A   1      45.241  17.601  38.244  1.00  0.00    -0.356 N 
ATOM      5  C   UNL A   1      44.515  16.590  38.798  1.00  0.00     0.226 C 
ATOM      6  O   UNL A   1      43.795  15.922  38.051  1.00  0.00    -0.275 OA
ATOM      7  H   UNL A   1      45.013  17.814  37.310  1.00  0.00     0.163 HD
BRANCH   5   8
ATOM      8  C   UNL A   1      44.556  16.301  40.285  1.00  0.00     0.170 C 
BRANCH   8   9
ATOM      9  C   UNL A   1      43.207  16.572  40.975  1.00  0.00     0.221 C 
BRANCH   9  10
ATOM     10  C   UNL A   1      42.513  15.312  41.465  1.00  0.00     0.010 A 
ATOM     11  C   UNL A   1      41.354  12.915  42.369  1.00  0.00     0.118 A 
ATOM     12  C   UNL A   1      41.583  13.960  43.262  1.00  0.00     0.047 A 
ATOM     13  C   UNL A   1      41.612  13.099  41.011  1.00  0.00     0.047 A 
ATOM     14  C   UNL A   1      42.149  15.153  42.813  1.00  0.00     0.014 A 
ATOM     15  C   UNL A   1      42.193  14.288  40.562  1.00  0.00     0.014 A 
BRANCH  11  16
ATOM     16  O   UNL A   1      40.892  11.756  42.926  1.00  0.00    -0.497 OA
ATOM     17  C   UNL A   1      41.906  10.847  43.333  1.00  0.00     0.278 C 
ENDBRANCH  11  16
ENDBRANCH   9  10
BRANCH   9  18
ATOM     18  N   UNL A   1      43.397  17.470  42.125  1.00  0.00    -0.351 N 
ATOM     19  H   UNL A   1      43.254  18.436  41.829  1.00  0.00     0.345 HD
ATOM     20  H   UNL A   1      44.343  17.362  42.488  1.00  0.00     0.345 HD
ATOM     21  H   UNL A   1      42.723  17.234  42.854  1.00  0.00     0.345 HD
ENDBRANCH   9  18
ENDBRANCH   8   9
ENDBRANCH   5   8
ENDBRANCH   3   4
ENDBRANCH   2   3
ENDBRANCH   1   2
BRANCH   1  22
ATOM     22  C   UNL A   1      46.676  20.389  35.396  1.00  0.00     0.002 C 
BRANCH  22  23
ATOM     23  C   UNL A   1      45.977  21.755  35.430  1.00  0.00     0.021 C 
BRANCH  23  24
ATOM     24  C   UNL A   1      46.836  22.958  35.038  1.00  0.00     0.116 C 
BRANCH  24  25
ATOM     25  N   UNL A   1      47.305  23.735  36.170  1.00  0.00    -0.352 N 
ATOM     26  C   UNL A   1      46.904  24.965  36.633  1.00  0.00     0.251 C 
ATOM     27  H   UNL A   1      48.028  23.314  36.690  1.00  0.00     0.163 HD
ATOM     28  O   UNL A   1      47.465  25.452  37.613  1.00  0.00    -0.269 OA
BRANCH  26  29
ATOM     29  C   UNL A   1      45.845  25.745  35.949  1.00  0.00     0.039 A 
ATOM     30  C   UNL A   1      46.224  26.910  35.278  1.00  0.00     0.014 A 
ATOM     31  C   UNL A   1      44.496  25.386  35.989  1.00  0.00     0.014 A 
ATOM     32  C   UNL A   1      45.268  27.672  34.602  1.00  0.00     0.010 A 
ATOM     33  C   UNL A   1      43.548  26.112  35.251  1.00  0.00     0.010 A 
ATOM     34  C   UNL A   1      43.923  27.264  34.544  1.00  0.00    -0.014 A 
BRANCH  34  35
ATOM     35  C   UNL A   1      42.961  28.041  33.706  1.00  0.00     0.031 A 
ATOM     36  C   UNL A   1      42.785  27.767  32.236  1.00  0.00     0.074 A 
ATOM     37  C   UNL A   1      42.203  28.992  34.290  1.00  0.00     0.049 A 
ATOM     38  N   UNL A   1      41.891  28.253  31.406  1.00  0.00    -0.248 NA
ATOM     39  C   UNL A   1      43.741  26.845  31.608  1.00  0.00     0.031 C 
ATOM     40  C   UNL A   1      42.313  29.412  35.688  1.00  0.00     0.029 A 
ATOM     41  N   UNL A   1      41.176  29.760  33.795  1.00  0.00    -0.354 N 
ATOM     42  C   UNL A   1      42.171  27.690  30.168  1.00  0.00     0.074 A 
ATOM     43  C   UNL A   1      43.354  26.875  30.339  1.00  0.00     0.031 C 
ATOM     44  C   UNL A   1      41.354  30.312  35.955  1.00  0.00     0.029 A 
ATOM     45  C   UNL A   1      40.583  30.564  34.740  1.00  0.00     0.049 A 
ATOM     46  H   UNL A   1      40.891  29.736  32.853  1.00  0.00     0.167 HD
ATOM     47  C   UNL A   1      41.490  27.817  29.002  1.00  0.00     0.037 A 
ATOM     48  C   UNL A   1      39.530  31.398  34.649  1.00  0.00     0.037 A 
ATOM     49  C   UNL A   1      40.308  28.625  28.826  1.00  0.00     0.049 A 
ATOM     50  C   UNL A   1      38.794  31.524  33.343  1.00  0.00     0.074 A 
ATOM     51  C   UNL A   1      39.518  28.766  27.698  1.00  0.00     0.029 A 
ATOM     52  N   UNL A   1      39.753  29.442  29.801  1.00  0.00    -0.354 N 
ATOM     53  N   UNL A   1      39.008  30.904  32.208  1.00  0.00    -0.248 NA
ATOM     54  C   UNL A   1      37.660  32.458  33.310  1.00  0.00     0.031 C 
ATOM     55  C   UNL A   1      38.524  29.713  27.969  1.00  0.00     0.029 A 
ATOM     56  C   UNL A   1      38.652  30.114  29.288  1.00  0.00     0.049 A 
ATOM     57  H   UNL A   1      40.091  29.531  30.722  1.00  0.00     0.167 HD
ATOM     58  C   UNL A   1      38.026  31.356  31.336  1.00  0.00     0.074 A 
ATOM     59  C   UNL A   1      37.196  32.278  32.083  1.00  0.00     0.031 C 
ATOM     60  C   UNL A   1      37.833  31.038  30.031  1.00  0.00     0.037 A 
BRANCH  47  61
ATOM     61  C   UNL A   1      42.002  27.059  27.808  1.00  0.00     0.064 A 
ATOM     62  C   UNL A   1      42.932  27.623  26.921  1.00  0.00     0.173 A 
ATOM     63  C   UNL A   1      41.605  25.731  27.580  1.00  0.00     0.173 A 
ATOM     64  F   UNL A   1      43.343  28.889  27.089  1.00  0.00    -0.203 F 
ATOM     65  C   UNL A   1      43.419  26.900  25.834  1.00  0.00     0.198 A 
ATOM     66  C   UNL A   1      42.120  25.000  26.512  1.00  0.00     0.198 A 
ATOM     67  F   UNL A   1      40.729  25.136  28.403  1.00  0.00    -0.203 F 
ATOM     68  F   UNL A   1      44.268  27.478  24.974  1.00  0.00    -0.200 F 
ATOM     69  C   UNL A   1      43.019  25.587  25.635  1.00  0.00     0.200 A 
ATOM     70  F   UNL A   1      41.747  23.726  26.332  1.00  0.00    -0.200 F 
ATOM     71  F   UNL A   1      43.498  24.890  24.596  1.00  0.00    -0.200 F 
ENDBRANCH  47  61
BRANCH  48  72
ATOM     72  C   UNL A   1      39.087  32.168  35.844  1.00  0.00     0.064 A 
ATOM     73  C   UNL A   1      38.223  31.601  36.794  1.00  0.00     0.173 A 
ATOM     74  C   UNL A   1      39.503  33.491  36.052  1.00  0.00     0.173 A 
ATOM     75  F   UNL A   1      37.778  30.346  36.629  1.00  0.00    -0.203 F 
ATOM     76  C   UNL A   1      37.776  32.336  37.890  1.00  0.00     0.198 A 
ATOM     77  C   UNL A   1      39.083  34.213  37.166  1.00  0.00     0.198 A 
ATOM     78  F   UNL A   1      40.331  34.080  35.176  1.00  0.00    -0.203 F 
ATOM     79  F   UNL A   1      36.908  31.788  38.751  1.00  0.00    -0.200 F 
ATOM     80  C   UNL A   1      38.212  33.638  38.079  1.00  0.00     0.200 A 
ATOM     81  F   UNL A   1      39.520  35.465  37.353  1.00  0.00    -0.200 F 
ATOM     82  F   UNL A   1      37.784  34.343  39.135  1.00  0.00    -0.200 F 
ENDBRANCH  48  72
BRANCH  60  83
ATOM     83  C   UNL A   1      36.663  31.677  29.333  1.00  0.00     0.064 A 
ATOM     84  C   UNL A   1      36.649  33.044  29.017  1.00  0.00     0.173 A 
ATOM     85  C   UNL A   1      35.545  30.911  28.967  1.00  0.00     0.173 A 
ATOM     86  F   UNL A   1      37.685  33.827  29.355  1.00  0.00    -0.203 F 
ATOM     87  C   UNL A   1      35.545  33.628  28.400  1.00  0.00     0.198 A 
ATOM     88  C   UNL A   1      34.459  31.490  28.317  1.00  0.00     0.198 A 
ATOM     89  F   UNL A   1      35.507  29.598  29.236  1.00  0.00    -0.203 F 
ATOM     90  F   UNL A   1      35.527  34.948  28.169  1.00  0.00    -0.200 F 
ATOM     91  C   UNL A   1      34.453  32.849  28.045  1.00  0.00     0.200 A 
ATOM     92  F   UNL A   1      33.412  30.733  27.960  1.00  0.00    -0.200 F 
ATOM     93  F   UNL A   1      33.391  33.412  27.452  1.00  0.00    -0.200 F 
ENDBRANCH  60  83
ENDBRANCH  34  35
ENDBRANCH  26  29
ENDBRANCH  24  25
ENDBRANCH  23  24
ENDBRANCH  22  23
ENDBRANCH   1  22
TORSDOF 17
ENDMDL
MODEL 3
REMARK VINA RESULT:     -10.7      2.166      4.022
REMARK SMILES COc1ccc([C@@H]([NH3+])CC(=O)NCCCCCCNC(=O)c2ccc(-c3c4nc(c(-c5c(F)c(F)c(F)c(F)c5F)c5ccc([nH]5)c(-c5c(F)c(F)c(F)c(F)c5F)c5nc(c(-c6c(F)c(F)c(F)c(F)c6F)c6ccc3[nH]6)C=C5)C=C4)cc2)cc1
REMARK SMILES IDX 15 1 14 2 13 3 12 4 10 5 11 6 9 8 7 9 6 10 3 11 4 12 86 13
REMARK SMILES IDX 5 14 85 15 2 16 1 17 8 18 16 22 17 23 18 24 19 25 20 26
REMARK SMILES IDX 21 28 22 29 23 30 84 31 24 32 83 33 25 34 26 35 27 36 77 37
REMARK SMILES IDX 28 38 82 39 76 40 78 41 29 42 81 43 75 44 74 45 30 47 62 48
REMARK SMILES IDX 42 49 61 50 43 51 46 52 60 53 79 54 44 55 45 56 59 58 80 59
REMARK SMILES IDX 47 60 31 61 32 62 40 63 33 64 34 65 38 66 41 67 35 68 36 69
REMARK SMILES IDX 39 70 37 71 63 72 64 73 72 74 65 75 66 76 70 77 73 78 67 79
REMARK SMILES IDX 68 80 71 81 69 82 48 83 49 84 57 85 50 86 51 87 55 88 58 89
REMARK SMILES IDX 52 90 53 91 56 92 54 93
REMARK H PARENT 12 7 8 19 8 20 8 21 19 27 78 46 46 57
REMARK Flexibility Score: inf
ROOT
ATOM      1  C   UNL A   1      32.281  29.366  27.049  1.00  0.00     0.002 C 
ENDROOT
BRANCH   1   2
ATOM      2  C   UNL A   1      31.429  28.129  27.346  1.00  0.00     0.021 C 
BRANCH   2   3
ATOM      3  C   UNL A   1      31.531  26.998  26.320  1.00  0.00     0.116 C 
BRANCH   3   4
ATOM      4  N   UNL A   1      31.236  25.716  26.936  1.00  0.00    -0.356 N 
ATOM      5  C   UNL A   1      31.758  24.483  26.686  1.00  0.00     0.226 C 
ATOM      6  O   UNL A   1      31.215  23.509  27.214  1.00  0.00    -0.275 OA
ATOM      7  H   UNL A   1      30.552  25.743  27.643  1.00  0.00     0.163 HD
BRANCH   5   8
ATOM      8  C   UNL A   1      32.987  24.299  25.817  1.00  0.00     0.170 C 
BRANCH   8   9
ATOM      9  C   UNL A   1      32.684  23.512  24.529  1.00  0.00     0.221 C 
BRANCH   9  10
ATOM     10  C   UNL A   1      33.114  22.056  24.594  1.00  0.00     0.010 A 
ATOM     11  C   UNL A   1      33.911  19.360  24.572  1.00  0.00     0.118 A 
ATOM     12  C   UNL A   1      34.836  20.358  24.868  1.00  0.00     0.047 A 
ATOM     13  C   UNL A   1      32.570  19.695  24.384  1.00  0.00     0.047 A 
ATOM     14  C   UNL A   1      34.440  21.696  24.888  1.00  0.00     0.014 A 
ATOM     15  C   UNL A   1      32.175  21.036  24.389  1.00  0.00     0.014 A 
BRANCH  11  16
ATOM     16  O   UNL A   1      34.420  18.096  24.478  1.00  0.00    -0.497 OA
ATOM     17  C   UNL A   1      33.445  17.062  24.456  1.00  0.00     0.278 C 
ENDBRANCH  11  16
ENDBRANCH   9  10
BRANCH   9  18
ATOM     18  N   UNL A   1      31.243  23.554  24.238  1.00  0.00    -0.351 N 
ATOM     19  H   UNL A   1      31.096  23.455  23.233  1.00  0.00     0.345 HD
ATOM     20  H   UNL A   1      30.857  24.443  24.552  1.00  0.00     0.345 HD
ATOM     21  H   UNL A   1      30.776  22.789  24.726  1.00  0.00     0.345 HD
ENDBRANCH   9  18
ENDBRANCH   8   9
ENDBRANCH   5   8
ENDBRANCH   3   4
ENDBRANCH   2   3
ENDBRANCH   1   2
BRANCH   1  22
ATOM     22  C   UNL A   1      31.692  30.334  26.014  1.00  0.00     0.002 C 
BRANCH  22  23
ATOM     23  C   UNL A   1      31.447  31.773  26.489  1.00  0.00     0.021 C 
BRANCH  23  24
ATOM     24  C   UNL A   1      32.646  32.485  27.115  1.00  0.00     0.116 C 
BRANCH  24  25
ATOM     25  N   UNL A   1      32.336  33.807  27.629  1.00  0.00    -0.352 N 
ATOM     26  C   UNL A   1      33.018  34.597  28.523  1.00  0.00     0.251 C 
ATOM     27  H   UNL A   1      31.504  34.202  27.280  1.00  0.00     0.163 HD
ATOM     28  O   UNL A   1      32.553  35.692  28.836  1.00  0.00    -0.269 OA
BRANCH  26  29
ATOM     29  C   UNL A   1      34.276  34.141  29.161  1.00  0.00     0.039 A 
ATOM     30  C   UNL A   1      34.179  33.242  30.226  1.00  0.00     0.014 A 
ATOM     31  C   UNL A   1      35.533  34.606  28.770  1.00  0.00     0.014 A 
ATOM     32  C   UNL A   1      35.334  32.767  30.850  1.00  0.00     0.010 A 
ATOM     33  C   UNL A   1      36.696  34.074  29.350  1.00  0.00     0.010 A 
ATOM     34  C   UNL A   1      36.612  33.143  30.397  1.00  0.00    -0.014 A 
BRANCH  34  35
ATOM     35  C   UNL A   1      37.819  32.515  31.012  1.00  0.00     0.031 A 
ATOM     36  C   UNL A   1      38.304  32.901  32.384  1.00  0.00     0.074 A 
ATOM     37  C   UNL A   1      38.472  31.549  30.334  1.00  0.00     0.049 A 
ATOM     38  N   UNL A   1      39.246  32.348  33.113  1.00  0.00    -0.248 NA
ATOM     39  C   UNL A   1      37.670  34.065  33.016  1.00  0.00     0.031 C 
ATOM     40  C   UNL A   1      38.156  31.120  28.970  1.00  0.00     0.029 A 
ATOM     41  N   UNL A   1      39.517  30.735  30.702  1.00  0.00    -0.354 N 
ATOM     42  C   UNL A   1      39.307  33.088  34.287  1.00  0.00     0.074 A 
ATOM     43  C   UNL A   1      38.353  34.167  34.148  1.00  0.00     0.031 C 
ATOM     44  C   UNL A   1      38.945  30.085  28.640  1.00  0.00     0.029 A 
ATOM     45  C   UNL A   1      39.848  29.799  29.751  1.00  0.00     0.049 A 
ATOM     46  H   UNL A   1      39.984  30.815  31.565  1.00  0.00     0.167 HD
ATOM     47  C   UNL A   1      40.067  32.873  35.390  1.00  0.00     0.037 A 
ATOM     48  C   UNL A   1      40.763  28.810  29.771  1.00  0.00     0.037 A 
ATOM     49  C   UNL A   1      41.016  31.797  35.534  1.00  0.00     0.049 A 
ATOM     50  C   UNL A   1      41.595  28.596  31.006  1.00  0.00     0.074 A 
ATOM     51  C   UNL A   1      41.785  31.466  36.638  1.00  0.00     0.029 A 
ATOM     52  N   UNL A   1      41.339  30.884  34.540  1.00  0.00    -0.354 N 
ATOM     53  N   UNL A   1      41.568  29.240  32.147  1.00  0.00    -0.248 NA
ATOM     54  C   UNL A   1      42.580  27.506  30.958  1.00  0.00     0.031 C 
ATOM     55  C   UNL A   1      42.617  30.395  36.292  1.00  0.00     0.029 A 
ATOM     56  C   UNL A   1      42.319  30.013  34.995  1.00  0.00     0.049 A 
ATOM     57  H   UNL A   1      40.932  30.858  33.644  1.00  0.00     0.167 HD
ATOM     58  C   UNL A   1      42.512  28.621  32.957  1.00  0.00     0.074 A 
ATOM     59  C   UNL A   1      43.072  27.531  32.187  1.00  0.00     0.031 C 
ATOM     60  C   UNL A   1      42.883  28.934  34.224  1.00  0.00     0.037 A 
BRANCH  47  61
ATOM     61  C   UNL A   1      39.904  33.823  36.544  1.00  0.00     0.064 A 
ATOM     62  C   UNL A   1      39.027  33.550  37.605  1.00  0.00     0.173 A 
ATOM     63  C   UNL A   1      40.678  34.993  36.622  1.00  0.00     0.173 A 
ATOM     64  F   UNL A   1      38.261  32.449  37.581  1.00  0.00    -0.203 F 
ATOM     65  C   UNL A   1      38.906  34.426  38.682  1.00  0.00     0.198 A 
ATOM     66  C   UNL A   1      40.578  35.849  37.716  1.00  0.00     0.198 A 
ATOM     67  F   UNL A   1      41.542  35.298  35.643  1.00  0.00    -0.203 F 
ATOM     68  F   UNL A   1      38.024  34.167  39.657  1.00  0.00    -0.200 F 
ATOM     69  C   UNL A   1      39.687  35.570  38.740  1.00  0.00     0.200 A 
ATOM     70  F   UNL A   1      41.348  36.945  37.779  1.00  0.00    -0.200 F 
ATOM     71  F   UNL A   1      39.577  36.405  39.782  1.00  0.00    -0.200 F 
ENDBRANCH  47  61
BRANCH  48  72
ATOM     72  C   UNL A   1      40.924  27.923  28.586  1.00  0.00     0.064 A 
ATOM     73  C   UNL A   1      41.821  28.244  27.556  1.00  0.00     0.173 A 
ATOM     74  C   UNL A   1      40.174  26.746  28.451  1.00  0.00     0.173 A 
ATOM     75  F   UNL A   1      42.547  29.371  27.626  1.00  0.00    -0.203 F 
ATOM     76  C   UNL A   1      41.942  27.435  26.428  1.00  0.00     0.198 A 
ATOM     77  C   UNL A   1      40.321  25.920  27.341  1.00  0.00     0.198 A 
ATOM     78  F   UNL A   1      39.304  26.392  29.409  1.00  0.00    -0.203 F 
ATOM     79  F   UNL A   1      42.766  27.794  25.434  1.00  0.00    -0.200 F 
ATOM     80  C   UNL A   1      41.198  26.270  26.325  1.00  0.00     0.200 A 
ATOM     81  F   UNL A   1      39.611  24.787  27.253  1.00  0.00    -0.200 F 
ATOM     82  F   UNL A   1      41.316  25.490  25.242  1.00  0.00    -0.200 F 
ENDBRANCH  48  72
BRANCH  60  83
ATOM     83  C   UNL A   1      43.933  28.068  34.866  1.00  0.00     0.064 A 
ATOM     84  C   UNL A   1      43.598  26.907  35.580  1.00  0.00     0.173 A 
ATOM     85  C   UNL A   1      45.293  28.397  34.757  1.00  0.00     0.173 A 
ATOM     86  F   UNL A   1      42.312  26.551  35.727  1.00  0.00    -0.203 F 
ATOM     87  C   UNL A   1      44.579  26.133  36.195  1.00  0.00     0.198 A 
ATOM     88  C   UNL A   1      46.274  27.602  35.342  1.00  0.00     0.198 A 
ATOM     89  F   UNL A   1      45.673  29.490  34.079  1.00  0.00    -0.203 F 
ATOM     90  F   UNL A   1      44.228  25.068  36.929  1.00  0.00    -0.200 F 
ATOM     91  C   UNL A   1      45.917  26.478  36.071  1.00  0.00     0.200 A 
ATOM     92  F   UNL A   1      47.567  27.927  35.207  1.00  0.00    -0.200 F 
ATOM     93  F   UNL A   1      46.860  25.734  36.665  1.00  0.00    -0.200 F 
ENDBRANCH  60  83
ENDBRANCH  34  35
ENDBRANCH  26  29
ENDBRANCH  24  25
ENDBRANCH  23  24
ENDBRANCH  22  23
ENDBRANCH   1  22
TORSDOF 17
ENDMDL
