MODEL 1
REMARK VINA RESULT:     -13.2      0.000      0.000
REMARK SMILES Cc1[nH]c2c(C(=O)N3CC[C@H](O)C[C@@H]3C(=O)NCCCCCCNC(=O)c3ccc(-c4c5nc(c(-c6c(F)c(F)c(F)c(F)c6F)c6ccc([nH]6)c(-c6c(F)c(F)c(F)c(F)c6F)c6nc(c(-c7c(F)c(F)c(F)c(F)c7F)c7ccc4[nH]7)C=C6)C=C5)cc3)cccc2c1C
REMARK SMILES IDX 20 1 19 2 18 3 17 4 15 5 16 6 14 8 8 9 9 10 10 11 13 12
REMARK SMILES IDX 11 13 6 14 7 15 5 16 1 17 2 18 3 19 94 20 4 21 93 23 95 24
REMARK SMILES IDX 92 25 90 26 91 27 12 28 21 30 22 31 23 32 24 33 25 34 26 36
REMARK SMILES IDX 27 37 28 38 89 39 29 40 88 41 30 42 31 43 32 44 82 45 33 46
REMARK SMILES IDX 87 47 81 48 83 49 34 50 86 51 80 52 79 53 35 55 67 56 47 57
REMARK SMILES IDX 66 58 48 59 51 60 65 61 84 62 49 63 50 64 64 66 85 67 52 68
REMARK SMILES IDX 36 69 37 70 45 71 38 72 39 73 43 74 46 75 40 76 41 77 44 78
REMARK SMILES IDX 42 79 68 80 69 81 77 82 70 83 71 84 75 85 78 86 72 87 73 88
REMARK SMILES IDX 76 89 74 90 53 91 54 92 62 93 55 94 56 95 60 96 63 97 57 98
REMARK SMILES IDX 58 99 61 100 59 101
REMARK H PARENT 17 7 3 22 12 29 24 35 83 54 51 65
REMARK Flexibility Score: inf
ROOT
ATOM      1  C   UNL A   1      32.975  30.099  26.454  1.00  0.00     0.002 C 
ENDROOT
BRANCH   1   2
ATOM      2  C   UNL A   1      32.847  28.825  27.282  1.00  0.00     0.021 C 
BRANCH   2   3
ATOM      3  C   UNL A   1      32.899  27.524  26.487  1.00  0.00     0.116 C 
BRANCH   3   4
ATOM      4  N   UNL A   1      31.925  26.542  26.896  1.00  0.00    -0.354 N 
ATOM      5  C   UNL A   1      31.773  25.235  26.541  1.00  0.00     0.242 C 
ATOM      6  O   UNL A   1      30.706  24.716  26.896  1.00  0.00    -0.273 OA
ATOM      7  H   UNL A   1      31.257  26.871  27.540  1.00  0.00     0.163 HD
BRANCH   5   8
ATOM      8  C   UNL A   1      32.755  24.425  25.640  1.00  0.00     0.177 C 
ATOM      9  N   UNL A   1      32.282  23.874  24.360  1.00  0.00    -0.326 N 
ATOM     10  C   UNL A   1      31.876  22.473  24.258  1.00  0.00     0.123 C 
ATOM     11  C   UNL A   1      32.311  21.515  25.388  1.00  0.00     0.053 C 
ATOM     12  C   UNL A   1      33.612  23.436  26.419  1.00  0.00     0.067 C 
ATOM     13  C   UNL A   1      32.898  22.123  26.664  1.00  0.00     0.118 C 
BRANCH   9  14
ATOM     14  C   UNL A   1      32.810  24.455  23.200  1.00  0.00     0.256 C 
ATOM     15  O   UNL A   1      33.391  23.793  22.344  1.00  0.00    -0.269 OA
BRANCH  14  16
ATOM     16  C   UNL A   1      32.672  25.921  23.020  1.00  0.00     0.064 A 
ATOM     17  C   UNL A   1      27.852  26.929  23.839  1.00  0.00     0.064 C 
ATOM     18  C   UNL A   1      29.281  27.155  23.513  1.00  0.00     0.016 A 
ATOM     19  N   UNL A   1      30.186  26.128  23.450  1.00  0.00    -0.358 N 
ATOM     20  C   UNL A   1      29.961  28.331  23.258  1.00  0.00    -0.023 A 
ATOM     21  C   UNL A   1      31.444  26.594  23.156  1.00  0.00     0.059 A 
ATOM     22  H   UNL A   1      29.963  25.180  23.596  1.00  0.00     0.166 HD
ATOM     23  C   UNL A   1      31.339  27.986  23.084  1.00  0.00     0.003 A 
ATOM     24  C   UNL A   1      29.380  29.701  23.230  1.00  0.00     0.047 C 
ATOM     25  C   UNL A   1      32.514  28.744  22.897  1.00  0.00     0.010 A 
ATOM     26  C   UNL A   1      33.826  26.706  22.866  1.00  0.00     0.016 A 
ATOM     27  C   UNL A   1      33.749  28.097  22.804  1.00  0.00     0.002 A 
ENDBRANCH  14  16
ENDBRANCH   9  14
BRANCH  13  28
ATOM     28  O   UNL A   1      31.880  22.278  27.647  1.00  0.00    -0.393 OA
ATOM     29  H   UNL A   1      31.541  23.186  27.621  1.00  0.00     0.210 HD
ENDBRANCH  13  28
ENDBRANCH   5   8
ENDBRANCH   3   4
ENDBRANCH   2   3
ENDBRANCH   1   2
BRANCH   1  30
ATOM     30  C   UNL A   1      31.654  30.759  26.057  1.00  0.00     0.002 C 
BRANCH  30  31
ATOM     31  C   UNL A   1      31.409  32.165  26.606  1.00  0.00     0.021 C 
BRANCH  31  32
ATOM     32  C   UNL A   1      32.599  32.768  27.336  1.00  0.00     0.116 C 
BRANCH  32  33
ATOM     33  N   UNL A   1      32.408  34.187  27.601  1.00  0.00    -0.352 N 
ATOM     34  C   UNL A   1      32.988  34.980  28.552  1.00  0.00     0.251 C 
ATOM     35  H   UNL A   1      31.767  34.642  27.008  1.00  0.00     0.163 HD
ATOM     36  O   UNL A   1      32.535  36.098  28.793  1.00  0.00    -0.269 OA
BRANCH  34  37
ATOM     37  C   UNL A   1      34.157  34.480  29.297  1.00  0.00     0.039 A 
ATOM     38  C   UNL A   1      33.965  33.872  30.539  1.00  0.00     0.014 A 
ATOM     39  C   UNL A   1      35.441  34.608  28.760  1.00  0.00     0.014 A 
ATOM     40  C   UNL A   1      35.058  33.333  31.215  1.00  0.00     0.010 A 
ATOM     41  C   UNL A   1      36.514  33.995  29.392  1.00  0.00     0.010 A 
ATOM     42  C   UNL A   1      36.335  33.356  30.628  1.00  0.00    -0.014 A 
BRANCH  42  43
ATOM     43  C   UNL A   1      37.501  32.721  31.287  1.00  0.00     0.031 A 
ATOM     44  C   UNL A   1      38.205  31.574  30.619  1.00  0.00     0.074 A 
ATOM     45  C   UNL A   1      37.868  33.124  32.519  1.00  0.00     0.049 A 
ATOM     46  N   UNL A   1      39.173  30.820  31.072  1.00  0.00    -0.248 NA
ATOM     47  C   UNL A   1      37.736  31.205  29.273  1.00  0.00     0.031 C 
ATOM     48  C   UNL A   1      37.226  34.193  33.285  1.00  0.00     0.029 A 
ATOM     49  N   UNL A   1      38.858  32.667  33.352  1.00  0.00    -0.354 N 
ATOM     50  C   UNL A   1      39.414  29.879  30.079  1.00  0.00     0.074 A 
ATOM     51  C   UNL A   1      38.456  30.122  29.023  1.00  0.00     0.031 C 
ATOM     52  C   UNL A   1      37.849  34.323  34.467  1.00  0.00     0.029 A 
ATOM     53  C   UNL A   1      38.900  33.316  34.562  1.00  0.00     0.049 A 
ATOM     54  H   UNL A   1      39.479  31.945  33.105  1.00  0.00     0.167 HD
ATOM     55  C   UNL A   1      40.363  28.916  30.045  1.00  0.00     0.037 A 
ATOM     56  C   UNL A   1      39.687  33.106  35.635  1.00  0.00     0.037 A 
ATOM     57  C   UNL A   1      41.327  28.700  31.091  1.00  0.00     0.049 A 
ATOM     58  C   UNL A   1      40.726  32.019  35.575  1.00  0.00     0.074 A 
ATOM     59  C   UNL A   1      42.379  27.801  31.123  1.00  0.00     0.029 A 
ATOM     60  N   UNL A   1      41.353  29.390  32.295  1.00  0.00    -0.354 N 
ATOM     61  N   UNL A   1      40.999  31.188  34.598  1.00  0.00    -0.248 NA
ATOM     62  C   UNL A   1      41.569  31.842  36.765  1.00  0.00     0.031 C 
ATOM     63  C   UNL A   1      43.000  27.901  32.371  1.00  0.00     0.029 A 
ATOM     64  C   UNL A   1      42.380  28.910  33.092  1.00  0.00     0.049 A 
ATOM     65  H   UNL A   1      40.734  30.112  32.546  1.00  0.00     0.167 HD
ATOM     66  C   UNL A   1      42.061  30.410  35.043  1.00  0.00     0.074 A 
ATOM     67  C   UNL A   1      42.394  30.882  36.370  1.00  0.00     0.031 C 
ATOM     68  C   UNL A   1      42.701  29.396  34.411  1.00  0.00     0.037 A 
BRANCH  55  69
ATOM     69  C   UNL A   1      40.405  28.016  28.844  1.00  0.00     0.064 A 
ATOM     70  C   UNL A   1      39.690  26.809  28.796  1.00  0.00     0.173 A 
ATOM     71  C   UNL A   1      41.135  28.389  27.704  1.00  0.00     0.173 A 
ATOM     72  F   UNL A   1      38.983  26.400  29.860  1.00  0.00    -0.203 F 
ATOM     73  C   UNL A   1      39.728  25.996  27.665  1.00  0.00     0.198 A 
ATOM     74  C   UNL A   1      41.143  27.590  26.564  1.00  0.00     0.198 A 
ATOM     75  F   UNL A   1      41.833  29.534  27.692  1.00  0.00    -0.203 F 
ATOM     76  F   UNL A   1      39.079  24.824  27.664  1.00  0.00    -0.200 F 
ATOM     77  C   UNL A   1      40.447  26.392  26.547  1.00  0.00     0.200 A 
ATOM     78  F   UNL A   1      41.827  27.981  25.479  1.00  0.00    -0.200 F 
ATOM     79  F   UNL A   1      40.474  25.613  25.457  1.00  0.00    -0.200 F 
ENDBRANCH  55  69
BRANCH  56  80
ATOM     80  C   UNL A   1      39.526  33.944  36.853  1.00  0.00     0.064 A 
ATOM     81  C   UNL A   1      38.760  33.500  37.939  1.00  0.00     0.173 A 
ATOM     82  C   UNL A   1      40.123  35.210  36.952  1.00  0.00     0.173 A 
ATOM     83  F   UNL A   1      38.153  32.305  37.887  1.00  0.00    -0.203 F 
ATOM     84  C   UNL A   1      38.572  34.299  39.065  1.00  0.00     0.198 A 
ATOM     85  C   UNL A   1      39.963  35.995  38.092  1.00  0.00     0.198 A 
ATOM     86  F   UNL A   1      40.873  35.681  35.945  1.00  0.00    -0.203 F 
ATOM     87  F   UNL A   1      37.789  33.873  40.065  1.00  0.00    -0.200 F 
ATOM     88  C   UNL A   1      39.178  35.545  39.143  1.00  0.00     0.200 A 
ATOM     89  F   UNL A   1      40.565  37.189  38.170  1.00  0.00    -0.200 F 
ATOM     90  F   UNL A   1      39.001  36.312  40.227  1.00  0.00    -0.200 F 
ENDBRANCH  56  80
BRANCH  68  91
ATOM     91  C   UNL A   1      43.847  28.748  35.131  1.00  0.00     0.064 A 
ATOM     92  C   UNL A   1      43.664  27.625  35.951  1.00  0.00     0.173 A 
ATOM     93  C   UNL A   1      45.154  29.229  34.960  1.00  0.00     0.173 A 
ATOM     94  F   UNL A   1      42.432  27.135  36.159  1.00  0.00    -0.203 F 
ATOM     95  C   UNL A   1      44.744  27.024  36.593  1.00  0.00     0.198 A 
ATOM     96  C   UNL A   1      46.236  28.604  35.576  1.00  0.00     0.198 A 
ATOM     97  F   UNL A   1      45.387  30.297  34.181  1.00  0.00    -0.203 F 
ATOM     98  F   UNL A   1      44.537  25.983  37.413  1.00  0.00    -0.200 F 
ATOM     99  C   UNL A   1      46.028  27.508  36.398  1.00  0.00     0.200 A 
ATOM    100  F   UNL A   1      47.478  29.063  35.371  1.00  0.00    -0.200 F 
ATOM    101  F   UNL A   1      47.066  26.920  37.007  1.00  0.00    -0.200 F 
ENDBRANCH  68  91
ENDBRANCH  42  43
ENDBRANCH  34  37
ENDBRANCH  32  33
ENDBRANCH  31  32
ENDBRANCH  30  31
ENDBRANCH   1  30
TORSDOF 16
ENDMDL
MODEL 2
REMARK VINA RESULT:     -13.0      5.454     11.040
REMARK SMILES Cc1[nH]c2c(C(=O)N3CC[C@H](O)C[C@@H]3C(=O)NCCCCCCNC(=O)c3ccc(-c4c5nc(c(-c6c(F)c(F)c(F)c(F)c6F)c6ccc([nH]6)c(-c6c(F)c(F)c(F)c(F)c6F)c6nc(c(-c7c(F)c(F)c(F)c(F)c7F)c7ccc4[nH]7)C=C6)C=C5)cc3)cccc2c1C
REMARK SMILES IDX 20 1 19 2 18 3 17 4 15 5 16 6 14 8 8 9 9 10 10 11 13 12
REMARK SMILES IDX 11 13 6 14 7 15 5 16 1 17 2 18 3 19 94 20 4 21 93 23 95 24
REMARK SMILES IDX 92 25 90 26 91 27 12 28 21 30 22 31 23 32 24 33 25 34 26 36
REMARK SMILES IDX 27 37 28 38 89 39 29 40 88 41 30 42 31 43 32 44 82 45 33 46
REMARK SMILES IDX 87 47 81 48 83 49 34 50 86 51 80 52 79 53 35 55 67 56 47 57
REMARK SMILES IDX 66 58 48 59 51 60 65 61 84 62 49 63 50 64 64 66 85 67 52 68
REMARK SMILES IDX 36 69 37 70 45 71 38 72 39 73 43 74 46 75 40 76 41 77 44 78
REMARK SMILES IDX 42 79 68 80 69 81 77 82 70 83 71 84 75 85 78 86 72 87 73 88
REMARK SMILES IDX 76 89 74 90 53 91 54 92 62 93 55 94 56 95 60 96 63 97 57 98
REMARK SMILES IDX 58 99 61 100 59 101
REMARK H PARENT 17 7 3 22 12 29 24 35 83 54 51 65
REMARK Flexibility Score: inf
ROOT
ATOM      1  C   UNL A   1      36.904  21.997  24.193  1.00  0.00     0.002 C 
ENDROOT
BRANCH   1   2
ATOM      2  C   UNL A   1      36.899  23.303  24.980  1.00  0.00     0.021 C 
BRANCH   2   3
ATOM      3  C   UNL A   1      35.557  24.026  25.031  1.00  0.00     0.116 C 
BRANCH   3   4
ATOM      4  N   UNL A   1      35.051  24.428  23.741  1.00  0.00    -0.354 N 
ATOM      5  C   UNL A   1      33.931  25.123  23.398  1.00  0.00     0.242 C 
ATOM      6  O   UNL A   1      33.659  25.118  22.189  1.00  0.00    -0.273 OA
ATOM      7  H   UNL A   1      35.612  24.153  22.978  1.00  0.00     0.163 HD
BRANCH   5   8
ATOM      8  C   UNL A   1      32.936  25.782  24.402  1.00  0.00     0.177 C 
ATOM      9  N   UNL A   1      31.569  25.255  24.525  1.00  0.00    -0.326 N 
ATOM     10  C   UNL A   1      30.457  25.898  23.827  1.00  0.00     0.123 C 
ATOM     11  C   UNL A   1      30.678  27.329  23.290  1.00  0.00     0.053 C 
ATOM     12  C   UNL A   1      32.973  27.305  24.375  1.00  0.00     0.067 C 
ATOM     13  C   UNL A   1      32.105  27.882  23.277  1.00  0.00     0.118 C 
BRANCH   9  14
ATOM     14  C   UNL A   1      31.257  24.609  25.730  1.00  0.00     0.256 C 
ATOM     15  O   UNL A   1      30.401  25.040  26.499  1.00  0.00    -0.269 OA
BRANCH  14  16
ATOM     16  C   UNL A   1      32.005  23.378  26.084  1.00  0.00     0.064 A 
ATOM     17  C   UNL A   1      31.932  20.534  21.982  1.00  0.00     0.064 C 
ATOM     18  C   UNL A   1      32.221  20.954  23.375  1.00  0.00     0.016 A 
ATOM     19  N   UNL A   1      31.777  22.146  23.885  1.00  0.00    -0.358 N 
ATOM     20  C   UNL A   1      32.953  20.320  24.361  1.00  0.00    -0.023 A 
ATOM     21  C   UNL A   1      32.193  22.314  25.183  1.00  0.00     0.059 A 
ATOM     22  H   UNL A   1      31.231  22.796  23.386  1.00  0.00     0.166 HD
ATOM     23  C   UNL A   1      32.982  21.202  25.489  1.00  0.00     0.003 A 
ATOM     24  C   UNL A   1      33.632  19.001  24.251  1.00  0.00     0.047 C 
ATOM     25  C   UNL A   1      33.637  21.160  26.737  1.00  0.00     0.010 A 
ATOM     26  C   UNL A   1      32.695  23.320  27.306  1.00  0.00     0.016 A 
ATOM     27  C   UNL A   1      33.498  22.228  27.629  1.00  0.00     0.002 A 
ENDBRANCH  14  16
ENDBRANCH   9  14
BRANCH  13  28
ATOM     28  O   UNL A   1      32.700  27.675  22.001  1.00  0.00    -0.393 OA
ATOM     29  H   UNL A   1      32.641  28.491  21.480  1.00  0.00     0.210 HD
ENDBRANCH  13  28
ENDBRANCH   5   8
ENDBRANCH   3   4
ENDBRANCH   2   3
ENDBRANCH   1   2
BRANCH   1  30
ATOM     30  C   UNL A   1      36.787  20.724  25.033  1.00  0.00     0.002 C 
BRANCH  30  31
ATOM     31  C   UNL A   1      37.982  19.771  24.988  1.00  0.00     0.021 C 
BRANCH  31  32
ATOM     32  C   UNL A   1      39.202  20.261  25.754  1.00  0.00     0.116 C 
BRANCH  32  33
ATOM     33  N   UNL A   1      40.176  19.198  25.955  1.00  0.00    -0.352 N 
ATOM     34  C   UNL A   1      41.530  19.281  26.127  1.00  0.00     0.251 C 
ATOM     35  H   UNL A   1      39.805  18.286  25.969  1.00  0.00     0.163 HD
ATOM     36  O   UNL A   1      42.232  18.275  26.041  1.00  0.00    -0.269 OA
BRANCH  34  37
ATOM     37  C   UNL A   1      42.146  20.590  26.407  1.00  0.00     0.039 A 
ATOM     38  C   UNL A   1      42.614  21.364  25.344  1.00  0.00     0.014 A 
ATOM     39  C   UNL A   1      42.252  21.051  27.722  1.00  0.00     0.014 A 
ATOM     40  C   UNL A   1      43.131  22.634  25.597  1.00  0.00     0.010 A 
ATOM     41  C   UNL A   1      42.686  22.347  27.963  1.00  0.00     0.010 A 
ATOM     42  C   UNL A   1      43.135  23.149  26.904  1.00  0.00    -0.014 A 
BRANCH  42  43
ATOM     43  C   UNL A   1      43.606  24.526  27.191  1.00  0.00     0.031 A 
ATOM     44  C   UNL A   1      42.635  25.560  27.686  1.00  0.00     0.074 A 
ATOM     45  C   UNL A   1      44.884  24.859  26.926  1.00  0.00     0.049 A 
ATOM     46  N   UNL A   1      42.822  26.838  27.897  1.00  0.00    -0.248 NA
ATOM     47  C   UNL A   1      41.260  25.104  27.950  1.00  0.00     0.031 C 
ATOM     48  C   UNL A   1      45.902  23.950  26.397  1.00  0.00     0.029 A 
ATOM     49  N   UNL A   1      45.539  26.058  27.048  1.00  0.00    -0.354 N 
ATOM     50  C   UNL A   1      41.590  27.338  28.296  1.00  0.00     0.074 A 
ATOM     51  C   UNL A   1      40.649  26.240  28.247  1.00  0.00     0.031 C 
ATOM     52  C   UNL A   1      47.057  24.619  26.256  1.00  0.00     0.029 A 
ATOM     53  C   UNL A   1      46.850  26.011  26.638  1.00  0.00     0.049 A 
ATOM     54  H   UNL A   1      45.112  26.873  27.397  1.00  0.00     0.167 HD
ATOM     55  C   UNL A   1      41.280  28.596  28.688  1.00  0.00     0.037 A 
ATOM     56  C   UNL A   1      47.772  26.990  26.561  1.00  0.00     0.037 A 
ATOM     57  C   UNL A   1      42.230  29.673  28.758  1.00  0.00     0.049 A 
ATOM     58  C   UNL A   1      47.396  28.382  26.991  1.00  0.00     0.074 A 
ATOM     59  C   UNL A   1      42.037  30.965  29.213  1.00  0.00     0.029 A 
ATOM     60  N   UNL A   1      43.555  29.585  28.353  1.00  0.00    -0.354 N 
ATOM     61  N   UNL A   1      46.249  28.826  27.445  1.00  0.00    -0.248 NA
ATOM     62  C   UNL A   1      48.444  29.408  26.903  1.00  0.00     0.031 C 
ATOM     63  C   UNL A   1      43.225  31.677  29.024  1.00  0.00     0.029 A 
ATOM     64  C   UNL A   1      44.180  30.811  28.514  1.00  0.00     0.049 A 
ATOM     65  H   UNL A   1      43.986  28.773  28.003  1.00  0.00     0.167 HD
ATOM     66  C   UNL A   1      46.444  30.174  27.722  1.00  0.00     0.074 A 
ATOM     67  C   UNL A   1      47.825  30.469  27.403  1.00  0.00     0.031 C 
ATOM     68  C   UNL A   1      45.559  31.085  28.196  1.00  0.00     0.037 A 
BRANCH  55  69
ATOM     69  C   UNL A   1      39.855  28.878  29.068  1.00  0.00     0.064 A 
ATOM     70  C   UNL A   1      38.909  29.312  28.127  1.00  0.00     0.173 A 
ATOM     71  C   UNL A   1      39.417  28.669  30.386  1.00  0.00     0.173 A 
ATOM     72  F   UNL A   1      39.274  29.538  26.856  1.00  0.00    -0.203 F 
ATOM     73  C   UNL A   1      37.587  29.554  28.495  1.00  0.00     0.198 A 
ATOM     74  C   UNL A   1      38.088  28.879  30.743  1.00  0.00     0.198 A 
ATOM     75  F   UNL A   1      40.278  28.250  31.326  1.00  0.00    -0.203 F 
ATOM     76  F   UNL A   1      36.715  30.016  27.589  1.00  0.00    -0.200 F 
ATOM     77  C   UNL A   1      37.176  29.328  29.801  1.00  0.00     0.200 A 
ATOM     78  F   UNL A   1      37.689  28.646  32.001  1.00  0.00    -0.200 F 
ATOM     79  F   UNL A   1      35.902  29.550  30.151  1.00  0.00    -0.200 F 
ENDBRANCH  55  69
BRANCH  56  80
ATOM     80  C   UNL A   1      49.140  26.687  26.060  1.00  0.00     0.064 A 
ATOM     81  C   UNL A   1      49.499  26.955  24.732  1.00  0.00     0.173 A 
ATOM     82  C   UNL A   1      50.111  26.111  26.893  1.00  0.00     0.173 A 
ATOM     83  F   UNL A   1      48.600  27.488  23.891  1.00  0.00    -0.203 F 
ATOM     84  C   UNL A   1      50.765  26.635  24.248  1.00  0.00     0.198 A 
ATOM     85  C   UNL A   1      51.388  25.823  26.418  1.00  0.00     0.198 A 
ATOM     86  F   UNL A   1      49.823  25.841  28.175  1.00  0.00    -0.203 F 
ATOM     87  F   UNL A   1      51.063  26.851  22.960  1.00  0.00    -0.200 F 
ATOM     88  C   UNL A   1      51.711  26.073  25.093  1.00  0.00     0.200 A 
ATOM     89  F   UNL A   1      52.304  25.296  27.242  1.00  0.00    -0.200 F 
ATOM     90  F   UNL A   1      52.931  25.767  24.629  1.00  0.00    -0.200 F 
ENDBRANCH  56  80
BRANCH  68  91
ATOM     91  C   UNL A   1      46.063  32.479  28.430  1.00  0.00     0.064 A 
ATOM     92  C   UNL A   1      45.979  33.471  27.441  1.00  0.00     0.173 A 
ATOM     93  C   UNL A   1      46.595  32.841  29.678  1.00  0.00     0.173 A 
ATOM     94  F   UNL A   1      45.492  33.173  26.227  1.00  0.00    -0.203 F 
ATOM     95  C   UNL A   1      46.432  34.765  27.685  1.00  0.00     0.198 A 
ATOM     96  C   UNL A   1      47.014  34.144  29.929  1.00  0.00     0.198 A 
ATOM     97  F   UNL A   1      46.692  31.933  30.661  1.00  0.00    -0.203 F 
ATOM     98  F   UNL A   1      46.388  35.682  26.708  1.00  0.00    -0.200 F 
ATOM     99  C   UNL A   1      46.939  35.103  28.930  1.00  0.00     0.200 A 
ATOM    100  F   UNL A   1      47.487  34.473  31.139  1.00  0.00    -0.200 F 
ATOM    101  F   UNL A   1      47.362  36.352  29.166  1.00  0.00    -0.200 F 
ENDBRANCH  68  91
ENDBRANCH  42  43
ENDBRANCH  34  37
ENDBRANCH  32  33
ENDBRANCH  31  32
ENDBRANCH  30  31
ENDBRANCH   1  30
TORSDOF 16
ENDMDL
MODEL 3
REMARK VINA RESULT:     -12.9      0.488      7.181
REMARK SMILES Cc1[nH]c2c(C(=O)N3CC[C@H](O)C[C@@H]3C(=O)NCCCCCCNC(=O)c3ccc(-c4c5nc(c(-c6c(F)c(F)c(F)c(F)c6F)c6ccc([nH]6)c(-c6c(F)c(F)c(F)c(F)c6F)c6nc(c(-c7c(F)c(F)c(F)c(F)c7F)c7ccc4[nH]7)C=C6)C=C5)cc3)cccc2c1C
REMARK SMILES IDX 20 1 19 2 18 3 17 4 15 5 16 6 14 8 8 9 9 10 10 11 13 12
REMARK SMILES IDX 11 13 6 14 7 15 5 16 1 17 2 18 3 19 94 20 4 21 93 23 95 24
REMARK SMILES IDX 92 25 90 26 91 27 12 28 21 30 22 31 23 32 24 33 25 34 26 36
REMARK SMILES IDX 27 37 28 38 89 39 29 40 88 41 30 42 31 43 32 44 82 45 33 46
REMARK SMILES IDX 87 47 81 48 83 49 34 50 86 51 80 52 79 53 35 55 67 56 47 57
REMARK SMILES IDX 66 58 48 59 51 60 65 61 84 62 49 63 50 64 64 66 85 67 52 68
REMARK SMILES IDX 36 69 37 70 45 71 38 72 39 73 43 74 46 75 40 76 41 77 44 78
REMARK SMILES IDX 42 79 68 80 69 81 77 82 70 83 71 84 75 85 78 86 72 87 73 88
REMARK SMILES IDX 76 89 74 90 53 91 54 92 62 93 55 94 56 95 60 96 63 97 57 98
REMARK SMILES IDX 58 99 61 100 59 101
REMARK H PARENT 17 7 3 22 12 29 24 35 83 54 51 65
REMARK Flexibility Score: inf
ROOT
ATOM      1  C   UNL A   1      32.673  30.093  26.524  1.00  0.00     0.002 C 
ENDROOT
BRANCH   1   2
ATOM      2  C   UNL A   1      32.349  28.817  27.294  1.00  0.00     0.021 C 
BRANCH   2   3
ATOM      3  C   UNL A   1      32.522  27.521  26.508  1.00  0.00     0.116 C 
BRANCH   3   4
ATOM      4  N   UNL A   1      31.604  26.474  26.884  1.00  0.00    -0.354 N 
ATOM      5  C   UNL A   1      31.554  25.161  26.526  1.00  0.00     0.242 C 
ATOM      6  O   UNL A   1      30.513  24.569  26.844  1.00  0.00    -0.273 OA
ATOM      7  H   UNL A   1      30.893  26.756  27.504  1.00  0.00     0.163 HD
BRANCH   5   8
ATOM      8  C   UNL A   1      32.620  24.420  25.661  1.00  0.00     0.177 C 
ATOM      9  N   UNL A   1      32.204  23.715  24.439  1.00  0.00    -0.326 N 
ATOM     10  C   UNL A   1      31.988  22.269  24.451  1.00  0.00     0.123 C 
ATOM     11  C   UNL A   1      32.565  21.466  25.636  1.00  0.00     0.053 C 
ATOM     12  C   UNL A   1      33.615  23.615  26.488  1.00  0.00     0.067 C 
ATOM     13  C   UNL A   1      33.087  22.243  26.847  1.00  0.00     0.118 C 
BRANCH   9  14
ATOM     14  C   UNL A   1      32.630  24.270  23.225  1.00  0.00     0.256 C 
ATOM     15  O   UNL A   1      33.091  23.582  22.317  1.00  0.00    -0.269 OA
BRANCH  14  16
ATOM     16  C   UNL A   1      32.534  25.740  23.049  1.00  0.00     0.064 A 
ATOM     17  C   UNL A   1      27.739  26.877  23.848  1.00  0.00     0.064 C 
ATOM     18  C   UNL A   1      29.175  27.065  23.529  1.00  0.00     0.016 A 
ATOM     19  N   UNL A   1      30.052  26.013  23.467  1.00  0.00    -0.358 N 
ATOM     20  C   UNL A   1      29.888  28.223  23.281  1.00  0.00    -0.023 A 
ATOM     21  C   UNL A   1      31.324  26.446  23.180  1.00  0.00     0.059 A 
ATOM     22  H   UNL A   1      29.803  25.071  23.609  1.00  0.00     0.166 HD
ATOM     23  C   UNL A   1      31.257  27.840  23.112  1.00  0.00     0.003 A 
ATOM     24  C   UNL A   1      29.346  29.608  23.254  1.00  0.00     0.047 C 
ATOM     25  C   UNL A   1      32.453  28.567  22.934  1.00  0.00     0.010 A 
ATOM     26  C   UNL A   1      33.710  26.494  22.903  1.00  0.00     0.016 A 
ATOM     27  C   UNL A   1      33.670  27.886  22.845  1.00  0.00     0.002 A 
ENDBRANCH  14  16
ENDBRANCH   9  14
BRANCH  13  28
ATOM     28  O   UNL A   1      32.074  22.337  27.844  1.00  0.00    -0.393 OA
ATOM     29  H   UNL A   1      31.612  21.487  27.916  1.00  0.00     0.210 HD
ENDBRANCH  13  28
ENDBRANCH   5   8
ENDBRANCH   3   4
ENDBRANCH   2   3
ENDBRANCH   1   2
BRANCH   1  30
ATOM     30  C   UNL A   1      31.463  30.892  26.039  1.00  0.00     0.002 C 
BRANCH  30  31
ATOM     31  C   UNL A   1      31.340  32.321  26.568  1.00  0.00     0.021 C 
BRANCH  31  32
ATOM     32  C   UNL A   1      32.594  32.847  27.250  1.00  0.00     0.116 C 
BRANCH  32  33
ATOM     33  N   UNL A   1      32.447  34.237  27.655  1.00  0.00    -0.352 N 
ATOM     34  C   UNL A   1      33.036  34.909  28.690  1.00  0.00     0.251 C 
ATOM     35  H   UNL A   1      31.832  34.772  27.102  1.00  0.00     0.163 HD
ATOM     36  O   UNL A   1      32.617  36.012  29.037  1.00  0.00    -0.269 OA
BRANCH  34  37
ATOM     37  C   UNL A   1      34.174  34.294  29.397  1.00  0.00     0.039 A 
ATOM     38  C   UNL A   1      33.937  33.556  30.557  1.00  0.00     0.014 A 
ATOM     39  C   UNL A   1      35.473  34.446  28.904  1.00  0.00     0.014 A 
ATOM     40  C   UNL A   1      35.001  32.913  31.189  1.00  0.00     0.010 A 
ATOM     41  C   UNL A   1      36.515  33.736  29.483  1.00  0.00     0.010 A 
ATOM     42  C   UNL A   1      36.291  32.966  30.635  1.00  0.00    -0.014 A 
BRANCH  42  43
ATOM     43  C   UNL A   1      37.425  32.228  31.241  1.00  0.00     0.031 A 
ATOM     44  C   UNL A   1      37.927  32.615  32.603  1.00  0.00     0.074 A 
ATOM     45  C   UNL A   1      38.049  31.270  30.528  1.00  0.00     0.049 A 
ATOM     46  N   UNL A   1      38.965  32.166  33.261  1.00  0.00    -0.248 NA
ATOM     47  C   UNL A   1      37.181  33.671  33.307  1.00  0.00     0.031 C 
ATOM     48  C   UNL A   1      37.680  30.845  29.177  1.00  0.00     0.029 A 
ATOM     49  N   UNL A   1      39.138  30.494  30.835  1.00  0.00    -0.354 N 
ATOM     50  C   UNL A   1      39.007  32.895  34.442  1.00  0.00     0.074 A 
ATOM     51  C   UNL A   1      37.924  33.854  34.388  1.00  0.00     0.031 C 
ATOM     52  C   UNL A   1      38.516  29.874  28.778  1.00  0.00     0.029 A 
ATOM     53  C   UNL A   1      39.507  29.642  29.823  1.00  0.00     0.049 A 
ATOM     54  H   UNL A   1      39.608  30.542  31.698  1.00  0.00     0.167 HD
ATOM     55  C   UNL A   1      39.859  32.761  35.484  1.00  0.00     0.037 A 
ATOM     56  C   UNL A   1      40.542  28.784  29.742  1.00  0.00     0.037 A 
ATOM     57  C   UNL A   1      40.916  31.787  35.537  1.00  0.00     0.049 A 
ATOM     58  C   UNL A   1      41.483  28.664  30.911  1.00  0.00     0.074 A 
ATOM     59  C   UNL A   1      41.788  31.517  36.577  1.00  0.00     0.029 A 
ATOM     60  N   UNL A   1      41.249  30.926  34.501  1.00  0.00    -0.354 N 
ATOM     61  N   UNL A   1      41.464  29.302  32.057  1.00  0.00    -0.248 NA
ATOM     62  C   UNL A   1      42.586  27.703  30.778  1.00  0.00     0.031 C 
ATOM     63  C   UNL A   1      42.690  30.538  36.147  1.00  0.00     0.029 A 
ATOM     64  C   UNL A   1      42.338  30.149  34.864  1.00  0.00     0.049 A 
ATOM     65  H   UNL A   1      40.782  30.874  33.636  1.00  0.00     0.167 HD
ATOM     66  C   UNL A   1      42.533  28.801  32.790  1.00  0.00     0.074 A 
ATOM     67  C   UNL A   1      43.166  27.792  31.967  1.00  0.00     0.031 C 
ATOM     68  C   UNL A   1      42.952  29.145  34.032  1.00  0.00     0.037 A 
BRANCH  55  69
ATOM     69  C   UNL A   1      39.690  33.691  36.650  1.00  0.00     0.064 A 
ATOM     70  C   UNL A   1      40.310  34.950  36.691  1.00  0.00     0.173 A 
ATOM     71  C   UNL A   1      38.858  33.338  37.724  1.00  0.00     0.173 A 
ATOM     72  F   UNL A   1      41.124  35.335  35.696  1.00  0.00    -0.203 F 
ATOM     73  C   UNL A   1      40.128  35.806  37.775  1.00  0.00     0.198 A 
ATOM     74  C   UNL A   1      38.652  34.210  38.790  1.00  0.00     0.198 A 
ATOM     75  F   UNL A   1      38.236  32.149  37.736  1.00  0.00    -0.203 F 
ATOM     76  F   UNL A   1      40.772  36.980  37.814  1.00  0.00    -0.200 F 
ATOM     77  C   UNL A   1      39.292  35.439  38.819  1.00  0.00     0.200 A 
ATOM     78  F   UNL A   1      37.831  33.860  39.791  1.00  0.00    -0.200 F 
ATOM     79  F   UNL A   1      39.109  36.268  39.855  1.00  0.00    -0.200 F 
ENDBRANCH  55  69
BRANCH  56  80
ATOM     80  C   UNL A   1      40.742  27.970  28.513  1.00  0.00     0.064 A 
ATOM     81  C   UNL A   1      41.514  28.449  27.446  1.00  0.00     0.173 A 
ATOM     82  C   UNL A   1      40.155  26.703  28.374  1.00  0.00     0.173 A 
ATOM     83  F   UNL A   1      42.081  29.662  27.522  1.00  0.00    -0.203 F 
ATOM     84  C   UNL A   1      41.669  27.708  26.277  1.00  0.00     0.198 A 
ATOM     85  C   UNL A   1      40.338  25.947  27.218  1.00  0.00     0.198 A 
ATOM     86  F   UNL A   1      39.412  26.193  29.367  1.00  0.00    -0.203 F 
ATOM     87  F   UNL A   1      42.366  28.214  25.251  1.00  0.00    -0.200 F 
ATOM     88  C   UNL A   1      41.084  26.454  26.165  1.00  0.00     0.200 A 
ATOM     89  F   UNL A   1      39.787  24.730  27.122  1.00  0.00    -0.200 F 
ATOM     90  F   UNL A   1      41.236  25.739  25.042  1.00  0.00    -0.200 F 
ENDBRANCH  56  80
BRANCH  68  91
ATOM     91  C   UNL A   1      44.132  28.405  34.592  1.00  0.00     0.064 A 
ATOM     92  C   UNL A   1      43.984  27.191  35.278  1.00  0.00     0.173 A 
ATOM     93  C   UNL A   1      45.433  28.895  34.398  1.00  0.00     0.173 A 
ATOM     94  F   UNL A   1      42.761  26.688  35.503  1.00  0.00    -0.203 F 
ATOM     95  C   UNL A   1      45.093  26.508  35.771  1.00  0.00     0.198 A 
ATOM     96  C   UNL A   1      46.541  28.191  34.862  1.00  0.00     0.198 A 
ATOM     97  F   UNL A   1      45.632  30.048  33.742  1.00  0.00    -0.203 F 
ATOM     98  F   UNL A   1      44.923  25.375  36.469  1.00  0.00    -0.200 F 
ATOM     99  C   UNL A   1      46.370  27.003  35.555  1.00  0.00     0.200 A 
ATOM    100  F   UNL A   1      47.775  28.662  34.635  1.00  0.00    -0.200 F 
ATOM    101  F   UNL A   1      47.435  26.337  36.019  1.00  0.00    -0.200 F 
ENDBRANCH  68  91
ENDBRANCH  42  43
ENDBRANCH  34  37
ENDBRANCH  32  33
ENDBRANCH  31  32
ENDBRANCH  30  31
ENDBRANCH   1  30
TORSDOF 16
ENDMDL
