MODEL 1
REMARK VINA RESULT:     -12.1      0.000      0.000
REMARK SMILES C[C@@H](C(=O)NCCCCCCNC(=O)c1ccc(-c2c3nc(c(-c4c(F)c(F)c(F)c(F)c4F)c4ccc([nH]4)c(-c4c(F)c(F)c(F)c(F)c4F)c4nc(c(-c5c(F)c(F)c(F)c(F)c5F)c5ccc2[nH]5)C=C4)C=C3)cc1)c1ccc(C[C@H]2CCCC2=O)cc1[N+](=O)[O-]
REMARK SMILES IDX 8 1 7 2 6 3 5 4 3 5 4 6 2 8 1 9 78 10 79 11 90 12 80 13
REMARK SMILES IDX 89 14 81 15 91 16 92 17 93 18 82 19 83 20 84 21 87 22 85 23
REMARK SMILES IDX 86 24 88 25 9 26 10 27 11 28 12 29 13 30 14 32 15 33 16 34
REMARK SMILES IDX 77 35 17 36 76 37 18 38 19 39 20 40 70 41 21 42 75 43 69 44
REMARK SMILES IDX 71 45 22 46 74 47 68 48 67 49 23 51 55 52 35 53 54 54 36 55
REMARK SMILES IDX 39 56 53 57 72 58 37 59 38 60 52 62 73 63 40 64 24 65 25 66
REMARK SMILES IDX 33 67 26 68 27 69 31 70 34 71 28 72 29 73 32 74 30 75 56 76
REMARK SMILES IDX 57 77 65 78 58 79 59 80 63 81 66 82 60 83 61 84 64 85 62 86
REMARK SMILES IDX 41 87 42 88 50 89 43 90 44 91 48 92 51 93 45 94 46 95 49 96
REMARK SMILES IDX 47 97
REMARK H PARENT 5 7 12 31 71 50 39 61
REMARK Flexibility Score: inf
ROOT
ATOM      1  C   UNL A   1      36.434  21.855  24.374  1.00  0.00     0.002 C 
ENDROOT
BRANCH   1   2
ATOM      2  C   UNL A   1      36.686  23.051  25.304  1.00  0.00     0.021 C 
BRANCH   2   3
ATOM      3  C   UNL A   1      35.416  23.633  25.925  1.00  0.00     0.116 C 
BRANCH   3   4
ATOM      4  N   UNL A   1      35.090  24.901  25.315  1.00  0.00    -0.356 N 
ATOM      5  C   UNL A   1      33.896  25.427  24.942  1.00  0.00     0.227 C 
ATOM      6  O   UNL A   1      33.932  26.547  24.425  1.00  0.00    -0.274 OA
ATOM      7  H   UNL A   1      35.865  25.481  25.140  1.00  0.00     0.163 HD
BRANCH   5   8
ATOM      8  C   UNL A   1      32.570  24.736  25.300  1.00  0.00     0.112 C 
ATOM      9  C   UNL A   1      32.082  24.719  26.755  1.00  0.00     0.023 C 
BRANCH   8  10
ATOM     10  C   UNL A   1      32.473  23.322  24.721  1.00  0.00     0.042 A 
ATOM     11  C   UNL A   1      32.266  22.281  25.650  1.00  0.00     0.012 A 
ATOM     12  C   UNL A   1      32.578  22.966  23.355  1.00  0.00     0.273 A 
ATOM     13  C   UNL A   1      32.213  20.946  25.250  1.00  0.00     0.004 A 
ATOM     14  C   UNL A   1      32.567  21.613  22.965  1.00  0.00     0.089 A 
ATOM     15  C   UNL A   1      32.411  20.595  23.913  1.00  0.00    -0.040 A 
BRANCH  12  16
ATOM     16  N   UNL A   1      32.697  23.946  22.259  1.00  0.00     0.063 N 
ATOM     17  O   UNL A   1      33.736  23.916  21.580  1.00  0.00    -0.258 OA
ATOM     18  O   UNL A   1      31.803  24.791  22.119  1.00  0.00    -0.258 OA
ENDBRANCH  12  16
BRANCH  15  19
ATOM     19  C   UNL A   1      32.477  19.144  23.499  1.00  0.00     0.047 C 
BRANCH  19  20
ATOM     20  C   UNL A   1      33.469  18.271  24.279  1.00  0.00     0.060 C 
ATOM     21  C   UNL A   1      33.078  17.908  25.716  1.00  0.00     0.012 C 
ATOM     22  C   UNL A   1      33.663  16.909  23.651  1.00  0.00     0.136 C 
ATOM     23  C   UNL A   1      32.478  16.508  25.658  1.00  0.00     0.009 C 
ATOM     24  C   UNL A   1      33.243  15.785  24.560  1.00  0.00     0.076 C 
ATOM     25  O   UNL A   1      34.118  16.735  22.527  1.00  0.00    -0.299 OA
ENDBRANCH  19  20
ENDBRANCH  15  19
ENDBRANCH   8  10
ENDBRANCH   5   8
ENDBRANCH   3   4
ENDBRANCH   2   3
ENDBRANCH   1   2
BRANCH   1  26
ATOM     26  C   UNL A   1      36.538  20.479  25.039  1.00  0.00     0.002 C 
BRANCH  26  27
ATOM     27  C   UNL A   1      37.873  19.760  24.826  1.00  0.00     0.021 C 
BRANCH  27  28
ATOM     28  C   UNL A   1      38.971  20.173  25.795  1.00  0.00     0.116 C 
BRANCH  28  29
ATOM     29  N   UNL A   1      40.038  19.190  25.861  1.00  0.00    -0.352 N 
ATOM     30  C   UNL A   1      41.380  19.386  26.046  1.00  0.00     0.251 C 
ATOM     31  H   UNL A   1      39.757  18.252  25.759  1.00  0.00     0.163 HD
ATOM     32  O   UNL A   1      42.169  18.454  25.882  1.00  0.00    -0.269 OA
BRANCH  30  33
ATOM     33  C   UNL A   1      41.893  20.717  26.431  1.00  0.00     0.039 A 
ATOM     34  C   UNL A   1      41.926  21.061  27.784  1.00  0.00     0.014 A 
ATOM     35  C   UNL A   1      42.305  21.640  25.463  1.00  0.00     0.014 A 
ATOM     36  C   UNL A   1      42.391  22.319  28.170  1.00  0.00     0.010 A 
ATOM     37  C   UNL A   1      42.839  22.864  25.852  1.00  0.00     0.010 A 
ATOM     38  C   UNL A   1      42.862  23.227  27.207  1.00  0.00    -0.014 A 
BRANCH  38  39
ATOM     39  C   UNL A   1      43.320  24.584  27.597  1.00  0.00     0.031 A 
ATOM     40  C   UNL A   1      42.311  25.635  27.973  1.00  0.00     0.074 A 
ATOM     41  C   UNL A   1      44.633  24.880  27.580  1.00  0.00     0.049 A 
ATOM     42  N   UNL A   1      42.502  26.885  28.314  1.00  0.00    -0.248 NA
ATOM     43  C   UNL A   1      40.895  25.238  27.930  1.00  0.00     0.031 C 
ATOM     44  C   UNL A   1      45.703  23.962  27.192  1.00  0.00     0.029 A 
ATOM     45  N   UNL A   1      45.290  26.043  27.896  1.00  0.00    -0.354 N 
ATOM     46  C   UNL A   1      41.235  27.422  28.502  1.00  0.00     0.074 A 
ATOM     47  C   UNL A   1      40.282  26.383  28.185  1.00  0.00     0.031 C 
ATOM     48  C   UNL A   1      46.885  24.586  27.321  1.00  0.00     0.029 A 
ATOM     49  C   UNL A   1      46.654  25.955  27.772  1.00  0.00     0.049 A 
ATOM     50  H   UNL A   1      44.827  26.863  28.183  1.00  0.00     0.167 HD
ATOM     51  C   UNL A   1      40.897  28.663  28.927  1.00  0.00     0.037 A 
ATOM     52  C   UNL A   1      47.610  26.875  28.005  1.00  0.00     0.037 A 
ATOM     53  C   UNL A   1      41.850  29.682  29.282  1.00  0.00     0.049 A 
ATOM     54  C   UNL A   1      47.208  28.239  28.499  1.00  0.00     0.074 A 
ATOM     55  C   UNL A   1      41.614  30.947  29.787  1.00  0.00     0.029 A 
ATOM     56  N   UNL A   1      43.226  29.545  29.172  1.00  0.00    -0.354 N 
ATOM     57  N   UNL A   1      46.011  28.714  28.743  1.00  0.00    -0.248 NA
ATOM     58  C   UNL A   1      48.296  29.192  28.762  1.00  0.00     0.031 C 
ATOM     59  C   UNL A   1      42.846  31.593  29.943  1.00  0.00     0.029 A 
ATOM     60  C   UNL A   1      43.852  30.710  29.584  1.00  0.00     0.049 A 
ATOM     61  H   UNL A   1      43.689  28.739  28.849  1.00  0.00     0.167 HD
ATOM     62  C   UNL A   1      46.202  30.002  29.225  1.00  0.00     0.074 A 
ATOM     63  C   UNL A   1      47.632  30.231  29.246  1.00  0.00     0.031 C 
ATOM     64  C   UNL A   1      45.278  30.913  29.618  1.00  0.00     0.037 A 
BRANCH  51  65
ATOM     65  C   UNL A   1      39.434  28.987  29.032  1.00  0.00     0.064 A 
ATOM     66  C   UNL A   1      38.744  28.900  30.251  1.00  0.00     0.173 A 
ATOM     67  C   UNL A   1      38.718  29.413  27.904  1.00  0.00     0.173 A 
ATOM     68  F   UNL A   1      39.378  28.484  31.358  1.00  0.00    -0.203 F 
ATOM     69  C   UNL A   1      37.384  29.194  30.328  1.00  0.00     0.198 A 
ATOM     70  C   UNL A   1      37.367  29.738  27.991  1.00  0.00     0.198 A 
ATOM     71  F   UNL A   1      39.330  29.519  26.714  1.00  0.00    -0.203 F 
ATOM     72  F   UNL A   1      36.735  29.048  31.491  1.00  0.00    -0.200 F 
ATOM     73  C   UNL A   1      36.699  29.619  29.201  1.00  0.00     0.200 A 
ATOM     74  F   UNL A   1      36.709  30.161  26.903  1.00  0.00    -0.200 F 
ATOM     75  F   UNL A   1      35.392  29.906  29.278  1.00  0.00    -0.200 F 
ENDBRANCH  51  65
BRANCH  52  76
ATOM     76  C   UNL A   1      49.042  26.522  27.825  1.00  0.00     0.064 A 
ATOM     77  C   UNL A   1      49.857  26.242  28.932  1.00  0.00     0.173 A 
ATOM     78  C   UNL A   1      49.628  26.467  26.552  1.00  0.00     0.173 A 
ATOM     79  F   UNL A   1      49.345  26.301  30.170  1.00  0.00    -0.203 F 
ATOM     80  C   UNL A   1      51.208  25.945  28.774  1.00  0.00     0.198 A 
ATOM     81  C   UNL A   1      50.974  26.142  26.395  1.00  0.00     0.198 A 
ATOM     82  F   UNL A   1      48.891  26.721  25.462  1.00  0.00    -0.203 F 
ATOM     83  F   UNL A   1      51.973  25.728  29.852  1.00  0.00    -0.200 F 
ATOM     84  C   UNL A   1      51.764  25.890  27.506  1.00  0.00     0.200 A 
ATOM     85  F   UNL A   1      51.505  26.076  25.166  1.00  0.00    -0.200 F 
ATOM     86  F   UNL A   1      53.064  25.602  27.354  1.00  0.00    -0.200 F 
ENDBRANCH  52  76
BRANCH  64  87
ATOM     87  C   UNL A   1      45.784  32.218  30.158  1.00  0.00     0.064 A 
ATOM     88  C   UNL A   1      45.983  33.334  29.332  1.00  0.00     0.173 A 
ATOM     89  C   UNL A   1      46.044  32.361  31.530  1.00  0.00     0.173 A 
ATOM     90  F   UNL A   1      45.762  33.244  28.011  1.00  0.00    -0.203 F 
ATOM     91  C   UNL A   1      46.453  34.536  29.855  1.00  0.00     0.198 A 
ATOM     92  C   UNL A   1      46.483  33.573  32.054  1.00  0.00     0.198 A 
ATOM     93  F   UNL A   1      45.862  31.326  32.364  1.00  0.00    -0.203 F 
ATOM     94  F   UNL A   1      46.686  35.573  29.039  1.00  0.00    -0.200 F 
ATOM     95  C   UNL A   1      46.697  34.657  31.215  1.00  0.00     0.200 A 
ATOM     96  F   UNL A   1      46.704  33.691  33.371  1.00  0.00    -0.200 F 
ATOM     97  F   UNL A   1      47.145  35.815  31.717  1.00  0.00    -0.200 F 
ENDBRANCH  64  87
ENDBRANCH  38  39
ENDBRANCH  30  33
ENDBRANCH  28  29
ENDBRANCH  27  28
ENDBRANCH  26  27
ENDBRANCH   1  26
TORSDOF 17
ENDMDL
MODEL 2
REMARK VINA RESULT:     -12.1      4.630      8.182
REMARK SMILES C[C@@H](C(=O)NCCCCCCNC(=O)c1ccc(-c2c3nc(c(-c4c(F)c(F)c(F)c(F)c4F)c4ccc([nH]4)c(-c4c(F)c(F)c(F)c(F)c4F)c4nc(c(-c5c(F)c(F)c(F)c(F)c5F)c5ccc2[nH]5)C=C4)C=C3)cc1)c1ccc(C[C@H]2CCCC2=O)cc1[N+](=O)[O-]
REMARK SMILES IDX 8 1 7 2 6 3 5 4 3 5 4 6 2 8 1 9 78 10 79 11 90 12 80 13
REMARK SMILES IDX 89 14 81 15 91 16 92 17 93 18 82 19 83 20 84 21 87 22 85 23
REMARK SMILES IDX 86 24 88 25 9 26 10 27 11 28 12 29 13 30 14 32 15 33 16 34
REMARK SMILES IDX 77 35 17 36 76 37 18 38 19 39 20 40 70 41 21 42 75 43 69 44
REMARK SMILES IDX 71 45 22 46 74 47 68 48 67 49 23 51 55 52 35 53 54 54 36 55
REMARK SMILES IDX 39 56 53 57 72 58 37 59 38 60 52 62 73 63 40 64 24 65 25 66
REMARK SMILES IDX 33 67 26 68 27 69 31 70 34 71 28 72 29 73 32 74 30 75 56 76
REMARK SMILES IDX 57 77 65 78 58 79 59 80 63 81 66 82 60 83 61 84 64 85 62 86
REMARK SMILES IDX 41 87 42 88 50 89 43 90 44 91 48 92 51 93 45 94 46 95 49 96
REMARK SMILES IDX 47 97
REMARK H PARENT 5 7 12 31 71 50 39 61
REMARK Flexibility Score: inf
ROOT
ATOM      1  C   UNL A   1      32.558  25.343  26.442  1.00  0.00     0.002 C 
ENDROOT
BRANCH   1   2
ATOM      2  C   UNL A   1      33.294  24.066  26.876  1.00  0.00     0.021 C 
BRANCH   2   3
ATOM      3  C   UNL A   1      33.347  22.983  25.799  1.00  0.00     0.116 C 
BRANCH   3   4
ATOM      4  N   UNL A   1      34.251  23.366  24.739  1.00  0.00    -0.356 N 
ATOM      5  C   UNL A   1      34.063  23.453  23.398  1.00  0.00     0.227 C 
ATOM      6  O   UNL A   1      35.043  23.801  22.733  1.00  0.00    -0.274 OA
ATOM      7  H   UNL A   1      35.157  23.604  25.042  1.00  0.00     0.163 HD
BRANCH   5   8
ATOM      8  C   UNL A   1      32.668  23.287  22.774  1.00  0.00     0.112 C 
ATOM      9  C   UNL A   1      32.528  22.740  21.347  1.00  0.00     0.023 C 
BRANCH   8  10
ATOM     10  C   UNL A   1      31.811  24.547  22.915  1.00  0.00     0.042 A 
ATOM     11  C   UNL A   1      30.732  24.469  23.819  1.00  0.00     0.012 A 
ATOM     12  C   UNL A   1      31.995  25.769  22.223  1.00  0.00     0.273 A 
ATOM     13  C   UNL A   1      29.848  25.534  23.995  1.00  0.00     0.004 A 
ATOM     14  C   UNL A   1      31.073  26.823  22.375  1.00  0.00     0.089 A 
ATOM     15  C   UNL A   1      29.980  26.701  23.240  1.00  0.00    -0.040 A 
BRANCH  12  16
ATOM     16  N   UNL A   1      33.131  26.037  21.321  1.00  0.00     0.063 N 
ATOM     17  O   UNL A   1      34.029  26.782  21.744  1.00  0.00    -0.258 OA
ATOM     18  O   UNL A   1      33.097  25.576  20.173  1.00  0.00    -0.258 OA
ENDBRANCH  12  16
BRANCH  15  19
ATOM     19  C   UNL A   1      28.953  27.803  23.340  1.00  0.00     0.047 C 
BRANCH  19  20
ATOM     20  C   UNL A   1      29.337  29.136  22.683  1.00  0.00     0.060 C 
ATOM     21  C   UNL A   1      28.245  29.836  21.868  1.00  0.00     0.012 C 
ATOM     22  C   UNL A   1      29.705  30.197  23.695  1.00  0.00     0.136 C 
ATOM     23  C   UNL A   1      27.640  30.897  22.781  1.00  0.00     0.009 C 
ATOM     24  C   UNL A   1      28.790  31.392  23.645  1.00  0.00     0.076 C 
ATOM     25  O   UNL A   1      30.649  30.103  24.471  1.00  0.00    -0.299 OA
ENDBRANCH  19  20
ENDBRANCH  15  19
ENDBRANCH   8  10
ENDBRANCH   5   8
ENDBRANCH   3   4
ENDBRANCH   2   3
ENDBRANCH   1   2
BRANCH   1  26
ATOM     26  C   UNL A   1      33.456  26.461  25.904  1.00  0.00     0.002 C 
BRANCH  26  27
ATOM     27  C   UNL A   1      32.744  27.791  25.645  1.00  0.00     0.021 C 
BRANCH  27  28
ATOM     28  C   UNL A   1      33.676  28.951  25.325  1.00  0.00     0.116 C 
BRANCH  28  29
ATOM     29  N   UNL A   1      33.163  30.215  25.821  1.00  0.00    -0.352 N 
ATOM     30  C   UNL A   1      33.572  30.947  26.904  1.00  0.00     0.251 C 
ATOM     31  H   UNL A   1      32.418  30.601  25.306  1.00  0.00     0.163 HD
ATOM     32  O   UNL A   1      32.899  31.901  27.294  1.00  0.00    -0.269 OA
BRANCH  30  33
ATOM     33  C   UNL A   1      34.814  30.588  27.619  1.00  0.00     0.039 A 
ATOM     34  C   UNL A   1      34.908  29.329  28.217  1.00  0.00     0.014 A 
ATOM     35  C   UNL A   1      35.869  31.499  27.734  1.00  0.00     0.014 A 
ATOM     36  C   UNL A   1      36.066  28.976  28.912  1.00  0.00     0.010 A 
ATOM     37  C   UNL A   1      37.052  31.118  28.361  1.00  0.00     0.010 A 
ATOM     38  C   UNL A   1      37.152  29.864  28.980  1.00  0.00    -0.014 A 
BRANCH  38  39
ATOM     39  C   UNL A   1      38.373  29.518  29.749  1.00  0.00     0.031 A 
ATOM     40  C   UNL A   1      38.576  30.090  31.126  1.00  0.00     0.074 A 
ATOM     41  C   UNL A   1      39.311  28.724  29.201  1.00  0.00     0.049 A 
ATOM     42  N   UNL A   1      39.584  29.937  31.949  1.00  0.00    -0.248 NA
ATOM     43  C   UNL A   1      37.520  30.979  31.636  1.00  0.00     0.031 C 
ATOM     44  C   UNL A   1      39.250  28.145  27.859  1.00  0.00     0.029 A 
ATOM     45  N   UNL A   1      40.503  28.269  29.706  1.00  0.00    -0.354 N 
ATOM     46  C   UNL A   1      39.291  30.725  33.054  1.00  0.00     0.074 A 
ATOM     47  C   UNL A   1      38.041  31.397  32.778  1.00  0.00     0.031 C 
ATOM     48  C   UNL A   1      40.340  27.386  27.658  1.00  0.00     0.029 A 
ATOM     49  C   UNL A   1      41.189  27.450  28.844  1.00  0.00     0.049 A 
ATOM     50  H   UNL A   1      40.834  28.507  30.601  1.00  0.00     0.167 HD
ATOM     51  C   UNL A   1      39.988  30.854  34.209  1.00  0.00     0.037 A 
ATOM     52  C   UNL A   1      42.367  26.817  28.999  1.00  0.00     0.037 A 
ATOM     53  C   UNL A   1      41.210  30.151  34.497  1.00  0.00     0.049 A 
ATOM     54  C   UNL A   1      43.110  26.960  30.300  1.00  0.00     0.074 A 
ATOM     55  C   UNL A   1      41.959  30.160  35.659  1.00  0.00     0.029 A 
ATOM     56  N   UNL A   1      41.860  29.306  33.609  1.00  0.00    -0.354 N 
ATOM     57  N   UNL A   1      42.789  27.649  31.368  1.00  0.00    -0.248 NA
ATOM     58  C   UNL A   1      44.377  26.224  30.421  1.00  0.00     0.031 C 
ATOM     59  C   UNL A   1      43.085  29.354  35.461  1.00  0.00     0.029 A 
ATOM     60  C   UNL A   1      43.011  28.801  34.192  1.00  0.00     0.049 A 
ATOM     61  H   UNL A   1      41.550  29.097  32.699  1.00  0.00     0.167 HD
ATOM     62  C   UNL A   1      43.788  27.400  32.299  1.00  0.00     0.074 A 
ATOM     63  C   UNL A   1      44.723  26.488  31.672  1.00  0.00     0.031 C 
ATOM     64  C   UNL A   1      43.919  27.879  33.560  1.00  0.00     0.037 A 
BRANCH  51  65
ATOM     65  C   UNL A   1      39.443  31.793  35.247  1.00  0.00     0.064 A 
ATOM     66  C   UNL A   1      38.563  31.356  36.249  1.00  0.00     0.173 A 
ATOM     67  C   UNL A   1      39.825  33.143  35.255  1.00  0.00     0.173 A 
ATOM     68  F   UNL A   1      38.156  30.078  36.280  1.00  0.00    -0.203 F 
ATOM     69  C   UNL A   1      38.059  32.243  37.198  1.00  0.00     0.198 A 
ATOM     70  C   UNL A   1      39.345  34.020  36.224  1.00  0.00     0.198 A 
ATOM     71  F   UNL A   1      40.668  33.614  34.322  1.00  0.00    -0.203 F 
ATOM     72  F   UNL A   1      37.177  31.813  38.110  1.00  0.00    -0.200 F 
ATOM     73  C   UNL A   1      38.456  33.571  37.190  1.00  0.00     0.200 A 
ATOM     74  F   UNL A   1      39.739  35.300  36.222  1.00  0.00    -0.200 F 
ATOM     75  F   UNL A   1      37.974  34.421  38.106  1.00  0.00    -0.200 F 
ENDBRANCH  51  65
BRANCH  52  76
ATOM     76  C   UNL A   1      42.894  25.948  27.914  1.00  0.00     0.064 A 
ATOM     77  C   UNL A   1      42.530  24.596  27.838  1.00  0.00     0.173 A 
ATOM     78  C   UNL A   1      43.774  26.443  26.941  1.00  0.00     0.173 A 
ATOM     79  F   UNL A   1      41.706  24.073  28.757  1.00  0.00    -0.203 F 
ATOM     80  C   UNL A   1      43.045  23.767  26.845  1.00  0.00     0.198 A 
ATOM     81  C   UNL A   1      44.266  25.619  25.932  1.00  0.00     0.198 A 
ATOM     82  F   UNL A   1      44.147  27.731  26.966  1.00  0.00    -0.203 F 
ATOM     83  F   UNL A   1      42.719  22.468  26.824  1.00  0.00    -0.200 F 
ATOM     84  C   UNL A   1      43.910  24.280  25.890  1.00  0.00     0.200 A 
ATOM     85  F   UNL A   1      45.090  26.121  25.002  1.00  0.00    -0.200 F 
ATOM     86  F   UNL A   1      44.404  23.483  24.933  1.00  0.00    -0.200 F 
ENDBRANCH  52  76
BRANCH  64  87
ATOM     87  C   UNL A   1      45.083  27.383  34.367  1.00  0.00     0.064 A 
ATOM     88  C   UNL A   1      45.022  26.188  35.099  1.00  0.00     0.173 A 
ATOM     89  C   UNL A   1      46.289  28.101  34.380  1.00  0.00     0.173 A 
ATOM     90  F   UNL A   1      43.887  25.472  35.129  1.00  0.00    -0.203 F 
ATOM     91  C   UNL A   1      46.116  25.747  35.840  1.00  0.00     0.198 A 
ATOM     92  C   UNL A   1      47.390  27.641  35.097  1.00  0.00     0.198 A 
ATOM     93  F   UNL A   1      46.402  29.247  33.690  1.00  0.00    -0.203 F 
ATOM     94  F   UNL A   1      46.017  24.631  36.574  1.00  0.00    -0.200 F 
ATOM     95  C   UNL A   1      47.300  26.469  35.833  1.00  0.00     0.200 A 
ATOM     96  F   UNL A   1      48.537  28.333  35.077  1.00  0.00    -0.200 F 
ATOM     97  F   UNL A   1      48.352  26.041  36.543  1.00  0.00    -0.200 F 
ENDBRANCH  64  87
ENDBRANCH  38  39
ENDBRANCH  30  33
ENDBRANCH  28  29
ENDBRANCH  27  28
ENDBRANCH  26  27
ENDBRANCH   1  26
TORSDOF 17
ENDMDL
MODEL 3
REMARK VINA RESULT:     -12.0      5.005      8.762
REMARK SMILES C[C@@H](C(=O)NCCCCCCNC(=O)c1ccc(-c2c3nc(c(-c4c(F)c(F)c(F)c(F)c4F)c4ccc([nH]4)c(-c4c(F)c(F)c(F)c(F)c4F)c4nc(c(-c5c(F)c(F)c(F)c(F)c5F)c5ccc2[nH]5)C=C4)C=C3)cc1)c1ccc(C[C@H]2CCCC2=O)cc1[N+](=O)[O-]
REMARK SMILES IDX 8 1 7 2 6 3 5 4 3 5 4 6 2 8 1 9 78 10 79 11 90 12 80 13
REMARK SMILES IDX 89 14 81 15 91 16 92 17 93 18 82 19 83 20 84 21 87 22 85 23
REMARK SMILES IDX 86 24 88 25 9 26 10 27 11 28 12 29 13 30 14 32 15 33 16 34
REMARK SMILES IDX 77 35 17 36 76 37 18 38 19 39 20 40 70 41 21 42 75 43 69 44
REMARK SMILES IDX 71 45 22 46 74 47 68 48 67 49 23 51 55 52 35 53 54 54 36 55
REMARK SMILES IDX 39 56 53 57 72 58 37 59 38 60 52 62 73 63 40 64 24 65 25 66
REMARK SMILES IDX 33 67 26 68 27 69 31 70 34 71 28 72 29 73 32 74 30 75 56 76
REMARK SMILES IDX 57 77 65 78 58 79 59 80 63 81 66 82 60 83 61 84 64 85 62 86
REMARK SMILES IDX 41 87 42 88 50 89 43 90 44 91 48 92 51 93 45 94 46 95 49 96
REMARK SMILES IDX 47 97
REMARK H PARENT 5 7 12 31 71 50 39 61
REMARK Flexibility Score: inf
ROOT
ATOM      1  C   UNL A   1      32.486  29.842  26.057  1.00  0.00     0.002 C 
ENDROOT
BRANCH   1   2
ATOM      2  C   UNL A   1      32.190  28.729  27.073  1.00  0.00     0.021 C 
BRANCH   2   3
ATOM      3  C   UNL A   1      32.446  27.319  26.541  1.00  0.00     0.116 C 
BRANCH   3   4
ATOM      4  N   UNL A   1      31.348  26.443  26.878  1.00  0.00    -0.356 N 
ATOM      5  C   UNL A   1      30.587  25.631  26.101  1.00  0.00     0.227 C 
ATOM      6  O   UNL A   1      29.697  25.002  26.680  1.00  0.00    -0.274 OA
ATOM      7  H   UNL A   1      31.111  26.435  27.834  1.00  0.00     0.163 HD
BRANCH   5   8
ATOM      8  C   UNL A   1      30.929  25.389  24.622  1.00  0.00     0.112 C 
ATOM      9  C   UNL A   1      29.858  25.597  23.544  1.00  0.00     0.023 C 
BRANCH   8  10
ATOM     10  C   UNL A   1      31.616  24.041  24.393  1.00  0.00     0.042 A 
ATOM     11  C   UNL A   1      31.051  22.932  25.056  1.00  0.00     0.012 A 
ATOM     12  C   UNL A   1      32.760  23.808  23.593  1.00  0.00     0.273 A 
ATOM     13  C   UNL A   1      31.618  21.661  24.968  1.00  0.00     0.004 A 
ATOM     14  C   UNL A   1      33.352  22.530  23.544  1.00  0.00     0.089 A 
ATOM     15  C   UNL A   1      32.800  21.457  24.252  1.00  0.00    -0.040 A 
BRANCH  12  16
ATOM     16  N   UNL A   1      33.406  24.843  22.763  1.00  0.00     0.063 N 
ATOM     17  O   UNL A   1      34.002  25.756  23.356  1.00  0.00    -0.258 OA
ATOM     18  O   UNL A   1      33.258  24.796  21.535  1.00  0.00    -0.258 OA
ENDBRANCH  12  16
BRANCH  15  19
ATOM     19  C   UNL A   1      33.481  20.110  24.259  1.00  0.00     0.047 C 
BRANCH  19  20
ATOM     20  C   UNL A   1      32.576  18.903  23.977  1.00  0.00     0.060 C 
ATOM     21  C   UNL A   1      32.861  18.120  22.690  1.00  0.00     0.012 C 
ATOM     22  C   UNL A   1      32.698  17.828  25.033  1.00  0.00     0.136 C 
ATOM     23  C   UNL A   1      33.701  16.914  23.096  1.00  0.00     0.009 C 
ATOM     24  C   UNL A   1      33.204  16.522  24.480  1.00  0.00     0.076 C 
ATOM     25  O   UNL A   1      32.411  17.994  26.213  1.00  0.00    -0.299 OA
ENDBRANCH  19  20
ENDBRANCH  15  19
ENDBRANCH   8  10
ENDBRANCH   5   8
ENDBRANCH   3   4
ENDBRANCH   2   3
ENDBRANCH   1   2
BRANCH   1  26
ATOM     26  C   UNL A   1      31.294  30.740  25.708  1.00  0.00     0.002 C 
BRANCH  26  27
ATOM     27  C   UNL A   1      31.236  32.061  26.479  1.00  0.00     0.021 C 
BRANCH  27  28
ATOM     28  C   UNL A   1      32.558  32.484  27.103  1.00  0.00     0.116 C 
BRANCH  28  29
ATOM     29  N   UNL A   1      32.545  33.875  27.518  1.00  0.00    -0.352 N 
ATOM     30  C   UNL A   1      33.324  34.504  28.452  1.00  0.00     0.251 C 
ATOM     31  H   UNL A   1      31.885  34.446  27.063  1.00  0.00     0.163 HD
ATOM     32  O   UNL A   1      33.049  35.647  28.817  1.00  0.00    -0.269 OA
BRANCH  30  33
ATOM     33  C   UNL A   1      34.491  33.811  29.037  1.00  0.00     0.039 A 
ATOM     34  C   UNL A   1      34.273  32.734  29.898  1.00  0.00     0.014 A 
ATOM     35  C   UNL A   1      35.795  34.243  28.771  1.00  0.00     0.014 A 
ATOM     36  C   UNL A   1      35.360  32.076  30.476  1.00  0.00     0.010 A 
ATOM     37  C   UNL A   1      36.879  33.539  29.286  1.00  0.00     0.010 A 
ATOM     38  C   UNL A   1      36.673  32.467  30.165  1.00  0.00    -0.014 A 
BRANCH  38  39
ATOM     39  C   UNL A   1      37.837  31.803  30.803  1.00  0.00     0.031 A 
ATOM     40  C   UNL A   1      38.234  32.175  32.207  1.00  0.00     0.074 A 
ATOM     41  C   UNL A   1      38.556  30.898  30.113  1.00  0.00     0.049 A 
ATOM     42  N   UNL A   1      39.233  31.737  32.931  1.00  0.00    -0.248 NA
ATOM     43  C   UNL A   1      37.416  33.200  32.875  1.00  0.00     0.031 C 
ATOM     44  C   UNL A   1      38.299  30.488  28.733  1.00  0.00     0.029 A 
ATOM     45  N   UNL A   1      39.654  30.162  30.481  1.00  0.00    -0.354 N 
ATOM     46  C   UNL A   1      39.174  32.447  34.123  1.00  0.00     0.074 A 
ATOM     47  C   UNL A   1      38.078  33.382  34.007  1.00  0.00     0.031 C 
ATOM     48  C   UNL A   1      39.194  29.550  28.380  1.00  0.00     0.029 A 
ATOM     49  C   UNL A   1      40.105  29.317  29.497  1.00  0.00     0.049 A 
ATOM     50  H   UNL A   1      40.079  30.233  31.366  1.00  0.00     0.167 HD
ATOM     51  C   UNL A   1      39.948  32.312  35.227  1.00  0.00     0.037 A 
ATOM     52  C   UNL A   1      41.133  28.447  29.503  1.00  0.00     0.037 A 
ATOM     53  C   UNL A   1      41.011  31.351  35.354  1.00  0.00     0.049 A 
ATOM     54  C   UNL A   1      41.962  28.301  30.750  1.00  0.00     0.074 A 
ATOM     55  C   UNL A   1      41.811  31.087  36.451  1.00  0.00     0.029 A 
ATOM     56  N   UNL A   1      41.419  30.490  34.345  1.00  0.00    -0.354 N 
ATOM     57  N   UNL A   1      41.853  28.924  31.897  1.00  0.00    -0.248 NA
ATOM     58  C   UNL A   1      43.053  27.316  30.705  1.00  0.00     0.031 C 
ATOM     59  C   UNL A   1      42.732  30.095  36.093  1.00  0.00     0.029 A 
ATOM     60  C   UNL A   1      42.471  29.705  34.789  1.00  0.00     0.049 A 
ATOM     61  H   UNL A   1      41.020  30.444  33.446  1.00  0.00     0.167 HD
ATOM     62  C   UNL A   1      42.830  28.382  32.722  1.00  0.00     0.074 A 
ATOM     63  C   UNL A   1      43.517  27.372  31.944  1.00  0.00     0.031 C 
ATOM     64  C   UNL A   1      43.129  28.690  34.007  1.00  0.00     0.037 A 
BRANCH  51  65
ATOM     65  C   UNL A   1      39.670  33.227  36.385  1.00  0.00     0.064 A 
ATOM     66  C   UNL A   1      38.766  32.880  37.400  1.00  0.00     0.173 A 
ATOM     67  C   UNL A   1      40.337  34.457  36.494  1.00  0.00     0.173 A 
ATOM     68  F   UNL A   1      38.092  31.721  37.338  1.00  0.00    -0.203 F 
ATOM     69  C   UNL A   1      38.513  33.745  38.462  1.00  0.00     0.198 A 
ATOM     70  C   UNL A   1      40.106  35.305  37.574  1.00  0.00     0.198 A 
ATOM     71  F   UNL A   1      41.216  34.836  35.554  1.00  0.00    -0.203 F 
ATOM     72  F   UNL A   1      37.603  33.416  39.389  1.00  0.00    -0.200 F 
ATOM     73  C   UNL A   1      39.188  34.953  38.552  1.00  0.00     0.200 A 
ATOM     74  F   UNL A   1      40.768  36.466  37.666  1.00  0.00    -0.200 F 
ATOM     75  F   UNL A   1      38.947  35.781  39.577  1.00  0.00    -0.200 F 
ENDBRANCH  51  65
BRANCH  52  76
ATOM     76  C   UNL A   1      41.404  27.609  28.305  1.00  0.00     0.064 A 
ATOM     77  C   UNL A   1      42.323  28.025  27.332  1.00  0.00     0.173 A 
ATOM     78  C   UNL A   1      40.747  26.387  28.103  1.00  0.00     0.173 A 
ATOM     79  F   UNL A   1      42.961  29.196  27.473  1.00  0.00    -0.203 F 
ATOM     80  C   UNL A   1      42.558  27.264  26.190  1.00  0.00     0.198 A 
ATOM     81  C   UNL A   1      41.004  25.612  26.973  1.00  0.00     0.198 A 
ATOM     82  F   UNL A   1      39.863  25.941  29.007  1.00  0.00    -0.203 F 
ATOM     83  F   UNL A   1      43.406  27.709  25.254  1.00  0.00    -0.200 F 
ATOM     84  C   UNL A   1      41.901  26.055  26.014  1.00  0.00     0.200 A 
ATOM     85  F   UNL A   1      40.378  24.438  26.813  1.00  0.00    -0.200 F 
ATOM     86  F   UNL A   1      42.129  25.321  24.917  1.00  0.00    -0.200 F 
ENDBRANCH  52  76
BRANCH  64  87
ATOM     87  C   UNL A   1      44.209  27.888  34.673  1.00  0.00     0.064 A 
ATOM     88  C   UNL A   1      45.547  28.309  34.680  1.00  0.00     0.173 A 
ATOM     89  C   UNL A   1      43.892  26.695  35.342  1.00  0.00     0.173 A 
ATOM     90  F   UNL A   1      45.904  29.435  34.043  1.00  0.00    -0.203 F 
ATOM     91  C   UNL A   1      46.532  27.549  35.305  1.00  0.00     0.198 A 
ATOM     92  C   UNL A   1      44.874  25.955  35.992  1.00  0.00     0.198 A 
ATOM     93  F   UNL A   1      42.625  26.253  35.372  1.00  0.00    -0.203 F 
ATOM     94  F   UNL A   1      47.812  27.943  35.253  1.00  0.00    -0.200 F 
ATOM     95  C   UNL A   1      46.195  26.377  35.966  1.00  0.00     0.200 A 
ATOM     96  F   UNL A   1      44.543  24.831  36.642  1.00  0.00    -0.200 F 
ATOM     97  F   UNL A   1      47.144  25.649  36.570  1.00  0.00    -0.200 F 
ENDBRANCH  64  87
ENDBRANCH  38  39
ENDBRANCH  30  33
ENDBRANCH  28  29
ENDBRANCH  27  28
ENDBRANCH  26  27
ENDBRANCH   1  26
TORSDOF 17
ENDMDL
