MODEL 1
REMARK VINA RESULT:     -13.3      0.000      0.000
REMARK SMILES C[C@@H](C(=O)NCCCCCCNC(=O)c1ccc(-c2c3nc(c(-c4c(F)c(F)c(F)c(F)c4F)c4ccc([nH]4)c(-c4c(F)c(F)c(F)c(F)c4F)c4nc(c(-c5c(F)c(F)c(F)c(F)c5F)c5ccc2[nH]5)C=C4)C=C3)cc1)c1ccc2c3cc(Cl)ccc3n(C(=O)c3cocn3)c2c1
REMARK SMILES IDX 8 1 7 2 6 3 5 4 3 5 4 6 2 8 1 9 78 10 79 11 98 12 80 13
REMARK SMILES IDX 97 14 81 15 89 16 82 17 88 18 83 19 87 20 84 21 86 22 85 23
REMARK SMILES IDX 90 24 91 25 92 26 93 27 96 28 94 29 95 30 9 31 10 32 11 33
REMARK SMILES IDX 12 34 13 35 14 37 15 38 16 39 77 40 17 41 76 42 18 43 19 44
REMARK SMILES IDX 20 45 70 46 21 47 75 48 69 49 71 50 22 51 74 52 68 53 67 54
REMARK SMILES IDX 23 56 55 57 35 58 54 59 36 60 39 61 53 62 72 63 37 64 38 65
REMARK SMILES IDX 52 67 73 68 40 69 24 70 25 71 33 72 26 73 27 74 31 75 34 76
REMARK SMILES IDX 28 77 29 78 32 79 30 80 56 81 57 82 65 83 58 84 59 85 63 86
REMARK SMILES IDX 66 87 60 88 61 89 64 90 62 91 41 92 42 93 50 94 43 95 44 96
REMARK SMILES IDX 48 97 51 98 45 99 46 100 49 101 47 102
REMARK H PARENT 5 7 12 36 71 55 39 66
REMARK Flexibility Score: inf
ROOT
ATOM      1  C   UNL A   1      37.187  22.175  25.376  1.00  0.00     0.002 C 
ENDROOT
BRANCH   1   2
ATOM      2  C   UNL A   1      35.939  23.022  25.094  1.00  0.00     0.021 C 
BRANCH   2   3
ATOM      3  C   UNL A   1      34.863  22.283  24.294  1.00  0.00     0.116 C 
BRANCH   3   4
ATOM      4  N   UNL A   1      34.540  23.030  23.099  1.00  0.00    -0.356 N 
ATOM      5  C   UNL A   1      33.352  23.588  22.724  1.00  0.00     0.227 C 
ATOM      6  O   UNL A   1      33.245  23.927  21.544  1.00  0.00    -0.274 OA
ATOM      7  H   UNL A   1      35.282  23.153  22.465  1.00  0.00     0.163 HD
BRANCH   5   8
ATOM      8  C   UNL A   1      32.252  23.807  23.774  1.00  0.00     0.105 C 
ATOM      9  C   UNL A   1      30.832  23.650  23.220  1.00  0.00     0.023 C 
BRANCH   8  10
ATOM     10  C   UNL A   1      32.392  25.162  24.460  1.00  0.00    -0.034 A 
ATOM     11  C   UNL A   1      33.328  25.359  25.478  1.00  0.00     0.005 A 
ATOM     12  C   UNL A   1      31.550  26.219  24.079  1.00  0.00     0.032 A 
ATOM     13  C   UNL A   1      33.509  26.615  26.050  1.00  0.00     0.011 A 
ATOM     14  C   UNL A   1      31.684  27.472  24.713  1.00  0.00     0.058 A 
ATOM     15  C   UNL A   1      32.692  27.689  25.645  1.00  0.00     0.008 A 
ATOM     16  N   UNL A   1      30.949  28.662  24.572  1.00  0.00    -0.274 N 
ATOM     17  C   UNL A   1      32.648  29.055  26.018  1.00  0.00     0.009 A 
ATOM     18  C   UNL A   1      31.520  29.630  25.418  1.00  0.00     0.057 A 
ATOM     19  C   UNL A   1      33.465  29.822  26.876  1.00  0.00     0.031 A 
ATOM     20  C   UNL A   1      31.123  30.933  25.783  1.00  0.00     0.029 A 
ATOM     21  C   UNL A   1      33.105  31.130  27.172  1.00  0.00     0.041 A 
ATOM     22  C   UNL A   1      31.936  31.672  26.655  1.00  0.00     0.023 A 
ATOM     23  Cl  UNL A   1      34.098  32.063  28.224  1.00  0.00    -0.084 Cl
BRANCH  16  24
ATOM     24  C   UNL A   1      29.801  28.784  23.737  1.00  0.00     0.284 C 
ATOM     25  O   UNL A   1      29.135  27.758  23.589  1.00  0.00    -0.266 OA
BRANCH  24  26
ATOM     26  C   UNL A   1      29.388  29.990  23.024  1.00  0.00     0.167 A 
ATOM     27  C   UNL A   1      29.683  30.398  21.741  1.00  0.00     0.231 A 
ATOM     28  N   UNL A   1      28.451  30.871  23.554  1.00  0.00    -0.211 NA
ATOM     29  O   UNL A   1      28.967  31.526  21.468  1.00  0.00    -0.451 OA
ATOM     30  C   UNL A   1      28.240  31.739  22.595  1.00  0.00     0.308 A 
ENDBRANCH  24  26
ENDBRANCH  16  24
ENDBRANCH   8  10
ENDBRANCH   5   8
ENDBRANCH   3   4
ENDBRANCH   2   3
ENDBRANCH   1   2
BRANCH   1  31
ATOM     31  C   UNL A   1      37.373  20.975  24.442  1.00  0.00     0.002 C 
BRANCH  31  32
ATOM     32  C   UNL A   1      38.146  19.806  25.055  1.00  0.00     0.021 C 
BRANCH  32  33
ATOM     33  C   UNL A   1      39.407  20.217  25.810  1.00  0.00     0.116 C 
BRANCH  33  34
ATOM     34  N   UNL A   1      40.347  19.114  25.938  1.00  0.00    -0.352 N 
ATOM     35  C   UNL A   1      41.703  19.151  26.158  1.00  0.00     0.251 C 
ATOM     36  H   UNL A   1      39.955  18.215  25.856  1.00  0.00     0.163 HD
ATOM     37  O   UNL A   1      42.382  18.141  26.037  1.00  0.00    -0.269 OA
BRANCH  35  38
ATOM     38  C   UNL A   1      42.341  20.433  26.518  1.00  0.00     0.039 A 
ATOM     39  C   UNL A   1      42.972  21.178  25.519  1.00  0.00     0.014 A 
ATOM     40  C   UNL A   1      42.294  20.907  27.832  1.00  0.00     0.014 A 
ATOM     41  C   UNL A   1      43.487  22.441  25.822  1.00  0.00     0.010 A 
ATOM     42  C   UNL A   1      42.749  22.191  28.119  1.00  0.00     0.010 A 
ATOM     43  C   UNL A   1      43.336  22.975  27.112  1.00  0.00    -0.014 A 
BRANCH  43  44
ATOM     44  C   UNL A   1      43.738  24.371  27.421  1.00  0.00     0.031 A 
ATOM     45  C   UNL A   1      42.708  25.381  27.843  1.00  0.00     0.074 A 
ATOM     46  C   UNL A   1      45.017  24.746  27.224  1.00  0.00     0.049 A 
ATOM     47  N   UNL A   1      42.847  26.667  28.042  1.00  0.00    -0.248 NA
ATOM     48  C   UNL A   1      41.337  24.887  28.043  1.00  0.00     0.031 C 
ATOM     49  C   UNL A   1      46.095  23.868  26.767  1.00  0.00     0.029 A 
ATOM     50  N   UNL A   1      45.624  25.972  27.355  1.00  0.00    -0.354 N 
ATOM     51  C   UNL A   1      41.583  27.138  28.368  1.00  0.00     0.074 A 
ATOM     52  C   UNL A   1      40.682  26.008  28.309  1.00  0.00     0.031 C 
ATOM     53  C   UNL A   1      47.228  24.579  26.657  1.00  0.00     0.029 A 
ATOM     54  C   UNL A   1      46.949  25.972  26.990  1.00  0.00     0.049 A 
ATOM     55  H   UNL A   1      45.153  26.775  27.678  1.00  0.00     0.167 HD
ATOM     56  C   UNL A   1      41.215  28.398  28.698  1.00  0.00     0.037 A 
ATOM     57  C   UNL A   1      47.833  26.986  26.907  1.00  0.00     0.037 A 
ATOM     58  C   UNL A   1      42.126  29.508  28.793  1.00  0.00     0.049 A 
ATOM     59  C   UNL A   1      47.388  28.377  27.268  1.00  0.00     0.074 A 
ATOM     60  C   UNL A   1      41.869  30.796  29.231  1.00  0.00     0.029 A 
ATOM     61  N   UNL A   1      43.464  29.467  28.434  1.00  0.00    -0.354 N 
ATOM     62  N   UNL A   1      46.213  28.791  27.676  1.00  0.00    -0.248 NA
ATOM     63  C   UNL A   1      48.391  29.447  27.156  1.00  0.00     0.031 C 
ATOM     64  C   UNL A   1      43.035  31.550  29.078  1.00  0.00     0.029 A 
ATOM     65  C   UNL A   1      44.034  30.720  28.595  1.00  0.00     0.049 A 
ATOM     66  H   UNL A   1      43.940  28.667  28.113  1.00  0.00     0.167 HD
ATOM     67  C   UNL A   1      46.339  30.157  27.886  1.00  0.00     0.074 A 
ATOM     68  C   UNL A   1      47.713  30.501  27.582  1.00  0.00     0.031 C 
ATOM     69  C   UNL A   1      45.402  31.048  28.288  1.00  0.00     0.037 A 
BRANCH  56  70
ATOM     70  C   UNL A   1      39.767  28.662  28.985  1.00  0.00     0.064 A 
ATOM     71  C   UNL A   1      39.223  28.482  30.265  1.00  0.00     0.173 A 
ATOM     72  C   UNL A   1      38.935  29.188  27.985  1.00  0.00     0.173 A 
ATOM     73  F   UNL A   1      39.975  27.975  31.253  1.00  0.00    -0.203 F 
ATOM     74  C   UNL A   1      37.896  28.808  30.529  1.00  0.00     0.198 A 
ATOM     75  C   UNL A   1      37.616  29.538  28.260  1.00  0.00     0.198 A 
ATOM     76  F   UNL A   1      39.409  29.386  26.745  1.00  0.00    -0.203 F 
ATOM     77  F   UNL A   1      37.388  28.604  31.753  1.00  0.00    -0.200 F 
ATOM     78  C   UNL A   1      37.097  29.346  29.531  1.00  0.00     0.200 A 
ATOM     79  F   UNL A   1      36.851  30.071  27.297  1.00  0.00    -0.200 F 
ATOM     80  F   UNL A   1      35.826  29.679  29.794  1.00  0.00    -0.200 F 
ENDBRANCH  56  70
BRANCH  57  81
ATOM     81  C   UNL A   1      49.220  26.732  26.436  1.00  0.00     0.064 A 
ATOM     82  C   UNL A   1      49.572  26.915  25.092  1.00  0.00     0.173 A 
ATOM     83  C   UNL A   1      50.214  26.272  27.312  1.00  0.00     0.173 A 
ATOM     84  F   UNL A   1      48.651  27.331  24.209  1.00  0.00    -0.203 F 
ATOM     85  C   UNL A   1      50.855  26.618  24.636  1.00  0.00     0.198 A 
ATOM     86  C   UNL A   1      51.506  26.007  26.862  1.00  0.00     0.198 A 
ATOM     87  F   UNL A   1      49.932  26.084  28.610  1.00  0.00    -0.203 F 
ATOM     88  F   UNL A   1      51.148  26.744  23.334  1.00  0.00    -0.200 F 
ATOM     89  C   UNL A   1      51.823  26.168  25.522  1.00  0.00     0.200 A 
ATOM     90  F   UNL A   1      52.440  25.587  27.726  1.00  0.00    -0.200 F 
ATOM     91  F   UNL A   1      53.055  25.879  25.084  1.00  0.00    -0.200 F 
ENDBRANCH  57  81
BRANCH  69  92
ATOM     92  C   UNL A   1      45.825  32.480  28.433  1.00  0.00     0.064 A 
ATOM     93  C   UNL A   1      45.684  33.393  27.379  1.00  0.00     0.173 A 
ATOM     94  C   UNL A   1      46.320  32.957  29.656  1.00  0.00     0.173 A 
ATOM     95  F   UNL A   1      45.232  32.981  26.185  1.00  0.00    -0.203 F 
ATOM     96  C   UNL A   1      46.039  34.730  27.538  1.00  0.00     0.198 A 
ATOM     97  C   UNL A   1      46.644  34.300  29.821  1.00  0.00     0.198 A 
ATOM     98  F   UNL A   1      46.468  32.125  30.698  1.00  0.00    -0.203 F 
ATOM     99  F   UNL A   1      45.933  35.576  26.505  1.00  0.00    -0.200 F 
ATOM    100  C   UNL A   1      46.508  35.184  28.762  1.00  0.00     0.200 A 
ATOM    101  F   UNL A   1      47.083  34.741  31.009  1.00  0.00    -0.200 F 
ATOM    102  F   UNL A   1      46.833  36.474  28.918  1.00  0.00    -0.200 F 
ENDBRANCH  69  92
ENDBRANCH  43  44
ENDBRANCH  35  38
ENDBRANCH  33  34
ENDBRANCH  32  33
ENDBRANCH  31  32
ENDBRANCH   1  31
TORSDOF 16
ENDMDL
MODEL 2
REMARK VINA RESULT:     -13.1      5.534     11.280
REMARK SMILES C[C@@H](C(=O)NCCCCCCNC(=O)c1ccc(-c2c3nc(c(-c4c(F)c(F)c(F)c(F)c4F)c4ccc([nH]4)c(-c4c(F)c(F)c(F)c(F)c4F)c4nc(c(-c5c(F)c(F)c(F)c(F)c5F)c5ccc2[nH]5)C=C4)C=C3)cc1)c1ccc2c3cc(Cl)ccc3n(C(=O)c3cocn3)c2c1
REMARK SMILES IDX 8 1 7 2 6 3 5 4 3 5 4 6 2 8 1 9 78 10 79 11 98 12 80 13
REMARK SMILES IDX 97 14 81 15 89 16 82 17 88 18 83 19 87 20 84 21 86 22 85 23
REMARK SMILES IDX 90 24 91 25 92 26 93 27 96 28 94 29 95 30 9 31 10 32 11 33
REMARK SMILES IDX 12 34 13 35 14 37 15 38 16 39 77 40 17 41 76 42 18 43 19 44
REMARK SMILES IDX 20 45 70 46 21 47 75 48 69 49 71 50 22 51 74 52 68 53 67 54
REMARK SMILES IDX 23 56 55 57 35 58 54 59 36 60 39 61 53 62 72 63 37 64 38 65
REMARK SMILES IDX 52 67 73 68 40 69 24 70 25 71 33 72 26 73 27 74 31 75 34 76
REMARK SMILES IDX 28 77 29 78 32 79 30 80 56 81 57 82 65 83 58 84 59 85 63 86
REMARK SMILES IDX 66 87 60 88 61 89 64 90 62 91 41 92 42 93 50 94 43 95 44 96
REMARK SMILES IDX 48 97 51 98 45 99 46 100 49 101 47 102
REMARK H PARENT 5 7 12 36 71 55 39 66
REMARK Flexibility Score: inf
ROOT
ATOM      1  C   UNL A   1      34.030  29.393  26.943  1.00  0.00     0.002 C 
ENDROOT
BRANCH   1   2
ATOM      2  C   UNL A   1      32.893  28.537  27.518  1.00  0.00     0.021 C 
BRANCH   2   3
ATOM      3  C   UNL A   1      31.735  28.317  26.542  1.00  0.00     0.116 C 
BRANCH   3   4
ATOM      4  N   UNL A   1      31.029  27.102  26.882  1.00  0.00    -0.356 N 
ATOM      5  C   UNL A   1      30.682  26.053  26.082  1.00  0.00     0.227 C 
ATOM      6  O   UNL A   1      29.844  25.267  26.529  1.00  0.00    -0.274 OA
ATOM      7  H   UNL A   1      30.761  27.021  27.825  1.00  0.00     0.163 HD
BRANCH   5   8
ATOM      8  C   UNL A   1      31.370  25.878  24.720  1.00  0.00     0.105 C 
ATOM      9  C   UNL A   1      30.483  25.208  23.664  1.00  0.00     0.023 C 
BRANCH   8  10
ATOM     10  C   UNL A   1      32.684  25.115  24.849  1.00  0.00    -0.034 A 
ATOM     11  C   UNL A   1      33.876  25.782  25.148  1.00  0.00     0.005 A 
ATOM     12  C   UNL A   1      32.702  23.727  24.639  1.00  0.00     0.032 A 
ATOM     13  C   UNL A   1      35.060  25.077  25.341  1.00  0.00     0.011 A 
ATOM     14  C   UNL A   1      33.918  23.024  24.762  1.00  0.00     0.058 A 
ATOM     15  C   UNL A   1      35.076  23.679  25.169  1.00  0.00     0.008 A 
ATOM     16  N   UNL A   1      34.228  21.669  24.553  1.00  0.00    -0.274 N 
ATOM     17  C   UNL A   1      36.095  22.705  25.309  1.00  0.00     0.009 A 
ATOM     18  C   UNL A   1      35.591  21.483  24.848  1.00  0.00     0.057 A 
ATOM     19  C   UNL A   1      37.434  22.803  25.745  1.00  0.00     0.031 A 
ATOM     20  C   UNL A   1      36.461  20.385  24.687  1.00  0.00     0.029 A 
ATOM     21  C   UNL A   1      38.265  21.694  25.651  1.00  0.00     0.041 A 
ATOM     22  C   UNL A   1      37.794  20.508  25.106  1.00  0.00     0.023 A 
ATOM     23  Cl  UNL A   1      39.899  21.816  26.178  1.00  0.00    -0.084 Cl
BRANCH  16  24
ATOM     24  C   UNL A   1      33.289  20.712  24.073  1.00  0.00     0.284 C 
ATOM     25  O   UNL A   1      32.514  21.112  23.201  1.00  0.00    -0.266 OA
BRANCH  24  26
ATOM     26  C   UNL A   1      33.146  19.340  24.554  1.00  0.00     0.167 A 
ATOM     27  C   UNL A   1      32.816  18.879  25.809  1.00  0.00     0.231 A 
ATOM     28  N   UNL A   1      33.190  18.251  23.689  1.00  0.00    -0.211 NA
ATOM     29  O   UNL A   1      32.674  17.523  25.751  1.00  0.00    -0.451 OA
ATOM     30  C   UNL A   1      32.897  17.222  24.445  1.00  0.00     0.308 A 
ENDBRANCH  24  26
ENDBRANCH  16  24
ENDBRANCH   8  10
ENDBRANCH   5   8
ENDBRANCH   3   4
ENDBRANCH   2   3
ENDBRANCH   1   2
BRANCH   1  31
ATOM     31  C   UNL A   1      34.390  30.625  27.779  1.00  0.00     0.002 C 
BRANCH  31  32
ATOM     32  C   UNL A   1      33.288  31.684  27.858  1.00  0.00     0.021 C 
BRANCH  32  33
ATOM     33  C   UNL A   1      33.561  32.935  27.028  1.00  0.00     0.116 C 
BRANCH  33  34
ATOM     34  N   UNL A   1      32.971  34.123  27.626  1.00  0.00    -0.352 N 
ATOM     35  C   UNL A   1      33.260  34.724  28.827  1.00  0.00     0.251 C 
ATOM     36  H   UNL A   1      32.266  34.557  27.094  1.00  0.00     0.163 HD
ATOM     37  O   UNL A   1      32.534  35.599  29.277  1.00  0.00    -0.269 OA
BRANCH  35  38
ATOM     38  C   UNL A   1      34.448  34.285  29.587  1.00  0.00     0.039 A 
ATOM     39  C   UNL A   1      34.266  33.610  30.796  1.00  0.00     0.014 A 
ATOM     40  C   UNL A   1      35.735  34.520  29.094  1.00  0.00     0.014 A 
ATOM     41  C   UNL A   1      35.375  33.096  31.472  1.00  0.00     0.010 A 
ATOM     42  C   UNL A   1      36.833  33.953  29.734  1.00  0.00     0.010 A 
ATOM     43  C   UNL A   1      36.660  33.223  30.921  1.00  0.00    -0.014 A 
BRANCH  43  44
ATOM     44  C   UNL A   1      37.834  32.557  31.541  1.00  0.00     0.031 A 
ATOM     45  C   UNL A   1      38.484  31.383  30.865  1.00  0.00     0.074 A 
ATOM     46  C   UNL A   1      38.247  32.953  32.761  1.00  0.00     0.049 A 
ATOM     47  N   UNL A   1      39.440  30.603  31.305  1.00  0.00    -0.248 NA
ATOM     48  C   UNL A   1      37.978  31.020  29.532  1.00  0.00     0.031 C 
ATOM     49  C   UNL A   1      37.662  34.047  33.538  1.00  0.00     0.029 A 
ATOM     50  N   UNL A   1      39.239  32.464  33.577  1.00  0.00    -0.354 N 
ATOM     51  C   UNL A   1      39.634  29.649  30.315  1.00  0.00     0.074 A 
ATOM     52  C   UNL A   1      38.676  29.925  29.267  1.00  0.00     0.031 C 
ATOM     53  C   UNL A   1      38.303  34.147  34.713  1.00  0.00     0.029 A 
ATOM     54  C   UNL A   1      39.314  33.097  34.794  1.00  0.00     0.049 A 
ATOM     55  H   UNL A   1      39.839  31.728  33.313  1.00  0.00     0.167 HD
ATOM     56  C   UNL A   1      40.539  28.643  30.285  1.00  0.00     0.037 A 
ATOM     57  C   UNL A   1      40.089  32.843  35.866  1.00  0.00     0.037 A 
ATOM     58  C   UNL A   1      41.515  28.401  31.315  1.00  0.00     0.049 A 
ATOM     59  C   UNL A   1      41.077  31.709  35.803  1.00  0.00     0.074 A 
ATOM     60  C   UNL A   1      42.547  27.479  31.320  1.00  0.00     0.029 A 
ATOM     61  N   UNL A   1      41.573  29.074  32.524  1.00  0.00    -0.354 N 
ATOM     62  N   UNL A   1      41.322  30.879  34.820  1.00  0.00    -0.248 NA
ATOM     63  C   UNL A   1      41.895  31.473  37.002  1.00  0.00     0.031 C 
ATOM     64  C   UNL A   1      43.190  27.551  32.559  1.00  0.00     0.029 A 
ATOM     65  C   UNL A   1      42.593  28.554  33.305  1.00  0.00     0.049 A 
ATOM     66  H   UNL A   1      40.977  29.812  32.791  1.00  0.00     0.167 HD
ATOM     67  C   UNL A   1      42.330  30.038  35.270  1.00  0.00     0.074 A 
ATOM     68  C   UNL A   1      42.668  30.472  36.610  1.00  0.00     0.031 C 
ATOM     69  C   UNL A   1      42.918  28.996  34.636  1.00  0.00     0.037 A 
BRANCH  56  70
ATOM     70  C   UNL A   1      40.531  27.718  29.105  1.00  0.00     0.064 A 
ATOM     71  C   UNL A   1      39.704  26.586  29.059  1.00  0.00     0.173 A 
ATOM     72  C   UNL A   1      41.296  28.020  27.967  1.00  0.00     0.173 A 
ATOM     73  F   UNL A   1      38.959  26.251  30.122  1.00  0.00    -0.203 F 
ATOM     74  C   UNL A   1      39.653  25.785  27.921  1.00  0.00     0.198 A 
ATOM     75  C   UNL A   1      41.222  27.231  26.823  1.00  0.00     0.198 A 
ATOM     76  F   UNL A   1      42.099  29.095  27.958  1.00  0.00    -0.203 F 
ATOM     77  F   UNL A   1      38.875  24.693  27.908  1.00  0.00    -0.200 F 
ATOM     78  C   UNL A   1      40.402  26.113  26.801  1.00  0.00     0.200 A 
ATOM     79  F   UNL A   1      41.936  27.559  25.737  1.00  0.00    -0.200 F 
ATOM     80  F   UNL A   1      40.335  25.352  25.700  1.00  0.00    -0.200 F 
ENDBRANCH  56  70
BRANCH  57  81
ATOM     81  C   UNL A   1      39.949  33.658  37.102  1.00  0.00     0.064 A 
ATOM     82  C   UNL A   1      38.996  33.333  38.077  1.00  0.00     0.173 A 
ATOM     83  C   UNL A   1      40.740  34.795  37.319  1.00  0.00     0.173 A 
ATOM     84  F   UNL A   1      38.198  32.268  37.905  1.00  0.00    -0.203 F 
ATOM     85  C   UNL A   1      38.819  34.131  39.206  1.00  0.00     0.198 A 
ATOM     86  C   UNL A   1      40.585  35.574  38.464  1.00  0.00     0.198 A 
ATOM     87  F   UNL A   1      41.669  35.150  36.419  1.00  0.00    -0.203 F 
ATOM     88  F   UNL A   1      37.860  33.830  40.093  1.00  0.00    -0.200 F 
ATOM     89  C   UNL A   1      39.617  35.249  39.401  1.00  0.00     0.200 A 
ATOM     90  F   UNL A   1      41.369  36.644  38.654  1.00  0.00    -0.200 F 
ATOM     91  F   UNL A   1      39.445  36.017  40.484  1.00  0.00    -0.200 F 
ENDBRANCH  57  81
BRANCH  69  92
ATOM     92  C   UNL A   1      43.995  28.256  35.372  1.00  0.00     0.064 A 
ATOM     93  C   UNL A   1      45.322  28.708  35.374  1.00  0.00     0.173 A 
ATOM     94  C   UNL A   1      43.686  27.116  36.131  1.00  0.00     0.173 A 
ATOM     95  F   UNL A   1      45.669  29.783  34.650  1.00  0.00    -0.203 F 
ATOM     96  C   UNL A   1      46.305  28.038  36.097  1.00  0.00     0.198 A 
ATOM     97  C   UNL A   1      44.666  26.468  36.877  1.00  0.00     0.198 A 
ATOM     98  F   UNL A   1      42.431  26.646  36.167  1.00  0.00    -0.203 F 
ATOM     99  F   UNL A   1      47.574  28.466  36.053  1.00  0.00    -0.200 F 
ATOM    100  C   UNL A   1      45.974  26.925  36.857  1.00  0.00     0.200 A 
ATOM    101  F   UNL A   1      44.342  25.401  37.622  1.00  0.00    -0.200 F 
ATOM    102  F   UNL A   1      46.919  26.291  37.564  1.00  0.00    -0.200 F 
ENDBRANCH  69  92
ENDBRANCH  43  44
ENDBRANCH  35  38
ENDBRANCH  33  34
ENDBRANCH  32  33
ENDBRANCH  31  32
ENDBRANCH   1  31
TORSDOF 16
ENDMDL
MODEL 3
REMARK VINA RESULT:     -12.7      5.225     10.212
REMARK SMILES C[C@@H](C(=O)NCCCCCCNC(=O)c1ccc(-c2c3nc(c(-c4c(F)c(F)c(F)c(F)c4F)c4ccc([nH]4)c(-c4c(F)c(F)c(F)c(F)c4F)c4nc(c(-c5c(F)c(F)c(F)c(F)c5F)c5ccc2[nH]5)C=C4)C=C3)cc1)c1ccc2c3cc(Cl)ccc3n(C(=O)c3cocn3)c2c1
REMARK SMILES IDX 8 1 7 2 6 3 5 4 3 5 4 6 2 8 1 9 78 10 79 11 98 12 80 13
REMARK SMILES IDX 97 14 81 15 89 16 82 17 88 18 83 19 87 20 84 21 86 22 85 23
REMARK SMILES IDX 90 24 91 25 92 26 93 27 96 28 94 29 95 30 9 31 10 32 11 33
REMARK SMILES IDX 12 34 13 35 14 37 15 38 16 39 77 40 17 41 76 42 18 43 19 44
REMARK SMILES IDX 20 45 70 46 21 47 75 48 69 49 71 50 22 51 74 52 68 53 67 54
REMARK SMILES IDX 23 56 55 57 35 58 54 59 36 60 39 61 53 62 72 63 37 64 38 65
REMARK SMILES IDX 52 67 73 68 40 69 24 70 25 71 33 72 26 73 27 74 31 75 34 76
REMARK SMILES IDX 28 77 29 78 32 79 30 80 56 81 57 82 65 83 58 84 59 85 63 86
REMARK SMILES IDX 66 87 60 88 61 89 64 90 62 91 41 92 42 93 50 94 43 95 44 96
REMARK SMILES IDX 48 97 51 98 45 99 46 100 49 101 47 102
REMARK H PARENT 5 7 12 36 71 55 39 66
REMARK Flexibility Score: inf
ROOT
ATOM      1  C   UNL A   1      33.575  29.562  26.878  1.00  0.00     0.002 C 
ENDROOT
BRANCH   1   2
ATOM      2  C   UNL A   1      32.352  28.774  27.368  1.00  0.00     0.021 C 
BRANCH   2   3
ATOM      3  C   UNL A   1      31.499  28.197  26.236  1.00  0.00     0.116 C 
BRANCH   3   4
ATOM      4  N   UNL A   1      30.827  27.000  26.689  1.00  0.00    -0.356 N 
ATOM      5  C   UNL A   1      30.453  25.898  25.977  1.00  0.00     0.227 C 
ATOM      6  O   UNL A   1      29.648  25.135  26.516  1.00  0.00    -0.274 OA
ATOM      7  H   UNL A   1      30.607  26.977  27.648  1.00  0.00     0.163 HD
BRANCH   5   8
ATOM      8  C   UNL A   1      31.073  25.641  24.595  1.00  0.00     0.105 C 
ATOM      9  C   UNL A   1      30.130  24.928  23.620  1.00  0.00     0.023 C 
BRANCH   8  10
ATOM     10  C   UNL A   1      32.383  24.869  24.704  1.00  0.00    -0.034 A 
ATOM     11  C   UNL A   1      33.611  25.536  24.723  1.00  0.00     0.005 A 
ATOM     12  C   UNL A   1      32.357  23.466  24.758  1.00  0.00     0.032 A 
ATOM     13  C   UNL A   1      34.802  24.837  24.898  1.00  0.00     0.011 A 
ATOM     14  C   UNL A   1      33.570  22.755  24.861  1.00  0.00     0.058 A 
ATOM     15  C   UNL A   1      34.778  23.432  24.992  1.00  0.00     0.008 A 
ATOM     16  N   UNL A   1      33.834  21.374  24.875  1.00  0.00    -0.274 N 
ATOM     17  C   UNL A   1      35.795  22.465  25.188  1.00  0.00     0.009 A 
ATOM     18  C   UNL A   1      35.221  21.197  25.031  1.00  0.00     0.057 A 
ATOM     19  C   UNL A   1      37.180  22.593  25.429  1.00  0.00     0.031 A 
ATOM     20  C   UNL A   1      36.050  20.057  24.974  1.00  0.00     0.029 A 
ATOM     21  C   UNL A   1      37.978  21.457  25.445  1.00  0.00     0.041 A 
ATOM     22  C   UNL A   1      37.427  20.208  25.195  1.00  0.00     0.023 A 
ATOM     23  Cl  UNL A   1      39.667  21.615  25.734  1.00  0.00    -0.084 Cl
BRANCH  16  24
ATOM     24  C   UNL A   1      32.830  20.379  24.704  1.00  0.00     0.284 C 
ATOM     25  O   UNL A   1      31.867  20.451  25.471  1.00  0.00    -0.266 OA
BRANCH  24  26
ATOM     26  C   UNL A   1      32.871  19.280  23.743  1.00  0.00     0.167 A 
ATOM     27  C   UNL A   1      33.394  18.012  23.880  1.00  0.00     0.231 A 
ATOM     28  N   UNL A   1      32.204  19.344  22.524  1.00  0.00    -0.211 NA
ATOM     29  O   UNL A   1      33.084  17.291  22.763  1.00  0.00    -0.451 OA
ATOM     30  C   UNL A   1      32.357  18.151  22.004  1.00  0.00     0.308 A 
ENDBRANCH  24  26
ENDBRANCH  16  24
ENDBRANCH   8  10
ENDBRANCH   5   8
ENDBRANCH   3   4
ENDBRANCH   2   3
ENDBRANCH   1   2
BRANCH   1  31
ATOM     31  C   UNL A   1      33.931  30.787  27.725  1.00  0.00     0.002 C 
BRANCH  31  32
ATOM     32  C   UNL A   1      32.909  31.924  27.660  1.00  0.00     0.021 C 
BRANCH  32  33
ATOM     33  C   UNL A   1      33.490  33.264  27.220  1.00  0.00     0.116 C 
BRANCH  33  34
ATOM     34  N   UNL A   1      32.944  34.371  27.988  1.00  0.00    -0.352 N 
ATOM     35  C   UNL A   1      33.246  34.772  29.267  1.00  0.00     0.251 C 
ATOM     36  H   UNL A   1      32.263  34.910  27.526  1.00  0.00     0.163 HD
ATOM     37  O   UNL A   1      32.552  35.599  29.842  1.00  0.00    -0.269 OA
BRANCH  35  38
ATOM     38  C   UNL A   1      34.408  34.174  29.956  1.00  0.00     0.039 A 
ATOM     39  C   UNL A   1      34.185  33.249  30.979  1.00  0.00     0.014 A 
ATOM     40  C   UNL A   1      35.710  34.510  29.576  1.00  0.00     0.014 A 
ATOM     41  C   UNL A   1      35.271  32.596  31.566  1.00  0.00     0.010 A 
ATOM     42  C   UNL A   1      36.787  33.813  30.116  1.00  0.00     0.010 A 
ATOM     43  C   UNL A   1      36.575  32.839  31.106  1.00  0.00    -0.014 A 
BRANCH  43  44
ATOM     44  C   UNL A   1      37.730  32.050  31.607  1.00  0.00     0.031 A 
ATOM     45  C   UNL A   1      38.403  32.427  32.896  1.00  0.00     0.074 A 
ATOM     46  C   UNL A   1      38.229  31.057  30.845  1.00  0.00     0.049 A 
ATOM     47  N   UNL A   1      39.490  31.934  33.434  1.00  0.00    -0.248 NA
ATOM     48  C   UNL A   1      37.790  33.518  33.671  1.00  0.00     0.031 C 
ATOM     49  C   UNL A   1      37.692  30.633  29.550  1.00  0.00     0.029 A 
ATOM     50  N   UNL A   1      39.317  30.240  31.033  1.00  0.00    -0.354 N 
ATOM     51  C   UNL A   1      39.702  32.665  34.595  1.00  0.00     0.074 A 
ATOM     52  C   UNL A   1      38.652  33.658  34.668  1.00  0.00     0.031 C 
ATOM     53  C   UNL A   1      38.449  29.637  29.063  1.00  0.00     0.029 A 
ATOM     54  C   UNL A   1      39.550  29.382  29.985  1.00  0.00     0.049 A 
ATOM     55  H   UNL A   1      39.878  30.268  31.843  1.00  0.00     0.167 HD
ATOM     56  C   UNL A   1      40.680  32.511  35.518  1.00  0.00     0.037 A 
ATOM     57  C   UNL A   1      40.554  28.508  29.778  1.00  0.00     0.037 A 
ATOM     58  C   UNL A   1      41.697  31.494  35.457  1.00  0.00     0.049 A 
ATOM     59  C   UNL A   1      41.632  28.369  30.818  1.00  0.00     0.074 A 
ATOM     60  C   UNL A   1      42.660  31.185  36.402  1.00  0.00     0.029 A 
ATOM     61  N   UNL A   1      41.891  30.632  34.390  1.00  0.00    -0.354 N 
ATOM     62  N   UNL A   1      41.763  28.995  31.962  1.00  0.00    -0.248 NA
ATOM     63  C   UNL A   1      42.706  27.404  30.539  1.00  0.00     0.031 C 
ATOM     64  C   UNL A   1      43.476  30.177  35.880  1.00  0.00     0.029 A 
ATOM     65  C   UNL A   1      42.989  29.822  34.633  1.00  0.00     0.049 A 
ATOM     66  H   UNL A   1      41.332  30.599  33.580  1.00  0.00     0.167 HD
ATOM     67  C   UNL A   1      42.917  28.490  32.546  1.00  0.00     0.074 A 
ATOM     68  C   UNL A   1      43.438  27.487  31.640  1.00  0.00     0.031 C 
ATOM     69  C   UNL A   1      43.496  28.829  33.721  1.00  0.00     0.037 A 
BRANCH  56  70
ATOM     70  C   UNL A   1      40.711  33.455  36.683  1.00  0.00     0.064 A 
ATOM     71  C   UNL A   1      41.538  34.587  36.694  1.00  0.00     0.173 A 
ATOM     72  C   UNL A   1      39.833  33.271  37.762  1.00  0.00     0.173 A 
ATOM     73  F   UNL A   1      42.400  34.803  35.690  1.00  0.00    -0.203 F 
ATOM     74  C   UNL A   1      41.494  35.494  37.750  1.00  0.00     0.198 A 
ATOM     75  C   UNL A   1      39.773  34.194  38.803  1.00  0.00     0.198 A 
ATOM     76  F   UNL A   1      39.016  32.207  37.797  1.00  0.00    -0.203 F 
ATOM     77  F   UNL A   1      42.312  36.555  37.754  1.00  0.00    -0.200 F 
ATOM     78  C   UNL A   1      40.605  35.303  38.797  1.00  0.00     0.200 A 
ATOM     79  F   UNL A   1      38.902  34.015  39.806  1.00  0.00    -0.200 F 
ATOM     80  F   UNL A   1      40.549  36.189  39.802  1.00  0.00    -0.200 F 
ENDBRANCH  56  70
BRANCH  57  81
ATOM     81  C   UNL A   1      40.606  27.713  28.522  1.00  0.00     0.064 A 
ATOM     82  C   UNL A   1      39.955  26.475  28.423  1.00  0.00     0.173 A 
ATOM     83  C   UNL A   1      41.333  28.156  27.408  1.00  0.00     0.173 A 
ATOM     84  F   UNL A   1      39.266  25.996  29.469  1.00  0.00    -0.203 F 
ATOM     85  C   UNL A   1      40.055  25.699  27.270  1.00  0.00     0.198 A 
ATOM     86  C   UNL A   1      41.405  27.395  26.244  1.00  0.00     0.198 A 
ATOM     87  F   UNL A   1      41.972  29.335  27.448  1.00  0.00    -0.203 F 
ATOM     88  F   UNL A   1      39.472  24.492  27.224  1.00  0.00    -0.200 F 
ATOM     89  C   UNL A   1      40.777  26.161  26.179  1.00  0.00     0.200 A 
ATOM     90  F   UNL A   1      42.091  27.853  25.188  1.00  0.00    -0.200 F 
ATOM     91  F   UNL A   1      40.875  25.414  25.072  1.00  0.00    -0.200 F 
ENDBRANCH  57  81
BRANCH  69  92
ATOM     92  C   UNL A   1      44.754  28.108  34.107  1.00  0.00     0.064 A 
ATOM     93  C   UNL A   1      46.019  28.631  33.801  1.00  0.00     0.173 A 
ATOM     94  C   UNL A   1      44.695  26.913  34.840  1.00  0.00     0.173 A 
ATOM     95  F   UNL A   1      46.126  29.762  33.087  1.00  0.00    -0.203 F 
ATOM     96  C   UNL A   1      47.180  27.976  34.202  1.00  0.00     0.198 A 
ATOM     97  C   UNL A   1      45.858  26.278  35.266  1.00  0.00     0.198 A 
ATOM     98  F   UNL A   1      43.510  26.374  35.163  1.00  0.00    -0.203 F 
ATOM     99  F   UNL A   1      48.377  28.474  33.865  1.00  0.00    -0.200 F 
ATOM    100  C   UNL A   1      47.098  26.806  34.943  1.00  0.00     0.200 A 
ATOM    101  F   UNL A   1      45.778  25.155  35.994  1.00  0.00    -0.200 F 
ATOM    102  F   UNL A   1      48.217  26.186  35.341  1.00  0.00    -0.200 F 
ENDBRANCH  69  92
ENDBRANCH  43  44
ENDBRANCH  35  38
ENDBRANCH  33  34
ENDBRANCH  32  33
ENDBRANCH  31  32
ENDBRANCH   1  31
TORSDOF 16
ENDMDL
