MODEL 1
REMARK VINA RESULT:     -11.9      0.000      0.000
REMARK SMILES O=C(Nc1cccc(F)c1)N[C@@H]1C=C[C@@H](C(=O)NCCCCCCNC(=O)c2ccc(-c3c4nc(c(-c5c(F)c(F)c(F)c(F)c5F)c5ccc([nH]5)c(-c5c(F)c(F)c(F)c(F)c5F)c5nc(c(-c6c(F)c(F)c(F)c(F)c6F)c6ccc3[nH]6)C=C5)C=C4)cc2)C1
REMARK SMILES IDX 21 1 20 2 19 3 18 4 16 5 17 6 15 8 12 9 13 10 91 11 14 12
REMARK SMILES IDX 11 13 1 14 2 15 3 16 4 19 5 20 10 21 6 22 8 23 7 24 9 25
REMARK SMILES IDX 22 26 23 27 24 28 25 29 26 30 27 32 28 33 29 34 90 35 30 36
REMARK SMILES IDX 89 37 31 38 32 39 33 40 83 41 34 42 88 43 82 44 84 45 35 46
REMARK SMILES IDX 87 47 81 48 80 49 36 51 68 52 48 53 67 54 49 55 52 56 66 57
REMARK SMILES IDX 85 58 50 59 51 60 65 62 86 63 53 64 37 65 38 66 46 67 39 68
REMARK SMILES IDX 40 69 44 70 47 71 41 72 42 73 45 74 43 75 69 76 70 77 78 78
REMARK SMILES IDX 71 79 72 80 76 81 79 82 73 83 74 84 77 85 75 86 54 87 55 88
REMARK SMILES IDX 63 89 56 90 57 91 61 92 64 93 58 94 59 95 62 96 60 97
REMARK H PARENT 18 7 3 17 11 18 25 31 84 50 52 61
REMARK Flexibility Score: inf
ROOT
ATOM      1  C   UNL A   1      34.754  32.405  29.212  1.00  0.00     0.002 C 
ENDROOT
BRANCH   1   2
ATOM      2  C   UNL A   1      35.471  31.676  28.071  1.00  0.00     0.021 C 
BRANCH   2   3
ATOM      3  C   UNL A   1      34.702  30.484  27.505  1.00  0.00     0.116 C 
BRANCH   3   4
ATOM      4  N   UNL A   1      33.374  30.862  27.064  1.00  0.00    -0.356 N 
ATOM      5  C   UNL A   1      32.462  30.208  26.296  1.00  0.00     0.227 C 
ATOM      6  O   UNL A   1      31.378  30.772  26.110  1.00  0.00    -0.274 OA
ATOM      7  H   UNL A   1      33.081  31.749  27.375  1.00  0.00     0.163 HD
BRANCH   5   8
ATOM      8  C   UNL A   1      32.717  28.822  25.699  1.00  0.00     0.103 C 
ATOM      9  C   UNL A   1      31.809  26.597  26.239  1.00  0.00     0.107 C 
ATOM     10  C   UNL A   1      31.167  27.191  25.027  1.00  0.00    -0.006 C 
ATOM     11  C   UNL A   1      32.808  27.670  26.706  1.00  0.00     0.047 C 
ATOM     12  C   UNL A   1      31.652  28.401  24.733  1.00  0.00    -0.016 C 
BRANCH   9  13
ATOM     13  N   UNL A   1      32.474  25.392  25.831  1.00  0.00    -0.332 N 
ATOM     14  O   UNL A   1      31.431  24.016  27.319  1.00  0.00    -0.248 OA
ATOM     15  C   UNL A   1      32.284  24.197  26.456  1.00  0.00     0.319 C 
ATOM     16  N   UNL A   1      33.041  23.157  25.991  1.00  0.00    -0.308 N 
ATOM     17  H   UNL A   1      32.676  22.260  26.169  1.00  0.00     0.171 HD
ATOM     18  H   UNL A   1      33.092  25.432  25.067  1.00  0.00     0.165 HD
BRANCH  16  19
ATOM     19  C   UNL A   1      34.265  23.180  25.298  1.00  0.00     0.045 A 
ATOM     20  C   UNL A   1      34.369  22.861  23.938  1.00  0.00     0.026 A 
ATOM     21  C   UNL A   1      35.405  23.582  25.994  1.00  0.00     0.065 A 
ATOM     22  C   UNL A   1      35.609  22.879  23.294  1.00  0.00     0.005 A 
ATOM     23  C   UNL A   1      36.638  23.581  25.348  1.00  0.00     0.125 A 
ATOM     24  C   UNL A   1      36.751  23.228  24.008  1.00  0.00     0.039 A 
ATOM     25  F   UNL A   1      37.737  23.919  26.033  1.00  0.00    -0.207 F 
ENDBRANCH  16  19
ENDBRANCH   9  13
ENDBRANCH   5   8
ENDBRANCH   3   4
ENDBRANCH   2   3
ENDBRANCH   1   2
BRANCH   1  26
ATOM     26  C   UNL A   1      34.783  33.935  29.132  1.00  0.00     0.002 C 
BRANCH  26  27
ATOM     27  C   UNL A   1      33.412  34.618  29.149  1.00  0.00     0.021 C 
BRANCH  27  28
ATOM     28  C   UNL A   1      33.413  36.049  29.679  1.00  0.00     0.116 C 
BRANCH  28  29
ATOM     29  N   UNL A   1      32.473  36.232  30.775  1.00  0.00    -0.352 N 
ATOM     30  C   UNL A   1      32.521  35.743  32.054  1.00  0.00     0.251 C 
ATOM     31  H   UNL A   1      31.688  36.787  30.566  1.00  0.00     0.163 HD
ATOM     32  O   UNL A   1      31.546  35.856  32.795  1.00  0.00    -0.269 OA
BRANCH  30  33
ATOM     33  C   UNL A   1      33.734  35.056  32.543  1.00  0.00     0.039 A 
ATOM     34  C   UNL A   1      33.620  33.748  33.024  1.00  0.00     0.014 A 
ATOM     35  C   UNL A   1      34.977  35.698  32.541  1.00  0.00     0.014 A 
ATOM     36  C   UNL A   1      34.763  33.061  33.441  1.00  0.00     0.010 A 
ATOM     37  C   UNL A   1      36.123  34.992  32.898  1.00  0.00     0.010 A 
ATOM     38  C   UNL A   1      36.027  33.665  33.346  1.00  0.00    -0.014 A 
BRANCH  38  39
ATOM     39  C   UNL A   1      37.262  32.917  33.691  1.00  0.00     0.031 A 
ATOM     40  C   UNL A   1      38.000  33.216  34.965  1.00  0.00     0.074 A 
ATOM     41  C   UNL A   1      37.753  32.012  32.823  1.00  0.00     0.049 A 
ATOM     42  N   UNL A   1      39.134  32.726  35.396  1.00  0.00    -0.248 NA
ATOM     43  C   UNL A   1      37.393  34.209  35.865  1.00  0.00     0.031 C 
ATOM     44  C   UNL A   1      37.145  31.660  31.539  1.00  0.00     0.029 A 
ATOM     45  N   UNL A   1      38.881  31.231  32.882  1.00  0.00    -0.354 N 
ATOM     46  C   UNL A   1      39.383  33.358  36.607  1.00  0.00     0.074 A 
ATOM     47  C   UNL A   1      38.305  34.298  36.824  1.00  0.00     0.031 C 
ATOM     48  C   UNL A   1      37.892  30.717  30.943  1.00  0.00     0.029 A 
ATOM     49  C   UNL A   1      39.052  30.428  31.781  1.00  0.00     0.049 A 
ATOM     50  H   UNL A   1      39.507  31.244  33.642  1.00  0.00     0.167 HD
ATOM     51  C   UNL A   1      40.406  33.153  37.469  1.00  0.00     0.037 A 
ATOM     52  C   UNL A   1      40.039  29.563  31.474  1.00  0.00     0.037 A 
ATOM     53  C   UNL A   1      41.462  32.196  37.263  1.00  0.00     0.049 A 
ATOM     54  C   UNL A   1      41.175  29.371  32.439  1.00  0.00     0.074 A 
ATOM     55  C   UNL A   1      42.510  31.876  38.108  1.00  0.00     0.029 A 
ATOM     56  N   UNL A   1      41.604  31.406  36.132  1.00  0.00    -0.354 N 
ATOM     57  N   UNL A   1      41.374  29.938  33.603  1.00  0.00    -0.248 NA
ATOM     58  C   UNL A   1      42.228  28.421  32.048  1.00  0.00     0.031 C 
ATOM     59  C   UNL A   1      43.311  30.926  37.471  1.00  0.00     0.029 A 
ATOM     60  C   UNL A   1      42.736  30.616  36.249  1.00  0.00     0.049 A 
ATOM     61  H   UNL A   1      40.991  31.405  35.362  1.00  0.00     0.167 HD
ATOM     62  C   UNL A   1      42.557  29.402  34.093  1.00  0.00     0.074 A 
ATOM     63  C   UNL A   1      43.028  28.455  33.106  1.00  0.00     0.031 C 
ATOM     64  C   UNL A   1      43.192  29.674  35.258  1.00  0.00     0.037 A 
BRANCH  51  65
ATOM     65  C   UNL A   1      40.436  33.967  38.728  1.00  0.00     0.064 A 
ATOM     66  C   UNL A   1      39.690  33.573  39.849  1.00  0.00     0.173 A 
ATOM     67  C   UNL A   1      41.140  35.179  38.799  1.00  0.00     0.173 A 
ATOM     68  F   UNL A   1      38.993  32.427  39.830  1.00  0.00    -0.203 F 
ATOM     69  C   UNL A   1      39.637  34.370  40.990  1.00  0.00     0.198 A 
ATOM     70  C   UNL A   1      41.106  35.959  39.951  1.00  0.00     0.198 A 
ATOM     71  F   UNL A   1      41.875  35.594  37.757  1.00  0.00    -0.203 F 
ATOM     72  F   UNL A   1      38.892  33.991  42.037  1.00  0.00    -0.200 F 
ATOM     73  C   UNL A   1      40.347  35.560  41.041  1.00  0.00     0.200 A 
ATOM     74  F   UNL A   1      41.809  37.099  40.007  1.00  0.00    -0.200 F 
ATOM     75  F   UNL A   1      40.301  36.323  42.143  1.00  0.00    -0.200 F 
ENDBRANCH  51  65
BRANCH  52  76
ATOM     76  C   UNL A   1      39.971  28.796  30.205  1.00  0.00     0.064 A 
ATOM     77  C   UNL A   1      39.397  27.518  30.152  1.00  0.00     0.173 A 
ATOM     78  C   UNL A   1      40.515  29.318  29.023  1.00  0.00     0.173 A 
ATOM     79  F   UNL A   1      38.867  26.972  31.257  1.00  0.00    -0.203 F 
ATOM     80  C   UNL A   1      39.388  26.781  28.970  1.00  0.00     0.198 A 
ATOM     81  C   UNL A   1      40.483  28.590  27.834  1.00  0.00     0.198 A 
ATOM     82  F   UNL A   1      41.055  30.544  29.020  1.00  0.00    -0.203 F 
ATOM     83  F   UNL A   1      38.865  25.548  28.955  1.00  0.00    -0.200 F 
ATOM     84  C   UNL A   1      39.928  27.319  27.811  1.00  0.00     0.200 A 
ATOM     85  F   UNL A   1      40.987  29.122  26.713  1.00  0.00    -0.200 F 
ATOM     86  F   UNL A   1      39.913  26.613  26.672  1.00  0.00    -0.200 F 
ENDBRANCH  52  76
BRANCH  64  87
ATOM     87  C   UNL A   1      44.462  28.932  35.551  1.00  0.00     0.064 A 
ATOM     88  C   UNL A   1      44.432  27.732  36.280  1.00  0.00     0.173 A 
ATOM     89  C   UNL A   1      45.712  29.455  35.193  1.00  0.00     0.173 A 
ATOM     90  F   UNL A   1      43.259  27.196  36.651  1.00  0.00    -0.203 F 
ATOM     91  C   UNL A   1      45.611  27.096  36.658  1.00  0.00     0.198 A 
ATOM     92  C   UNL A   1      46.888  28.801  35.552  1.00  0.00     0.198 A 
ATOM     93  F   UNL A   1      45.791  30.591  34.485  1.00  0.00    -0.203 F 
ATOM     94  F   UNL A   1      45.559  25.973  37.388  1.00  0.00    -0.200 F 
ATOM     95  C   UNL A   1      46.837  27.630  36.294  1.00  0.00     0.200 A 
ATOM     96  F   UNL A   1      48.073  29.307  35.181  1.00  0.00    -0.200 F 
ATOM     97  F   UNL A   1      47.971  27.015  36.656  1.00  0.00    -0.200 F 
ENDBRANCH  64  87
ENDBRANCH  38  39
ENDBRANCH  30  33
ENDBRANCH  28  29
ENDBRANCH  27  28
ENDBRANCH  26  27
ENDBRANCH   1  26
TORSDOF 15
ENDMDL
MODEL 2
REMARK VINA RESULT:     -11.9      7.179     12.691
REMARK SMILES O=C(Nc1cccc(F)c1)N[C@@H]1C=C[C@@H](C(=O)NCCCCCCNC(=O)c2ccc(-c3c4nc(c(-c5c(F)c(F)c(F)c(F)c5F)c5ccc([nH]5)c(-c5c(F)c(F)c(F)c(F)c5F)c5nc(c(-c6c(F)c(F)c(F)c(F)c6F)c6ccc3[nH]6)C=C5)C=C4)cc2)C1
REMARK SMILES IDX 21 1 20 2 19 3 18 4 16 5 17 6 15 8 12 9 13 10 91 11 14 12
REMARK SMILES IDX 11 13 1 14 2 15 3 16 4 19 5 20 10 21 6 22 8 23 7 24 9 25
REMARK SMILES IDX 22 26 23 27 24 28 25 29 26 30 27 32 28 33 29 34 90 35 30 36
REMARK SMILES IDX 89 37 31 38 32 39 33 40 83 41 34 42 88 43 82 44 84 45 35 46
REMARK SMILES IDX 87 47 81 48 80 49 36 51 68 52 48 53 67 54 49 55 52 56 66 57
REMARK SMILES IDX 85 58 50 59 51 60 65 62 86 63 53 64 37 65 38 66 46 67 39 68
REMARK SMILES IDX 40 69 44 70 47 71 41 72 42 73 45 74 43 75 69 76 70 77 78 78
REMARK SMILES IDX 71 79 72 80 76 81 79 82 73 83 74 84 77 85 75 86 54 87 55 88
REMARK SMILES IDX 63 89 56 90 57 91 61 92 64 93 58 94 59 95 62 96 60 97
REMARK H PARENT 18 7 3 17 11 18 25 31 84 50 52 61
REMARK Flexibility Score: inf
ROOT
ATOM      1  C   UNL A   1      42.162  20.790  27.429  1.00  0.00     0.002 C 
ENDROOT
BRANCH   1   2
ATOM      2  C   UNL A   1      40.808  21.491  27.579  1.00  0.00     0.021 C 
BRANCH   2   3
ATOM      3  C   UNL A   1      40.150  21.877  26.255  1.00  0.00     0.116 C 
BRANCH   3   4
ATOM      4  N   UNL A   1      39.343  23.073  26.386  1.00  0.00    -0.356 N 
ATOM      5  C   UNL A   1      38.059  23.334  26.024  1.00  0.00     0.227 C 
ATOM      6  O   UNL A   1      37.615  24.455  26.298  1.00  0.00    -0.274 OA
ATOM      7  H   UNL A   1      39.807  23.831  26.811  1.00  0.00     0.163 HD
BRANCH   5   8
ATOM      8  C   UNL A   1      37.160  22.302  25.339  1.00  0.00     0.103 C 
ATOM      9  C   UNL A   1      34.794  22.364  24.657  1.00  0.00     0.107 C 
ATOM     10  C   UNL A   1      35.721  22.576  23.504  1.00  0.00    -0.006 C 
ATOM     11  C   UNL A   1      35.725  22.211  25.872  1.00  0.00     0.047 C 
ATOM     12  C   UNL A   1      37.006  22.549  23.870  1.00  0.00    -0.016 C 
BRANCH   9  13
ATOM     13  N   UNL A   1      34.051  21.163  24.401  1.00  0.00    -0.332 N 
ATOM     14  O   UNL A   1      31.983  22.097  24.612  1.00  0.00    -0.248 OA
ATOM     15  C   UNL A   1      32.692  21.106  24.469  1.00  0.00     0.319 C 
ATOM     16  N   UNL A   1      32.138  19.874  24.264  1.00  0.00    -0.308 N 
ATOM     17  H   UNL A   1      31.201  19.879  23.961  1.00  0.00     0.171 HD
ATOM     18  H   UNL A   1      34.546  20.345  24.165  1.00  0.00     0.165 HD
BRANCH  16  19
ATOM     19  C   UNL A   1      32.708  18.598  24.422  1.00  0.00     0.045 A 
ATOM     20  C   UNL A   1      32.657  17.892  25.632  1.00  0.00     0.026 A 
ATOM     21  C   UNL A   1      33.307  18.004  23.311  1.00  0.00     0.065 A 
ATOM     22  C   UNL A   1      33.254  16.634  25.750  1.00  0.00     0.005 A 
ATOM     23  C   UNL A   1      33.913  16.758  23.443  1.00  0.00     0.125 A 
ATOM     24  C   UNL A   1      33.898  16.071  24.653  1.00  0.00     0.039 A 
ATOM     25  F   UNL A   1      34.530  16.214  22.387  1.00  0.00    -0.207 F 
ENDBRANCH  16  19
ENDBRANCH   9  13
ENDBRANCH   5   8
ENDBRANCH   3   4
ENDBRANCH   2   3
ENDBRANCH   1   2
BRANCH   1  26
ATOM     26  C   UNL A   1      42.174  19.303  27.799  1.00  0.00     0.002 C 
BRANCH  26  27
ATOM     27  C   UNL A   1      42.700  18.362  26.713  1.00  0.00     0.021 C 
BRANCH  27  28
ATOM     28  C   UNL A   1      42.791  18.975  25.318  1.00  0.00     0.116 C 
BRANCH  28  29
ATOM     29  N   UNL A   1      44.044  18.652  24.654  1.00  0.00    -0.352 N 
ATOM     30  C   UNL A   1      45.077  19.478  24.294  1.00  0.00     0.251 C 
ATOM     31  H   UNL A   1      44.168  17.702  24.430  1.00  0.00     0.163 HD
ATOM     32  O   UNL A   1      45.986  19.056  23.580  1.00  0.00    -0.269 OA
BRANCH  30  33
ATOM     33  C   UNL A   1      45.095  20.886  24.741  1.00  0.00     0.039 A 
ATOM     34  C   UNL A   1      45.449  21.168  26.063  1.00  0.00     0.014 A 
ATOM     35  C   UNL A   1      44.756  21.924  23.867  1.00  0.00     0.014 A 
ATOM     36  C   UNL A   1      45.525  22.495  26.493  1.00  0.00     0.010 A 
ATOM     37  C   UNL A   1      44.892  23.248  24.278  1.00  0.00     0.010 A 
ATOM     38  C   UNL A   1      45.283  23.546  25.592  1.00  0.00    -0.014 A 
BRANCH  38  39
ATOM     39  C   UNL A   1      45.455  24.962  26.002  1.00  0.00     0.031 A 
ATOM     40  C   UNL A   1      46.802  25.621  25.914  1.00  0.00     0.074 A 
ATOM     41  C   UNL A   1      44.407  25.634  26.516  1.00  0.00     0.049 A 
ATOM     42  N   UNL A   1      47.162  26.819  26.299  1.00  0.00    -0.248 NA
ATOM     43  C   UNL A   1      47.893  24.823  25.332  1.00  0.00     0.031 C 
ATOM     44  C   UNL A   1      43.058  25.092  26.684  1.00  0.00     0.029 A 
ATOM     45  N   UNL A   1      44.312  26.916  27.001  1.00  0.00    -0.354 N 
ATOM     46  C   UNL A   1      48.518  26.914  26.019  1.00  0.00     0.074 A 
ATOM     47  C   UNL A   1      48.929  25.640  25.471  1.00  0.00     0.031 C 
ATOM     48  C   UNL A   1      42.266  26.039  27.212  1.00  0.00     0.029 A 
ATOM     49  C   UNL A   1      43.058  27.241  27.457  1.00  0.00     0.049 A 
ATOM     50  H   UNL A   1      45.072  27.543  27.019  1.00  0.00     0.167 HD
ATOM     51  C   UNL A   1      49.339  27.977  26.183  1.00  0.00     0.037 A 
ATOM     52  C   UNL A   1      42.599  28.376  28.019  1.00  0.00     0.037 A 
ATOM     53  C   UNL A   1      48.921  29.253  26.702  1.00  0.00     0.049 A 
ATOM     54  C   UNL A   1      43.537  29.535  28.211  1.00  0.00     0.074 A 
ATOM     55  C   UNL A   1      49.668  30.408  26.851  1.00  0.00     0.029 A 
ATOM     56  N   UNL A   1      47.643  29.541  27.159  1.00  0.00    -0.354 N 
ATOM     57  N   UNL A   1      44.806  29.629  27.897  1.00  0.00    -0.248 NA
ATOM     58  C   UNL A   1      42.983  30.744  28.837  1.00  0.00     0.031 C 
ATOM     59  C   UNL A   1      48.856  31.382  27.438  1.00  0.00     0.029 A 
ATOM     60  C   UNL A   1      47.588  30.850  27.611  1.00  0.00     0.049 A 
ATOM     61  H   UNL A   1      46.887  28.910  27.160  1.00  0.00     0.167 HD
ATOM     62  C   UNL A   1      45.197  30.909  28.266  1.00  0.00     0.074 A 
ATOM     63  C   UNL A   1      44.029  31.561  28.818  1.00  0.00     0.031 C 
ATOM     64  C   UNL A   1      46.417  31.488  28.155  1.00  0.00     0.037 A 
BRANCH  51  65
ATOM     65  C   UNL A   1      50.777  27.822  25.786  1.00  0.00     0.064 A 
ATOM     66  C   UNL A   1      51.760  27.564  26.754  1.00  0.00     0.173 A 
ATOM     67  C   UNL A   1      51.193  28.007  24.459  1.00  0.00     0.173 A 
ATOM     68  F   UNL A   1      51.415  27.388  28.039  1.00  0.00    -0.203 F 
ATOM     69  C   UNL A   1      53.108  27.510  26.409  1.00  0.00     0.198 A 
ATOM     70  C   UNL A   1      52.540  27.926  24.114  1.00  0.00     0.198 A 
ATOM     71  F   UNL A   1      50.291  28.247  23.497  1.00  0.00    -0.203 F 
ATOM     72  F   UNL A   1      54.033  27.296  27.354  1.00  0.00    -0.200 F 
ATOM     73  C   UNL A   1      53.496  27.688  25.090  1.00  0.00     0.200 A 
ATOM     74  F   UNL A   1      52.911  28.077  22.835  1.00  0.00    -0.200 F 
ATOM     75  F   UNL A   1      54.793  27.630  24.757  1.00  0.00    -0.200 F 
ENDBRANCH  51  65
BRANCH  52  76
ATOM     76  C   UNL A   1      41.171  28.471  28.412  1.00  0.00     0.064 A 
ATOM     77  C   UNL A   1      40.199  28.960  27.527  1.00  0.00     0.173 A 
ATOM     78  C   UNL A   1      40.757  28.107  29.701  1.00  0.00     0.173 A 
ATOM     79  F   UNL A   1      40.545  29.327  26.284  1.00  0.00    -0.203 F 
ATOM     80  C   UNL A   1      38.870  29.100  27.923  1.00  0.00     0.198 A 
ATOM     81  C   UNL A   1      39.423  28.223  30.088  1.00  0.00     0.198 A 
ATOM     82  F   UNL A   1      41.646  27.614  30.575  1.00  0.00    -0.203 F 
ATOM     83  F   UNL A   1      37.969  29.603  27.069  1.00  0.00    -0.200 F 
ATOM     84  C   UNL A   1      38.483  28.729  29.201  1.00  0.00     0.200 A 
ATOM     85  F   UNL A   1      39.049  27.844  31.316  1.00  0.00    -0.200 F 
ATOM     86  F   UNL A   1      37.203  28.857  29.579  1.00  0.00    -0.200 F 
ENDBRANCH  52  76
BRANCH  64  87
ATOM     87  C   UNL A   1      46.562  32.905  28.622  1.00  0.00     0.064 A 
ATOM     88  C   UNL A   1      46.897  33.183  29.957  1.00  0.00     0.173 A 
ATOM     89  C   UNL A   1      46.279  33.986  27.775  1.00  0.00     0.173 A 
ATOM     90  F   UNL A   1      47.169  32.181  30.807  1.00  0.00    -0.203 F 
ATOM     91  C   UNL A   1      46.920  34.491  30.431  1.00  0.00     0.198 A 
ATOM     92  C   UNL A   1      46.329  35.295  28.247  1.00  0.00     0.198 A 
ATOM     93  F   UNL A   1      45.968  33.771  26.488  1.00  0.00    -0.203 F 
ATOM     94  F   UNL A   1      47.204  34.730  31.719  1.00  0.00    -0.200 F 
ATOM     95  C   UNL A   1      46.638  35.545  29.577  1.00  0.00     0.200 A 
ATOM     96  F   UNL A   1      46.076  36.315  27.415  1.00  0.00    -0.200 F 
ATOM     97  F   UNL A   1      46.664  36.805  30.034  1.00  0.00    -0.200 F 
ENDBRANCH  64  87
ENDBRANCH  38  39
ENDBRANCH  30  33
ENDBRANCH  28  29
ENDBRANCH  27  28
ENDBRANCH  26  27
ENDBRANCH   1  26
TORSDOF 15
ENDMDL
MODEL 3
REMARK VINA RESULT:     -11.8      2.318      3.589
REMARK SMILES O=C(Nc1cccc(F)c1)N[C@@H]1C=C[C@@H](C(=O)NCCCCCCNC(=O)c2ccc(-c3c4nc(c(-c5c(F)c(F)c(F)c(F)c5F)c5ccc([nH]5)c(-c5c(F)c(F)c(F)c(F)c5F)c5nc(c(-c6c(F)c(F)c(F)c(F)c6F)c6ccc3[nH]6)C=C5)C=C4)cc2)C1
REMARK SMILES IDX 21 1 20 2 19 3 18 4 16 5 17 6 15 8 12 9 13 10 91 11 14 12
REMARK SMILES IDX 11 13 1 14 2 15 3 16 4 19 5 20 10 21 6 22 8 23 7 24 9 25
REMARK SMILES IDX 22 26 23 27 24 28 25 29 26 30 27 32 28 33 29 34 90 35 30 36
REMARK SMILES IDX 89 37 31 38 32 39 33 40 83 41 34 42 88 43 82 44 84 45 35 46
REMARK SMILES IDX 87 47 81 48 80 49 36 51 68 52 48 53 67 54 49 55 52 56 66 57
REMARK SMILES IDX 85 58 50 59 51 60 65 62 86 63 53 64 37 65 38 66 46 67 39 68
REMARK SMILES IDX 40 69 44 70 47 71 41 72 42 73 45 74 43 75 69 76 70 77 78 78
REMARK SMILES IDX 71 79 72 80 76 81 79 82 73 83 74 84 77 85 75 86 54 87 55 88
REMARK SMILES IDX 63 89 56 90 57 91 61 92 64 93 58 94 59 95 62 96 60 97
REMARK H PARENT 18 7 3 17 11 18 25 31 84 50 52 61
REMARK Flexibility Score: inf
ROOT
ATOM      1  C   UNL A   1      35.379  34.157  29.092  1.00  0.00     0.002 C 
ENDROOT
BRANCH   1   2
ATOM      2  C   UNL A   1      35.858  32.918  28.329  1.00  0.00     0.021 C 
BRANCH   2   3
ATOM      3  C   UNL A   1      34.733  32.064  27.746  1.00  0.00     0.116 C 
BRANCH   3   4
ATOM      4  N   UNL A   1      35.147  30.688  27.558  1.00  0.00    -0.356 N 
ATOM      5  C   UNL A   1      34.491  29.617  27.036  1.00  0.00     0.227 C 
ATOM      6  O   UNL A   1      35.118  28.554  26.969  1.00  0.00    -0.274 OA
ATOM      7  H   UNL A   1      36.063  30.495  27.862  1.00  0.00     0.163 HD
BRANCH   5   8
ATOM      8  C   UNL A   1      33.054  29.692  26.515  1.00  0.00     0.103 C 
ATOM      9  C   UNL A   1      31.821  28.342  24.865  1.00  0.00     0.107 C 
ATOM     10  C   UNL A   1      31.474  27.973  26.272  1.00  0.00    -0.006 C 
ATOM     11  C   UNL A   1      32.879  29.449  25.011  1.00  0.00     0.047 C 
ATOM     12  C   UNL A   1      32.145  28.699  27.170  1.00  0.00    -0.016 C 
BRANCH   9  13
ATOM     13  N   UNL A   1      30.625  28.825  24.235  1.00  0.00    -0.332 N 
ATOM     14  O   UNL A   1      29.978  26.825  23.356  1.00  0.00    -0.248 OA
ATOM     15  C   UNL A   1      29.827  28.038  23.463  1.00  0.00     0.319 C 
ATOM     16  N   UNL A   1      28.761  28.664  22.879  1.00  0.00    -0.308 N 
ATOM     17  H   UNL A   1      28.011  28.076  22.634  1.00  0.00     0.171 HD
ATOM     18  H   UNL A   1      30.372  29.767  24.369  1.00  0.00     0.165 HD
BRANCH  16  19
ATOM     19  C   UNL A   1      28.579  30.025  22.576  1.00  0.00     0.045 A 
ATOM     20  C   UNL A   1      28.736  31.040  23.530  1.00  0.00     0.026 A 
ATOM     21  C   UNL A   1      28.274  30.369  21.259  1.00  0.00     0.065 A 
ATOM     22  C   UNL A   1      28.526  32.378  23.188  1.00  0.00     0.005 A 
ATOM     23  C   UNL A   1      28.053  31.703  20.932  1.00  0.00     0.125 A 
ATOM     24  C   UNL A   1      28.169  32.710  21.886  1.00  0.00     0.039 A 
ATOM     25  F   UNL A   1      27.711  32.024  19.678  1.00  0.00    -0.207 F 
ENDBRANCH  16  19
ENDBRANCH   9  13
ENDBRANCH   5   8
ENDBRANCH   3   4
ENDBRANCH   2   3
ENDBRANCH   1   2
BRANCH   1  26
ATOM     26  C   UNL A   1      33.879  34.450  28.989  1.00  0.00     0.002 C 
BRANCH  26  27
ATOM     27  C   UNL A   1      33.509  35.928  28.835  1.00  0.00     0.021 C 
BRANCH  27  28
ATOM     28  C   UNL A   1      33.603  36.751  30.117  1.00  0.00     0.116 C 
BRANCH  28  29
ATOM     29  N   UNL A   1      32.505  36.478  31.030  1.00  0.00    -0.352 N 
ATOM     30  C   UNL A   1      32.454  35.624  32.101  1.00  0.00     0.251 C 
ATOM     31  H   UNL A   1      31.676  36.979  30.853  1.00  0.00     0.163 HD
ATOM     32  O   UNL A   1      31.381  35.391  32.656  1.00  0.00    -0.269 OA
BRANCH  30  33
ATOM     33  C   UNL A   1      33.683  34.960  32.582  1.00  0.00     0.039 A 
ATOM     34  C   UNL A   1      33.598  33.647  33.055  1.00  0.00     0.014 A 
ATOM     35  C   UNL A   1      34.912  35.628  32.579  1.00  0.00     0.014 A 
ATOM     36  C   UNL A   1      34.756  32.981  33.464  1.00  0.00     0.010 A 
ATOM     37  C   UNL A   1      36.074  34.943  32.928  1.00  0.00     0.010 A 
ATOM     38  C   UNL A   1      36.007  33.612  33.369  1.00  0.00    -0.014 A 
BRANCH  38  39
ATOM     39  C   UNL A   1      37.259  32.889  33.705  1.00  0.00     0.031 A 
ATOM     40  C   UNL A   1      37.994  33.193  34.979  1.00  0.00     0.074 A 
ATOM     41  C   UNL A   1      37.767  32.001  32.828  1.00  0.00     0.049 A 
ATOM     42  N   UNL A   1      39.140  32.724  35.403  1.00  0.00    -0.248 NA
ATOM     43  C   UNL A   1      37.369  34.166  35.888  1.00  0.00     0.031 C 
ATOM     44  C   UNL A   1      37.163  31.646  31.543  1.00  0.00     0.029 A 
ATOM     45  N   UNL A   1      38.911  31.243  32.878  1.00  0.00    -0.354 N 
ATOM     46  C   UNL A   1      39.378  33.351  36.619  1.00  0.00     0.074 A 
ATOM     47  C   UNL A   1      38.281  34.267  36.846  1.00  0.00     0.031 C 
ATOM     48  C   UNL A   1      37.929  30.724  30.938  1.00  0.00     0.029 A 
ATOM     49  C   UNL A   1      39.097  30.453  31.770  1.00  0.00     0.049 A 
ATOM     50  H   UNL A   1      39.539  31.264  33.637  1.00  0.00     0.167 HD
ATOM     51  C   UNL A   1      40.408  33.162  37.476  1.00  0.00     0.037 A 
ATOM     52  C   UNL A   1      40.101  29.612  31.454  1.00  0.00     0.037 A 
ATOM     53  C   UNL A   1      41.483  32.230  37.260  1.00  0.00     0.049 A 
ATOM     54  C   UNL A   1      41.244  29.436  32.415  1.00  0.00     0.074 A 
ATOM     55  C   UNL A   1      42.539  31.926  38.100  1.00  0.00     0.029 A 
ATOM     56  N   UNL A   1      41.639  31.451  36.123  1.00  0.00    -0.354 N 
ATOM     57  N   UNL A   1      41.433  29.999  33.583  1.00  0.00    -0.248 NA
ATOM     58  C   UNL A   1      42.316  28.512  32.014  1.00  0.00     0.031 C 
ATOM     59  C   UNL A   1      43.360  30.998  37.454  1.00  0.00     0.029 A 
ATOM     60  C   UNL A   1      42.788  30.685  36.230  1.00  0.00     0.049 A 
ATOM     61  H   UNL A   1      41.024  31.444  35.354  1.00  0.00     0.167 HD
ATOM     62  C   UNL A   1      42.629  29.485  34.066  1.00  0.00     0.074 A 
ATOM     63  C   UNL A   1      43.118  28.555  33.070  1.00  0.00     0.031 C 
ATOM     64  C   UNL A   1      43.261  29.760  35.232  1.00  0.00     0.037 A 
BRANCH  51  65
ATOM     65  C   UNL A   1      40.424  33.967  38.742  1.00  0.00     0.064 A 
ATOM     66  C   UNL A   1      39.708  33.536  39.869  1.00  0.00     0.173 A 
ATOM     67  C   UNL A   1      41.082  35.203  38.814  1.00  0.00     0.173 A 
ATOM     68  F   UNL A   1      39.054  32.365  39.849  1.00  0.00    -0.203 F 
ATOM     69  C   UNL A   1      39.639  34.321  41.017  1.00  0.00     0.198 A 
ATOM     70  C   UNL A   1      41.034  35.973  39.973  1.00  0.00     0.198 A 
ATOM     71  F   UNL A   1      41.787  35.654  37.766  1.00  0.00    -0.203 F 
ATOM     72  F   UNL A   1      38.923  33.906  42.070  1.00  0.00    -0.200 F 
ATOM     73  C   UNL A   1      40.305  35.537  41.069  1.00  0.00     0.200 A 
ATOM     74  F   UNL A   1      41.694  37.138  40.028  1.00  0.00    -0.200 F 
ATOM     75  F   UNL A   1      40.244  36.289  42.177  1.00  0.00    -0.200 F 
ENDBRANCH  51  65
BRANCH  52  76
ATOM     76  C   UNL A   1      40.046  28.854  30.179  1.00  0.00     0.064 A 
ATOM     77  C   UNL A   1      39.450  27.586  30.107  1.00  0.00     0.173 A 
ATOM     78  C   UNL A   1      40.624  29.372  29.013  1.00  0.00     0.173 A 
ATOM     79  F   UNL A   1      38.887  27.044  31.197  1.00  0.00    -0.203 F 
ATOM     80  C   UNL A   1      39.453  26.856  28.920  1.00  0.00     0.198 A 
ATOM     81  C   UNL A   1      40.605  28.652  27.819  1.00  0.00     0.198 A 
ATOM     82  F   UNL A   1      41.187  30.588  29.028  1.00  0.00    -0.203 F 
ATOM     83  F   UNL A   1      38.909  25.633  28.886  1.00  0.00    -0.200 F 
ATOM     84  C   UNL A   1      40.028  27.391  27.777  1.00  0.00     0.200 A 
ATOM     85  F   UNL A   1      41.142  29.181  26.712  1.00  0.00    -0.200 F 
ATOM     86  F   UNL A   1      40.024  26.692  26.633  1.00  0.00    -0.200 F 
ENDBRANCH  52  76
BRANCH  64  87
ATOM     87  C   UNL A   1      44.547  29.043  35.516  1.00  0.00     0.064 A 
ATOM     88  C   UNL A   1      44.545  27.838  36.234  1.00  0.00     0.173 A 
ATOM     89  C   UNL A   1      45.785  29.597  35.159  1.00  0.00     0.173 A 
ATOM     90  F   UNL A   1      43.385  27.273  36.603  1.00  0.00    -0.203 F 
ATOM     91  C   UNL A   1      45.738  27.224  36.604  1.00  0.00     0.198 A 
ATOM     92  C   UNL A   1      46.976  28.966  35.510  1.00  0.00     0.198 A 
ATOM     93  F   UNL A   1      45.838  30.740  34.461  1.00  0.00    -0.203 F 
ATOM     94  F   UNL A   1      45.712  26.093  37.324  1.00  0.00    -0.200 F 
ATOM     95  C   UNL A   1      46.951  27.787  36.242  1.00  0.00     0.200 A 
ATOM     96  F   UNL A   1      48.148  29.500  35.141  1.00  0.00    -0.200 F 
ATOM     97  F   UNL A   1      48.099  27.193  36.597  1.00  0.00    -0.200 F 
ENDBRANCH  64  87
ENDBRANCH  38  39
ENDBRANCH  30  33
ENDBRANCH  28  29
ENDBRANCH  27  28
ENDBRANCH  26  27
ENDBRANCH   1  26
TORSDOF 15
ENDMDL
