MODEL 1
REMARK VINA RESULT:     -12.2      0.000      0.000
REMARK SMILES O=C(NCCCCCCNC(=O)[C@H]1[NH2+][C@@H]2CC[C@H]1CC2(F)F)c1ccc(-c2c3nc(c(-c4c(F)c(F)c(F)c(F)c4F)c4ccc([nH]4)c(-c4c(F)c(F)c(F)c(F)c4F)c4nc(c(-c5c(F)c(F)c(F)c(F)c5F)c5ccc2[nH]5)C=C4)C=C3)cc1
REMARK SMILES IDX 5 1 4 2 3 3 1 4 2 5 23 7 24 8 85 9 25 10 84 11 26 12 27 13
REMARK SMILES IDX 28 14 78 15 29 16 83 17 77 18 79 19 30 20 82 21 76 22 75 23
REMARK SMILES IDX 31 25 63 26 43 27 62 28 44 29 47 30 61 31 80 32 45 33 46 34
REMARK SMILES IDX 60 36 81 37 48 38 32 39 33 40 41 41 34 42 35 43 39 44 42 45
REMARK SMILES IDX 36 46 37 47 40 48 38 49 64 50 65 51 73 52 66 53 67 54 71 55
REMARK SMILES IDX 74 56 68 57 69 58 72 59 70 60 49 61 50 62 58 63 51 64 52 65
REMARK SMILES IDX 56 66 59 67 53 68 54 69 57 70 55 71 6 72 7 73 8 74 9 75
REMARK SMILES IDX 10 76 11 77 12 79 13 80 14 81 18 82 15 83 17 86 19 87 16 88
REMARK SMILES IDX 20 89 21 90 22 91
REMARK H PARENT 3 6 79 24 47 35 10 78 14 84 14 85
REMARK Flexibility Score: inf
ROOT
ATOM      1  C   UNL A   1      31.277  32.235  26.502  1.00  0.00     0.021 C 
ENDROOT
BRANCH   1   2
ATOM      2  C   UNL A   1      32.477  32.806  27.247  1.00  0.00     0.116 C 
BRANCH   2   3
ATOM      3  N   UNL A   1      32.286  34.196  27.626  1.00  0.00    -0.352 N 
ATOM      4  O   UNL A   1      32.529  36.047  28.891  1.00  0.00    -0.269 OA
ATOM      5  C   UNL A   1      32.933  34.934  28.588  1.00  0.00     0.251 C 
ATOM      6  H   UNL A   1      31.592  34.679  27.119  1.00  0.00     0.163 HD
BRANCH   5   7
ATOM      7  C   UNL A   1      34.111  34.362  29.277  1.00  0.00     0.039 A 
ATOM      8  C   UNL A   1      35.394  34.531  28.753  1.00  0.00     0.014 A 
ATOM      9  C   UNL A   1      33.925  33.648  30.464  1.00  0.00     0.014 A 
ATOM     10  C   UNL A   1      36.467  33.860  29.329  1.00  0.00     0.010 A 
ATOM     11  C   UNL A   1      35.020  33.045  31.091  1.00  0.00     0.010 A 
ATOM     12  C   UNL A   1      36.295  33.115  30.507  1.00  0.00    -0.014 A 
BRANCH  12  13
ATOM     13  C   UNL A   1      37.472  32.450  31.121  1.00  0.00     0.031 A 
ATOM     14  C   UNL A   1      37.913  32.785  32.518  1.00  0.00     0.074 A 
ATOM     15  C   UNL A   1      38.118  31.501  30.418  1.00  0.00     0.049 A 
ATOM     16  N   UNL A   1      38.885  32.261  33.224  1.00  0.00    -0.248 NA
ATOM     17  C   UNL A   1      37.179  33.853  33.214  1.00  0.00     0.031 C 
ATOM     18  C   UNL A   1      37.792  31.102  29.047  1.00  0.00     0.029 A 
ATOM     19  N   UNL A   1      39.163  30.681  30.762  1.00  0.00    -0.354 N 
ATOM     20  C   UNL A   1      38.894  32.949  34.431  1.00  0.00     0.074 A 
ATOM     21  C   UNL A   1      37.846  33.944  34.356  1.00  0.00     0.031 C 
ATOM     22  C   UNL A   1      38.577  30.077  28.688  1.00  0.00     0.029 A 
ATOM     23  C   UNL A   1      39.499  29.783  29.780  1.00  0.00     0.049 A 
ATOM     24  H   UNL A   1      39.625  30.731  31.629  1.00  0.00     0.167 HD
ATOM     25  C   UNL A   1      39.700  32.760  35.505  1.00  0.00     0.037 A 
ATOM     26  C   UNL A   1      40.447  28.828  29.758  1.00  0.00     0.037 A 
ATOM     27  C   UNL A   1      40.722  31.748  35.586  1.00  0.00     0.049 A 
ATOM     28  C   UNL A   1      41.319  28.638  30.965  1.00  0.00     0.074 A 
ATOM     29  C   UNL A   1      41.560  31.449  36.647  1.00  0.00     0.029 A 
ATOM     30  N   UNL A   1      41.049  30.870  34.562  1.00  0.00    -0.354 N 
ATOM     31  N   UNL A   1      41.290  29.268  32.114  1.00  0.00    -0.248 NA
ATOM     32  C   UNL A   1      42.357  27.603  30.872  1.00  0.00     0.031 C 
ATOM     33  C   UNL A   1      42.420  30.418  36.251  1.00  0.00     0.029 A 
ATOM     34  C   UNL A   1      42.086  30.042  34.960  1.00  0.00     0.049 A 
ATOM     35  H   UNL A   1      40.607  30.840  33.683  1.00  0.00     0.167 HD
ATOM     36  C   UNL A   1      42.288  28.694  32.888  1.00  0.00     0.074 A 
ATOM     37  C   UNL A   1      42.891  27.651  32.083  1.00  0.00     0.031 C 
ATOM     38  C   UNL A   1      42.671  29.005  34.150  1.00  0.00     0.037 A 
BRANCH  25  39
ATOM     39  C   UNL A   1      39.523  33.678  36.680  1.00  0.00     0.064 A 
ATOM     40  C   UNL A   1      38.716  33.334  37.774  1.00  0.00     0.173 A 
ATOM     41  C   UNL A   1      40.209  34.902  36.732  1.00  0.00     0.173 A 
ATOM     42  F   UNL A   1      38.030  32.180  37.770  1.00  0.00    -0.203 F 
ATOM     43  C   UNL A   1      38.584  34.189  38.866  1.00  0.00     0.198 A 
ATOM     44  C   UNL A   1      40.096  35.743  37.837  1.00  0.00     0.198 A 
ATOM     45  F   UNL A   1      40.999  35.277  35.716  1.00  0.00    -0.203 F 
ATOM     46  F   UNL A   1      37.775  33.857  39.881  1.00  0.00    -0.200 F 
ATOM     47  C   UNL A   1      39.279  35.389  38.899  1.00  0.00     0.200 A 
ATOM     48  F   UNL A   1      40.778  36.896  37.872  1.00  0.00    -0.200 F 
ATOM     49  F   UNL A   1      39.156  36.208  39.953  1.00  0.00    -0.200 F 
ENDBRANCH  25  39
BRANCH  26  50
ATOM     50  C   UNL A   1      40.602  27.970  28.556  1.00  0.00     0.064 A 
ATOM     51  C   UNL A   1      39.961  26.728  28.471  1.00  0.00     0.173 A 
ATOM     52  C   UNL A   1      41.381  28.380  27.464  1.00  0.00     0.173 A 
ATOM     53  F   UNL A   1      39.220  26.285  29.498  1.00  0.00    -0.203 F 
ATOM     54  C   UNL A   1      40.103  25.920  27.345  1.00  0.00     0.198 A 
ATOM     55  C   UNL A   1      41.500  27.585  26.326  1.00  0.00     0.198 A 
ATOM     56  F   UNL A   1      42.010  29.564  27.494  1.00  0.00    -0.203 F 
ATOM     57  F   UNL A   1      39.511  24.718  27.306  1.00  0.00    -0.200 F 
ATOM     58  C   UNL A   1      40.867  26.352  26.271  1.00  0.00     0.200 A 
ATOM     59  F   UNL A   1      42.224  28.014  25.284  1.00  0.00    -0.200 F 
ATOM     60  F   UNL A   1      40.997  25.579  25.185  1.00  0.00    -0.200 F 
ENDBRANCH  26  50
BRANCH  38  61
ATOM     61  C   UNL A   1      43.771  28.179  34.749  1.00  0.00     0.064 A 
ATOM     62  C   UNL A   1      45.117  28.565  34.653  1.00  0.00     0.173 A 
ATOM     63  C   UNL A   1      43.474  26.996  35.439  1.00  0.00     0.173 A 
ATOM     64  F   UNL A   1      45.453  29.680  33.986  1.00  0.00    -0.203 F 
ATOM     65  C   UNL A   1      46.126  27.780  35.201  1.00  0.00     0.198 A 
ATOM     66  C   UNL A   1      44.484  26.227  36.010  1.00  0.00     0.198 A 
ATOM     67  F   UNL A   1      42.203  26.585  35.563  1.00  0.00    -0.203 F 
ATOM     68  F   UNL A   1      47.409  28.139  35.050  1.00  0.00    -0.200 F 
ATOM     69  C   UNL A   1      45.809  26.614  35.883  1.00  0.00     0.200 A 
ATOM     70  F   UNL A   1      44.175  25.107  36.679  1.00  0.00    -0.200 F 
ATOM     71  F   UNL A   1      46.783  25.859  36.410  1.00  0.00    -0.200 F 
ENDBRANCH  38  61
ENDBRANCH  12  13
ENDBRANCH   5   7
ENDBRANCH   2   3
ENDBRANCH   1   2
BRANCH   1  72
ATOM     72  C   UNL A   1      31.464  30.807  25.986  1.00  0.00     0.002 C 
BRANCH  72  73
ATOM     73  C   UNL A   1      32.325  29.895  26.870  1.00  0.00     0.002 C 
BRANCH  73  74
ATOM     74  C   UNL A   1      31.660  28.586  27.311  1.00  0.00     0.021 C 
BRANCH  74  75
ATOM     75  C   UNL A   1      31.573  27.532  26.210  1.00  0.00     0.116 C 
BRANCH  75  76
ATOM     76  N   UNL A   1      31.363  26.211  26.768  1.00  0.00    -0.351 N 
ATOM     77  C   UNL A   1      31.849  24.970  26.527  1.00  0.00     0.278 C 
ATOM     78  H   UNL A   1      30.706  26.217  27.501  1.00  0.00     0.163 HD
ATOM     79  O   UNL A   1      31.380  24.078  27.251  1.00  0.00    -0.268 OA
BRANCH  77  80
ATOM     80  C   UNL A   1      32.964  24.593  25.528  1.00  0.00     0.276 C 
ATOM     81  N   UNL A   1      33.771  23.394  25.816  1.00  0.00    -0.328 N 
ATOM     82  C   UNL A   1      32.405  24.517  24.080  1.00  0.00     0.064 C 
ATOM     83  C   UNL A   1      33.619  22.362  24.764  1.00  0.00     0.253 C 
ATOM     84  H   UNL A   1      33.473  23.002  26.709  1.00  0.00     0.347 HD
ATOM     85  H   UNL A   1      34.752  23.672  25.847  1.00  0.00     0.347 HD
ATOM     86  C   UNL A   1      33.593  24.266  23.123  1.00  0.00     0.017 C 
ATOM     87  C   UNL A   1      31.427  23.329  23.956  1.00  0.00     0.094 C 
ATOM     88  C   UNL A   1      34.311  22.964  23.524  1.00  0.00     0.072 C 
ATOM     89  C   UNL A   1      32.153  22.046  24.350  1.00  0.00     0.298 C 
ATOM     90  F   UNL A   1      32.142  21.179  23.304  1.00  0.00    -0.200 F 
ATOM     91  F   UNL A   1      31.486  21.422  25.351  1.00  0.00    -0.200 F 
ENDBRANCH  77  80
ENDBRANCH  75  76
ENDBRANCH  74  75
ENDBRANCH  73  74
ENDBRANCH  72  73
ENDBRANCH   1  72
TORSDOF 13
ENDMDL
MODEL 2
REMARK VINA RESULT:     -12.1      1.004      2.026
REMARK SMILES O=C(NCCCCCCNC(=O)[C@H]1[NH2+][C@@H]2CC[C@H]1CC2(F)F)c1ccc(-c2c3nc(c(-c4c(F)c(F)c(F)c(F)c4F)c4ccc([nH]4)c(-c4c(F)c(F)c(F)c(F)c4F)c4nc(c(-c5c(F)c(F)c(F)c(F)c5F)c5ccc2[nH]5)C=C4)C=C3)cc1
REMARK SMILES IDX 5 1 4 2 3 3 1 4 2 5 23 7 24 8 85 9 25 10 84 11 26 12 27 13
REMARK SMILES IDX 28 14 78 15 29 16 83 17 77 18 79 19 30 20 82 21 76 22 75 23
REMARK SMILES IDX 31 25 63 26 43 27 62 28 44 29 47 30 61 31 80 32 45 33 46 34
REMARK SMILES IDX 60 36 81 37 48 38 32 39 33 40 41 41 34 42 35 43 39 44 42 45
REMARK SMILES IDX 36 46 37 47 40 48 38 49 64 50 65 51 73 52 66 53 67 54 71 55
REMARK SMILES IDX 74 56 68 57 69 58 72 59 70 60 49 61 50 62 58 63 51 64 52 65
REMARK SMILES IDX 56 66 59 67 53 68 54 69 57 70 55 71 6 72 7 73 8 74 9 75
REMARK SMILES IDX 10 76 11 77 12 79 13 80 14 81 18 82 15 83 17 86 19 87 16 88
REMARK SMILES IDX 20 89 21 90 22 91
REMARK H PARENT 3 6 79 24 47 35 10 78 14 84 14 85
REMARK Flexibility Score: inf
ROOT
ATOM      1  C   UNL A   1      31.407  31.792  26.502  1.00  0.00     0.021 C 
ENDROOT
BRANCH   1   2
ATOM      2  C   UNL A   1      32.654  32.452  27.076  1.00  0.00     0.116 C 
BRANCH   2   3
ATOM      3  N   UNL A   1      32.421  33.832  27.469  1.00  0.00    -0.352 N 
ATOM      4  O   UNL A   1      32.597  35.672  28.762  1.00  0.00    -0.269 OA
ATOM      5  C   UNL A   1      33.034  34.573  28.450  1.00  0.00     0.251 C 
ATOM      6  H   UNL A   1      31.723  34.303  26.958  1.00  0.00     0.163 HD
BRANCH   5   7
ATOM      7  C   UNL A   1      34.215  34.023  29.151  1.00  0.00     0.039 A 
ATOM      8  C   UNL A   1      35.500  34.479  28.849  1.00  0.00     0.014 A 
ATOM      9  C   UNL A   1      34.031  33.036  30.124  1.00  0.00     0.014 A 
ATOM     10  C   UNL A   1      36.605  33.845  29.405  1.00  0.00     0.010 A 
ATOM     11  C   UNL A   1      35.142  32.459  30.747  1.00  0.00     0.010 A 
ATOM     12  C   UNL A   1      36.440  32.833  30.364  1.00  0.00    -0.014 A 
BRANCH  12  13
ATOM     13  C   UNL A   1      37.644  32.210  30.972  1.00  0.00     0.031 A 
ATOM     14  C   UNL A   1      38.077  32.557  32.369  1.00  0.00     0.074 A 
ATOM     15  C   UNL A   1      38.321  31.287  30.265  1.00  0.00     0.049 A 
ATOM     16  N   UNL A   1      39.070  32.068  33.070  1.00  0.00    -0.248 NA
ATOM     17  C   UNL A   1      37.307  33.595  33.070  1.00  0.00     0.031 C 
ATOM     18  C   UNL A   1      38.005  30.880  28.894  1.00  0.00     0.029 A 
ATOM     19  N   UNL A   1      39.396  30.505  30.602  1.00  0.00    -0.354 N 
ATOM     20  C   UNL A   1      39.058  32.752  34.279  1.00  0.00     0.074 A 
ATOM     21  C   UNL A   1      37.974  33.709  34.210  1.00  0.00     0.031 C 
ATOM     22  C   UNL A   1      38.826  29.885  28.529  1.00  0.00     0.029 A 
ATOM     23  C   UNL A   1      39.762  29.622  29.617  1.00  0.00     0.049 A 
ATOM     24  H   UNL A   1      39.860  30.569  31.468  1.00  0.00     0.167 HD
ATOM     25  C   UNL A   1      39.874  32.590  35.349  1.00  0.00     0.037 A 
ATOM     26  C   UNL A   1      40.744  28.703  29.589  1.00  0.00     0.037 A 
ATOM     27  C   UNL A   1      40.933  31.616  35.424  1.00  0.00     0.049 A 
ATOM     28  C   UNL A   1      41.627  28.542  30.793  1.00  0.00     0.074 A 
ATOM     29  C   UNL A   1      41.785  31.345  36.482  1.00  0.00     0.029 A 
ATOM     30  N   UNL A   1      41.288  30.753  34.397  1.00  0.00    -0.354 N 
ATOM     31  N   UNL A   1      41.578  29.167  31.944  1.00  0.00    -0.248 NA
ATOM     32  C   UNL A   1      42.701  27.546  30.693  1.00  0.00     0.031 C 
ATOM     33  C   UNL A   1      42.681  30.347  36.080  1.00  0.00     0.029 A 
ATOM     34  C   UNL A   1      42.356  29.962  34.789  1.00  0.00     0.049 A 
ATOM     35  H   UNL A   1      40.845  30.709  33.519  1.00  0.00     0.167 HD
ATOM     36  C   UNL A   1      42.600  28.628  32.713  1.00  0.00     0.074 A 
ATOM     37  C   UNL A   1      43.238  27.610  31.903  1.00  0.00     0.031 C 
ATOM     38  C   UNL A   1      42.976  28.949  33.974  1.00  0.00     0.037 A 
BRANCH  25  39
ATOM     39  C   UNL A   1      39.669  33.498  36.527  1.00  0.00     0.064 A 
ATOM     40  C   UNL A   1      40.278  34.760  36.604  1.00  0.00     0.173 A 
ATOM     41  C   UNL A   1      38.814  33.120  37.574  1.00  0.00     0.173 A 
ATOM     42  F   UNL A   1      41.112  35.166  35.635  1.00  0.00    -0.203 F 
ATOM     43  C   UNL A   1      40.056  35.598  37.694  1.00  0.00     0.198 A 
ATOM     44  C   UNL A   1      38.573  33.971  38.650  1.00  0.00     0.198 A 
ATOM     45  F   UNL A   1      38.201  31.927  37.548  1.00  0.00    -0.203 F 
ATOM     46  F   UNL A   1      40.680  36.782  37.764  1.00  0.00    -0.200 F 
ATOM     47  C   UNL A   1      39.200  35.206  38.712  1.00  0.00     0.200 A 
ATOM     48  F   UNL A   1      37.737  33.596  39.626  1.00  0.00    -0.200 F 
ATOM     49  F   UNL A   1      38.982  36.018  39.757  1.00  0.00    -0.200 F 
ENDBRANCH  25  39
BRANCH  26  50
ATOM     50  C   UNL A   1      40.926  27.855  28.385  1.00  0.00     0.064 A 
ATOM     51  C   UNL A   1      40.282  26.615  28.273  1.00  0.00     0.173 A 
ATOM     52  C   UNL A   1      41.734  28.270  27.316  1.00  0.00     0.173 A 
ATOM     53  F   UNL A   1      39.513  26.168  29.277  1.00  0.00    -0.203 F 
ATOM     54  C   UNL A   1      40.449  25.816  27.144  1.00  0.00     0.198 A 
ATOM     55  C   UNL A   1      41.879  27.484  26.175  1.00  0.00     0.198 A 
ATOM     56  F   UNL A   1      42.367  29.450  27.372  1.00  0.00    -0.203 F 
ATOM     57  F   UNL A   1      39.853  24.618  27.079  1.00  0.00    -0.200 F 
ATOM     58  C   UNL A   1      41.242  26.254  26.093  1.00  0.00     0.200 A 
ATOM     59  F   UNL A   1      42.631  27.918  25.156  1.00  0.00    -0.200 F 
ATOM     60  F   UNL A   1      41.397  25.490  25.005  1.00  0.00    -0.200 F 
ENDBRANCH  26  50
BRANCH  38  61
ATOM     61  C   UNL A   1      44.108  28.163  34.566  1.00  0.00     0.064 A 
ATOM     62  C   UNL A   1      43.889  26.955  35.245  1.00  0.00     0.173 A 
ATOM     63  C   UNL A   1      45.429  28.618  34.441  1.00  0.00     0.173 A 
ATOM     64  F   UNL A   1      42.641  26.488  35.406  1.00  0.00    -0.203 F 
ATOM     65  C   UNL A   1      44.949  26.247  35.802  1.00  0.00     0.198 A 
ATOM     66  C   UNL A   1      46.489  27.892  34.976  1.00  0.00     0.198 A 
ATOM     67  F   UNL A   1      45.691  29.765  33.798  1.00  0.00    -0.203 F 
ATOM     68  F   UNL A   1      44.712  25.123  36.493  1.00  0.00    -0.200 F 
ATOM     69  C   UNL A   1      46.248  26.713  35.663  1.00  0.00     0.200 A 
ATOM     70  F   UNL A   1      47.745  28.339  34.831  1.00  0.00    -0.200 F 
ATOM     71  F   UNL A   1      47.268  26.029  36.201  1.00  0.00    -0.200 F 
ENDBRANCH  38  61
ENDBRANCH  12  13
ENDBRANCH   5   7
ENDBRANCH   2   3
ENDBRANCH   1   2
BRANCH   1  72
ATOM     72  C   UNL A   1      31.596  30.338  26.065  1.00  0.00     0.002 C 
BRANCH  72  73
ATOM     73  C   UNL A   1      31.809  29.330  27.202  1.00  0.00     0.002 C 
BRANCH  73  74
ATOM     74  C   UNL A   1      32.366  27.967  26.779  1.00  0.00     0.021 C 
BRANCH  74  75
ATOM     75  C   UNL A   1      31.389  27.123  25.963  1.00  0.00     0.116 C 
BRANCH  75  76
ATOM     76  N   UNL A   1      31.077  25.883  26.643  1.00  0.00    -0.351 N 
ATOM     77  C   UNL A   1      31.177  24.564  26.348  1.00  0.00     0.278 C 
ATOM     78  H   UNL A   1      30.698  26.035  27.539  1.00  0.00     0.163 HD
ATOM     79  O   UNL A   1      30.773  23.800  27.236  1.00  0.00    -0.268 OA
BRANCH  77  80
ATOM     80  C   UNL A   1      31.815  23.948  25.084  1.00  0.00     0.276 C 
ATOM     81  N   UNL A   1      32.330  24.867  24.054  1.00  0.00    -0.328 N 
ATOM     82  C   UNL A   1      32.912  22.916  25.466  1.00  0.00     0.064 C 
ATOM     83  C   UNL A   1      33.791  24.714  23.860  1.00  0.00     0.253 C 
ATOM     84  H   UNL A   1      32.134  25.827  24.339  1.00  0.00     0.347 HD
ATOM     85  H   UNL A   1      31.869  24.645  23.171  1.00  0.00     0.347 HD
ATOM     86  C   UNL A   1      33.412  22.248  24.165  1.00  0.00     0.017 C 
ATOM     87  C   UNL A   1      34.106  23.638  26.127  1.00  0.00     0.094 C 
ATOM     88  C   UNL A   1      33.954  23.326  23.208  1.00  0.00     0.072 C 
ATOM     89  C   UNL A   1      34.637  24.698  25.166  1.00  0.00     0.298 C 
ATOM     90  F   UNL A   1      35.937  24.436  24.874  1.00  0.00    -0.200 F 
ATOM     91  F   UNL A   1      34.633  25.913  25.765  1.00  0.00    -0.200 F 
ENDBRANCH  77  80
ENDBRANCH  75  76
ENDBRANCH  74  75
ENDBRANCH  73  74
ENDBRANCH  72  73
ENDBRANCH   1  72
TORSDOF 13
ENDMDL
MODEL 3
REMARK VINA RESULT:     -12.1      0.963      2.000
REMARK SMILES O=C(NCCCCCCNC(=O)[C@H]1[NH2+][C@@H]2CC[C@H]1CC2(F)F)c1ccc(-c2c3nc(c(-c4c(F)c(F)c(F)c(F)c4F)c4ccc([nH]4)c(-c4c(F)c(F)c(F)c(F)c4F)c4nc(c(-c5c(F)c(F)c(F)c(F)c5F)c5ccc2[nH]5)C=C4)C=C3)cc1
REMARK SMILES IDX 5 1 4 2 3 3 1 4 2 5 23 7 24 8 85 9 25 10 84 11 26 12 27 13
REMARK SMILES IDX 28 14 78 15 29 16 83 17 77 18 79 19 30 20 82 21 76 22 75 23
REMARK SMILES IDX 31 25 63 26 43 27 62 28 44 29 47 30 61 31 80 32 45 33 46 34
REMARK SMILES IDX 60 36 81 37 48 38 32 39 33 40 41 41 34 42 35 43 39 44 42 45
REMARK SMILES IDX 36 46 37 47 40 48 38 49 64 50 65 51 73 52 66 53 67 54 71 55
REMARK SMILES IDX 74 56 68 57 69 58 72 59 70 60 49 61 50 62 58 63 51 64 52 65
REMARK SMILES IDX 56 66 59 67 53 68 54 69 57 70 55 71 6 72 7 73 8 74 9 75
REMARK SMILES IDX 10 76 11 77 12 79 13 80 14 81 18 82 15 83 17 86 19 87 16 88
REMARK SMILES IDX 20 89 21 90 22 91
REMARK H PARENT 3 6 79 24 47 35 10 78 14 84 14 85
REMARK Flexibility Score: inf
ROOT
ATOM      1  C   UNL A   1      31.398  32.139  26.618  1.00  0.00     0.021 C 
ENDROOT
BRANCH   1   2
ATOM      2  C   UNL A   1      32.660  32.797  27.161  1.00  0.00     0.116 C 
BRANCH   2   3
ATOM      3  N   UNL A   1      32.422  34.152  27.630  1.00  0.00    -0.352 N 
ATOM      4  O   UNL A   1      32.589  35.919  29.023  1.00  0.00    -0.269 OA
ATOM      5  C   UNL A   1      33.029  34.840  28.653  1.00  0.00     0.251 C 
ATOM      6  H   UNL A   1      31.725  34.650  27.142  1.00  0.00     0.163 HD
BRANCH   5   7
ATOM      7  C   UNL A   1      34.209  34.254  29.326  1.00  0.00     0.039 A 
ATOM      8  C   UNL A   1      35.498  34.495  28.844  1.00  0.00     0.014 A 
ATOM      9  C   UNL A   1      34.021  33.453  30.456  1.00  0.00     0.014 A 
ATOM     10  C   UNL A   1      36.578  33.817  29.395  1.00  0.00     0.010 A 
ATOM     11  C   UNL A   1      35.121  32.838  31.063  1.00  0.00     0.010 A 
ATOM     12  C   UNL A   1      36.404  32.985  30.514  1.00  0.00    -0.014 A 
BRANCH  12  13
ATOM     13  C   UNL A   1      37.588  32.312  31.106  1.00  0.00     0.031 A 
ATOM     14  C   UNL A   1      38.035  32.617  32.508  1.00  0.00     0.074 A 
ATOM     15  C   UNL A   1      38.235  31.383  30.378  1.00  0.00     0.049 A 
ATOM     16  N   UNL A   1      39.014  32.082  33.197  1.00  0.00    -0.248 NA
ATOM     17  C   UNL A   1      37.299  33.664  33.233  1.00  0.00     0.031 C 
ATOM     18  C   UNL A   1      37.904  31.015  29.000  1.00  0.00     0.029 A 
ATOM     19  N   UNL A   1      39.285  30.560  30.697  1.00  0.00    -0.354 N 
ATOM     20  C   UNL A   1      39.026  32.741  34.420  1.00  0.00     0.074 A 
ATOM     21  C   UNL A   1      37.972  33.732  34.373  1.00  0.00     0.031 C 
ATOM     22  C   UNL A   1      38.692  30.002  28.613  1.00  0.00     0.029 A 
ATOM     23  C   UNL A   1      39.621  29.687  29.692  1.00  0.00     0.049 A 
ATOM     24  H   UNL A   1      39.752  30.593  31.563  1.00  0.00     0.167 HD
ATOM     25  C   UNL A   1      39.838  32.530  35.484  1.00  0.00     0.037 A 
ATOM     26  C   UNL A   1      40.574  28.739  29.643  1.00  0.00     0.037 A 
ATOM     27  C   UNL A   1      40.866  31.522  35.536  1.00  0.00     0.049 A 
ATOM     28  C   UNL A   1      41.453  28.525  30.841  1.00  0.00     0.074 A 
ATOM     29  C   UNL A   1      41.710  31.203  36.586  1.00  0.00     0.029 A 
ATOM     30  N   UNL A   1      41.191  30.671  34.490  1.00  0.00    -0.354 N 
ATOM     31  N   UNL A   1      41.427  29.127  32.004  1.00  0.00    -0.248 NA
ATOM     32  C   UNL A   1      42.495  27.497  30.717  1.00  0.00     0.031 C 
ATOM     33  C   UNL A   1      42.574  30.186  36.161  1.00  0.00     0.029 A 
ATOM     34  C   UNL A   1      42.235  29.838  34.864  1.00  0.00     0.049 A 
ATOM     35  H   UNL A   1      40.745  30.658  33.613  1.00  0.00     0.167 HD
ATOM     36  C   UNL A   1      42.432  28.540  32.759  1.00  0.00     0.074 A 
ATOM     37  C   UNL A   1      43.036  27.519  31.927  1.00  0.00     0.031 C 
ATOM     38  C   UNL A   1      42.820  28.823  34.026  1.00  0.00     0.037 A 
BRANCH  25  39
ATOM     39  C   UNL A   1      39.663  33.421  36.682  1.00  0.00     0.064 A 
ATOM     40  C   UNL A   1      40.330  34.650  36.793  1.00  0.00     0.173 A 
ATOM     41  C   UNL A   1      38.781  33.059  37.711  1.00  0.00     0.173 A 
ATOM     42  F   UNL A   1      41.193  35.038  35.841  1.00  0.00    -0.203 F 
ATOM     43  C   UNL A   1      40.137  35.473  37.900  1.00  0.00     0.198 A 
ATOM     44  C   UNL A   1      38.570  33.896  38.805  1.00  0.00     0.198 A 
ATOM     45  F   UNL A   1      38.114  31.897  37.652  1.00  0.00    -0.203 F 
ATOM     46  F   UNL A   1      40.816  36.624  38.004  1.00  0.00    -0.200 F 
ATOM     47  C   UNL A   1      39.254  35.098  38.902  1.00  0.00     0.200 A 
ATOM     48  F   UNL A   1      37.707  33.538  39.764  1.00  0.00    -0.200 F 
ATOM     49  F   UNL A   1      39.064  35.895  39.963  1.00  0.00    -0.200 F 
ENDBRANCH  25  39
BRANCH  26  50
ATOM     50  C   UNL A   1      40.727  27.910  28.421  1.00  0.00     0.064 A 
ATOM     51  C   UNL A   1      41.500  28.356  27.341  1.00  0.00     0.173 A 
ATOM     52  C   UNL A   1      40.116  26.652  28.312  1.00  0.00     0.173 A 
ATOM     53  F   UNL A   1      42.088  29.560  27.391  1.00  0.00    -0.203 F 
ATOM     54  C   UNL A   1      41.646  27.581  26.192  1.00  0.00     0.198 A 
ATOM     55  C   UNL A   1      40.286  25.864  27.176  1.00  0.00     0.198 A 
ATOM     56  F   UNL A   1      39.372  26.178  29.321  1.00  0.00    -0.203 F 
ATOM     57  F   UNL A   1      42.359  28.048  25.157  1.00  0.00    -0.200 F 
ATOM     58  C   UNL A   1      41.045  26.333  26.113  1.00  0.00     0.200 A 
ATOM     59  F   UNL A   1      39.719  24.653  27.111  1.00  0.00    -0.200 F 
ATOM     60  F   UNL A   1      41.192  25.585  25.012  1.00  0.00    -0.200 F 
ENDBRANCH  26  50
BRANCH  38  61
ATOM     61  C   UNL A   1      43.928  27.990  34.599  1.00  0.00     0.064 A 
ATOM     62  C   UNL A   1      45.270  28.390  34.514  1.00  0.00     0.173 A 
ATOM     63  C   UNL A   1      43.641  26.783  35.255  1.00  0.00     0.173 A 
ATOM     64  F   UNL A   1      45.596  29.527  33.881  1.00  0.00    -0.203 F 
ATOM     65  C   UNL A   1      46.286  27.597  35.038  1.00  0.00     0.198 A 
ATOM     66  C   UNL A   1      44.658  26.007  35.802  1.00  0.00     0.198 A 
ATOM     67  F   UNL A   1      42.373  26.359  35.366  1.00  0.00    -0.203 F 
ATOM     68  F   UNL A   1      47.566  27.971  34.898  1.00  0.00    -0.200 F 
ATOM     69  C   UNL A   1      45.980  26.409  35.685  1.00  0.00     0.200 A 
ATOM     70  F   UNL A   1      44.358  24.864  36.436  1.00  0.00    -0.200 F 
ATOM     71  F   UNL A   1      46.960  25.646  36.189  1.00  0.00    -0.200 F 
ENDBRANCH  38  61
ENDBRANCH  12  13
ENDBRANCH   5   7
ENDBRANCH   2   3
ENDBRANCH   1   2
BRANCH   1  72
ATOM     72  C   UNL A   1      31.602  30.730  26.058  1.00  0.00     0.002 C 
BRANCH  72  73
ATOM     73  C   UNL A   1      32.246  29.724  27.021  1.00  0.00     0.002 C 
BRANCH  73  74
ATOM     74  C   UNL A   1      31.435  28.451  27.283  1.00  0.00     0.021 C 
BRANCH  74  75
ATOM     75  C   UNL A   1      31.768  27.297  26.339  1.00  0.00     0.116 C 
BRANCH  75  76
ATOM     76  N   UNL A   1      31.308  26.033  26.877  1.00  0.00    -0.351 N 
ATOM     77  C   UNL A   1      31.226  24.759  26.423  1.00  0.00     0.278 C 
ATOM     78  H   UNL A   1      30.971  26.121  27.798  1.00  0.00     0.163 HD
ATOM     79  O   UNL A   1      30.741  23.950  27.227  1.00  0.00    -0.268 OA
BRANCH  77  80
ATOM     80  C   UNL A   1      31.750  24.227  25.072  1.00  0.00     0.276 C 
ATOM     81  N   UNL A   1      32.277  25.204  24.102  1.00  0.00    -0.328 N 
ATOM     82  C   UNL A   1      32.786  23.090  25.290  1.00  0.00     0.064 C 
ATOM     83  C   UNL A   1      33.710  24.971  23.810  1.00  0.00     0.253 C 
ATOM     84  H   UNL A   1      32.166  26.142  24.486  1.00  0.00     0.347 HD
ATOM     85  H   UNL A   1      31.755  25.101  23.232  1.00  0.00     0.347 HD
ATOM     86  C   UNL A   1      33.168  22.519  23.905  1.00  0.00     0.017 C 
ATOM     87  C   UNL A   1      34.063  23.661  25.944  1.00  0.00     0.094 C 
ATOM     88  C   UNL A   1      33.737  23.645  23.023  1.00  0.00     0.072 C 
ATOM     89  C   UNL A   1      34.620  24.771  25.056  1.00  0.00     0.298 C 
ATOM     90  F   UNL A   1      35.880  24.451  24.665  1.00  0.00    -0.200 F 
ATOM     91  F   UNL A   1      34.737  25.920  25.765  1.00  0.00    -0.200 F 
ENDBRANCH  77  80
ENDBRANCH  75  76
ENDBRANCH  74  75
ENDBRANCH  73  74
ENDBRANCH  72  73
ENDBRANCH   1  72
TORSDOF 13
ENDMDL
