MODEL 1
REMARK VINA RESULT:     -13.4      0.000      0.000
REMARK SMILES Cc1ccc(S(=O)(=O)Nc2ccc(N3CCNC3=O)cc2)cc1C(=O)NCCCCCCNC(=O)c1ccc(-c2c3nc(c(-c4c(F)c(F)c(F)c(F)c4F)c4ccc([nH]4)c(-c4c(F)c(F)c(F)c(F)c4F)c4nc(c(-c5c(F)c(F)c(F)c(F)c5F)c5ccc2[nH]5)C=C4)C=C3)cc1
REMARK SMILES IDX 28 1 27 2 26 3 24 4 25 5 23 7 1 8 2 9 3 10 4 11 22 12 5 13
REMARK SMILES IDX 6 14 7 15 8 16 9 17 10 19 11 20 21 21 12 22 20 23 13 24
REMARK SMILES IDX 14 25 15 26 18 27 16 28 17 29 19 30 29 32 30 33 31 34 32 35
REMARK SMILES IDX 33 36 34 37 35 39 36 40 37 41 98 42 38 43 97 44 39 45 40 46
REMARK SMILES IDX 41 47 91 48 42 49 96 50 90 51 92 52 43 53 95 54 89 55 88 56
REMARK SMILES IDX 44 58 76 59 56 60 75 61 57 62 60 63 74 64 93 65 58 66 59 67
REMARK SMILES IDX 73 69 94 70 61 71 45 72 46 73 54 74 47 75 48 76 52 77 55 78
REMARK SMILES IDX 49 79 50 80 53 81 51 82 77 83 78 84 86 85 79 86 80 87 84 88
REMARK SMILES IDX 87 89 81 90 82 91 85 92 83 93 62 94 63 95 71 96 64 97 65 98
REMARK SMILES IDX 69 99 72 100 66 101 67 102 70 103 68 104
REMARK H PARENT 26 6 9 18 17 31 33 38 92 57 60 68
REMARK Flexibility Score: inf
ROOT
ATOM      1  C   UNL A   1      35.250  30.426  27.694  1.00  0.00     0.021 C 
ENDROOT
BRANCH   1   2
ATOM      2  C   UNL A   1      34.766  29.028  27.290  1.00  0.00     0.116 C 
BRANCH   2   3
ATOM      3  N   UNL A   1      33.411  28.800  27.717  1.00  0.00    -0.352 N 
ATOM      4  C   UNL A   1      32.297  28.237  27.169  1.00  0.00     0.251 C 
ATOM      5  O   UNL A   1      31.449  27.954  28.023  1.00  0.00    -0.269 OA
ATOM      6  H   UNL A   1      33.250  29.132  28.630  1.00  0.00     0.163 HD
BRANCH   4   7
ATOM      7  C   UNL A   1      31.985  27.925  25.722  1.00  0.00     0.044 A 
ATOM      8  C   UNL A   1      30.958  30.149  24.850  1.00  0.00     0.045 C 
ATOM      9  C   UNL A   1      31.419  28.731  24.712  1.00  0.00    -0.038 A 
ATOM     10  C   UNL A   1      31.157  28.168  23.440  1.00  0.00     0.005 A 
ATOM     11  C   UNL A   1      31.239  26.799  23.223  1.00  0.00     0.022 A 
ATOM     12  C   UNL A   1      32.137  26.538  25.431  1.00  0.00     0.036 A 
ATOM     13  C   UNL A   1      31.655  25.968  24.255  1.00  0.00     0.088 A 
BRANCH  13  14
ATOM     14  S   UNL A   1      31.313  24.236  24.029  1.00  0.00     0.261 S 
ATOM     15  O   UNL A   1      31.226  23.671  25.362  1.00  0.00    -0.201 OA
ATOM     16  O   UNL A   1      30.177  24.155  23.135  1.00  0.00    -0.201 OA
BRANCH  14  17
ATOM     17  N   UNL A   1      32.565  23.404  23.261  1.00  0.00    -0.280 N 
ATOM     18  H   UNL A   1      33.204  23.915  22.714  1.00  0.00     0.180 HD
BRANCH  17  19
ATOM     19  C   UNL A   1      32.737  21.994  23.370  1.00  0.00     0.049 A 
ATOM     20  C   UNL A   1      33.718  21.594  24.276  1.00  0.00     0.029 A 
ATOM     21  C   UNL A   1      32.062  21.037  22.618  1.00  0.00     0.029 A 
ATOM     22  C   UNL A   1      33.882  20.245  24.578  1.00  0.00     0.028 A 
ATOM     23  C   UNL A   1      32.242  19.675  22.914  1.00  0.00     0.028 A 
ATOM     24  C   UNL A   1      33.102  19.270  23.947  1.00  0.00     0.046 A 
BRANCH  24  25
ATOM     25  N   UNL A   1      33.119  17.942  24.434  1.00  0.00    -0.293 N 
ATOM     26  C   UNL A   1      32.638  17.603  25.760  1.00  0.00     0.149 C 
ATOM     27  C   UNL A   1      33.457  16.778  23.732  1.00  0.00     0.321 C 
ATOM     28  C   UNL A   1      32.402  16.103  25.700  1.00  0.00     0.139 C 
ATOM     29  N   UNL A   1      33.130  15.691  24.539  1.00  0.00    -0.336 N 
ATOM     30  O   UNL A   1      33.956  16.652  22.626  1.00  0.00    -0.248 OA
ATOM     31  H   UNL A   1      33.370  14.758  24.337  1.00  0.00     0.165 HD
ENDBRANCH  24  25
ENDBRANCH  17  19
ENDBRANCH  14  17
ENDBRANCH  13  14
ENDBRANCH   4   7
ENDBRANCH   2   3
ENDBRANCH   1   2
BRANCH   1  32
ATOM     32  C   UNL A   1      34.188  31.341  28.320  1.00  0.00     0.002 C 
BRANCH  32  33
ATOM     33  C   UNL A   1      33.688  32.512  27.461  1.00  0.00     0.002 C 
BRANCH  33  34
ATOM     34  C   UNL A   1      33.131  33.720  28.219  1.00  0.00     0.021 C 
BRANCH  34  35
ATOM     35  C   UNL A   1      34.148  34.827  28.460  1.00  0.00     0.116 C 
BRANCH  35  36
ATOM     36  N   UNL A   1      34.363  35.129  29.869  1.00  0.00    -0.352 N 
ATOM     37  C   UNL A   1      35.155  34.472  30.789  1.00  0.00     0.251 C 
ATOM     38  H   UNL A   1      33.874  35.911  30.213  1.00  0.00     0.163 HD
ATOM     39  O   UNL A   1      35.182  34.844  31.960  1.00  0.00    -0.269 OA
BRANCH  37  40
ATOM     40  C   UNL A   1      36.063  33.396  30.334  1.00  0.00     0.039 A 
ATOM     41  C   UNL A   1      36.183  32.252  31.131  1.00  0.00     0.014 A 
ATOM     42  C   UNL A   1      36.908  33.581  29.242  1.00  0.00     0.014 A 
ATOM     43  C   UNL A   1      37.286  31.416  30.969  1.00  0.00     0.010 A 
ATOM     44  C   UNL A   1      38.048  32.807  29.135  1.00  0.00     0.010 A 
ATOM     45  C   UNL A   1      38.269  31.764  30.040  1.00  0.00    -0.014 A 
BRANCH  45  46
ATOM     46  C   UNL A   1      39.595  31.156  30.014  1.00  0.00     0.031 A 
ATOM     47  C   UNL A   1      39.801  29.816  29.425  1.00  0.00     0.074 A 
ATOM     48  C   UNL A   1      40.652  31.860  30.475  1.00  0.00     0.049 A 
ATOM     49  N   UNL A   1      40.816  29.060  29.677  1.00  0.00    -0.248 NA
ATOM     50  C   UNL A   1      38.839  29.207  28.515  1.00  0.00     0.031 C 
ATOM     51  C   UNL A   1      42.069  31.541  30.323  1.00  0.00     0.029 A 
ATOM     52  N   UNL A   1      40.631  32.918  31.401  1.00  0.00    -0.354 N 
ATOM     53  C   UNL A   1      40.769  27.985  28.822  1.00  0.00     0.074 A 
ATOM     54  C   UNL A   1      39.502  28.108  28.137  1.00  0.00     0.031 C 
ATOM     55  C   UNL A   1      42.748  32.123  31.324  1.00  0.00     0.029 A 
ATOM     56  C   UNL A   1      41.769  32.714  32.219  1.00  0.00     0.049 A 
ATOM     57  H   UNL A   1      39.970  33.644  31.465  1.00  0.00     0.167 HD
ATOM     58  C   UNL A   1      41.852  27.161  28.719  1.00  0.00     0.037 A 
ATOM     59  C   UNL A   1      41.632  32.423  33.545  1.00  0.00     0.037 A 
ATOM     60  C   UNL A   1      42.897  27.521  29.673  1.00  0.00     0.049 A 
ATOM     61  C   UNL A   1      42.218  31.093  33.968  1.00  0.00     0.074 A 
ATOM     62  C   UNL A   1      44.052  28.282  29.600  1.00  0.00     0.029 A 
ATOM     63  N   UNL A   1      42.660  27.310  31.019  1.00  0.00    -0.354 N 
ATOM     64  N   UNL A   1      42.685  30.199  33.142  1.00  0.00    -0.248 NA
ATOM     65  C   UNL A   1      42.217  30.625  35.356  1.00  0.00     0.031 C 
ATOM     66  C   UNL A   1      44.488  28.552  30.928  1.00  0.00     0.029 A 
ATOM     67  C   UNL A   1      43.599  27.951  31.800  1.00  0.00     0.049 A 
ATOM     68  H   UNL A   1      41.917  26.771  31.373  1.00  0.00     0.167 HD
ATOM     69  C   UNL A   1      42.996  29.064  33.840  1.00  0.00     0.074 A 
ATOM     70  C   UNL A   1      42.687  29.373  35.221  1.00  0.00     0.031 C 
ATOM     71  C   UNL A   1      43.449  27.930  33.241  1.00  0.00     0.037 A 
BRANCH  58  72
ATOM     72  C   UNL A   1      42.049  26.155  27.613  1.00  0.00     0.064 A 
ATOM     73  C   UNL A   1      41.307  24.953  27.594  1.00  0.00     0.173 A 
ATOM     74  C   UNL A   1      42.979  26.293  26.568  1.00  0.00     0.173 A 
ATOM     75  F   UNL A   1      40.319  24.726  28.469  1.00  0.00    -0.203 F 
ATOM     76  C   UNL A   1      41.562  23.930  26.677  1.00  0.00     0.198 A 
ATOM     77  C   UNL A   1      43.278  25.247  25.690  1.00  0.00     0.198 A 
ATOM     78  F   UNL A   1      43.589  27.462  26.333  1.00  0.00    -0.203 F 
ATOM     79  F   UNL A   1      40.827  22.810  26.709  1.00  0.00    -0.200 F 
ATOM     80  C   UNL A   1      42.576  24.060  25.751  1.00  0.00     0.200 A 
ATOM     81  F   UNL A   1      44.253  25.399  24.782  1.00  0.00    -0.200 F 
ATOM     82  F   UNL A   1      42.859  23.058  24.908  1.00  0.00    -0.200 F 
ENDBRANCH  58  72
BRANCH  59  83
ATOM     83  C   UNL A   1      40.424  33.043  34.155  1.00  0.00     0.064 A 
ATOM     84  C   UNL A   1      39.285  32.239  34.361  1.00  0.00     0.173 A 
ATOM     85  C   UNL A   1      40.491  34.259  34.843  1.00  0.00     0.173 A 
ATOM     86  F   UNL A   1      39.170  31.062  33.725  1.00  0.00    -0.203 F 
ATOM     87  C   UNL A   1      38.322  32.578  35.307  1.00  0.00     0.198 A 
ATOM     88  C   UNL A   1      39.510  34.607  35.772  1.00  0.00     0.198 A 
ATOM     89  F   UNL A   1      41.556  35.060  34.706  1.00  0.00    -0.203 F 
ATOM     90  F   UNL A   1      37.315  31.732  35.569  1.00  0.00    -0.200 F 
ATOM     91  C   UNL A   1      38.449  33.751  36.030  1.00  0.00     0.200 A 
ATOM     92  F   UNL A   1      39.646  35.731  36.488  1.00  0.00    -0.200 F 
ATOM     93  F   UNL A   1      37.575  34.037  37.004  1.00  0.00    -0.200 F 
ENDBRANCH  59  83
BRANCH  71  94
ATOM     94  C   UNL A   1      43.795  26.697  34.008  1.00  0.00     0.064 A 
ATOM     95  C   UNL A   1      45.112  26.220  34.079  1.00  0.00     0.173 A 
ATOM     96  C   UNL A   1      42.794  25.897  34.590  1.00  0.00     0.173 A 
ATOM     97  F   UNL A   1      46.118  26.911  33.523  1.00  0.00    -0.203 F 
ATOM     98  C   UNL A   1      45.413  25.016  34.717  1.00  0.00     0.198 A 
ATOM     99  C   UNL A   1      43.093  24.676  35.188  1.00  0.00     0.198 A 
ATOM    100  F   UNL A   1      41.513  26.295  34.606  1.00  0.00    -0.203 F 
ATOM    101  F   UNL A   1      46.686  24.609  34.801  1.00  0.00    -0.200 F 
ATOM    102  C   UNL A   1      44.401  24.239  35.258  1.00  0.00     0.200 A 
ATOM    103  F   UNL A   1      42.105  23.927  35.699  1.00  0.00    -0.200 F 
ATOM    104  F   UNL A   1      44.690  23.072  35.850  1.00  0.00    -0.200 F 
ENDBRANCH  71  94
ENDBRANCH  45  46
ENDBRANCH  37  40
ENDBRANCH  35  36
ENDBRANCH  34  35
ENDBRANCH  33  34
ENDBRANCH  32  33
ENDBRANCH   1  32
TORSDOF 17
ENDMDL
MODEL 2
REMARK VINA RESULT:     -13.1      3.525      9.008
REMARK SMILES Cc1ccc(S(=O)(=O)Nc2ccc(N3CCNC3=O)cc2)cc1C(=O)NCCCCCCNC(=O)c1ccc(-c2c3nc(c(-c4c(F)c(F)c(F)c(F)c4F)c4ccc([nH]4)c(-c4c(F)c(F)c(F)c(F)c4F)c4nc(c(-c5c(F)c(F)c(F)c(F)c5F)c5ccc2[nH]5)C=C4)C=C3)cc1
REMARK SMILES IDX 28 1 27 2 26 3 24 4 25 5 23 7 1 8 2 9 3 10 4 11 22 12 5 13
REMARK SMILES IDX 6 14 7 15 8 16 9 17 10 19 11 20 21 21 12 22 20 23 13 24
REMARK SMILES IDX 14 25 15 26 18 27 16 28 17 29 19 30 29 32 30 33 31 34 32 35
REMARK SMILES IDX 33 36 34 37 35 39 36 40 37 41 98 42 38 43 97 44 39 45 40 46
REMARK SMILES IDX 41 47 91 48 42 49 96 50 90 51 92 52 43 53 95 54 89 55 88 56
REMARK SMILES IDX 44 58 76 59 56 60 75 61 57 62 60 63 74 64 93 65 58 66 59 67
REMARK SMILES IDX 73 69 94 70 61 71 45 72 46 73 54 74 47 75 48 76 52 77 55 78
REMARK SMILES IDX 49 79 50 80 53 81 51 82 77 83 78 84 86 85 79 86 80 87 84 88
REMARK SMILES IDX 87 89 81 90 82 91 85 92 83 93 62 94 63 95 71 96 64 97 65 98
REMARK SMILES IDX 69 99 72 100 66 101 67 102 70 103 68 104
REMARK H PARENT 26 6 9 18 17 31 33 38 92 57 60 68
REMARK Flexibility Score: inf
ROOT
ATOM      1  C   UNL A   1      34.238  23.893  26.104  1.00  0.00     0.021 C 
ENDROOT
BRANCH   1   2
ATOM      2  C   UNL A   1      33.458  23.173  27.211  1.00  0.00     0.116 C 
BRANCH   2   3
ATOM      3  N   UNL A   1      32.107  23.658  27.299  1.00  0.00    -0.352 N 
ATOM      4  C   UNL A   1      31.401  24.686  26.748  1.00  0.00     0.251 C 
ATOM      5  O   UNL A   1      30.179  24.518  26.846  1.00  0.00    -0.269 OA
ATOM      6  H   UNL A   1      31.556  23.112  27.906  1.00  0.00     0.163 HD
BRANCH   4   7
ATOM      7  C   UNL A   1      31.897  25.939  26.062  1.00  0.00     0.044 A 
ATOM      8  C   UNL A   1      31.386  27.803  27.802  1.00  0.00     0.045 C 
ATOM      9  C   UNL A   1      31.906  27.281  26.499  1.00  0.00    -0.038 A 
ATOM     10  C   UNL A   1      32.364  28.293  25.622  1.00  0.00     0.005 A 
ATOM     11  C   UNL A   1      32.600  28.035  24.277  1.00  0.00     0.022 A 
ATOM     12  C   UNL A   1      32.231  25.703  24.697  1.00  0.00     0.036 A 
ATOM     13  C   UNL A   1      32.451  26.741  23.794  1.00  0.00     0.088 A 
BRANCH  13  14
ATOM     14  S   UNL A   1      32.344  26.591  22.025  1.00  0.00     0.261 S 
ATOM     15  O   UNL A   1      31.171  27.349  21.632  1.00  0.00    -0.201 OA
ATOM     16  O   UNL A   1      33.645  26.953  21.502  1.00  0.00    -0.201 OA
BRANCH  14  17
ATOM     17  N   UNL A   1      32.061  25.010  21.505  1.00  0.00    -0.280 N 
ATOM     18  H   UNL A   1      31.647  24.872  20.623  1.00  0.00     0.180 HD
BRANCH  17  19
ATOM     19  C   UNL A   1      32.398  23.868  22.287  1.00  0.00     0.049 A 
ATOM     20  C   UNL A   1      31.333  23.307  22.989  1.00  0.00     0.029 A 
ATOM     21  C   UNL A   1      33.676  23.339  22.437  1.00  0.00     0.029 A 
ATOM     22  C   UNL A   1      31.501  22.107  23.674  1.00  0.00     0.028 A 
ATOM     23  C   UNL A   1      33.846  22.135  23.142  1.00  0.00     0.028 A 
ATOM     24  C   UNL A   1      32.747  21.470  23.708  1.00  0.00     0.046 A 
BRANCH  24  25
ATOM     25  N   UNL A   1      32.840  20.148  24.202  1.00  0.00    -0.293 N 
ATOM     26  C   UNL A   1      33.211  19.865  25.575  1.00  0.00     0.149 C 
ATOM     27  C   UNL A   1      32.493  18.963  23.541  1.00  0.00     0.321 C 
ATOM     28  C   UNL A   1      32.749  18.434  25.798  1.00  0.00     0.139 C 
ATOM     29  N   UNL A   1      32.550  17.930  24.473  1.00  0.00    -0.336 N 
ATOM     30  O   UNL A   1      32.195  18.780  22.372  1.00  0.00    -0.248 OA
ATOM     31  H   UNL A   1      32.466  16.976  24.250  1.00  0.00     0.165 HD
ENDBRANCH  24  25
ENDBRANCH  17  19
ENDBRANCH  14  17
ENDBRANCH  13  14
ENDBRANCH   4   7
ENDBRANCH   2   3
ENDBRANCH   1   2
BRANCH   1  32
ATOM     32  C   UNL A   1      35.749  23.626  26.074  1.00  0.00     0.002 C 
BRANCH  32  33
ATOM     33  C   UNL A   1      36.191  22.169  25.870  1.00  0.00     0.002 C 
BRANCH  33  34
ATOM     34  C   UNL A   1      37.697  21.933  25.725  1.00  0.00     0.021 C 
BRANCH  34  35
ATOM     35  C   UNL A   1      38.520  23.209  25.615  1.00  0.00     0.116 C 
BRANCH  35  36
ATOM     36  N   UNL A   1      39.887  23.067  26.098  1.00  0.00    -0.352 N 
ATOM     37  C   UNL A   1      40.682  23.991  26.744  1.00  0.00     0.251 C 
ATOM     38  H   UNL A   1      40.303  22.189  25.940  1.00  0.00     0.163 HD
ATOM     39  O   UNL A   1      41.841  23.710  27.043  1.00  0.00    -0.269 OA
BRANCH  37  40
ATOM     40  C   UNL A   1      40.096  25.277  27.185  1.00  0.00     0.039 A 
ATOM     41  C   UNL A   1      40.502  26.446  26.532  1.00  0.00     0.014 A 
ATOM     42  C   UNL A   1      39.300  25.352  28.326  1.00  0.00     0.014 A 
ATOM     43  C   UNL A   1      40.301  27.680  27.148  1.00  0.00     0.010 A 
ATOM     44  C   UNL A   1      39.177  26.562  28.982  1.00  0.00     0.010 A 
ATOM     45  C   UNL A   1      39.735  27.716  28.423  1.00  0.00    -0.014 A 
BRANCH  45  46
ATOM     46  C   UNL A   1      39.774  28.895  29.283  1.00  0.00     0.031 A 
ATOM     47  C   UNL A   1      38.739  29.944  29.174  1.00  0.00     0.074 A 
ATOM     48  C   UNL A   1      40.733  28.988  30.230  1.00  0.00     0.049 A 
ATOM     49  N   UNL A   1      38.882  31.153  29.603  1.00  0.00    -0.248 NA
ATOM     50  C   UNL A   1      37.453  29.710  28.530  1.00  0.00     0.031 C 
ATOM     51  C   UNL A   1      40.808  29.947  31.330  1.00  0.00     0.029 A 
ATOM     52  N   UNL A   1      41.985  28.350  30.239  1.00  0.00    -0.354 N 
ATOM     53  C   UNL A   1      37.667  31.788  29.503  1.00  0.00     0.074 A 
ATOM     54  C   UNL A   1      36.815  30.854  28.801  1.00  0.00     0.031 C 
ATOM     55  C   UNL A   1      42.093  30.081  31.693  1.00  0.00     0.029 A 
ATOM     56  C   UNL A   1      42.887  29.317  30.747  1.00  0.00     0.049 A 
ATOM     57  H   UNL A   1      42.191  27.431  29.954  1.00  0.00     0.167 HD
ATOM     58  C   UNL A   1      37.489  32.996  30.110  1.00  0.00     0.037 A 
ATOM     59  C   UNL A   1      43.885  29.820  29.964  1.00  0.00     0.037 A 
ATOM     60  C   UNL A   1      38.726  33.489  30.706  1.00  0.00     0.049 A 
ATOM     61  C   UNL A   1      43.828  31.317  29.745  1.00  0.00     0.074 A 
ATOM     62  C   UNL A   1      39.268  33.452  31.981  1.00  0.00     0.029 A 
ATOM     63  N   UNL A   1      39.751  33.881  29.865  1.00  0.00    -0.354 N 
ATOM     64  N   UNL A   1      42.841  32.079  30.125  1.00  0.00    -0.248 NA
ATOM     65  C   UNL A   1      44.837  32.052  28.980  1.00  0.00     0.031 C 
ATOM     66  C   UNL A   1      40.646  33.796  31.886  1.00  0.00     0.029 A 
ATOM     67  C   UNL A   1      40.934  34.045  30.557  1.00  0.00     0.049 A 
ATOM     68  H   UNL A   1      39.649  34.024  28.897  1.00  0.00     0.167 HD
ATOM     69  C   UNL A   1      43.039  33.343  29.642  1.00  0.00     0.074 A 
ATOM     70  C   UNL A   1      44.300  33.282  28.930  1.00  0.00     0.031 C 
ATOM     71  C   UNL A   1      42.143  34.351  29.821  1.00  0.00     0.037 A 
BRANCH  58  72
ATOM     72  C   UNL A   1      36.143  33.638  30.342  1.00  0.00     0.064 A 
ATOM     73  C   UNL A   1      35.384  34.128  29.256  1.00  0.00     0.173 A 
ATOM     74  C   UNL A   1      35.565  33.838  31.607  1.00  0.00     0.173 A 
ATOM     75  F   UNL A   1      35.762  33.923  27.988  1.00  0.00    -0.203 F 
ATOM     76  C   UNL A   1      34.207  34.859  29.436  1.00  0.00     0.198 A 
ATOM     77  C   UNL A   1      34.422  34.623  31.791  1.00  0.00     0.198 A 
ATOM     78  F   UNL A   1      36.058  33.238  32.698  1.00  0.00    -0.203 F 
ATOM     79  F   UNL A   1      33.530  35.302  28.367  1.00  0.00    -0.200 F 
ATOM     80  C   UNL A   1      33.748  35.143  30.705  1.00  0.00     0.200 A 
ATOM     81  F   UNL A   1      33.978  34.871  33.032  1.00  0.00    -0.200 F 
ATOM     82  F   UNL A   1      32.651  35.892  30.880  1.00  0.00    -0.200 F 
ENDBRANCH  58  72
BRANCH  59  83
ATOM     83  C   UNL A   1      44.388  28.842  28.962  1.00  0.00     0.064 A 
ATOM     84  C   UNL A   1      45.155  27.748  29.412  1.00  0.00     0.173 A 
ATOM     85  C   UNL A   1      43.844  28.765  27.675  1.00  0.00     0.173 A 
ATOM     86  F   UNL A   1      45.699  27.771  30.640  1.00  0.00    -0.203 F 
ATOM     87  C   UNL A   1      45.264  26.583  28.660  1.00  0.00     0.198 A 
ATOM     88  C   UNL A   1      43.978  27.604  26.913  1.00  0.00     0.198 A 
ATOM     89  F   UNL A   1      43.090  29.762  27.194  1.00  0.00    -0.203 F 
ATOM     90  F   UNL A   1      45.894  25.514  29.169  1.00  0.00    -0.200 F 
ATOM     91  C   UNL A   1      44.653  26.503  27.421  1.00  0.00     0.200 A 
ATOM     92  F   UNL A   1      43.368  27.519  25.724  1.00  0.00    -0.200 F 
ATOM     93  F   UNL A   1      44.679  25.353  26.732  1.00  0.00    -0.200 F 
ENDBRANCH  59  83
BRANCH  71  94
ATOM     94  C   UNL A   1      42.369  35.731  29.300  1.00  0.00     0.064 A 
ATOM     95  C   UNL A   1      41.833  36.154  28.075  1.00  0.00     0.173 A 
ATOM     96  C   UNL A   1      43.232  36.626  29.960  1.00  0.00     0.173 A 
ATOM     97  F   UNL A   1      41.024  35.347  27.371  1.00  0.00    -0.203 F 
ATOM     98  C   UNL A   1      42.128  37.412  27.550  1.00  0.00     0.198 A 
ATOM     99  C   UNL A   1      43.559  37.864  29.412  1.00  0.00     0.198 A 
ATOM    100  F   UNL A   1      43.759  36.323  31.157  1.00  0.00    -0.203 F 
ATOM    101  F   UNL A   1      41.567  37.799  26.396  1.00  0.00    -0.200 F 
ATOM    102  C   UNL A   1      43.001  38.259  28.212  1.00  0.00     0.200 A 
ATOM    103  F   UNL A   1      44.414  38.671  30.056  1.00  0.00    -0.200 F 
ATOM    104  F   UNL A   1      43.301  39.458  27.694  1.00  0.00    -0.200 F 
ENDBRANCH  71  94
ENDBRANCH  45  46
ENDBRANCH  37  40
ENDBRANCH  35  36
ENDBRANCH  34  35
ENDBRANCH  33  34
ENDBRANCH  32  33
ENDBRANCH   1  32
TORSDOF 17
ENDMDL
MODEL 3
REMARK VINA RESULT:     -13.1      3.893     10.266
REMARK SMILES Cc1ccc(S(=O)(=O)Nc2ccc(N3CCNC3=O)cc2)cc1C(=O)NCCCCCCNC(=O)c1ccc(-c2c3nc(c(-c4c(F)c(F)c(F)c(F)c4F)c4ccc([nH]4)c(-c4c(F)c(F)c(F)c(F)c4F)c4nc(c(-c5c(F)c(F)c(F)c(F)c5F)c5ccc2[nH]5)C=C4)C=C3)cc1
REMARK SMILES IDX 28 1 27 2 26 3 24 4 25 5 23 7 1 8 2 9 3 10 4 11 22 12 5 13
REMARK SMILES IDX 6 14 7 15 8 16 9 17 10 19 11 20 21 21 12 22 20 23 13 24
REMARK SMILES IDX 14 25 15 26 18 27 16 28 17 29 19 30 29 32 30 33 31 34 32 35
REMARK SMILES IDX 33 36 34 37 35 39 36 40 37 41 98 42 38 43 97 44 39 45 40 46
REMARK SMILES IDX 41 47 91 48 42 49 96 50 90 51 92 52 43 53 95 54 89 55 88 56
REMARK SMILES IDX 44 58 76 59 56 60 75 61 57 62 60 63 74 64 93 65 58 66 59 67
REMARK SMILES IDX 73 69 94 70 61 71 45 72 46 73 54 74 47 75 48 76 52 77 55 78
REMARK SMILES IDX 49 79 50 80 53 81 51 82 77 83 78 84 86 85 79 86 80 87 84 88
REMARK SMILES IDX 87 89 81 90 82 91 85 92 83 93 62 94 63 95 71 96 64 97 65 98
REMARK SMILES IDX 69 99 72 100 66 101 67 102 70 103 68 104
REMARK H PARENT 26 6 9 18 17 31 33 38 92 57 60 68
REMARK Flexibility Score: inf
ROOT
ATOM      1  C   UNL A   1      35.209  22.911  26.342  1.00  0.00     0.021 C 
ENDROOT
BRANCH   1   2
ATOM      2  C   UNL A   1      34.889  21.493  26.830  1.00  0.00     0.116 C 
BRANCH   2   3
ATOM      3  N   UNL A   1      34.112  20.769  25.859  1.00  0.00    -0.352 N 
ATOM      4  C   UNL A   1      33.518  21.064  24.669  1.00  0.00     0.251 C 
ATOM      5  O   UNL A   1      33.244  20.048  24.019  1.00  0.00    -0.269 OA
ATOM      6  H   UNL A   1      33.977  19.829  26.119  1.00  0.00     0.163 HD
BRANCH   4   7
ATOM      7  C   UNL A   1      33.173  22.409  24.069  1.00  0.00     0.044 A 
ATOM      8  C   UNL A   1      35.288  22.987  22.670  1.00  0.00     0.045 C 
ATOM      9  C   UNL A   1      33.914  23.244  23.206  1.00  0.00    -0.038 A 
ATOM     10  C   UNL A   1      33.389  24.508  22.844  1.00  0.00     0.005 A 
ATOM     11  C   UNL A   1      32.275  25.039  23.480  1.00  0.00     0.022 A 
ATOM     12  C   UNL A   1      31.986  22.957  24.634  1.00  0.00     0.036 A 
ATOM     13  C   UNL A   1      31.616  24.287  24.444  1.00  0.00     0.088 A 
BRANCH  13  14
ATOM     14  S   UNL A   1      30.499  25.193  25.492  1.00  0.00     0.261 S 
ATOM     15  O   UNL A   1      30.080  24.264  26.524  1.00  0.00    -0.201 OA
ATOM     16  O   UNL A   1      31.181  26.417  25.857  1.00  0.00    -0.201 OA
BRANCH  14  17
ATOM     17  N   UNL A   1      29.084  25.669  24.705  1.00  0.00    -0.280 N 
ATOM     18  H   UNL A   1      28.296  25.083  24.758  1.00  0.00     0.180 HD
BRANCH  17  19
ATOM     19  C   UNL A   1      28.981  26.884  23.967  1.00  0.00     0.049 A 
ATOM     20  C   UNL A   1      27.682  27.362  23.808  1.00  0.00     0.029 A 
ATOM     21  C   UNL A   1      30.042  27.558  23.370  1.00  0.00     0.029 A 
ATOM     22  C   UNL A   1      27.462  28.610  23.232  1.00  0.00     0.028 A 
ATOM     23  C   UNL A   1      29.815  28.811  22.774  1.00  0.00     0.028 A 
ATOM     24  C   UNL A   1      28.532  29.381  22.763  1.00  0.00     0.046 A 
BRANCH  24  25
ATOM     25  N   UNL A   1      28.312  30.731  22.403  1.00  0.00    -0.293 N 
ATOM     26  C   UNL A   1      28.429  31.813  23.362  1.00  0.00     0.149 C 
ATOM     27  C   UNL A   1      28.084  31.246  21.120  1.00  0.00     0.321 C 
ATOM     28  C   UNL A   1      28.577  33.058  22.504  1.00  0.00     0.139 C 
ATOM     29  N   UNL A   1      28.133  32.635  21.211  1.00  0.00    -0.336 N 
ATOM     30  O   UNL A   1      27.866  30.661  20.072  1.00  0.00    -0.248 OA
ATOM     31  H   UNL A   1      27.891  33.247  20.479  1.00  0.00     0.165 HD
ENDBRANCH  24  25
ENDBRANCH  17  19
ENDBRANCH  14  17
ENDBRANCH  13  14
ENDBRANCH   4   7
ENDBRANCH   2   3
ENDBRANCH   1   2
BRANCH   1  32
ATOM     32  C   UNL A   1      36.609  23.108  25.744  1.00  0.00     0.002 C 
BRANCH  32  33
ATOM     33  C   UNL A   1      37.318  21.853  25.212  1.00  0.00     0.002 C 
BRANCH  33  34
ATOM     34  C   UNL A   1      38.678  21.528  25.836  1.00  0.00     0.021 C 
BRANCH  34  35
ATOM     35  C   UNL A   1      39.298  22.681  26.613  1.00  0.00     0.116 C 
BRANCH  35  36
ATOM     36  N   UNL A   1      40.690  22.938  26.268  1.00  0.00    -0.352 N 
ATOM     37  C   UNL A   1      41.376  24.135  26.251  1.00  0.00     0.251 C 
ATOM     38  H   UNL A   1      41.215  22.146  26.009  1.00  0.00     0.163 HD
ATOM     39  O   UNL A   1      42.549  24.172  25.886  1.00  0.00    -0.269 OA
BRANCH  37  40
ATOM     40  C   UNL A   1      40.731  25.353  26.791  1.00  0.00     0.039 A 
ATOM     41  C   UNL A   1      40.977  26.571  26.147  1.00  0.00     0.014 A 
ATOM     42  C   UNL A   1      40.043  25.328  28.002  1.00  0.00     0.014 A 
ATOM     43  C   UNL A   1      40.734  27.765  26.823  1.00  0.00     0.010 A 
ATOM     44  C   UNL A   1      39.884  26.504  28.710  1.00  0.00     0.010 A 
ATOM     45  C   UNL A   1      40.290  27.717  28.145  1.00  0.00    -0.014 A 
BRANCH  45  46
ATOM     46  C   UNL A   1      40.314  28.869  29.040  1.00  0.00     0.031 A 
ATOM     47  C   UNL A   1      39.236  29.880  29.000  1.00  0.00     0.074 A 
ATOM     48  C   UNL A   1      41.301  28.971  29.957  1.00  0.00     0.049 A 
ATOM     49  N   UNL A   1      39.348  31.079  29.462  1.00  0.00    -0.248 NA
ATOM     50  C   UNL A   1      37.939  29.614  28.392  1.00  0.00     0.031 C 
ATOM     51  C   UNL A   1      41.377  29.898  31.083  1.00  0.00     0.029 A 
ATOM     52  N   UNL A   1      42.577  28.384  29.903  1.00  0.00    -0.354 N 
ATOM     53  C   UNL A   1      38.106  31.668  29.423  1.00  0.00     0.074 A 
ATOM     54  C   UNL A   1      37.267  30.723  28.721  1.00  0.00     0.031 C 
ATOM     55  C   UNL A   1      42.668  30.072  31.407  1.00  0.00     0.029 A 
ATOM     56  C   UNL A   1      43.458  29.370  30.411  1.00  0.00     0.049 A 
ATOM     57  H   UNL A   1      42.808  27.482  29.583  1.00  0.00     0.167 HD
ATOM     58  C   UNL A   1      37.903  32.850  30.074  1.00  0.00     0.037 A 
ATOM     59  C   UNL A   1      44.408  29.935  29.611  1.00  0.00     0.037 A 
ATOM     60  C   UNL A   1      39.140  33.373  30.644  1.00  0.00     0.049 A 
ATOM     61  C   UNL A   1      44.286  31.435  29.442  1.00  0.00     0.074 A 
ATOM     62  C   UNL A   1      39.727  33.318  31.897  1.00  0.00     0.029 A 
ATOM     63  N   UNL A   1      40.120  33.831  29.781  1.00  0.00    -0.354 N 
ATOM     64  N   UNL A   1      43.283  32.145  29.879  1.00  0.00    -0.248 NA
ATOM     65  C   UNL A   1      45.238  32.232  28.667  1.00  0.00     0.031 C 
ATOM     66  C   UNL A   1      41.087  33.719  31.768  1.00  0.00     0.029 A 
ATOM     67  C   UNL A   1      41.318  34.020  30.438  1.00  0.00     0.049 A 
ATOM     68  H   UNL A   1      39.979  33.999  28.822  1.00  0.00     0.167 HD
ATOM     69  C   UNL A   1      43.416  33.430  29.431  1.00  0.00     0.074 A 
ATOM     70  C   UNL A   1      44.652  33.441  28.675  1.00  0.00     0.031 C 
ATOM     71  C   UNL A   1      42.489  34.396  29.671  1.00  0.00     0.037 A 
BRANCH  58  72
ATOM     72  C   UNL A   1      36.542  33.430  30.371  1.00  0.00     0.064 A 
ATOM     73  C   UNL A   1      35.728  33.924  29.328  1.00  0.00     0.173 A 
ATOM     74  C   UNL A   1      36.001  33.567  31.661  1.00  0.00     0.173 A 
ATOM     75  F   UNL A   1      36.070  33.774  28.043  1.00  0.00    -0.203 F 
ATOM     76  C   UNL A   1      34.531  34.602  29.571  1.00  0.00     0.198 A 
ATOM     77  C   UNL A   1      34.836  34.300  31.909  1.00  0.00     0.198 A 
ATOM     78  F   UNL A   1      36.554  32.953  32.715  1.00  0.00    -0.203 F 
ATOM     79  F   UNL A   1      33.801  35.051  28.540  1.00  0.00    -0.200 F 
ATOM     80  C   UNL A   1      34.105  34.828  30.863  1.00  0.00     0.200 A 
ATOM     81  F   UNL A   1      34.426  34.492  33.171  1.00  0.00    -0.200 F 
ATOM     82  F   UNL A   1      32.988  35.527  31.099  1.00  0.00    -0.200 F 
ENDBRANCH  58  72
BRANCH  59  83
ATOM     83  C   UNL A   1      44.912  29.009  28.562  1.00  0.00     0.064 A 
ATOM     84  C   UNL A   1      45.769  27.958  28.946  1.00  0.00     0.173 A 
ATOM     85  C   UNL A   1      44.303  28.921  27.306  1.00  0.00     0.173 A 
ATOM     86  F   UNL A   1      46.380  27.992  30.142  1.00  0.00    -0.203 F 
ATOM     87  C   UNL A   1      45.908  26.815  28.164  1.00  0.00     0.198 A 
ATOM     88  C   UNL A   1      44.465  27.784  26.513  1.00  0.00     0.198 A 
ATOM     89  F   UNL A   1      43.462  29.877  26.889  1.00  0.00    -0.203 F 
ATOM     90  F   UNL A   1      46.630  25.779  28.614  1.00  0.00    -0.200 F 
ATOM     91  C   UNL A   1      45.234  26.719  26.958  1.00  0.00     0.200 A 
ATOM     92  F   UNL A   1      43.795  27.683  25.357  1.00  0.00    -0.200 F 
ATOM     93  F   UNL A   1      45.292  25.586  26.245  1.00  0.00    -0.200 F 
ENDBRANCH  59  83
BRANCH  71  94
ATOM     94  C   UNL A   1      42.643  35.799  29.187  1.00  0.00     0.064 A 
ATOM     95  C   UNL A   1      43.304  36.773  29.950  1.00  0.00     0.173 A 
ATOM     96  C   UNL A   1      42.026  36.231  27.999  1.00  0.00     0.173 A 
ATOM     97  F   UNL A   1      43.893  36.446  31.110  1.00  0.00    -0.203 F 
ATOM     98  C   UNL A   1      43.361  38.104  29.535  1.00  0.00     0.198 A 
ATOM     99  C   UNL A   1      42.048  37.568  27.609  1.00  0.00     0.198 A 
ATOM    100  F   UNL A   1      41.407  35.362  27.185  1.00  0.00    -0.203 F 
ATOM    101  F   UNL A   1      44.033  39.000  30.268  1.00  0.00    -0.200 F 
ATOM    102  C   UNL A   1      42.721  38.502  28.373  1.00  0.00     0.200 A 
ATOM    103  F   UNL A   1      41.415  37.944  26.488  1.00  0.00    -0.200 F 
ATOM    104  F   UNL A   1      42.757  39.785  27.988  1.00  0.00    -0.200 F 
ENDBRANCH  71  94
ENDBRANCH  45  46
ENDBRANCH  37  40
ENDBRANCH  35  36
ENDBRANCH  34  35
ENDBRANCH  33  34
ENDBRANCH  32  33
ENDBRANCH   1  32
TORSDOF 17
ENDMDL
