MODEL 1
REMARK VINA RESULT:     -12.3      0.000      0.000
REMARK SMILES Cc1cc(Cl)c2c(c1)C=C(C(=O)NCCCCCCNC(=O)c1ccc(-c3c4nc(c(-c5c(F)c(F)c(F)c(F)c5F)c5ccc([nH]5)c(-c5c(F)c(F)c(F)c(F)c5F)c5nc(c(-c6c(F)c(F)c(F)c(F)c6F)c6ccc3[nH]6)C=C5)C=C4)cc1)[C@@H](C(F)(F)F)O2
REMARK SMILES IDX 17 1 16 2 15 3 14 4 13 5 11 6 12 7 10 9 1 10 2 11 3 12 8 13
REMARK SMILES IDX 4 14 7 15 5 16 6 17 9 18 91 19 86 20 87 21 88 22 89 23 90 24
REMARK SMILES IDX 18 25 19 26 20 27 21 28 22 30 23 31 24 32 85 33 25 34 84 35
REMARK SMILES IDX 26 36 27 37 28 38 78 39 29 40 83 41 77 42 79 43 30 44 82 45
REMARK SMILES IDX 76 46 75 47 31 49 63 50 43 51 62 52 44 53 47 54 61 55 80 56
REMARK SMILES IDX 45 57 46 58 60 60 81 61 48 62 32 63 33 64 41 65 34 66 35 67
REMARK SMILES IDX 39 68 42 69 36 70 37 71 40 72 38 73 64 74 65 75 73 76 66 77
REMARK SMILES IDX 67 78 71 79 74 80 68 81 69 82 72 83 70 84 49 85 50 86 58 87
REMARK SMILES IDX 51 88 52 89 56 90 59 91 53 92 54 93 57 94 55 95
REMARK H PARENT 13 8 20 29 79 48 47 59
REMARK Flexibility Score: inf
ROOT
ATOM      1  C   UNL A   1      31.517  30.685  26.448  1.00  0.00     0.002 C 
ENDROOT
BRANCH   1   2
ATOM      2  C   UNL A   1      32.775  30.012  27.015  1.00  0.00     0.002 C 
BRANCH   2   3
ATOM      3  C   UNL A   1      33.710  29.406  25.965  1.00  0.00     0.021 C 
BRANCH   3   4
ATOM      4  C   UNL A   1      33.917  27.905  26.131  1.00  0.00     0.116 C 
BRANCH   4   5
ATOM      5  N   UNL A   1      33.947  27.222  24.850  1.00  0.00    -0.352 N 
ATOM      6  C   UNL A   1      33.091  27.001  23.826  1.00  0.00     0.251 C 
ATOM      7  O   UNL A   1      33.559  26.364  22.877  1.00  0.00    -0.270 OA
ATOM      8  H   UNL A   1      34.825  26.808  24.683  1.00  0.00     0.163 HD
BRANCH   6   9
ATOM      9  C   UNL A   1      31.671  27.462  23.777  1.00  0.00     0.067 C 
ATOM     10  C   UNL A   1      28.326  32.569  22.712  1.00  0.00     0.044 C 
ATOM     11  C   UNL A   1      28.584  31.120  23.000  1.00  0.00    -0.049 A 
ATOM     12  C   UNL A   1      27.506  30.236  23.124  1.00  0.00     0.028 A 
ATOM     13  C   UNL A   1      29.892  30.625  23.096  1.00  0.00     0.015 A 
ATOM     14  C   UNL A   1      27.733  28.882  23.360  1.00  0.00     0.084 A 
ATOM     15  C   UNL A   1      30.123  29.265  23.338  1.00  0.00     0.019 A 
ATOM     16  Cl  UNL A   1      26.371  27.828  23.501  1.00  0.00    -0.080 Cl
ATOM     17  C   UNL A   1      29.039  28.398  23.477  1.00  0.00     0.146 A 
ATOM     18  C   UNL A   1      31.482  28.739  23.397  1.00  0.00     0.025 C 
ATOM     19  O   UNL A   1      29.205  27.058  23.676  1.00  0.00    -0.474 OA
ATOM     20  C   UNL A   1      30.496  26.606  24.151  1.00  0.00     0.314 C 
BRANCH  20  21
ATOM     21  C   UNL A   1      30.410  26.339  25.665  1.00  0.00     0.429 C 
ATOM     22  F   UNL A   1      29.176  25.888  25.999  1.00  0.00    -0.167 F 
ATOM     23  F   UNL A   1      31.284  25.392  26.080  1.00  0.00    -0.167 F 
ATOM     24  F   UNL A   1      30.653  27.446  26.401  1.00  0.00    -0.167 F 
ENDBRANCH  20  21
ENDBRANCH   6   9
ENDBRANCH   4   5
ENDBRANCH   3   4
ENDBRANCH   2   3
ENDBRANCH   1   2
BRANCH   1  25
ATOM     25  C   UNL A   1      31.425  32.195  26.687  1.00  0.00     0.021 C 
BRANCH  25  26
ATOM     26  C   UNL A   1      32.706  32.822  27.223  1.00  0.00     0.116 C 
BRANCH  26  27
ATOM     27  N   UNL A   1      32.500  34.203  27.626  1.00  0.00    -0.352 N 
ATOM     28  C   UNL A   1      33.056  34.890  28.673  1.00  0.00     0.251 C 
ATOM     29  H   UNL A   1      31.874  34.718  27.068  1.00  0.00     0.163 HD
ATOM     30  O   UNL A   1      32.601  35.978  29.014  1.00  0.00    -0.269 OA
BRANCH  28  31
ATOM     31  C   UNL A   1      34.199  34.307  29.398  1.00  0.00     0.039 A 
ATOM     32  C   UNL A   1      33.957  33.531  30.533  1.00  0.00     0.014 A 
ATOM     33  C   UNL A   1      35.508  34.536  28.962  1.00  0.00     0.014 A 
ATOM     34  C   UNL A   1      35.029  32.945  31.206  1.00  0.00     0.010 A 
ATOM     35  C   UNL A   1      36.568  33.890  29.588  1.00  0.00     0.010 A 
ATOM     36  C   UNL A   1      36.339  33.099  30.723  1.00  0.00    -0.014 A 
BRANCH  36  37
ATOM     37  C   UNL A   1      37.485  32.461  31.414  1.00  0.00     0.031 A 
ATOM     38  C   UNL A   1      38.235  31.344  30.744  1.00  0.00     0.074 A 
ATOM     39  C   UNL A   1      37.827  32.867  32.652  1.00  0.00     0.049 A 
ATOM     40  N   UNL A   1      39.237  30.634  31.197  1.00  0.00    -0.248 NA
ATOM     41  C   UNL A   1      37.791  30.959  29.394  1.00  0.00     0.031 C 
ATOM     42  C   UNL A   1      37.152  33.919  33.413  1.00  0.00     0.029 A 
ATOM     43  N   UNL A   1      38.829  32.444  33.490  1.00  0.00    -0.354 N 
ATOM     44  C   UNL A   1      39.540  29.725  30.192  1.00  0.00     0.074 A 
ATOM     45  C   UNL A   1      38.581  29.928  29.130  1.00  0.00     0.031 C 
ATOM     46  C   UNL A   1      37.775  34.081  34.591  1.00  0.00     0.029 A 
ATOM     47  C   UNL A   1      38.868  33.118  34.687  1.00  0.00     0.049 A 
ATOM     48  H   UNL A   1      39.459  31.724  33.256  1.00  0.00     0.167 HD
ATOM     49  C   UNL A   1      40.549  28.826  30.149  1.00  0.00     0.037 A 
ATOM     50  C   UNL A   1      39.691  32.969  35.743  1.00  0.00     0.037 A 
ATOM     51  C   UNL A   1      41.517  28.649  31.197  1.00  0.00     0.049 A 
ATOM     52  C   UNL A   1      40.783  31.935  35.678  1.00  0.00     0.074 A 
ATOM     53  C   UNL A   1      42.602  27.792  31.228  1.00  0.00     0.029 A 
ATOM     54  N   UNL A   1      41.518  29.342  32.398  1.00  0.00    -0.354 N 
ATOM     55  N   UNL A   1      41.095  31.121  34.699  1.00  0.00    -0.248 NA
ATOM     56  C   UNL A   1      41.640  31.798  36.865  1.00  0.00     0.031 C 
ATOM     57  C   UNL A   1      43.231  27.929  32.467  1.00  0.00     0.029 A 
ATOM     58  C   UNL A   1      42.572  28.913  33.186  1.00  0.00     0.049 A 
ATOM     59  H   UNL A   1      40.866  30.035  32.652  1.00  0.00     0.167 HD
ATOM     60  C   UNL A   1      42.196  30.398  35.138  1.00  0.00     0.074 A 
ATOM     61  C   UNL A   1      42.511  30.882  36.464  1.00  0.00     0.031 C 
ATOM     62  C   UNL A   1      42.880  29.416  34.501  1.00  0.00     0.037 A 
BRANCH  49  63
ATOM     63  C   UNL A   1      40.685  27.976  28.920  1.00  0.00     0.064 A 
ATOM     64  C   UNL A   1      39.959  26.785  28.772  1.00  0.00     0.173 A 
ATOM     65  C   UNL A   1      41.472  28.405  27.841  1.00  0.00     0.173 A 
ATOM     66  F   UNL A   1      39.202  26.326  29.781  1.00  0.00    -0.203 F 
ATOM     67  C   UNL A   1      40.016  26.054  27.589  1.00  0.00     0.198 A 
ATOM     68  C   UNL A   1      41.505  27.686  26.648  1.00  0.00     0.198 A 
ATOM     69  F   UNL A   1      42.184  29.538  27.930  1.00  0.00    -0.203 F 
ATOM     70  F   UNL A   1      39.331  24.907  27.478  1.00  0.00    -0.200 F 
ATOM     71  C   UNL A   1      40.778  26.511  26.524  1.00  0.00     0.200 A 
ATOM     72  F   UNL A   1      42.228  28.137  25.615  1.00  0.00    -0.200 F 
ATOM     73  F   UNL A   1      40.809  25.821  25.376  1.00  0.00    -0.200 F 
ENDBRANCH  49  63
BRANCH  50  74
ATOM     74  C   UNL A   1      39.531  33.837  36.941  1.00  0.00     0.064 A 
ATOM     75  C   UNL A   1      38.765  33.416  38.037  1.00  0.00     0.173 A 
ATOM     76  C   UNL A   1      40.130  35.103  37.014  1.00  0.00     0.173 A 
ATOM     77  F   UNL A   1      38.154  32.222  38.009  1.00  0.00    -0.203 F 
ATOM     78  C   UNL A   1      38.587  34.235  39.150  1.00  0.00     0.198 A 
ATOM     79  C   UNL A   1      39.978  35.908  38.141  1.00  0.00     0.198 A 
ATOM     80  F   UNL A   1      40.876  35.553  35.995  1.00  0.00    -0.203 F 
ATOM     81  F   UNL A   1      37.809  33.828  40.162  1.00  0.00    -0.200 F 
ATOM     82  C   UNL A   1      39.199  35.478  39.204  1.00  0.00     0.200 A 
ATOM     83  F   UNL A   1      40.585  37.102  38.195  1.00  0.00    -0.200 F 
ATOM     84  F   UNL A   1      39.032  36.263  40.276  1.00  0.00    -0.200 F 
ENDBRANCH  50  74
BRANCH  62  85
ATOM     85  C   UNL A   1      44.054  28.809  35.211  1.00  0.00     0.064 A 
ATOM     86  C   UNL A   1      43.914  27.670  36.017  1.00  0.00     0.173 A 
ATOM     87  C   UNL A   1      45.347  29.320  35.014  1.00  0.00     0.173 A 
ATOM     88  F   UNL A   1      42.698  27.151  36.245  1.00  0.00    -0.203 F 
ATOM     89  C   UNL A   1      45.023  27.073  36.611  1.00  0.00     0.198 A 
ATOM     90  C   UNL A   1      46.456  28.700  35.581  1.00  0.00     0.198 A 
ATOM     91  F   UNL A   1      45.537  30.401  34.242  1.00  0.00    -0.203 F 
ATOM     92  F   UNL A   1      44.860  26.007  37.406  1.00  0.00    -0.200 F 
ATOM     93  C   UNL A   1      46.292  27.581  36.383  1.00  0.00     0.200 A 
ATOM     94  F   UNL A   1      47.685  29.180  35.343  1.00  0.00    -0.200 F 
ATOM     95  F   UNL A   1      47.360  26.990  36.937  1.00  0.00    -0.200 F 
ENDBRANCH  62  85
ENDBRANCH  36  37
ENDBRANCH  28  31
ENDBRANCH  26  27
ENDBRANCH  25  26
ENDBRANCH   1  25
TORSDOF 14
ENDMDL
MODEL 2
REMARK VINA RESULT:     -12.2      0.832      7.286
REMARK SMILES Cc1cc(Cl)c2c(c1)C=C(C(=O)NCCCCCCNC(=O)c1ccc(-c3c4nc(c(-c5c(F)c(F)c(F)c(F)c5F)c5ccc([nH]5)c(-c5c(F)c(F)c(F)c(F)c5F)c5nc(c(-c6c(F)c(F)c(F)c(F)c6F)c6ccc3[nH]6)C=C5)C=C4)cc1)[C@@H](C(F)(F)F)O2
REMARK SMILES IDX 17 1 16 2 15 3 14 4 13 5 11 6 12 7 10 9 1 10 2 11 3 12 8 13
REMARK SMILES IDX 4 14 7 15 5 16 6 17 9 18 91 19 86 20 87 21 88 22 89 23 90 24
REMARK SMILES IDX 18 25 19 26 20 27 21 28 22 30 23 31 24 32 85 33 25 34 84 35
REMARK SMILES IDX 26 36 27 37 28 38 78 39 29 40 83 41 77 42 79 43 30 44 82 45
REMARK SMILES IDX 76 46 75 47 31 49 63 50 43 51 62 52 44 53 47 54 61 55 80 56
REMARK SMILES IDX 45 57 46 58 60 60 81 61 48 62 32 63 33 64 41 65 34 66 35 67
REMARK SMILES IDX 39 68 42 69 36 70 37 71 40 72 38 73 64 74 65 75 73 76 66 77
REMARK SMILES IDX 67 78 71 79 74 80 68 81 69 82 72 83 70 84 49 85 50 86 58 87
REMARK SMILES IDX 51 88 52 89 56 90 59 91 53 92 54 93 57 94 55 95
REMARK H PARENT 13 8 20 29 79 48 47 59
REMARK Flexibility Score: inf
ROOT
ATOM      1  C   UNL A   1      31.586  30.362  25.991  1.00  0.00     0.002 C 
ENDROOT
BRANCH   1   2
ATOM      2  C   UNL A   1      32.790  29.575  26.524  1.00  0.00     0.002 C 
BRANCH   2   3
ATOM      3  C   UNL A   1      33.663  28.923  25.448  1.00  0.00     0.021 C 
BRANCH   3   4
ATOM      4  C   UNL A   1      33.890  27.434  25.671  1.00  0.00     0.116 C 
BRANCH   4   5
ATOM      5  N   UNL A   1      33.776  26.680  24.435  1.00  0.00    -0.352 N 
ATOM      6  C   UNL A   1      32.824  26.450  23.502  1.00  0.00     0.251 C 
ATOM      7  O   UNL A   1      33.175  25.738  22.556  1.00  0.00    -0.270 OA
ATOM      8  H   UNL A   1      34.614  26.213  24.219  1.00  0.00     0.163 HD
BRANCH   6   9
ATOM      9  C   UNL A   1      31.428  26.982  23.547  1.00  0.00     0.067 C 
ATOM     10  C   UNL A   1      28.231  32.150  22.334  1.00  0.00     0.044 C 
ATOM     11  C   UNL A   1      28.449  30.720  22.731  1.00  0.00    -0.049 A 
ATOM     12  C   UNL A   1      27.350  29.911  23.040  1.00  0.00     0.028 A 
ATOM     13  C   UNL A   1      29.737  30.164  22.747  1.00  0.00     0.015 A 
ATOM     14  C   UNL A   1      27.537  28.573  23.380  1.00  0.00     0.084 A 
ATOM     15  C   UNL A   1      29.928  28.821  23.091  1.00  0.00     0.019 A 
ATOM     16  Cl  UNL A   1      26.149  27.612  23.748  1.00  0.00    -0.080 Cl
ATOM     17  C   UNL A   1      28.825  28.030  23.415  1.00  0.00     0.146 A 
ATOM     18  C   UNL A   1      31.260  28.228  23.069  1.00  0.00     0.025 C 
ATOM     19  O   UNL A   1      28.949  26.707  23.721  1.00  0.00    -0.474 OA
ATOM     20  C   UNL A   1      30.259  26.229  24.111  1.00  0.00     0.314 C 
BRANCH  20  21
ATOM     21  C   UNL A   1      30.314  26.102  25.644  1.00  0.00     0.429 C 
ATOM     22  F   UNL A   1      31.264  25.208  26.014  1.00  0.00    -0.167 F 
ATOM     23  F   UNL A   1      30.635  27.267  26.255  1.00  0.00    -0.167 F 
ATOM     24  F   UNL A   1      29.140  25.692  26.172  1.00  0.00    -0.167 F 
ENDBRANCH  20  21
ENDBRANCH   6   9
ENDBRANCH   4   5
ENDBRANCH   3   4
ENDBRANCH   2   3
ENDBRANCH   1   2
BRANCH   1  25
ATOM     25  C   UNL A   1      31.458  31.794  26.521  1.00  0.00     0.021 C 
BRANCH  25  26
ATOM     26  C   UNL A   1      32.775  32.409  26.979  1.00  0.00     0.116 C 
BRANCH  26  27
ATOM     27  N   UNL A   1      32.596  33.773  27.448  1.00  0.00    -0.352 N 
ATOM     28  C   UNL A   1      33.204  34.414  28.495  1.00  0.00     0.251 C 
ATOM     29  H   UNL A   1      31.946  34.312  26.942  1.00  0.00     0.163 HD
ATOM     30  O   UNL A   1      32.771  35.490  28.901  1.00  0.00    -0.269 OA
BRANCH  28  31
ATOM     31  C   UNL A   1      34.377  33.799  29.141  1.00  0.00     0.039 A 
ATOM     32  C   UNL A   1      34.178  32.800  30.095  1.00  0.00     0.014 A 
ATOM     33  C   UNL A   1      35.670  34.216  28.810  1.00  0.00     0.014 A 
ATOM     34  C   UNL A   1      35.282  32.185  30.686  1.00  0.00     0.010 A 
ATOM     35  C   UNL A   1      36.768  33.551  29.343  1.00  0.00     0.010 A 
ATOM     36  C   UNL A   1      36.584  32.538  30.295  1.00  0.00    -0.014 A 
BRANCH  36  37
ATOM     37  C   UNL A   1      37.766  31.875  30.897  1.00  0.00     0.031 A 
ATOM     38  C   UNL A   1      38.210  32.253  32.282  1.00  0.00     0.074 A 
ATOM     39  C   UNL A   1      38.451  30.960  30.186  1.00  0.00     0.049 A 
ATOM     40  N   UNL A   1      39.238  31.819  32.967  1.00  0.00    -0.248 NA
ATOM     41  C   UNL A   1      37.407  33.266  32.987  1.00  0.00     0.031 C 
ATOM     42  C   UNL A   1      38.131  30.538  28.821  1.00  0.00     0.029 A 
ATOM     43  N   UNL A   1      39.560  30.219  30.510  1.00  0.00    -0.354 N 
ATOM     44  C   UNL A   1      39.202  32.502  34.174  1.00  0.00     0.074 A 
ATOM     45  C   UNL A   1      38.092  33.425  34.111  1.00  0.00     0.031 C 
ATOM     46  C   UNL A   1      39.003  29.592  28.437  1.00  0.00     0.029 A 
ATOM     47  C   UNL A   1      39.967  29.369  29.510  1.00  0.00     0.049 A 
ATOM     48  H   UNL A   1      40.021  30.290  31.377  1.00  0.00     0.167 HD
ATOM     49  C   UNL A   1      40.007  32.348  35.251  1.00  0.00     0.037 A 
ATOM     50  C   UNL A   1      41.006  28.512  29.464  1.00  0.00     0.037 A 
ATOM     51  C   UNL A   1      41.092  31.408  35.319  1.00  0.00     0.049 A 
ATOM     52  C   UNL A   1      41.904  28.389  30.666  1.00  0.00     0.074 A 
ATOM     53  C   UNL A   1      41.938  31.148  36.382  1.00  0.00     0.029 A 
ATOM     54  N   UNL A   1      41.481  30.573  34.282  1.00  0.00    -0.354 N 
ATOM     55  N   UNL A   1      41.826  28.999  31.824  1.00  0.00    -0.248 NA
ATOM     56  C   UNL A   1      43.035  27.456  30.558  1.00  0.00     0.031 C 
ATOM     57  C   UNL A   1      42.871  30.192  35.973  1.00  0.00     0.029 A 
ATOM     58  C   UNL A   1      42.571  29.814  34.675  1.00  0.00     0.049 A 
ATOM     59  H   UNL A   1      41.046  30.526  33.400  1.00  0.00     0.167 HD
ATOM     60  C   UNL A   1      42.875  28.507  32.588  1.00  0.00     0.074 A 
ATOM     61  C   UNL A   1      43.565  27.532  31.771  1.00  0.00     0.031 C 
ATOM     62  C   UNL A   1      43.237  28.837  33.852  1.00  0.00     0.037 A 
BRANCH  49  63
ATOM     63  C   UNL A   1      39.735  33.191  36.462  1.00  0.00     0.064 A 
ATOM     64  C   UNL A   1      40.341  34.444  36.630  1.00  0.00     0.173 A 
ATOM     65  C   UNL A   1      38.786  32.787  37.413  1.00  0.00     0.173 A 
ATOM     66  F   UNL A   1      41.264  34.870  35.754  1.00  0.00    -0.203 F 
ATOM     67  C   UNL A   1      40.009  35.262  37.706  1.00  0.00     0.198 A 
ATOM     68  C   UNL A   1      38.435  33.619  38.473  1.00  0.00     0.198 A 
ATOM     69  F   UNL A   1      38.176  31.598  37.298  1.00  0.00    -0.203 F 
ATOM     70  F   UNL A   1      40.617  36.447  37.858  1.00  0.00    -0.200 F 
ATOM     71  C   UNL A   1      39.047  34.855  38.619  1.00  0.00     0.200 A 
ATOM     72  F   UNL A   1      37.495  33.232  39.345  1.00  0.00    -0.200 F 
ATOM     73  F   UNL A   1      38.708  35.656  39.638  1.00  0.00    -0.200 F 
ENDBRANCH  49  63
BRANCH  50  74
ATOM     74  C   UNL A   1      41.238  27.686  28.249  1.00  0.00     0.064 A 
ATOM     75  C   UNL A   1      40.603  26.446  28.090  1.00  0.00     0.173 A 
ATOM     76  C   UNL A   1      42.101  28.110  27.228  1.00  0.00     0.173 A 
ATOM     77  F   UNL A   1      39.784  25.985  29.047  1.00  0.00    -0.203 F 
ATOM     78  C   UNL A   1      40.839  25.654  26.968  1.00  0.00     0.198 A 
ATOM     79  C   UNL A   1      42.311  27.333  26.092  1.00  0.00     0.198 A 
ATOM     80  F   UNL A   1      42.732  29.289  27.329  1.00  0.00    -0.203 F 
ATOM     81  F   UNL A   1      40.257  24.452  26.866  1.00  0.00    -0.200 F 
ATOM     82  C   UNL A   1      41.688  26.100  25.967  1.00  0.00     0.200 A 
ATOM     83  F   UNL A   1      43.119  27.775  25.119  1.00  0.00    -0.200 F 
ATOM     84  F   UNL A   1      41.909  25.341  24.885  1.00  0.00    -0.200 F 
ENDBRANCH  50  74
BRANCH  62  85
ATOM     85  C   UNL A   1      44.419  28.129  34.447  1.00  0.00     0.064 A 
ATOM     86  C   UNL A   1      44.279  26.896  35.101  1.00  0.00     0.173 A 
ATOM     87  C   UNL A   1      45.714  28.644  34.285  1.00  0.00     0.173 A 
ATOM     88  F   UNL A   1      43.061  26.367  35.291  1.00  0.00    -0.203 F 
ATOM     89  C   UNL A   1      45.392  26.213  35.584  1.00  0.00     0.198 A 
ATOM     90  C   UNL A   1      46.826  27.942  34.739  1.00  0.00     0.198 A 
ATOM     91  F   UNL A   1      45.903  29.814  33.656  1.00  0.00    -0.203 F 
ATOM     92  F   UNL A   1      45.232  25.054  36.237  1.00  0.00    -0.200 F 
ATOM     93  C   UNL A   1      46.664  26.730  35.392  1.00  0.00     0.200 A 
ATOM     94  F   UNL A   1      48.056  28.433  34.534  1.00  0.00    -0.200 F 
ATOM     95  F   UNL A   1      47.735  26.059  35.837  1.00  0.00    -0.200 F 
ENDBRANCH  62  85
ENDBRANCH  36  37
ENDBRANCH  28  31
ENDBRANCH  26  27
ENDBRANCH  25  26
ENDBRANCH   1  25
TORSDOF 14
ENDMDL
MODEL 3
REMARK VINA RESULT:     -12.2      2.966      8.337
REMARK SMILES Cc1cc(Cl)c2c(c1)C=C(C(=O)NCCCCCCNC(=O)c1ccc(-c3c4nc(c(-c5c(F)c(F)c(F)c(F)c5F)c5ccc([nH]5)c(-c5c(F)c(F)c(F)c(F)c5F)c5nc(c(-c6c(F)c(F)c(F)c(F)c6F)c6ccc3[nH]6)C=C5)C=C4)cc1)[C@@H](C(F)(F)F)O2
REMARK SMILES IDX 17 1 16 2 15 3 14 4 13 5 11 6 12 7 10 9 1 10 2 11 3 12 8 13
REMARK SMILES IDX 4 14 7 15 5 16 6 17 9 18 91 19 86 20 87 21 88 22 89 23 90 24
REMARK SMILES IDX 18 25 19 26 20 27 21 28 22 30 23 31 24 32 85 33 25 34 84 35
REMARK SMILES IDX 26 36 27 37 28 38 78 39 29 40 83 41 77 42 79 43 30 44 82 45
REMARK SMILES IDX 76 46 75 47 31 49 63 50 43 51 62 52 44 53 47 54 61 55 80 56
REMARK SMILES IDX 45 57 46 58 60 60 81 61 48 62 32 63 33 64 41 65 34 66 35 67
REMARK SMILES IDX 39 68 42 69 36 70 37 71 40 72 38 73 64 74 65 75 73 76 66 77
REMARK SMILES IDX 67 78 71 79 74 80 68 81 69 82 72 83 70 84 49 85 50 86 58 87
REMARK SMILES IDX 51 88 52 89 56 90 59 91 53 92 54 93 57 94 55 95
REMARK H PARENT 13 8 20 29 79 48 47 59
REMARK Flexibility Score: inf
ROOT
ATOM      1  C   UNL A   1      31.151  27.797  25.740  1.00  0.00     0.002 C 
ENDROOT
BRANCH   1   2
ATOM      2  C   UNL A   1      31.097  28.299  24.291  1.00  0.00     0.002 C 
BRANCH   2   3
ATOM      3  C   UNL A   1      30.135  27.532  23.379  1.00  0.00     0.021 C 
BRANCH   3   4
ATOM      4  C   UNL A   1      30.577  26.100  23.099  1.00  0.00     0.116 C 
BRANCH   4   5
ATOM      5  N   UNL A   1      31.561  26.039  22.034  1.00  0.00    -0.352 N 
ATOM      6  C   UNL A   1      32.678  25.327  21.759  1.00  0.00     0.251 C 
ATOM      7  O   UNL A   1      33.219  25.591  20.680  1.00  0.00    -0.270 OA
ATOM      8  H   UNL A   1      31.363  26.690  21.322  1.00  0.00     0.163 HD
BRANCH   6   9
ATOM      9  C   UNL A   1      33.274  24.284  22.647  1.00  0.00     0.067 C 
ATOM     10  C   UNL A   1      32.372  18.412  24.411  1.00  0.00     0.044 C 
ATOM     11  C   UNL A   1      33.064  19.740  24.328  1.00  0.00    -0.049 A 
ATOM     12  C   UNL A   1      34.276  19.933  25.001  1.00  0.00     0.028 A 
ATOM     13  C   UNL A   1      32.542  20.778  23.542  1.00  0.00     0.015 A 
ATOM     14  C   UNL A   1      34.945  21.152  24.905  1.00  0.00     0.084 A 
ATOM     15  C   UNL A   1      33.209  22.004  23.448  1.00  0.00     0.019 A 
ATOM     16  Cl  UNL A   1      36.440  21.342  25.749  1.00  0.00    -0.080 Cl
ATOM     17  C   UNL A   1      34.408  22.190  24.139  1.00  0.00     0.146 A 
ATOM     18  C   UNL A   1      32.692  23.072  22.599  1.00  0.00     0.025 C 
ATOM     19  O   UNL A   1      35.119  23.351  24.053  1.00  0.00    -0.474 OA
ATOM     20  C   UNL A   1      34.425  24.529  23.578  1.00  0.00     0.314 C 
BRANCH  20  21
ATOM     21  C   UNL A   1      34.042  25.408  24.782  1.00  0.00     0.429 C 
ATOM     22  F   UNL A   1      34.961  25.284  25.772  1.00  0.00    -0.167 F 
ATOM     23  F   UNL A   1      33.994  26.726  24.475  1.00  0.00    -0.167 F 
ATOM     24  F   UNL A   1      32.837  25.081  25.300  1.00  0.00    -0.167 F 
ENDBRANCH  20  21
ENDBRANCH   6   9
ENDBRANCH   4   5
ENDBRANCH   3   4
ENDBRANCH   2   3
ENDBRANCH   1   2
BRANCH   1  25
ATOM     25  C   UNL A   1      32.037  28.621  26.681  1.00  0.00     0.021 C 
BRANCH  25  26
ATOM     26  C   UNL A   1      33.025  29.534  25.966  1.00  0.00     0.116 C 
BRANCH  26  27
ATOM     27  N   UNL A   1      32.770  30.935  26.258  1.00  0.00    -0.352 N 
ATOM     28  C   UNL A   1      33.360  31.744  27.193  1.00  0.00     0.251 C 
ATOM     29  H   UNL A   1      32.075  31.362  25.707  1.00  0.00     0.163 HD
ATOM     30  O   UNL A   1      32.869  32.836  27.469  1.00  0.00    -0.269 OA
BRANCH  28  31
ATOM     31  C   UNL A   1      34.585  31.292  27.876  1.00  0.00     0.039 A 
ATOM     32  C   UNL A   1      35.653  32.180  28.008  1.00  0.00     0.014 A 
ATOM     33  C   UNL A   1      34.679  29.989  28.376  1.00  0.00     0.014 A 
ATOM     34  C   UNL A   1      36.804  31.775  28.684  1.00  0.00     0.010 A 
ATOM     35  C   UNL A   1      35.794  29.612  29.116  1.00  0.00     0.010 A 
ATOM     36  C   UNL A   1      36.872  30.497  29.265  1.00  0.00    -0.014 A 
BRANCH  36  37
ATOM     37  C   UNL A   1      38.079  30.062  30.009  1.00  0.00     0.031 A 
ATOM     38  C   UNL A   1      38.326  30.575  31.399  1.00  0.00     0.074 A 
ATOM     39  C   UNL A   1      38.962  29.233  29.420  1.00  0.00     0.049 A 
ATOM     40  N   UNL A   1      39.338  30.345  32.197  1.00  0.00    -0.248 NA
ATOM     41  C   UNL A   1      37.312  31.482  31.965  1.00  0.00     0.031 C 
ATOM     42  C   UNL A   1      38.842  28.697  28.063  1.00  0.00     0.029 A 
ATOM     43  N   UNL A   1      40.135  28.695  29.885  1.00  0.00    -0.354 N 
ATOM     44  C   UNL A   1      39.082  31.074  33.350  1.00  0.00     0.074 A 
ATOM     45  C   UNL A   1      37.854  31.804  33.131  1.00  0.00     0.031 C 
ATOM     46  C   UNL A   1      39.882  27.884  27.817  1.00  0.00     0.029 A 
ATOM     47  C   UNL A   1      40.762  27.872  28.981  1.00  0.00     0.049 A 
ATOM     48  H   UNL A   1      40.495  28.882  30.783  1.00  0.00     0.167 HD
ATOM     49  C   UNL A   1      39.794  31.104  34.500  1.00  0.00     0.037 A 
ATOM     50  C   UNL A   1      41.920  27.190  29.081  1.00  0.00     0.037 A 
ATOM     51  C   UNL A   1      41.000  30.354  34.722  1.00  0.00     0.049 A 
ATOM     52  C   UNL A   1      42.708  27.272  30.362  1.00  0.00     0.074 A 
ATOM     53  C   UNL A   1      41.771  30.285  35.868  1.00  0.00     0.029 A 
ATOM     54  N   UNL A   1      41.610  29.540  33.779  1.00  0.00    -0.354 N 
ATOM     55  N   UNL A   1      42.426  27.920  31.467  1.00  0.00    -0.248 NA
ATOM     56  C   UNL A   1      43.974  26.527  30.412  1.00  0.00     0.031 C 
ATOM     57  C   UNL A   1      42.874  29.471  35.605  1.00  0.00     0.029 A 
ATOM     58  C   UNL A   1      42.761  28.985  34.312  1.00  0.00     0.049 A 
ATOM     59  H   UNL A   1      41.274  29.380  32.867  1.00  0.00     0.167 HD
ATOM     60  C   UNL A   1      43.461  27.639  32.349  1.00  0.00     0.074 A 
ATOM     61  C   UNL A   1      44.368  26.748  31.659  1.00  0.00     0.031 C 
ATOM     62  C   UNL A   1      43.646  28.087  33.614  1.00  0.00     0.037 A 
BRANCH  49  63
ATOM     63  C   UNL A   1      39.282  31.952  35.626  1.00  0.00     0.064 A 
ATOM     64  C   UNL A   1      38.399  31.436  36.586  1.00  0.00     0.173 A 
ATOM     65  C   UNL A   1      39.755  33.261  35.805  1.00  0.00     0.173 A 
ATOM     66  F   UNL A   1      37.910  30.194  36.453  1.00  0.00    -0.203 F 
ATOM     67  C   UNL A   1      38.007  32.198  37.682  1.00  0.00     0.198 A 
ATOM     68  C   UNL A   1      39.382  34.012  36.917  1.00  0.00     0.198 A 
ATOM     69  F   UNL A   1      40.603  33.802  34.917  1.00  0.00    -0.203 F 
ATOM     70  F   UNL A   1      37.145  31.692  38.574  1.00  0.00    -0.200 F 
ATOM     71  C   UNL A   1      38.509  33.480  37.854  1.00  0.00     0.200 A 
ATOM     72  F   UNL A   1      39.880  35.243  37.091  1.00  0.00    -0.200 F 
ATOM     73  F   UNL A   1      38.152  34.202  38.925  1.00  0.00    -0.200 F 
ENDBRANCH  49  63
BRANCH  50  74
ATOM     74  C   UNL A   1      42.392  26.352  27.947  1.00  0.00     0.064 A 
ATOM     75  C   UNL A   1      41.967  25.022  27.809  1.00  0.00     0.173 A 
ATOM     76  C   UNL A   1      43.279  26.853  26.983  1.00  0.00     0.173 A 
ATOM     77  F   UNL A   1      41.135  24.488  28.715  1.00  0.00    -0.203 F 
ATOM     78  C   UNL A   1      42.428  24.222  26.766  1.00  0.00     0.198 A 
ATOM     79  C   UNL A   1      43.714  26.063  25.922  1.00  0.00     0.198 A 
ATOM     80  F   UNL A   1      43.714  28.119  27.066  1.00  0.00    -0.203 F 
ATOM     81  F   UNL A   1      42.044  22.941  26.687  1.00  0.00    -0.200 F 
ATOM     82  C   UNL A   1      43.296  24.745  25.819  1.00  0.00     0.200 A 
ATOM     83  F   UNL A   1      44.539  26.577  25.000  1.00  0.00    -0.200 F 
ATOM     84  F   UNL A   1      43.733  23.977  24.812  1.00  0.00    -0.200 F 
ENDBRANCH  50  74
BRANCH  62  85
ATOM     85  C   UNL A   1      44.860  27.606  34.354  1.00  0.00     0.064 A 
ATOM     86  C   UNL A   1      44.842  26.415  35.095  1.00  0.00     0.173 A 
ATOM     87  C   UNL A   1      46.077  28.296  34.249  1.00  0.00     0.173 A 
ATOM     88  F   UNL A   1      43.700  25.725  35.234  1.00  0.00    -0.203 F 
ATOM     89  C   UNL A   1      45.995  25.942  35.716  1.00  0.00     0.198 A 
ATOM     90  C   UNL A   1      47.235  27.802  34.843  1.00  0.00     0.198 A 
ATOM     91  F   UNL A   1      46.151  29.435  33.542  1.00  0.00    -0.203 F 
ATOM     92  F   UNL A   1      45.946  24.821  36.448  1.00  0.00    -0.200 F 
ATOM     93  C   UNL A   1      47.191  26.628  35.579  1.00  0.00     0.200 A 
ATOM     94  F   UNL A   1      48.395  28.456  34.692  1.00  0.00    -0.200 F 
ATOM     95  F   UNL A   1      48.305  26.158  36.158  1.00  0.00    -0.200 F 
ENDBRANCH  62  85
ENDBRANCH  36  37
ENDBRANCH  28  31
ENDBRANCH  26  27
ENDBRANCH  25  26
ENDBRANCH   1  25
TORSDOF 14
ENDMDL
