MODEL 1
REMARK VINA RESULT:     -11.6      0.000      0.000
REMARK SMILES CCOc1oc(C[C@H]2CCCCO2)nc1C(=O)NCCCCCCNC(=O)c1ccc(-c2c3nc(c(-c4c(F)c(F)c(F)c(F)c4F)c4ccc([nH]4)c(-c4c(F)c(F)c(F)c(F)c4F)c4nc(c(-c5c(F)c(F)c(F)c(F)c5F)c5ccc2[nH]5)C=C4)C=C3)cc1
REMARK SMILES IDX 21 1 20 2 19 3 18 4 16 5 17 6 15 8 4 9 5 10 6 11 14 12 3 13
REMARK SMILES IDX 2 14 1 15 7 16 8 17 9 18 13 19 10 20 12 21 11 22 22 23 23 24
REMARK SMILES IDX 24 25 25 26 26 27 27 29 28 30 29 31 90 32 30 33 89 34 31 35
REMARK SMILES IDX 32 36 33 37 83 38 34 39 88 40 82 41 84 42 35 43 87 44 81 45
REMARK SMILES IDX 80 46 36 48 68 49 48 50 67 51 49 52 52 53 66 54 85 55 50 56
REMARK SMILES IDX 51 57 65 59 86 60 53 61 37 62 38 63 46 64 39 65 40 66 44 67
REMARK SMILES IDX 47 68 41 69 42 70 45 71 43 72 69 73 70 74 78 75 71 76 72 77
REMARK SMILES IDX 76 78 79 79 73 80 74 81 77 82 75 83 54 84 55 85 63 86 56 87
REMARK SMILES IDX 57 88 61 89 64 90 58 91 59 92 62 93 60 94
REMARK H PARENT 18 7 25 28 84 47 52 58
REMARK Flexibility Score: inf
ROOT
ATOM      1  C   UNL A   1      32.006  29.633  26.846  1.00  0.00     0.002 C 
ENDROOT
BRANCH   1   2
ATOM      2  C   UNL A   1      31.886  28.225  26.259  1.00  0.00     0.021 C 
BRANCH   2   3
ATOM      3  C   UNL A   1      33.184  27.612  25.738  1.00  0.00     0.116 C 
BRANCH   3   4
ATOM      4  N   UNL A   1      33.731  28.329  24.603  1.00  0.00    -0.350 N 
ATOM      5  C   UNL A   1      33.721  28.023  23.262  1.00  0.00     0.277 C 
ATOM      6  O   UNL A   1      34.250  28.827  22.495  1.00  0.00    -0.267 OA
ATOM      7  H   UNL A   1      34.185  29.172  24.830  1.00  0.00     0.163 HD
BRANCH   5   8
ATOM      8  C   UNL A   1      33.133  26.773  22.808  1.00  0.00     0.212 A 
ATOM      9  C   UNL A   1      31.881  26.613  22.251  1.00  0.00     0.318 A 
ATOM     10  O   UNL A   1      31.709  25.291  21.943  1.00  0.00    -0.409 OA
ATOM     11  C   UNL A   1      32.866  24.700  22.366  1.00  0.00     0.202 A 
ATOM     12  N   UNL A   1      33.737  25.529  22.895  1.00  0.00    -0.204 NA
BRANCH   9  13
ATOM     13  O   UNL A   1      30.833  27.387  21.997  1.00  0.00    -0.464 OA
BRANCH  13  14
ATOM     14  C   UNL A   1      30.110  27.817  23.150  1.00  0.00     0.230 C 
ATOM     15  C   UNL A   1      29.307  26.682  23.763  1.00  0.00     0.049 C 
ENDBRANCH  13  14
ENDBRANCH   9  13
BRANCH  11  16
ATOM     16  C   UNL A   1      33.031  23.242  22.153  1.00  0.00     0.129 C 
BRANCH  16  17
ATOM     17  C   UNL A   1      33.012  22.435  23.453  1.00  0.00     0.127 C 
ATOM     18  C   UNL A   1      32.352  21.064  23.262  1.00  0.00     0.033 C 
ATOM     19  O   UNL A   1      34.382  22.258  23.860  1.00  0.00    -0.378 OA
ATOM     20  C   UNL A   1      32.488  20.206  24.515  1.00  0.00     0.005 C 
ATOM     21  C   UNL A   1      34.498  21.568  25.104  1.00  0.00     0.160 C 
ATOM     22  C   UNL A   1      33.937  20.159  24.980  1.00  0.00     0.029 C 
ENDBRANCH  16  17
ENDBRANCH  11  16
ENDBRANCH   5   8
ENDBRANCH   3   4
ENDBRANCH   2   3
ENDBRANCH   1   2
BRANCH   1  23
ATOM     23  C   UNL A   1      31.575  30.779  25.927  1.00  0.00     0.002 C 
BRANCH  23  24
ATOM     24  C   UNL A   1      31.330  32.126  26.609  1.00  0.00     0.021 C 
BRANCH  24  25
ATOM     25  C   UNL A   1      32.564  32.775  27.220  1.00  0.00     0.116 C 
BRANCH  25  26
ATOM     26  N   UNL A   1      32.335  34.161  27.589  1.00  0.00    -0.352 N 
ATOM     27  C   UNL A   1      32.952  34.915  28.555  1.00  0.00     0.251 C 
ATOM     28  H   UNL A   1      31.638  34.626  27.071  1.00  0.00     0.163 HD
ATOM     29  O   UNL A   1      32.516  36.023  28.849  1.00  0.00    -0.269 OA
BRANCH  27  30
ATOM     30  C   UNL A   1      34.134  34.379  29.265  1.00  0.00     0.039 A 
ATOM     31  C   UNL A   1      33.946  33.713  30.479  1.00  0.00     0.014 A 
ATOM     32  C   UNL A   1      35.421  34.538  28.742  1.00  0.00     0.014 A 
ATOM     33  C   UNL A   1      35.043  33.157  31.141  1.00  0.00     0.010 A 
ATOM     34  C   UNL A   1      36.503  33.921  29.364  1.00  0.00     0.010 A 
ATOM     35  C   UNL A   1      36.326  33.231  30.574  1.00  0.00    -0.014 A 
BRANCH  35  36
ATOM     36  C   UNL A   1      37.498  32.602  31.235  1.00  0.00     0.031 A 
ATOM     37  C   UNL A   1      38.229  31.476  30.560  1.00  0.00     0.074 A 
ATOM     38  C   UNL A   1      37.862  33.002  32.469  1.00  0.00     0.049 A 
ATOM     39  N   UNL A   1      39.222  30.748  31.005  1.00  0.00    -0.248 NA
ATOM     40  C   UNL A   1      37.763  31.099  29.217  1.00  0.00     0.031 C 
ATOM     41  C   UNL A   1      37.207  34.054  33.245  1.00  0.00     0.029 A 
ATOM     42  N   UNL A   1      38.869  32.561  33.292  1.00  0.00    -0.354 N 
ATOM     43  C   UNL A   1      39.488  29.820  30.006  1.00  0.00     0.074 A 
ATOM     44  C   UNL A   1      38.518  30.042  28.954  1.00  0.00     0.031 C 
ATOM     45  C   UNL A   1      37.838  34.190  34.423  1.00  0.00     0.029 A 
ATOM     46  C   UNL A   1      38.918  33.211  34.500  1.00  0.00     0.049 A 
ATOM     47  H   UNL A   1      39.497  31.846  33.038  1.00  0.00     0.167 HD
ATOM     48  C   UNL A   1      40.465  28.884  29.960  1.00  0.00     0.037 A 
ATOM     49  C   UNL A   1      39.736  33.031  35.555  1.00  0.00     0.037 A 
ATOM     50  C   UNL A   1      41.444  28.684  30.996  1.00  0.00     0.049 A 
ATOM     51  C   UNL A   1      40.811  31.981  35.480  1.00  0.00     0.074 A 
ATOM     52  C   UNL A   1      42.511  27.803  31.018  1.00  0.00     0.029 A 
ATOM     53  N   UNL A   1      41.474  29.378  32.197  1.00  0.00    -0.354 N 
ATOM     54  N   UNL A   1      41.094  31.154  34.502  1.00  0.00    -0.248 NA
ATOM     55  C   UNL A   1      41.686  31.844  36.653  1.00  0.00     0.031 C 
ATOM     56  C   UNL A   1      43.159  27.931  32.250  1.00  0.00     0.029 A 
ATOM     57  C   UNL A   1      42.529  28.928  32.976  1.00  0.00     0.049 A 
ATOM     58  H   UNL A   1      40.839  30.084  32.458  1.00  0.00     0.167 HD
ATOM     59  C   UNL A   1      42.194  30.423  34.928  1.00  0.00     0.074 A 
ATOM     60  C   UNL A   1      42.535  30.911  36.247  1.00  0.00     0.031 C 
ATOM     61  C   UNL A   1      42.861  29.434  34.283  1.00  0.00     0.037 A 
BRANCH  48  62
ATOM     62  C   UNL A   1      40.526  28.004  28.745  1.00  0.00     0.064 A 
ATOM     63  C   UNL A   1      41.269  28.365  27.611  1.00  0.00     0.173 A 
ATOM     64  C   UNL A   1      39.863  26.768  28.728  1.00  0.00     0.173 A 
ATOM     65  F   UNL A   1      41.913  29.541  27.572  1.00  0.00    -0.203 F 
ATOM     66  C   UNL A   1      41.321  27.535  26.493  1.00  0.00     0.198 A 
ATOM     67  C   UNL A   1      39.942  25.926  27.620  1.00  0.00     0.198 A 
ATOM     68  F   UNL A   1      39.143  26.370  29.787  1.00  0.00    -0.203 F 
ATOM     69  F   UNL A   1      41.996  27.925  25.402  1.00  0.00    -0.200 F 
ATOM     70  C   UNL A   1      40.664  26.315  26.502  1.00  0.00     0.200 A 
ATOM     71  F   UNL A   1      39.318  24.741  27.634  1.00  0.00    -0.200 F 
ATOM     72  F   UNL A   1      40.721  25.514  25.428  1.00  0.00    -0.200 F 
ENDBRANCH  48  62
BRANCH  49  73
ATOM     73  C   UNL A   1      39.586  33.882  36.764  1.00  0.00     0.064 A 
ATOM     74  C   UNL A   1      40.207  35.136  36.842  1.00  0.00     0.173 A 
ATOM     75  C   UNL A   1      38.827  33.460  37.865  1.00  0.00     0.173 A 
ATOM     76  F   UNL A   1      40.961  35.574  35.823  1.00  0.00    -0.203 F 
ATOM     77  C   UNL A   1      40.092  35.927  37.983  1.00  0.00     0.198 A 
ATOM     78  C   UNL A   1      38.689  34.264  38.995  1.00  0.00     0.198 A 
ATOM     79  F   UNL A   1      38.209  32.270  37.839  1.00  0.00    -0.203 F 
ATOM     80  F   UNL A   1      40.735  37.101  38.050  1.00  0.00    -0.200 F 
ATOM     81  C   UNL A   1      39.329  35.493  39.057  1.00  0.00     0.200 A 
ATOM     82  F   UNL A   1      37.940  33.847  40.024  1.00  0.00    -0.200 F 
ATOM     83  F   UNL A   1      39.217  36.254  40.153  1.00  0.00    -0.200 F 
ENDBRANCH  49  73
BRANCH  61  84
ATOM     84  C   UNL A   1      44.052  28.841  34.978  1.00  0.00     0.064 A 
ATOM     85  C   UNL A   1      45.340  29.373  34.819  1.00  0.00     0.173 A 
ATOM     86  C   UNL A   1      43.894  27.751  35.849  1.00  0.00     0.173 A 
ATOM     87  F   UNL A   1      45.545  30.403  33.987  1.00  0.00    -0.203 F 
ATOM     88  C   UNL A   1      46.429  28.820  35.487  1.00  0.00     0.198 A 
ATOM     89  C   UNL A   1      44.979  27.221  36.538  1.00  0.00     0.198 A 
ATOM     90  F   UNL A   1      42.681  27.210  36.041  1.00  0.00    -0.203 F 
ATOM     91  F   UNL A   1      47.658  29.315  35.285  1.00  0.00    -0.200 F 
ATOM     92  C   UNL A   1      46.247  27.750  36.353  1.00  0.00     0.200 A 
ATOM     93  F   UNL A   1      44.799  26.197  37.384  1.00  0.00    -0.200 F 
ATOM     94  F   UNL A   1      47.296  27.226  37.001  1.00  0.00    -0.200 F 
ENDBRANCH  61  84
ENDBRANCH  35  36
ENDBRANCH  27  30
ENDBRANCH  25  26
ENDBRANCH  24  25
ENDBRANCH  23  24
ENDBRANCH   1  23
TORSDOF 17
ENDMDL
MODEL 2
REMARK VINA RESULT:     -11.6      5.868     11.045
REMARK SMILES CCOc1oc(C[C@H]2CCCCO2)nc1C(=O)NCCCCCCNC(=O)c1ccc(-c2c3nc(c(-c4c(F)c(F)c(F)c(F)c4F)c4ccc([nH]4)c(-c4c(F)c(F)c(F)c(F)c4F)c4nc(c(-c5c(F)c(F)c(F)c(F)c5F)c5ccc2[nH]5)C=C4)C=C3)cc1
REMARK SMILES IDX 21 1 20 2 19 3 18 4 16 5 17 6 15 8 4 9 5 10 6 11 14 12 3 13
REMARK SMILES IDX 2 14 1 15 7 16 8 17 9 18 13 19 10 20 12 21 11 22 22 23 23 24
REMARK SMILES IDX 24 25 25 26 26 27 27 29 28 30 29 31 90 32 30 33 89 34 31 35
REMARK SMILES IDX 32 36 33 37 83 38 34 39 88 40 82 41 84 42 35 43 87 44 81 45
REMARK SMILES IDX 80 46 36 48 68 49 48 50 67 51 49 52 52 53 66 54 85 55 50 56
REMARK SMILES IDX 51 57 65 59 86 60 53 61 37 62 38 63 46 64 39 65 40 66 44 67
REMARK SMILES IDX 47 68 41 69 42 70 45 71 43 72 69 73 70 74 78 75 71 76 72 77
REMARK SMILES IDX 76 78 79 79 73 80 74 81 77 82 75 83 54 84 55 85 63 86 56 87
REMARK SMILES IDX 57 88 61 89 64 90 58 91 59 92 62 93 60 94
REMARK H PARENT 18 7 25 28 84 47 52 58
REMARK Flexibility Score: inf
ROOT
ATOM      1  C   UNL A   1      37.520  21.935  25.101  1.00  0.00     0.002 C 
ENDROOT
BRANCH   1   2
ATOM      2  C   UNL A   1      36.707  23.010  24.377  1.00  0.00     0.021 C 
BRANCH   2   3
ATOM      3  C   UNL A   1      35.692  23.762  25.235  1.00  0.00     0.116 C 
BRANCH   3   4
ATOM      4  N   UNL A   1      35.438  23.115  26.507  1.00  0.00    -0.350 N 
ATOM      5  C   UNL A   1      34.514  22.158  26.855  1.00  0.00     0.277 C 
ATOM      6  O   UNL A   1      34.524  21.760  28.020  1.00  0.00    -0.267 OA
ATOM      7  H   UNL A   1      36.022  23.410  27.242  1.00  0.00     0.163 HD
BRANCH   5   8
ATOM      8  C   UNL A   1      33.554  21.686  25.871  1.00  0.00     0.212 A 
ATOM      9  C   UNL A   1      32.316  22.234  25.606  1.00  0.00     0.318 A 
ATOM     10  O   UNL A   1      31.727  21.513  24.604  1.00  0.00    -0.409 OA
ATOM     11  C   UNL A   1      32.634  20.528  24.330  1.00  0.00     0.202 A 
ATOM     12  N   UNL A   1      33.726  20.578  25.057  1.00  0.00    -0.204 NA
BRANCH   9  13
ATOM     13  O   UNL A   1      31.572  23.217  26.100  1.00  0.00    -0.464 OA
BRANCH  13  14
ATOM     14  C   UNL A   1      31.533  24.399  25.300  1.00  0.00     0.230 C 
ATOM     15  C   UNL A   1      30.389  25.313  25.706  1.00  0.00     0.049 C 
ENDBRANCH  13  14
ENDBRANCH   9  13
BRANCH  11  16
ATOM     16  C   UNL A   1      32.320  19.565  23.247  1.00  0.00     0.129 C 
BRANCH  16  17
ATOM     17  C   UNL A   1      32.509  18.105  23.664  1.00  0.00     0.127 C 
ATOM     18  C   UNL A   1      33.953  17.634  23.452  1.00  0.00     0.033 C 
ATOM     19  O   UNL A   1      32.174  18.018  25.062  1.00  0.00    -0.378 OA
ATOM     20  C   UNL A   1      34.169  16.237  24.023  1.00  0.00     0.005 C 
ATOM     21  C   UNL A   1      32.250  16.682  25.560  1.00  0.00     0.160 C 
ATOM     22  C   UNL A   1      33.677  16.163  25.462  1.00  0.00     0.029 C 
ENDBRANCH  16  17
ENDBRANCH  11  16
ENDBRANCH   5   8
ENDBRANCH   3   4
ENDBRANCH   2   3
ENDBRANCH   1   2
BRANCH   1  23
ATOM     23  C   UNL A   1      37.147  20.485  24.780  1.00  0.00     0.002 C 
BRANCH  23  24
ATOM     24  C   UNL A   1      38.222  19.438  25.074  1.00  0.00     0.021 C 
BRANCH  24  25
ATOM     25  C   UNL A   1      39.456  19.963  25.797  1.00  0.00     0.116 C 
BRANCH  25  26
ATOM     26  N   UNL A   1      40.495  18.957  25.919  1.00  0.00    -0.352 N 
ATOM     27  C   UNL A   1      41.843  19.122  26.114  1.00  0.00     0.251 C 
ATOM     28  H   UNL A   1      40.190  18.023  25.853  1.00  0.00     0.163 HD
ATOM     29  O   UNL A   1      42.604  18.165  26.023  1.00  0.00    -0.269 OA
BRANCH  27  30
ATOM     30  C   UNL A   1      42.386  20.466  26.411  1.00  0.00     0.039 A 
ATOM     31  C   UNL A   1      42.871  21.245  25.357  1.00  0.00     0.014 A 
ATOM     32  C   UNL A   1      42.424  20.954  27.721  1.00  0.00     0.014 A 
ATOM     33  C   UNL A   1      43.342  22.535  25.609  1.00  0.00     0.010 A 
ATOM     34  C   UNL A   1      42.826  22.265  27.961  1.00  0.00     0.010 A 
ATOM     35  C   UNL A   1      43.295  23.066  26.909  1.00  0.00    -0.014 A 
BRANCH  35  36
ATOM     36  C   UNL A   1      43.743  24.454  27.191  1.00  0.00     0.031 A 
ATOM     37  C   UNL A   1      42.764  25.472  27.704  1.00  0.00     0.074 A 
ATOM     38  C   UNL A   1      45.014  24.812  26.923  1.00  0.00     0.049 A 
ATOM     39  N   UNL A   1      42.941  26.748  27.937  1.00  0.00    -0.248 NA
ATOM     40  C   UNL A   1      41.397  24.998  27.966  1.00  0.00     0.031 C 
ATOM     41  C   UNL A   1      46.046  23.929  26.381  1.00  0.00     0.029 A 
ATOM     42  N   UNL A   1      45.650  26.022  27.058  1.00  0.00    -0.354 N 
ATOM     43  C   UNL A   1      41.707  27.230  28.355  1.00  0.00     0.074 A 
ATOM     44  C   UNL A   1      40.778  26.122  28.295  1.00  0.00     0.031 C 
ATOM     45  C   UNL A   1      47.190  24.619  26.248  1.00  0.00     0.029 A 
ATOM     46  C   UNL A   1      46.963  26.001  26.659  1.00  0.00     0.049 A 
ATOM     47  H   UNL A   1      45.206  26.827  27.410  1.00  0.00     0.167 HD
ATOM     48  C   UNL A   1      41.384  28.477  28.773  1.00  0.00     0.037 A 
ATOM     49  C   UNL A   1      47.878  26.989  26.619  1.00  0.00     0.037 A 
ATOM     50  C   UNL A   1      42.318  29.570  28.857  1.00  0.00     0.049 A 
ATOM     51  C   UNL A   1      47.493  28.366  27.085  1.00  0.00     0.074 A 
ATOM     52  C   UNL A   1      42.103  30.854  29.325  1.00  0.00     0.029 A 
ATOM     53  N   UNL A   1      43.646  29.504  28.463  1.00  0.00    -0.354 N 
ATOM     54  N   UNL A   1      46.340  28.794  27.541  1.00  0.00    -0.248 NA
ATOM     55  C   UNL A   1      48.539  29.399  27.038  1.00  0.00     0.031 C 
ATOM     56  C   UNL A   1      43.289  31.579  29.171  1.00  0.00     0.029 A 
ATOM     57  C   UNL A   1      44.257  30.733  28.657  1.00  0.00     0.049 A 
ATOM     58  H   UNL A   1      44.089  28.703  28.100  1.00  0.00     0.167 HD
ATOM     59  C   UNL A   1      46.530  30.131  27.862  1.00  0.00     0.074 A 
ATOM     60  C   UNL A   1      47.911  30.442  27.561  1.00  0.00     0.031 C 
ATOM     61  C   UNL A   1      45.637  31.021  28.362  1.00  0.00     0.037 A 
BRANCH  48  62
ATOM     62  C   UNL A   1      39.959  28.726  29.175  1.00  0.00     0.064 A 
ATOM     63  C   UNL A   1      39.007  29.201  28.260  1.00  0.00     0.173 A 
ATOM     64  C   UNL A   1      39.531  28.453  30.483  1.00  0.00     0.173 A 
ATOM     65  F   UNL A   1      39.367  29.488  27.001  1.00  0.00    -0.203 F 
ATOM     66  C   UNL A   1      37.687  29.421  28.647  1.00  0.00     0.198 A 
ATOM     67  C   UNL A   1      38.203  28.645  30.859  1.00  0.00     0.198 A 
ATOM     68  F   UNL A   1      40.397  27.992  31.397  1.00  0.00    -0.203 F 
ATOM     69  F   UNL A   1      36.808  29.923  27.769  1.00  0.00    -0.200 F 
ATOM     70  C   UNL A   1      37.286  29.136  29.943  1.00  0.00     0.200 A 
ATOM     71  F   UNL A   1      37.813  28.356  32.108  1.00  0.00    -0.200 F 
ATOM     72  F   UNL A   1      36.014  29.342  30.311  1.00  0.00    -0.200 F 
ENDBRANCH  48  62
BRANCH  49  73
ATOM     73  C   UNL A   1      49.257  26.704  26.143  1.00  0.00     0.064 A 
ATOM     74  C   UNL A   1      49.622  26.944  24.812  1.00  0.00     0.173 A 
ATOM     75  C   UNL A   1      50.234  26.181  27.003  1.00  0.00     0.173 A 
ATOM     76  F   UNL A   1      48.716  27.423  23.945  1.00  0.00    -0.203 F 
ATOM     77  C   UNL A   1      50.905  26.655  24.352  1.00  0.00     0.198 A 
ATOM     78  C   UNL A   1      51.526  25.918  26.550  1.00  0.00     0.198 A 
ATOM     79  F   UNL A   1      49.937  25.936  28.287  1.00  0.00    -0.203 F 
ATOM     80  F   UNL A   1      51.213  26.851  23.063  1.00  0.00    -0.200 F 
ATOM     81  C   UNL A   1      51.857  26.147  25.223  1.00  0.00     0.200 A 
ATOM     82  F   UNL A   1      52.447  25.441  27.397  1.00  0.00    -0.200 F 
ATOM     83  F   UNL A   1      53.092  25.870  24.782  1.00  0.00    -0.200 F 
ENDBRANCH  49  73
BRANCH  61  84
ATOM     84  C   UNL A   1      46.137  32.407  28.652  1.00  0.00     0.064 A 
ATOM     85  C   UNL A   1      46.702  32.744  29.891  1.00  0.00     0.173 A 
ATOM     86  C   UNL A   1      46.089  33.399  27.660  1.00  0.00     0.173 A 
ATOM     87  F   UNL A   1      46.757  31.835  30.876  1.00  0.00    -0.203 F 
ATOM     88  C   UNL A   1      47.177  34.029  30.134  1.00  0.00     0.198 A 
ATOM     89  C   UNL A   1      46.592  34.674  27.896  1.00  0.00     0.198 A 
ATOM     90  F   UNL A   1      45.565  33.126  26.455  1.00  0.00    -0.203 F 
ATOM     91  F   UNL A   1      47.670  34.342  31.340  1.00  0.00    -0.200 F 
ATOM     92  C   UNL A   1      47.130  34.991  29.135  1.00  0.00     0.200 A 
ATOM     93  F   UNL A   1      46.559  35.597  26.925  1.00  0.00    -0.200 F 
ATOM     94  F   UNL A   1      47.596  36.225  29.369  1.00  0.00    -0.200 F 
ENDBRANCH  61  84
ENDBRANCH  35  36
ENDBRANCH  27  30
ENDBRANCH  25  26
ENDBRANCH  24  25
ENDBRANCH  23  24
ENDBRANCH   1  23
TORSDOF 17
ENDMDL
MODEL 3
REMARK VINA RESULT:     -11.4      3.093      8.592
REMARK SMILES CCOc1oc(C[C@H]2CCCCO2)nc1C(=O)NCCCCCCNC(=O)c1ccc(-c2c3nc(c(-c4c(F)c(F)c(F)c(F)c4F)c4ccc([nH]4)c(-c4c(F)c(F)c(F)c(F)c4F)c4nc(c(-c5c(F)c(F)c(F)c(F)c5F)c5ccc2[nH]5)C=C4)C=C3)cc1
REMARK SMILES IDX 21 1 20 2 19 3 18 4 16 5 17 6 15 8 4 9 5 10 6 11 14 12 3 13
REMARK SMILES IDX 2 14 1 15 7 16 8 17 9 18 13 19 10 20 12 21 11 22 22 23 23 24
REMARK SMILES IDX 24 25 25 26 26 27 27 29 28 30 29 31 90 32 30 33 89 34 31 35
REMARK SMILES IDX 32 36 33 37 83 38 34 39 88 40 82 41 84 42 35 43 87 44 81 45
REMARK SMILES IDX 80 46 36 48 68 49 48 50 67 51 49 52 52 53 66 54 85 55 50 56
REMARK SMILES IDX 51 57 65 59 86 60 53 61 37 62 38 63 46 64 39 65 40 66 44 67
REMARK SMILES IDX 47 68 41 69 42 70 45 71 43 72 69 73 70 74 78 75 71 76 72 77
REMARK SMILES IDX 76 78 79 79 73 80 74 81 77 82 75 83 54 84 55 85 63 86 56 87
REMARK SMILES IDX 57 88 61 89 64 90 58 91 59 92 62 93 60 94
REMARK H PARENT 18 7 25 28 84 47 52 58
REMARK Flexibility Score: inf
ROOT
ATOM      1  C   UNL A   1      31.033  27.203  25.357  1.00  0.00     0.002 C 
ENDROOT
BRANCH   1   2
ATOM      2  C   UNL A   1      30.351  25.862  25.634  1.00  0.00     0.021 C 
BRANCH   2   3
ATOM      3  C   UNL A   1      31.223  24.623  25.439  1.00  0.00     0.116 C 
BRANCH   3   4
ATOM      4  N   UNL A   1      31.627  24.014  26.691  1.00  0.00    -0.350 N 
ATOM      5  C   UNL A   1      32.304  22.843  26.939  1.00  0.00     0.277 C 
ATOM      6  O   UNL A   1      32.538  22.564  28.115  1.00  0.00    -0.267 OA
ATOM      7  H   UNL A   1      31.373  24.522  27.496  1.00  0.00     0.163 HD
BRANCH   5   8
ATOM      8  C   UNL A   1      32.679  21.975  25.835  1.00  0.00     0.212 A 
ATOM      9  C   UNL A   1      33.940  21.842  25.291  1.00  0.00     0.318 A 
ATOM     10  O   UNL A   1      33.883  20.918  24.284  1.00  0.00    -0.409 OA
ATOM     11  C   UNL A   1      32.566  20.556  24.242  1.00  0.00     0.202 A 
ATOM     12  N   UNL A   1      31.809  21.159  25.130  1.00  0.00    -0.204 NA
BRANCH   9  13
ATOM     13  O   UNL A   1      35.130  22.403  25.469  1.00  0.00    -0.464 OA
BRANCH  13  14
ATOM     14  C   UNL A   1      35.491  23.370  24.483  1.00  0.00     0.230 C 
ATOM     15  C   UNL A   1      36.650  22.891  23.625  1.00  0.00     0.049 C 
ENDBRANCH  13  14
ENDBRANCH   9  13
BRANCH  11  16
ATOM     16  C   UNL A   1      32.150  19.524  23.262  1.00  0.00     0.129 C 
BRANCH  16  17
ATOM     17  C   UNL A   1      32.425  18.095  23.734  1.00  0.00     0.127 C 
ATOM     18  C   UNL A   1      33.798  17.595  23.268  1.00  0.00     0.033 C 
ATOM     19  O   UNL A   1      32.382  18.110  25.174  1.00  0.00    -0.378 OA
ATOM     20  C   UNL A   1      34.131  16.239  23.881  1.00  0.00     0.005 C 
ATOM     21  C   UNL A   1      32.563  16.813  25.740  1.00  0.00     0.160 C 
ATOM     22  C   UNL A   1      33.941  16.273  25.392  1.00  0.00     0.029 C 
ENDBRANCH  16  17
ENDBRANCH  11  16
ENDBRANCH   5   8
ENDBRANCH   3   4
ENDBRANCH   2   3
ENDBRANCH   1   2
BRANCH   1  23
ATOM     23  C   UNL A   1      31.500  27.983  26.589  1.00  0.00     0.002 C 
BRANCH  23  24
ATOM     24  C   UNL A   1      32.977  27.831  26.955  1.00  0.00     0.021 C 
BRANCH  24  25
ATOM     25  C   UNL A   1      33.930  28.741  26.192  1.00  0.00     0.116 C 
BRANCH  25  26
ATOM     26  N   UNL A   1      33.803  30.132  26.589  1.00  0.00    -0.352 N 
ATOM     27  C   UNL A   1      34.569  30.856  27.468  1.00  0.00     0.251 C 
ATOM     28  H   UNL A   1      33.063  30.626  26.169  1.00  0.00     0.163 HD
ATOM     29  O   UNL A   1      34.217  31.978  27.817  1.00  0.00    -0.269 OA
BRANCH  27  30
ATOM     30  C   UNL A   1      35.813  30.273  28.016  1.00  0.00     0.039 A 
ATOM     31  C   UNL A   1      36.984  30.347  27.256  1.00  0.00     0.014 A 
ATOM     32  C   UNL A   1      35.826  29.649  29.267  1.00  0.00     0.014 A 
ATOM     33  C   UNL A   1      38.179  29.846  27.775  1.00  0.00     0.010 A 
ATOM     34  C   UNL A   1      37.030  29.216  29.813  1.00  0.00     0.010 A 
ATOM     35  C   UNL A   1      38.218  29.304  29.070  1.00  0.00    -0.014 A 
BRANCH  35  36
ATOM     36  C   UNL A   1      39.488  28.812  29.661  1.00  0.00     0.031 A 
ATOM     37  C   UNL A   1      40.126  29.556  30.801  1.00  0.00     0.074 A 
ATOM     38  C   UNL A   1      40.099  27.735  29.130  1.00  0.00     0.049 A 
ATOM     39  N   UNL A   1      41.268  29.333  31.401  1.00  0.00    -0.248 NA
ATOM     40  C   UNL A   1      39.395  30.722  31.318  1.00  0.00     0.031 C 
ATOM     41  C   UNL A   1      39.604  26.955  27.996  1.00  0.00     0.029 A 
ATOM     42  N   UNL A   1      41.279  27.118  29.468  1.00  0.00    -0.354 N 
ATOM     43  C   UNL A   1      41.399  30.337  32.351  1.00  0.00     0.074 A 
ATOM     44  C   UNL A   1      40.245  31.201  32.214  1.00  0.00     0.031 C 
ATOM     45  C   UNL A   1      40.462  25.954  27.743  1.00  0.00     0.029 A 
ATOM     46  C   UNL A   1      41.585  26.043  28.671  1.00  0.00     0.049 A 
ATOM     47  H   UNL A   1      41.851  27.419  30.211  1.00  0.00     0.167 HD
ATOM     48  C   UNL A   1      42.379  30.510  33.270  1.00  0.00     0.037 A 
ATOM     49  C   UNL A   1      42.656  25.226  28.683  1.00  0.00     0.037 A 
ATOM     50  C   UNL A   1      43.510  29.633  33.420  1.00  0.00     0.049 A 
ATOM     51  C   UNL A   1      43.733  25.442  29.711  1.00  0.00     0.074 A 
ATOM     52  C   UNL A   1      44.526  29.688  34.359  1.00  0.00     0.029 A 
ATOM     53  N   UNL A   1      43.775  28.540  32.608  1.00  0.00    -0.354 N 
ATOM     54  N   UNL A   1      43.813  26.357  30.648  1.00  0.00    -0.248 NA
ATOM     55  C   UNL A   1      44.868  24.508  29.689  1.00  0.00     0.031 C 
ATOM     56  C   UNL A   1      45.429  28.656  34.087  1.00  0.00     0.029 A 
ATOM     57  C   UNL A   1      44.950  27.926  33.011  1.00  0.00     0.049 A 
ATOM     58  H   UNL A   1      43.211  28.245  31.857  1.00  0.00     0.167 HD
ATOM     59  C   UNL A   1      44.985  26.090  31.342  1.00  0.00     0.074 A 
ATOM     60  C   UNL A   1      45.578  24.922  30.728  1.00  0.00     0.031 C 
ATOM     61  C   UNL A   1      45.521  26.755  32.395  1.00  0.00     0.037 A 
BRANCH  48  62
ATOM     62  C   UNL A   1      42.269  31.693  34.187  1.00  0.00     0.064 A 
ATOM     63  C   UNL A   1      42.845  32.932  33.864  1.00  0.00     0.173 A 
ATOM     64  C   UNL A   1      41.548  31.598  35.387  1.00  0.00     0.173 A 
ATOM     65  F   UNL A   1      43.553  33.073  32.734  1.00  0.00    -0.203 F 
ATOM     66  C   UNL A   1      42.728  34.023  34.723  1.00  0.00     0.198 A 
ATOM     67  C   UNL A   1      41.407  32.700  36.228  1.00  0.00     0.198 A 
ATOM     68  F   UNL A   1      40.972  30.441  35.742  1.00  0.00    -0.203 F 
ATOM     69  F   UNL A   1      43.329  35.181  34.417  1.00  0.00    -0.200 F 
ATOM     70  C   UNL A   1      42.004  33.908  35.899  1.00  0.00     0.200 A 
ATOM     71  F   UNL A   1      40.696  32.592  37.359  1.00  0.00    -0.200 F 
ATOM     72  F   UNL A   1      41.887  34.960  36.721  1.00  0.00    -0.200 F 
ENDBRANCH  48  62
BRANCH  49  73
ATOM     73  C   UNL A   1      42.750  24.112  27.704  1.00  0.00     0.064 A 
ATOM     74  C   UNL A   1      42.339  22.817  28.047  1.00  0.00     0.173 A 
ATOM     75  C   UNL A   1      43.258  24.315  26.413  1.00  0.00     0.173 A 
ATOM     76  F   UNL A   1      41.867  22.568  29.278  1.00  0.00    -0.203 F 
ATOM     77  C   UNL A   1      42.449  21.762  27.143  1.00  0.00     0.198 A 
ATOM     78  C   UNL A   1      43.342  23.265  25.499  1.00  0.00     0.198 A 
ATOM     79  F   UNL A   1      43.662  25.536  26.034  1.00  0.00    -0.203 F 
ATOM     80  F   UNL A   1      42.091  20.525  27.513  1.00  0.00    -0.200 F 
ATOM     81  C   UNL A   1      42.946  21.988  25.868  1.00  0.00     0.200 A 
ATOM     82  F   UNL A   1      43.809  23.490  24.264  1.00  0.00    -0.200 F 
ATOM     83  F   UNL A   1      43.050  20.975  24.998  1.00  0.00    -0.200 F 
ENDBRANCH  49  73
BRANCH  61  84
ATOM     84  C   UNL A   1      46.795  26.213  32.976  1.00  0.00     0.064 A 
ATOM     85  C   UNL A   1      48.051  26.674  32.558  1.00  0.00     0.173 A 
ATOM     86  C   UNL A   1      46.753  25.249  33.996  1.00  0.00     0.173 A 
ATOM     87  F   UNL A   1      48.144  27.583  31.576  1.00  0.00    -0.203 F 
ATOM     88  C   UNL A   1      49.220  26.172  33.123  1.00  0.00     0.198 A 
ATOM     89  C   UNL A   1      47.922  24.772  34.579  1.00  0.00     0.198 A 
ATOM     90  F   UNL A   1      45.575  24.781  34.436  1.00  0.00    -0.203 F 
ATOM     91  F   UNL A   1      50.412  26.593  32.676  1.00  0.00    -0.200 F 
ATOM     92  C   UNL A   1      49.156  25.228  34.138  1.00  0.00     0.200 A 
ATOM     93  F   UNL A   1      47.857  23.871  35.569  1.00  0.00    -0.200 F 
ATOM     94  F   UNL A   1      50.282  24.753  34.686  1.00  0.00    -0.200 F 
ENDBRANCH  61  84
ENDBRANCH  35  36
ENDBRANCH  27  30
ENDBRANCH  25  26
ENDBRANCH  24  25
ENDBRANCH  23  24
ENDBRANCH   1  23
TORSDOF 17
ENDMDL
