MODEL 1
REMARK VINA RESULT:     -10.7      0.000      0.000
REMARK SMILES C[C@@H](C(=O)NCCCCCCNC(=O)c1ccc(-c2c3nc(c(-c4c(F)c(F)c(F)c(F)c4F)c4ccc([nH]4)c(-c4c(F)c(F)c(F)c(F)c4F)c4nc(c(-c5c(F)c(F)c(F)c(F)c5F)c5ccc2[nH]5)C=C4)C=C3)cc1)c1ccc(=O)n(C(F)F)c1
REMARK SMILES IDX 8 1 7 2 6 3 5 4 3 5 4 6 2 8 1 9 78 10 79 11 87 12 80 13
REMARK SMILES IDX 83 14 81 15 82 16 84 17 85 18 86 19 9 20 10 21 11 22 12 23
REMARK SMILES IDX 13 24 14 26 15 27 16 28 77 29 17 30 76 31 18 32 19 33 20 34
REMARK SMILES IDX 70 35 21 36 75 37 69 38 71 39 22 40 74 41 68 42 67 43 23 45
REMARK SMILES IDX 55 46 35 47 54 48 36 49 39 50 53 51 72 52 37 53 38 54 52 56
REMARK SMILES IDX 73 57 40 58 24 59 25 60 33 61 26 62 27 63 31 64 34 65 28 66
REMARK SMILES IDX 29 67 32 68 30 69 56 70 57 71 65 72 58 73 59 74 63 75 66 76
REMARK SMILES IDX 60 77 61 78 64 79 62 80 41 81 42 82 50 83 43 84 44 85 48 86
REMARK SMILES IDX 51 87 45 88 46 89 49 90 47 91
REMARK H PARENT 5 7 12 25 71 44 39 55
REMARK Flexibility Score: inf
ROOT
ATOM      1  C   UNL A   1      37.585  33.261  29.231  1.00  0.00     0.002 C 
ENDROOT
BRANCH   1   2
ATOM      2  C   UNL A   1      38.409  33.729  30.440  1.00  0.00     0.021 C 
BRANCH   2   3
ATOM      3  C   UNL A   1      37.589  34.440  31.520  1.00  0.00     0.116 C 
BRANCH   3   4
ATOM      4  N   UNL A   1      37.720  33.751  32.787  1.00  0.00    -0.356 N 
ATOM      5  C   UNL A   1      36.772  33.211  33.605  1.00  0.00     0.227 C 
ATOM      6  O   UNL A   1      37.147  32.859  34.725  1.00  0.00    -0.274 OA
ATOM      7  H   UNL A   1      38.645  33.655  33.110  1.00  0.00     0.163 HD
BRANCH   5   8
ATOM      8  C   UNL A   1      35.330  33.004  33.096  1.00  0.00     0.107 C 
ATOM      9  C   UNL A   1      35.277  32.026  31.918  1.00  0.00     0.023 C 
BRANCH   8  10
ATOM     10  C   UNL A   1      34.706  34.374  32.812  1.00  0.00    -0.019 A 
ATOM     11  C   UNL A   1      34.637  35.396  33.842  1.00  0.00     0.012 A 
ATOM     12  C   UNL A   1      34.153  34.652  31.614  1.00  0.00     0.099 A 
ATOM     13  C   UNL A   1      34.053  36.578  33.613  1.00  0.00     0.072 A 
ATOM     14  N   UNL A   1      33.523  35.859  31.358  1.00  0.00    -0.258 N 
ATOM     15  C   UNL A   1      33.437  36.873  32.295  1.00  0.00     0.254 A 
ATOM     16  O   UNL A   1      32.903  37.966  32.128  1.00  0.00    -0.269 OA
BRANCH  14  17
ATOM     17  C   UNL A   1      32.865  36.086  30.098  1.00  0.00     0.451 C 
ATOM     18  F   UNL A   1      33.654  36.798  29.255  1.00  0.00    -0.185 F 
ATOM     19  F   UNL A   1      32.553  34.915  29.489  1.00  0.00    -0.185 F 
ENDBRANCH  14  17
ENDBRANCH   8  10
ENDBRANCH   5   8
ENDBRANCH   3   4
ENDBRANCH   2   3
ENDBRANCH   1   2
BRANCH   1  20
ATOM     20  C   UNL A   1      36.325  34.083  28.941  1.00  0.00     0.002 C 
BRANCH  20  21
ATOM     21  C   UNL A   1      35.332  33.432  27.976  1.00  0.00     0.021 C 
BRANCH  21  22
ATOM     22  C   UNL A   1      34.283  32.542  28.637  1.00  0.00     0.116 C 
BRANCH  22  23
ATOM     23  N   UNL A   1      33.826  31.480  27.754  1.00  0.00    -0.352 N 
ATOM     24  C   UNL A   1      34.480  30.348  27.343  1.00  0.00     0.251 C 
ATOM     25  H   UNL A   1      32.914  31.590  27.401  1.00  0.00     0.163 HD
ATOM     26  O   UNL A   1      33.999  29.648  26.453  1.00  0.00    -0.269 OA
BRANCH  24  27
ATOM     27  C   UNL A   1      35.776  29.972  27.947  1.00  0.00     0.039 A 
ATOM     28  C   UNL A   1      35.787  29.462  29.249  1.00  0.00     0.014 A 
ATOM     29  C   UNL A   1      36.977  30.144  27.251  1.00  0.00     0.014 A 
ATOM     30  C   UNL A   1      36.996  29.073  29.832  1.00  0.00     0.010 A 
ATOM     31  C   UNL A   1      38.173  29.699  27.809  1.00  0.00     0.010 A 
ATOM     32  C   UNL A   1      38.195  29.162  29.106  1.00  0.00    -0.014 A 
BRANCH  32  33
ATOM     33  C   UNL A   1      39.479  28.705  29.694  1.00  0.00     0.031 A 
ATOM     34  C   UNL A   1      40.093  29.449  30.847  1.00  0.00     0.074 A 
ATOM     35  C   UNL A   1      40.120  27.648  29.158  1.00  0.00     0.049 A 
ATOM     36  N   UNL A   1      41.233  29.241  31.456  1.00  0.00    -0.248 NA
ATOM     37  C   UNL A   1      39.334  30.597  31.370  1.00  0.00     0.031 C 
ATOM     38  C   UNL A   1      39.651  26.870  28.010  1.00  0.00     0.029 A 
ATOM     39  N   UNL A   1      41.308  27.052  29.500  1.00  0.00    -0.354 N 
ATOM     40  C   UNL A   1      41.328  30.228  32.428  1.00  0.00     0.074 A 
ATOM     41  C   UNL A   1      40.160  31.071  32.292  1.00  0.00     0.031 C 
ATOM     42  C   UNL A   1      40.532  25.890  27.754  1.00  0.00     0.029 A 
ATOM     43  C   UNL A   1      41.642  25.989  28.698  1.00  0.00     0.049 A 
ATOM     44  H   UNL A   1      41.867  27.358  30.250  1.00  0.00     0.167 HD
ATOM     45  C   UNL A   1      42.291  30.401  33.366  1.00  0.00     0.037 A 
ATOM     46  C   UNL A   1      42.724  25.188  28.719  1.00  0.00     0.037 A 
ATOM     47  C   UNL A   1      43.444  29.554  33.513  1.00  0.00     0.049 A 
ATOM     48  C   UNL A   1      43.778  25.403  29.771  1.00  0.00     0.074 A 
ATOM     49  C   UNL A   1      44.460  29.630  34.450  1.00  0.00     0.029 A 
ATOM     50  N   UNL A   1      43.733  28.468  32.700  1.00  0.00    -0.354 N 
ATOM     51  N   UNL A   1      43.832  26.310  30.716  1.00  0.00    -0.248 NA
ATOM     52  C   UNL A   1      44.919  24.476  29.765  1.00  0.00     0.031 C 
ATOM     53  C   UNL A   1      45.379  28.609  34.185  1.00  0.00     0.029 A 
ATOM     54  C   UNL A   1      44.915  27.872  33.109  1.00  0.00     0.049 A 
ATOM     55  H   UNL A   1      43.180  28.166  31.944  1.00  0.00     0.167 HD
ATOM     56  C   UNL A   1      44.991  26.046  31.432  1.00  0.00     0.074 A 
ATOM     57  C   UNL A   1      45.604  24.885  30.823  1.00  0.00     0.031 C 
ATOM     58  C   UNL A   1      45.505  26.708  32.498  1.00  0.00     0.037 A 
BRANCH  45  59
ATOM     59  C   UNL A   1      42.127  31.549  34.320  1.00  0.00     0.064 A 
ATOM     60  C   UNL A   1      41.407  31.406  35.515  1.00  0.00     0.173 A 
ATOM     61  C   UNL A   1      42.726  32.790  34.058  1.00  0.00     0.173 A 
ATOM     62  F   UNL A   1      40.805  30.244  35.805  1.00  0.00    -0.203 F 
ATOM     63  C   UNL A   1      41.271  32.471  36.402  1.00  0.00     0.198 A 
ATOM     64  C   UNL A   1      42.612  33.844  34.961  1.00  0.00     0.198 A 
ATOM     65  F   UNL A   1      43.430  32.978  32.932  1.00  0.00    -0.203 F 
ATOM     66  F   UNL A   1      40.541  32.324  37.517  1.00  0.00    -0.200 F 
ATOM     67  C   UNL A   1      41.880  33.686  36.128  1.00  0.00     0.200 A 
ATOM     68  F   UNL A   1      43.210  35.016  34.700  1.00  0.00    -0.200 F 
ATOM     69  F   UNL A   1      41.754  34.709  36.986  1.00  0.00    -0.200 F 
ENDBRANCH  45  59
BRANCH  46  70
ATOM     70  C   UNL A   1      42.858  24.092  27.725  1.00  0.00     0.064 A 
ATOM     71  C   UNL A   1      42.437  22.790  28.028  1.00  0.00     0.173 A 
ATOM     72  C   UNL A   1      43.423  24.318  26.461  1.00  0.00     0.173 A 
ATOM     73  F   UNL A   1      41.909  22.520  29.231  1.00  0.00    -0.203 F 
ATOM     74  C   UNL A   1      42.598  21.750  27.115  1.00  0.00     0.198 A 
ATOM     75  C   UNL A   1      43.558  23.283  25.539  1.00  0.00     0.198 A 
ATOM     76  F   UNL A   1      43.836  25.547  26.121  1.00  0.00    -0.203 F 
ATOM     77  F   UNL A   1      42.233  20.505  27.449  1.00  0.00    -0.200 F 
ATOM     78  C   UNL A   1      43.155  21.998  25.869  1.00  0.00     0.200 A 
ATOM     79  F   UNL A   1      44.085  23.530  24.332  1.00  0.00    -0.200 F 
ATOM     80  F   UNL A   1      43.311  20.998  24.992  1.00  0.00    -0.200 F 
ENDBRANCH  46  70
BRANCH  58  81
ATOM     81  C   UNL A   1      46.772  26.171  33.092  1.00  0.00     0.064 A 
ATOM     82  C   UNL A   1      46.756  25.181  34.085  1.00  0.00     0.173 A 
ATOM     83  C   UNL A   1      48.018  26.630  32.639  1.00  0.00     0.173 A 
ATOM     84  F   UNL A   1      45.589  24.722  34.561  1.00  0.00    -0.203 F 
ATOM     85  C   UNL A   1      47.942  24.691  34.624  1.00  0.00     0.198 A 
ATOM     86  C   UNL A   1      49.203  26.118  33.161  1.00  0.00     0.198 A 
ATOM     87  F   UNL A   1      48.086  27.572  31.686  1.00  0.00    -0.203 F 
ATOM     88  F   UNL A   1      47.904  23.780  35.606  1.00  0.00    -0.200 F 
ATOM     89  C   UNL A   1      49.163  25.155  34.157  1.00  0.00     0.200 A 
ATOM     90  F   UNL A   1      50.382  26.559  32.701  1.00  0.00    -0.200 F 
ATOM     91  F   UNL A   1      50.304  24.678  34.675  1.00  0.00    -0.200 F 
ENDBRANCH  58  81
ENDBRANCH  32  33
ENDBRANCH  24  27
ENDBRANCH  22  23
ENDBRANCH  21  22
ENDBRANCH  20  21
ENDBRANCH   1  20
TORSDOF 15
ENDMDL
MODEL 2
REMARK VINA RESULT:     -10.5      6.139     10.581
REMARK SMILES C[C@@H](C(=O)NCCCCCCNC(=O)c1ccc(-c2c3nc(c(-c4c(F)c(F)c(F)c(F)c4F)c4ccc([nH]4)c(-c4c(F)c(F)c(F)c(F)c4F)c4nc(c(-c5c(F)c(F)c(F)c(F)c5F)c5ccc2[nH]5)C=C4)C=C3)cc1)c1ccc(=O)n(C(F)F)c1
REMARK SMILES IDX 8 1 7 2 6 3 5 4 3 5 4 6 2 8 1 9 78 10 79 11 87 12 80 13
REMARK SMILES IDX 83 14 81 15 82 16 84 17 85 18 86 19 9 20 10 21 11 22 12 23
REMARK SMILES IDX 13 24 14 26 15 27 16 28 77 29 17 30 76 31 18 32 19 33 20 34
REMARK SMILES IDX 70 35 21 36 75 37 69 38 71 39 22 40 74 41 68 42 67 43 23 45
REMARK SMILES IDX 55 46 35 47 54 48 36 49 39 50 53 51 72 52 37 53 38 54 52 56
REMARK SMILES IDX 73 57 40 58 24 59 25 60 33 61 26 62 27 63 31 64 34 65 28 66
REMARK SMILES IDX 29 67 32 68 30 69 56 70 57 71 65 72 58 73 59 74 63 75 66 76
REMARK SMILES IDX 60 77 61 78 64 79 62 80 41 81 42 82 50 83 43 84 44 85 48 86
REMARK SMILES IDX 51 87 45 88 46 89 49 90 47 91
REMARK H PARENT 5 7 12 25 71 44 39 55
REMARK Flexibility Score: inf
ROOT
ATOM      1  C   UNL A   1      37.034  21.996  24.518  1.00  0.00     0.002 C 
ENDROOT
BRANCH   1   2
ATOM      2  C   UNL A   1      35.835  22.838  24.056  1.00  0.00     0.021 C 
BRANCH   2   3
ATOM      3  C   UNL A   1      35.376  23.887  25.074  1.00  0.00     0.116 C 
BRANCH   3   4
ATOM      4  N   UNL A   1      34.991  23.248  26.315  1.00  0.00    -0.356 N 
ATOM      5  C   UNL A   1      33.759  22.920  26.798  1.00  0.00     0.227 C 
ATOM      6  O   UNL A   1      33.708  22.565  27.977  1.00  0.00    -0.274 OA
ATOM      7  H   UNL A   1      35.742  23.011  26.907  1.00  0.00     0.163 HD
BRANCH   5   8
ATOM      8  C   UNL A   1      32.527  22.939  25.869  1.00  0.00     0.107 C 
ATOM      9  C   UNL A   1      31.227  23.145  26.653  1.00  0.00     0.023 C 
BRANCH   8  10
ATOM     10  C   UNL A   1      32.550  21.680  24.995  1.00  0.00    -0.019 A 
ATOM     11  C   UNL A   1      32.236  21.746  23.578  1.00  0.00     0.012 A 
ATOM     12  C   UNL A   1      32.806  20.469  25.526  1.00  0.00     0.099 A 
ATOM     13  C   UNL A   1      32.210  20.644  22.819  1.00  0.00     0.072 A 
ATOM     14  N   UNL A   1      32.764  19.310  24.768  1.00  0.00    -0.258 N 
ATOM     15  C   UNL A   1      32.484  19.311  23.413  1.00  0.00     0.254 A 
ATOM     16  O   UNL A   1      32.440  18.323  22.685  1.00  0.00    -0.269 OA
BRANCH  14  17
ATOM     17  C   UNL A   1      32.955  18.025  25.388  1.00  0.00     0.451 C 
ATOM     18  F   UNL A   1      31.861  17.239  25.231  1.00  0.00    -0.185 F 
ATOM     19  F   UNL A   1      34.017  17.374  24.851  1.00  0.00    -0.185 F 
ENDBRANCH  14  17
ENDBRANCH   8  10
ENDBRANCH   5   8
ENDBRANCH   3   4
ENDBRANCH   2   3
ENDBRANCH   1   2
BRANCH   1  20
ATOM     20  C   UNL A   1      36.706  20.553  24.915  1.00  0.00     0.002 C 
BRANCH  20  21
ATOM     21  C   UNL A   1      37.902  19.601  24.952  1.00  0.00     0.021 C 
BRANCH  21  22
ATOM     22  C   UNL A   1      39.113  20.120  25.723  1.00  0.00     0.116 C 
BRANCH  22  23
ATOM     23  N   UNL A   1      40.157  19.116  25.852  1.00  0.00    -0.352 N 
ATOM     24  C   UNL A   1      41.499  19.279  26.076  1.00  0.00     0.251 C 
ATOM     25  H   UNL A   1      39.855  18.182  25.767  1.00  0.00     0.163 HD
ATOM     26  O   UNL A   1      42.261  18.318  25.982  1.00  0.00    -0.269 OA
BRANCH  24  27
ATOM     27  C   UNL A   1      42.044  20.613  26.408  1.00  0.00     0.039 A 
ATOM     28  C   UNL A   1      42.370  21.485  25.364  1.00  0.00     0.014 A 
ATOM     29  C   UNL A   1      42.260  20.997  27.735  1.00  0.00     0.014 A 
ATOM     30  C   UNL A   1      42.860  22.761  25.653  1.00  0.00     0.010 A 
ATOM     31  C   UNL A   1      42.690  22.291  28.023  1.00  0.00     0.010 A 
ATOM     32  C   UNL A   1      42.997  23.184  26.985  1.00  0.00    -0.014 A 
BRANCH  32  33
ATOM     33  C   UNL A   1      43.468  24.555  27.306  1.00  0.00     0.031 A 
ATOM     34  C   UNL A   1      42.510  25.579  27.846  1.00  0.00     0.074 A 
ATOM     35  C   UNL A   1      44.749  24.894  27.063  1.00  0.00     0.049 A 
ATOM     36  N   UNL A   1      42.718  26.840  28.130  1.00  0.00    -0.248 NA
ATOM     37  C   UNL A   1      41.127  25.132  28.077  1.00  0.00     0.031 C 
ATOM     38  C   UNL A   1      45.765  24.004  26.498  1.00  0.00     0.029 A 
ATOM     39  N   UNL A   1      45.413  26.080  27.250  1.00  0.00    -0.354 N 
ATOM     40  C   UNL A   1      41.496  27.336  28.568  1.00  0.00     0.074 A 
ATOM     41  C   UNL A   1      40.538  26.257  28.459  1.00  0.00     0.031 C 
ATOM     42  C   UNL A   1      46.927  24.670  26.400  1.00  0.00     0.029 A 
ATOM     43  C   UNL A   1      46.731  26.039  26.865  1.00  0.00     0.049 A 
ATOM     44  H   UNL A   1      44.986  26.883  27.625  1.00  0.00     0.167 HD
ATOM     45  C   UNL A   1      41.205  28.571  29.041  1.00  0.00     0.037 A 
ATOM     46  C   UNL A   1      47.673  27.001  26.882  1.00  0.00     0.037 A 
ATOM     47  C   UNL A   1      42.161  29.640  29.166  1.00  0.00     0.049 A 
ATOM     48  C   UNL A   1      47.323  28.365  27.414  1.00  0.00     0.074 A 
ATOM     49  C   UNL A   1      41.970  30.918  29.662  1.00  0.00     0.029 A 
ATOM     50  N   UNL A   1      43.494  29.552  28.795  1.00  0.00    -0.354 N 
ATOM     51  N   UNL A   1      46.177  28.806  27.871  1.00  0.00    -0.248 NA
ATOM     52  C   UNL A   1      48.402  29.363  27.439  1.00  0.00     0.031 C 
ATOM     53  C   UNL A   1      43.180  31.613  29.562  1.00  0.00     0.029 A 
ATOM     54  C   UNL A   1      44.135  30.755  29.042  1.00  0.00     0.049 A 
ATOM     55  H   UNL A   1      43.922  28.752  28.411  1.00  0.00     0.167 HD
ATOM     56  C   UNL A   1      46.402  30.117  28.264  1.00  0.00     0.074 A 
ATOM     57  C   UNL A   1      47.798  30.398  28.006  1.00  0.00     0.031 C 
ATOM     58  C   UNL A   1      45.529  31.012  28.790  1.00  0.00     0.037 A 
BRANCH  45  59
ATOM     59  C   UNL A   1      39.792  28.829  29.476  1.00  0.00     0.064 A 
ATOM     60  C   UNL A   1      38.835  29.332  28.582  1.00  0.00     0.173 A 
ATOM     61  C   UNL A   1      39.378  28.537  30.784  1.00  0.00     0.173 A 
ATOM     62  F   UNL A   1      39.183  29.640  27.324  1.00  0.00    -0.203 F 
ATOM     63  C   UNL A   1      37.522  29.557  28.988  1.00  0.00     0.198 A 
ATOM     64  C   UNL A   1      38.058  28.736  31.179  1.00  0.00     0.198 A 
ATOM     65  F   UNL A   1      40.253  28.050  31.677  1.00  0.00    -0.203 F 
ATOM     66  F   UNL A   1      36.636  30.079  28.128  1.00  0.00    -0.200 F 
ATOM     67  C   UNL A   1      37.133  29.251  30.283  1.00  0.00     0.200 A 
ATOM     68  F   UNL A   1      37.680  28.431  32.428  1.00  0.00    -0.200 F 
ATOM     69  F   UNL A   1      35.867  29.461  30.671  1.00  0.00    -0.200 F 
ENDBRANCH  45  59
BRANCH  46  70
ATOM     70  C   UNL A   1      49.048  26.706  26.401  1.00  0.00     0.064 A 
ATOM     71  C   UNL A   1      50.022  26.198  27.272  1.00  0.00     0.173 A 
ATOM     72  C   UNL A   1      49.420  26.939  25.069  1.00  0.00     0.173 A 
ATOM     73  F   UNL A   1      49.719  25.978  28.560  1.00  0.00    -0.203 F 
ATOM     74  C   UNL A   1      51.323  25.958  26.836  1.00  0.00     0.198 A 
ATOM     75  C   UNL A   1      50.714  26.673  24.628  1.00  0.00     0.198 A 
ATOM     76  F   UNL A   1      48.523  27.418  24.195  1.00  0.00    -0.203 F 
ATOM     77  F   UNL A   1      52.247  25.520  27.701  1.00  0.00    -0.200 F 
ATOM     78  C   UNL A   1      51.667  26.192  25.513  1.00  0.00     0.200 A 
ATOM     79  F   UNL A   1      51.038  26.887  23.346  1.00  0.00    -0.200 F 
ATOM     80  F   UNL A   1      52.918  25.962  25.094  1.00  0.00    -0.200 F 
ENDBRANCH  46  70
BRANCH  58  81
ATOM     81  C   UNL A   1      46.070  32.364  29.152  1.00  0.00     0.064 A 
ATOM     82  C   UNL A   1      46.621  32.620  30.415  1.00  0.00     0.173 A 
ATOM     83  C   UNL A   1      46.063  33.405  28.211  1.00  0.00     0.173 A 
ATOM     84  F   UNL A   1      46.635  31.661  31.353  1.00  0.00    -0.203 F 
ATOM     85  C   UNL A   1      47.121  33.880  30.733  1.00  0.00     0.198 A 
ATOM     86  C   UNL A   1      46.589  34.656  28.524  1.00  0.00     0.198 A 
ATOM     87  F   UNL A   1      45.552  33.207  26.987  1.00  0.00    -0.203 F 
ATOM     88  F   UNL A   1      47.599  34.118  31.963  1.00  0.00    -0.200 F 
ATOM     89  C   UNL A   1      47.110  34.894  29.787  1.00  0.00     0.200 A 
ATOM     90  F   UNL A   1      46.588  35.631  27.605  1.00  0.00    -0.200 F 
ATOM     91  F   UNL A   1      47.595  36.104  30.095  1.00  0.00    -0.200 F 
ENDBRANCH  58  81
ENDBRANCH  32  33
ENDBRANCH  24  27
ENDBRANCH  22  23
ENDBRANCH  21  22
ENDBRANCH  20  21
ENDBRANCH   1  20
TORSDOF 15
ENDMDL
MODEL 3
REMARK VINA RESULT:     -10.4      1.876      2.999
REMARK SMILES C[C@@H](C(=O)NCCCCCCNC(=O)c1ccc(-c2c3nc(c(-c4c(F)c(F)c(F)c(F)c4F)c4ccc([nH]4)c(-c4c(F)c(F)c(F)c(F)c4F)c4nc(c(-c5c(F)c(F)c(F)c(F)c5F)c5ccc2[nH]5)C=C4)C=C3)cc1)c1ccc(=O)n(C(F)F)c1
REMARK SMILES IDX 8 1 7 2 6 3 5 4 3 5 4 6 2 8 1 9 78 10 79 11 87 12 80 13
REMARK SMILES IDX 83 14 81 15 82 16 84 17 85 18 86 19 9 20 10 21 11 22 12 23
REMARK SMILES IDX 13 24 14 26 15 27 16 28 77 29 17 30 76 31 18 32 19 33 20 34
REMARK SMILES IDX 70 35 21 36 75 37 69 38 71 39 22 40 74 41 68 42 67 43 23 45
REMARK SMILES IDX 55 46 35 47 54 48 36 49 39 50 53 51 72 52 37 53 38 54 52 56
REMARK SMILES IDX 73 57 40 58 24 59 25 60 33 61 26 62 27 63 31 64 34 65 28 66
REMARK SMILES IDX 29 67 32 68 30 69 56 70 57 71 65 72 58 73 59 74 63 75 66 76
REMARK SMILES IDX 60 77 61 78 64 79 62 80 41 81 42 82 50 83 43 84 44 85 48 86
REMARK SMILES IDX 51 87 45 88 46 89 49 90 47 91
REMARK H PARENT 5 7 12 25 71 44 39 55
REMARK Flexibility Score: inf
ROOT
ATOM      1  C   UNL A   1      37.851  32.661  30.599  1.00  0.00     0.002 C 
ENDROOT
BRANCH   1   2
ATOM      2  C   UNL A   1      38.504  33.700  31.524  1.00  0.00     0.021 C 
BRANCH   2   3
ATOM      3  C   UNL A   1      37.505  34.579  32.283  1.00  0.00     0.116 C 
BRANCH   3   4
ATOM      4  N   UNL A   1      37.322  34.085  33.631  1.00  0.00    -0.356 N 
ATOM      5  C   UNL A   1      36.194  33.685  34.283  1.00  0.00     0.227 C 
ATOM      6  O   UNL A   1      36.296  33.500  35.497  1.00  0.00    -0.274 OA
ATOM      7  H   UNL A   1      38.148  34.027  34.164  1.00  0.00     0.163 HD
BRANCH   5   8
ATOM      8  C   UNL A   1      34.891  33.422  33.498  1.00  0.00     0.107 C 
ATOM      9  C   UNL A   1      35.065  32.303  32.467  1.00  0.00     0.023 C 
BRANCH   8  10
ATOM     10  C   UNL A   1      34.389  34.748  32.917  1.00  0.00    -0.019 A 
ATOM     11  C   UNL A   1      34.306  35.943  33.739  1.00  0.00     0.012 A 
ATOM     12  C   UNL A   1      33.958  34.831  31.643  1.00  0.00     0.099 A 
ATOM     13  C   UNL A   1      33.826  37.092  33.250  1.00  0.00     0.072 A 
ATOM     14  N   UNL A   1      33.437  36.002  31.118  1.00  0.00    -0.258 N 
ATOM     15  C   UNL A   1      33.344  37.173  31.848  1.00  0.00     0.254 A 
ATOM     16  O   UNL A   1      32.902  38.244  31.440  1.00  0.00    -0.269 OA
BRANCH  14  17
ATOM     17  C   UNL A   1      32.903  36.029  29.781  1.00  0.00     0.451 C 
ATOM     18  F   UNL A   1      33.647  36.824  28.973  1.00  0.00    -0.185 F 
ATOM     19  F   UNL A   1      32.879  34.786  29.237  1.00  0.00    -0.185 F 
ENDBRANCH  14  17
ENDBRANCH   8  10
ENDBRANCH   5   8
ENDBRANCH   3   4
ENDBRANCH   2   3
ENDBRANCH   1   2
BRANCH   1  20
ATOM     20  C   UNL A   1      37.308  33.213  29.277  1.00  0.00     0.002 C 
BRANCH  20  21
ATOM     21  C   UNL A   1      35.789  33.139  29.116  1.00  0.00     0.021 C 
BRANCH  21  22
ATOM     22  C   UNL A   1      35.310  32.685  27.740  1.00  0.00     0.116 C 
BRANCH  22  23
ATOM     23  N   UNL A   1      34.509  31.472  27.807  1.00  0.00    -0.352 N 
ATOM     24  C   UNL A   1      34.912  30.169  27.932  1.00  0.00     0.251 C 
ATOM     25  H   UNL A   1      33.535  31.609  27.758  1.00  0.00     0.163 HD
ATOM     26  O   UNL A   1      34.098  29.257  27.797  1.00  0.00    -0.269 OA
BRANCH  24  27
ATOM     27  C   UNL A   1      36.329  29.848  28.205  1.00  0.00     0.039 A 
ATOM     28  C   UNL A   1      36.671  29.328  29.458  1.00  0.00     0.014 A 
ATOM     29  C   UNL A   1      37.322  30.080  27.249  1.00  0.00     0.014 A 
ATOM     30  C   UNL A   1      37.998  28.990  29.731  1.00  0.00     0.010 A 
ATOM     31  C   UNL A   1      38.635  29.685  27.500  1.00  0.00     0.010 A 
ATOM     32  C   UNL A   1      38.987  29.139  28.744  1.00  0.00    -0.014 A 
BRANCH  32  33
ATOM     33  C   UNL A   1      40.392  28.736  29.004  1.00  0.00     0.031 A 
ATOM     34  C   UNL A   1      41.338  29.684  29.686  1.00  0.00     0.074 A 
ATOM     35  C   UNL A   1      40.830  27.536  28.580  1.00  0.00     0.049 A 
ATOM     36  N   UNL A   1      42.613  29.538  29.947  1.00  0.00    -0.248 NA
ATOM     37  C   UNL A   1      40.783  30.979  30.112  1.00  0.00     0.031 C 
ATOM     38  C   UNL A   1      40.022  26.545  27.866  1.00  0.00     0.029 A 
ATOM     39  N   UNL A   1      42.066  26.947  28.678  1.00  0.00    -0.354 N 
ATOM     40  C   UNL A   1      43.011  30.718  30.561  1.00  0.00     0.074 A 
ATOM     41  C   UNL A   1      41.859  31.593  30.584  1.00  0.00     0.031 C 
ATOM     42  C   UNL A   1      40.778  25.466  27.606  1.00  0.00     0.029 A 
ATOM     43  C   UNL A   1      42.130  25.701  28.106  1.00  0.00     0.049 A 
ATOM     44  H   UNL A   1      42.834  27.378  29.118  1.00  0.00     0.167 HD
ATOM     45  C   UNL A   1      44.221  31.034  31.082  1.00  0.00     0.037 A 
ATOM     46  C   UNL A   1      43.163  24.845  27.994  1.00  0.00     0.037 A 
ATOM     47  C   UNL A   1      45.362  30.159  31.075  1.00  0.00     0.049 A 
ATOM     48  C   UNL A   1      44.497  25.222  28.581  1.00  0.00     0.074 A 
ATOM     49  C   UNL A   1      46.623  30.376  31.604  1.00  0.00     0.029 A 
ATOM     50  N   UNL A   1      45.380  28.891  30.513  1.00  0.00    -0.354 N 
ATOM     51  N   UNL A   1      44.846  26.321  29.204  1.00  0.00    -0.248 NA
ATOM     52  C   UNL A   1      45.578  24.233  28.457  1.00  0.00     0.031 C 
ATOM     53  C   UNL A   1      47.412  29.252  31.334  1.00  0.00     0.029 A 
ATOM     54  C   UNL A   1      46.631  28.318  30.674  1.00  0.00     0.049 A 
ATOM     55  H   UNL A   1      44.616  28.461  30.065  1.00  0.00     0.167 HD
ATOM     56  C   UNL A   1      46.173  26.145  29.571  1.00  0.00     0.074 A 
ATOM     57  C   UNL A   1      46.563  24.828  29.114  1.00  0.00     0.031 C 
ATOM     58  C   UNL A   1      46.998  27.000  30.224  1.00  0.00     0.037 A 
BRANCH  45  59
ATOM     59  C   UNL A   1      44.367  32.386  31.720  1.00  0.00     0.064 A 
ATOM     60  C   UNL A   1      44.767  33.504  30.973  1.00  0.00     0.173 A 
ATOM     61  C   UNL A   1      44.069  32.575  33.077  1.00  0.00     0.173 A 
ATOM     62  F   UNL A   1      45.076  33.373  29.674  1.00  0.00    -0.203 F 
ATOM     63  C   UNL A   1      44.888  34.757  31.568  1.00  0.00     0.198 A 
ATOM     64  C   UNL A   1      44.163  33.835  33.662  1.00  0.00     0.198 A 
ATOM     65  F   UNL A   1      43.677  31.539  33.834  1.00  0.00    -0.203 F 
ATOM     66  F   UNL A   1      45.315  35.802  30.844  1.00  0.00    -0.200 F 
ATOM     67  C   UNL A   1      44.579  34.923  32.909  1.00  0.00     0.200 A 
ATOM     68  F   UNL A   1      43.854  33.997  34.956  1.00  0.00    -0.200 F 
ATOM     69  F   UNL A   1      44.689  36.132  33.479  1.00  0.00    -0.200 F 
ENDBRANCH  45  59
BRANCH  46  70
ATOM     70  C   UNL A   1      42.977  23.536  27.315  1.00  0.00     0.064 A 
ATOM     71  C   UNL A   1      43.384  23.349  25.987  1.00  0.00     0.173 A 
ATOM     72  C   UNL A   1      42.374  22.454  27.973  1.00  0.00     0.173 A 
ATOM     73  F   UNL A   1      43.946  24.361  25.311  1.00  0.00    -0.203 F 
ATOM     74  C   UNL A   1      43.173  22.137  25.334  1.00  0.00     0.198 A 
ATOM     75  C   UNL A   1      42.190  21.234  27.327  1.00  0.00     0.198 A 
ATOM     76  F   UNL A   1      41.972  22.580  29.246  1.00  0.00    -0.203 F 
ATOM     77  F   UNL A   1      43.527  22.000  24.049  1.00  0.00    -0.200 F 
ATOM     78  C   UNL A   1      42.581  21.078  26.006  1.00  0.00     0.200 A 
ATOM     79  F   UNL A   1      41.628  20.210  27.984  1.00  0.00    -0.200 F 
ATOM     80  F   UNL A   1      42.377  19.913  25.377  1.00  0.00    -0.200 F 
ENDBRANCH  46  70
BRANCH  58  81
ATOM     81  C   UNL A   1      48.390  26.522  30.514  1.00  0.00     0.064 A 
ATOM     82  C   UNL A   1      49.462  26.820  29.662  1.00  0.00     0.173 A 
ATOM     83  C   UNL A   1      48.657  25.783  31.676  1.00  0.00     0.173 A 
ATOM     84  F   UNL A   1      49.252  27.511  28.530  1.00  0.00    -0.203 F 
ATOM     85  C   UNL A   1      50.748  26.371  29.948  1.00  0.00     0.198 A 
ATOM     86  C   UNL A   1      49.949  25.359  31.973  1.00  0.00     0.198 A 
ATOM     87  F   UNL A   1      47.665  25.477  32.527  1.00  0.00    -0.203 F 
ATOM     88  F   UNL A   1      51.750  26.626  29.095  1.00  0.00    -0.200 F 
ATOM     89  C   UNL A   1      50.991  25.647  31.105  1.00  0.00     0.200 A 
ATOM     90  F   UNL A   1      50.185  24.669  33.098  1.00  0.00    -0.200 F 
ATOM     91  F   UNL A   1      52.231  25.218  31.380  1.00  0.00    -0.200 F 
ENDBRANCH  58  81
ENDBRANCH  32  33
ENDBRANCH  24  27
ENDBRANCH  22  23
ENDBRANCH  21  22
ENDBRANCH  20  21
ENDBRANCH   1  20
TORSDOF 15
ENDMDL
