MODEL 1
REMARK VINA RESULT:     -12.2      0.000      0.000
REMARK SMILES C[C@H]1CCN1c1cc(C(=O)NCCCCCCNC(=O)c2ccc(-c3c4nc(c(-c5c(F)c(F)c(F)c(F)c5F)c5ccc([nH]5)c(-c5c(F)c(F)c(F)c(F)c5F)c5nc(c(-c6c(F)c(F)c(F)c(F)c6F)c6ccc3[nH]6)C=C5)C=C4)cc2)ccc1Cl
REMARK SMILES IDX 15 1 14 2 13 3 12 4 11 5 9 6 10 7 8 9 6 10 7 11 86 12 85 13
REMARK SMILES IDX 87 14 84 15 5 16 1 17 2 18 3 19 4 20 16 21 17 22 18 23 19 24
REMARK SMILES IDX 20 26 21 27 22 28 83 29 23 30 82 31 24 32 25 33 26 34 76 35
REMARK SMILES IDX 27 36 81 37 75 38 77 39 28 40 80 41 74 42 73 43 29 45 61 46
REMARK SMILES IDX 41 47 60 48 42 49 45 50 59 51 78 52 43 53 44 54 58 56 79 57
REMARK SMILES IDX 46 58 30 59 31 60 39 61 32 62 33 63 37 64 40 65 34 66 35 67
REMARK SMILES IDX 38 68 36 69 62 70 63 71 71 72 64 73 65 74 69 75 72 76 66 77
REMARK SMILES IDX 67 78 70 79 68 80 47 81 48 82 56 83 49 84 50 85 54 86 57 87
REMARK SMILES IDX 51 88 52 89 55 90 53 91
REMARK H PARENT 11 8 18 25 77 44 45 55
REMARK Flexibility Score: inf
ROOT
ATOM      1  C   UNL A   1      36.873  20.303  25.001  1.00  0.00     0.002 C 
ENDROOT
BRANCH   1   2
ATOM      2  C   UNL A   1      37.092  21.725  24.466  1.00  0.00     0.002 C 
BRANCH   2   3
ATOM      3  C   UNL A   1      36.824  22.851  25.478  1.00  0.00     0.021 C 
BRANCH   3   4
ATOM      4  C   UNL A   1      35.491  23.568  25.250  1.00  0.00     0.116 C 
BRANCH   4   5
ATOM      5  N   UNL A   1      34.536  23.183  26.269  1.00  0.00    -0.352 N 
ATOM      6  C   UNL A   1      33.533  22.256  26.345  1.00  0.00     0.251 C 
ATOM      7  O   UNL A   1      32.902  22.225  27.403  1.00  0.00    -0.269 OA
ATOM      8  H   UNL A   1      34.632  23.709  27.097  1.00  0.00     0.163 HD
BRANCH   6   9
ATOM      9  C   UNL A   1      33.179  21.278  25.271  1.00  0.00     0.041 A 
ATOM     10  C   UNL A   1      33.181  18.881  24.639  1.00  0.00     0.057 A 
ATOM     11  C   UNL A   1      33.461  19.927  25.545  1.00  0.00     0.041 A 
ATOM     12  C   UNL A   1      32.623  19.228  23.402  1.00  0.00     0.064 A 
ATOM     13  C   UNL A   1      32.313  20.567  23.124  1.00  0.00     0.023 A 
ATOM     14  Cl  UNL A   1      32.154  18.078  22.203  1.00  0.00    -0.082 Cl
ATOM     15  C   UNL A   1      32.556  21.577  24.063  1.00  0.00     0.015 A 
BRANCH  10  16
ATOM     16  N   UNL A   1      33.427  17.573  25.107  1.00  0.00    -0.367 N 
ATOM     17  C   UNL A   1      35.414  16.192  25.376  1.00  0.00     0.031 C 
ATOM     18  C   UNL A   1      34.144  16.451  24.579  1.00  0.00     0.081 C 
ATOM     19  C   UNL A   1      32.941  15.575  24.955  1.00  0.00     0.046 C 
ATOM     20  C   UNL A   1      32.439  16.765  25.769  1.00  0.00     0.119 C 
ENDBRANCH  10  16
ENDBRANCH   6   9
ENDBRANCH   4   5
ENDBRANCH   3   4
ENDBRANCH   2   3
ENDBRANCH   1   2
BRANCH   1  21
ATOM     21  C   UNL A   1      38.116  19.408  24.999  1.00  0.00     0.021 C 
BRANCH  21  22
ATOM     22  C   UNL A   1      39.282  19.944  25.821  1.00  0.00     0.116 C 
BRANCH  22  23
ATOM     23  N   UNL A   1      40.354  18.969  25.944  1.00  0.00    -0.352 N 
ATOM     24  C   UNL A   1      41.704  19.165  26.089  1.00  0.00     0.251 C 
ATOM     25  H   UNL A   1      40.067  18.028  25.918  1.00  0.00     0.163 HD
ATOM     26  O   UNL A   1      42.480  18.224  25.959  1.00  0.00    -0.269 OA
BRANCH  24  27
ATOM     27  C   UNL A   1      42.231  20.513  26.391  1.00  0.00     0.039 A 
ATOM     28  C   UNL A   1      42.752  21.282  25.346  1.00  0.00     0.014 A 
ATOM     29  C   UNL A   1      42.241  21.006  27.698  1.00  0.00     0.014 A 
ATOM     30  C   UNL A   1      43.236  22.566  25.605  1.00  0.00     0.010 A 
ATOM     31  C   UNL A   1      42.661  22.312  27.944  1.00  0.00     0.010 A 
ATOM     32  C   UNL A   1      43.167  23.101  26.901  1.00  0.00    -0.014 A 
BRANCH  32  33
ATOM     33  C   UNL A   1      43.616  24.488  27.179  1.00  0.00     0.031 A 
ATOM     34  C   UNL A   1      42.642  25.517  27.679  1.00  0.00     0.074 A 
ATOM     35  C   UNL A   1      44.887  24.839  26.906  1.00  0.00     0.049 A 
ATOM     36  N   UNL A   1      42.835  26.788  27.925  1.00  0.00    -0.248 NA
ATOM     37  C   UNL A   1      41.262  25.064  27.901  1.00  0.00     0.031 C 
ATOM     38  C   UNL A   1      45.907  23.948  26.352  1.00  0.00     0.029 A 
ATOM     39  N   UNL A   1      45.533  26.043  27.040  1.00  0.00    -0.354 N 
ATOM     40  C   UNL A   1      41.599  27.290  28.311  1.00  0.00     0.074 A 
ATOM     41  C   UNL A   1      40.654  26.198  28.217  1.00  0.00     0.031 C 
ATOM     42  C   UNL A   1      47.051  24.632  26.202  1.00  0.00     0.029 A 
ATOM     43  C   UNL A   1      46.839  26.014  26.620  1.00  0.00     0.049 A 
ATOM     44  H   UNL A   1      45.099  26.849  27.403  1.00  0.00     0.167 HD
ATOM     45  C   UNL A   1      41.286  28.542  28.725  1.00  0.00     0.037 A 
ATOM     46  C   UNL A   1      47.760  26.995  26.568  1.00  0.00     0.037 A 
ATOM     47  C   UNL A   1      42.238  29.616  28.842  1.00  0.00     0.049 A 
ATOM     48  C   UNL A   1      47.401  28.368  27.062  1.00  0.00     0.074 A 
ATOM     49  C   UNL A   1      42.044  30.892  29.342  1.00  0.00     0.029 A 
ATOM     50  N   UNL A   1      43.565  29.541  28.444  1.00  0.00    -0.354 N 
ATOM     51  N   UNL A   1      46.253  28.807  27.516  1.00  0.00    -0.248 NA
ATOM     52  C   UNL A   1      48.467  29.378  27.046  1.00  0.00     0.031 C 
ATOM     53  C   UNL A   1      43.239  31.605  29.197  1.00  0.00     0.029 A 
ATOM     54  C   UNL A   1      44.194  30.758  28.656  1.00  0.00     0.049 A 
ATOM     55  H   UNL A   1      43.997  28.741  28.066  1.00  0.00     0.167 HD
ATOM     56  C   UNL A   1      46.459  30.138  27.855  1.00  0.00     0.074 A 
ATOM     57  C   UNL A   1      47.850  30.428  27.571  1.00  0.00     0.031 C 
ATOM     58  C   UNL A   1      45.576  31.036  28.356  1.00  0.00     0.037 A 
BRANCH  45  59
ATOM     59  C   UNL A   1      39.850  28.816  29.071  1.00  0.00     0.064 A 
ATOM     60  C   UNL A   1      38.930  29.266  28.111  1.00  0.00     0.173 A 
ATOM     61  C   UNL A   1      39.385  28.614  30.380  1.00  0.00     0.173 A 
ATOM     62  F   UNL A   1      39.325  29.484  26.847  1.00  0.00    -0.203 F 
ATOM     63  C   UNL A   1      37.609  29.543  28.457  1.00  0.00     0.198 A 
ATOM     64  C   UNL A   1      38.055  28.861  30.714  1.00  0.00     0.198 A 
ATOM     65  F   UNL A   1      40.218  28.177  31.335  1.00  0.00    -0.203 F 
ATOM     66  F   UNL A   1      36.766  30.032  27.537  1.00  0.00    -0.200 F 
ATOM     67  C   UNL A   1      37.172  29.336  29.757  1.00  0.00     0.200 A 
ATOM     68  F   UNL A   1      37.631  28.648  31.968  1.00  0.00    -0.200 F 
ATOM     69  F   UNL A   1      35.902  29.605  30.088  1.00  0.00    -0.200 F 
ENDBRANCH  45  59
BRANCH  46  70
ATOM     70  C   UNL A   1      49.117  26.691  26.047  1.00  0.00     0.064 A 
ATOM     71  C   UNL A   1      50.082  26.077  26.856  1.00  0.00     0.173 A 
ATOM     72  C   UNL A   1      49.463  26.975  24.718  1.00  0.00     0.173 A 
ATOM     73  F   UNL A   1      49.802  25.803  28.139  1.00  0.00    -0.203 F 
ATOM     74  C   UNL A   1      51.345  25.765  26.359  1.00  0.00     0.198 A 
ATOM     75  C   UNL A   1      50.718  26.639  24.214  1.00  0.00     0.198 A 
ATOM     76  F   UNL A   1      48.572  27.554  23.900  1.00  0.00    -0.203 F 
ATOM     77  F   UNL A   1      52.259  25.205  27.162  1.00  0.00    -0.200 F 
ATOM     78  C   UNL A   1      51.660  26.039  25.036  1.00  0.00     0.200 A 
ATOM     79  F   UNL A   1      51.011  26.889  22.930  1.00  0.00    -0.200 F 
ATOM     80  F   UNL A   1      52.869  25.724  24.553  1.00  0.00    -0.200 F 
ENDBRANCH  46  70
BRANCH  58  81
ATOM     81  C   UNL A   1      46.091  32.419  28.637  1.00  0.00     0.064 A 
ATOM     82  C   UNL A   1      46.017  33.438  27.677  1.00  0.00     0.173 A 
ATOM     83  C   UNL A   1      46.630  32.736  29.893  1.00  0.00     0.173 A 
ATOM     84  F   UNL A   1      45.524  33.182  26.456  1.00  0.00    -0.203 F 
ATOM     85  C   UNL A   1      46.488  34.719  27.956  1.00  0.00     0.198 A 
ATOM     86  C   UNL A   1      47.072  34.025  30.179  1.00  0.00     0.198 A 
ATOM     87  F   UNL A   1      46.718  31.798  30.848  1.00  0.00    -0.203 F 
ATOM     88  F   UNL A   1      46.451  35.666  27.007  1.00  0.00    -0.200 F 
ATOM     89  C   UNL A   1      47.007  35.012  29.207  1.00  0.00     0.200 A 
ATOM     90  F   UNL A   1      47.562  34.310  31.393  1.00  0.00    -0.200 F 
ATOM     91  F   UNL A   1      47.455  36.247  29.476  1.00  0.00    -0.200 F 
ENDBRANCH  58  81
ENDBRANCH  32  33
ENDBRANCH  24  27
ENDBRANCH  22  23
ENDBRANCH  21  22
ENDBRANCH   1  21
TORSDOF 14
ENDMDL
MODEL 2
REMARK VINA RESULT:     -12.2      6.907     12.060
REMARK SMILES C[C@H]1CCN1c1cc(C(=O)NCCCCCCNC(=O)c2ccc(-c3c4nc(c(-c5c(F)c(F)c(F)c(F)c5F)c5ccc([nH]5)c(-c5c(F)c(F)c(F)c(F)c5F)c5nc(c(-c6c(F)c(F)c(F)c(F)c6F)c6ccc3[nH]6)C=C5)C=C4)cc2)ccc1Cl
REMARK SMILES IDX 15 1 14 2 13 3 12 4 11 5 9 6 10 7 8 9 6 10 7 11 86 12 85 13
REMARK SMILES IDX 87 14 84 15 5 16 1 17 2 18 3 19 4 20 16 21 17 22 18 23 19 24
REMARK SMILES IDX 20 26 21 27 22 28 83 29 23 30 82 31 24 32 25 33 26 34 76 35
REMARK SMILES IDX 27 36 81 37 75 38 77 39 28 40 80 41 74 42 73 43 29 45 61 46
REMARK SMILES IDX 41 47 60 48 42 49 45 50 59 51 78 52 43 53 44 54 58 56 79 57
REMARK SMILES IDX 46 58 30 59 31 60 39 61 32 62 33 63 37 64 40 65 34 66 35 67
REMARK SMILES IDX 38 68 36 69 62 70 63 71 71 72 64 73 65 74 69 75 72 76 66 77
REMARK SMILES IDX 67 78 70 79 68 80 47 81 48 82 56 83 49 84 50 85 54 86 57 87
REMARK SMILES IDX 51 88 52 89 55 90 53 91
REMARK H PARENT 11 8 18 25 77 44 45 55
REMARK Flexibility Score: inf
ROOT
ATOM      1  C   UNL A   1      31.340  30.822  26.298  1.00  0.00     0.002 C 
ENDROOT
BRANCH   1   2
ATOM      2  C   UNL A   1      32.366  30.049  27.137  1.00  0.00     0.002 C 
BRANCH   2   3
ATOM      3  C   UNL A   1      33.613  29.578  26.373  1.00  0.00     0.021 C 
BRANCH   3   4
ATOM      4  C   UNL A   1      33.435  28.214  25.700  1.00  0.00     0.116 C 
BRANCH   4   5
ATOM      5  N   UNL A   1      33.616  28.337  24.268  1.00  0.00    -0.352 N 
ATOM      6  C   UNL A   1      32.774  28.342  23.190  1.00  0.00     0.251 C 
ATOM      7  O   UNL A   1      33.308  28.457  22.085  1.00  0.00    -0.269 OA
ATOM      8  H   UNL A   1      34.562  28.440  24.012  1.00  0.00     0.163 HD
BRANCH   6   9
ATOM      9  C   UNL A   1      31.283  28.255  23.259  1.00  0.00     0.041 A 
ATOM     10  C   UNL A   1      29.171  29.539  23.062  1.00  0.00     0.057 A 
ATOM     11  C   UNL A   1      30.580  29.454  23.038  1.00  0.00     0.041 A 
ATOM     12  C   UNL A   1      28.458  28.368  23.350  1.00  0.00     0.064 A 
ATOM     13  C   UNL A   1      29.142  27.161  23.547  1.00  0.00     0.023 A 
ATOM     14  Cl  UNL A   1      26.734  28.270  23.354  1.00  0.00    -0.082 Cl
ATOM     15  C   UNL A   1      30.539  27.097  23.467  1.00  0.00     0.015 A 
BRANCH  10  16
ATOM     16  N   UNL A   1      28.619  30.790  22.718  1.00  0.00    -0.367 N 
ATOM     17  C   UNL A   1      28.070  31.907  20.625  1.00  0.00     0.031 C 
ATOM     18  C   UNL A   1      29.013  31.832  21.817  1.00  0.00     0.081 C 
ATOM     19  C   UNL A   1      28.731  32.836  22.942  1.00  0.00     0.046 C 
ATOM     20  C   UNL A   1      28.033  31.692  23.673  1.00  0.00     0.119 C 
ENDBRANCH  10  16
ENDBRANCH   6   9
ENDBRANCH   4   5
ENDBRANCH   3   4
ENDBRANCH   2   3
ENDBRANCH   1   2
BRANCH   1  21
ATOM     21  C   UNL A   1      31.348  32.341  26.496  1.00  0.00     0.021 C 
BRANCH  21  22
ATOM     22  C   UNL A   1      32.558  32.872  27.255  1.00  0.00     0.116 C 
BRANCH  22  23
ATOM     23  N   UNL A   1      32.385  34.261  27.649  1.00  0.00    -0.352 N 
ATOM     24  C   UNL A   1      33.002  34.971  28.648  1.00  0.00     0.251 C 
ATOM     25  H   UNL A   1      31.726  34.767  27.121  1.00  0.00     0.163 HD
ATOM     26  O   UNL A   1      32.572  36.073  28.976  1.00  0.00    -0.269 OA
BRANCH  24  27
ATOM     27  C   UNL A   1      34.178  34.407  29.344  1.00  0.00     0.039 A 
ATOM     28  C   UNL A   1      33.986  33.727  30.549  1.00  0.00     0.014 A 
ATOM     29  C   UNL A   1      35.467  34.574  28.829  1.00  0.00     0.014 A 
ATOM     30  C   UNL A   1      35.081  33.168  31.212  1.00  0.00     0.010 A 
ATOM     31  C   UNL A   1      36.548  33.958  29.455  1.00  0.00     0.010 A 
ATOM     32  C   UNL A   1      36.366  33.255  30.654  1.00  0.00    -0.014 A 
BRANCH  32  33
ATOM     33  C   UNL A   1      37.529  32.610  31.313  1.00  0.00     0.031 A 
ATOM     34  C   UNL A   1      38.226  31.449  30.660  1.00  0.00     0.074 A 
ATOM     35  C   UNL A   1      37.909  33.022  32.537  1.00  0.00     0.049 A 
ATOM     36  N   UNL A   1      39.221  30.724  31.105  1.00  0.00    -0.248 NA
ATOM     37  C   UNL A   1      37.716  31.029  29.347  1.00  0.00     0.031 C 
ATOM     38  C   UNL A   1      37.268  34.091  33.302  1.00  0.00     0.029 A 
ATOM     39  N   UNL A   1      38.913  32.578  33.361  1.00  0.00    -0.354 N 
ATOM     40  C   UNL A   1      39.442  29.752  30.139  1.00  0.00     0.074 A 
ATOM     41  C   UNL A   1      38.444  29.948  29.109  1.00  0.00     0.031 C 
ATOM     42  C   UNL A   1      37.898  34.227  34.479  1.00  0.00     0.029 A 
ATOM     43  C   UNL A   1      38.968  33.237  34.563  1.00  0.00     0.049 A 
ATOM     44  H   UNL A   1      39.535  31.856  33.111  1.00  0.00     0.167 HD
ATOM     45  C   UNL A   1      40.401  28.795  30.105  1.00  0.00     0.037 A 
ATOM     46  C   UNL A   1      39.782  33.058  35.620  1.00  0.00     0.037 A 
ATOM     47  C   UNL A   1      41.407  28.623  31.121  1.00  0.00     0.049 A 
ATOM     48  C   UNL A   1      40.860  32.012  35.549  1.00  0.00     0.074 A 
ATOM     49  C   UNL A   1      42.480  27.750  31.136  1.00  0.00     0.029 A 
ATOM     50  N   UNL A   1      41.457  29.336  32.311  1.00  0.00    -0.354 N 
ATOM     51  N   UNL A   1      41.121  31.161  34.587  1.00  0.00    -0.248 NA
ATOM     52  C   UNL A   1      41.762  31.910  36.703  1.00  0.00     0.031 C 
ATOM     53  C   UNL A   1      43.148  27.897  32.357  1.00  0.00     0.029 A 
ATOM     54  C   UNL A   1      42.523  28.899  33.082  1.00  0.00     0.049 A 
ATOM     55  H   UNL A   1      40.827  30.048  32.570  1.00  0.00     0.167 HD
ATOM     56  C   UNL A   1      42.225  30.433  35.010  1.00  0.00     0.074 A 
ATOM     57  C   UNL A   1      42.595  30.957  36.310  1.00  0.00     0.031 C 
ATOM     58  C   UNL A   1      42.871  29.421  34.380  1.00  0.00     0.037 A 
BRANCH  45  59
ATOM     59  C   UNL A   1      40.399  27.855  28.933  1.00  0.00     0.064 A 
ATOM     60  C   UNL A   1      41.145  28.116  27.773  1.00  0.00     0.173 A 
ATOM     61  C   UNL A   1      39.649  26.669  28.977  1.00  0.00     0.173 A 
ATOM     62  F   UNL A   1      41.871  29.240  27.676  1.00  0.00    -0.203 F 
ATOM     63  C   UNL A   1      41.107  27.247  26.685  1.00  0.00     0.198 A 
ATOM     64  C   UNL A   1      39.640  25.787  27.899  1.00  0.00     0.198 A 
ATOM     65  F   UNL A   1      38.925  26.365  30.063  1.00  0.00    -0.203 F 
ATOM     66  F   UNL A   1      41.777  27.550  25.565  1.00  0.00    -0.200 F 
ATOM     67  C   UNL A   1      40.359  26.081  26.751  1.00  0.00     0.200 A 
ATOM     68  F   UNL A   1      38.927  24.654  27.970  1.00  0.00    -0.200 F 
ATOM     69  F   UNL A   1      40.323  25.248  25.703  1.00  0.00    -0.200 F 
ENDBRANCH  45  59
BRANCH  46  70
ATOM     70  C   UNL A   1      39.614  33.912  36.822  1.00  0.00     0.064 A 
ATOM     71  C   UNL A   1      40.203  35.181  36.896  1.00  0.00     0.173 A 
ATOM     72  C   UNL A   1      38.828  33.492  37.905  1.00  0.00     0.173 A 
ATOM     73  F   UNL A   1      40.977  35.618  35.891  1.00  0.00    -0.203 F 
ATOM     74  C   UNL A   1      40.020  35.995  38.011  1.00  0.00     0.198 A 
ATOM     75  C   UNL A   1      38.624  34.318  39.009  1.00  0.00     0.198 A 
ATOM     76  F   UNL A   1      38.235  32.290  37.879  1.00  0.00    -0.203 F 
ATOM     77  F   UNL A   1      40.618  37.193  38.070  1.00  0.00    -0.200 F 
ATOM     78  C   UNL A   1      39.224  35.567  39.063  1.00  0.00     0.200 A 
ATOM     79  F   UNL A   1      37.840  33.907  40.015  1.00  0.00    -0.200 F 
ATOM     80  F   UNL A   1      39.035  36.357  40.129  1.00  0.00    -0.200 F 
ENDBRANCH  46  70
BRANCH  58  81
ATOM     81  C   UNL A   1      44.054  28.820  35.084  1.00  0.00     0.064 A 
ATOM     82  C   UNL A   1      45.350  29.323  34.899  1.00  0.00     0.173 A 
ATOM     83  C   UNL A   1      43.883  27.754  35.979  1.00  0.00     0.173 A 
ATOM     84  F   UNL A   1      45.568  30.331  34.042  1.00  0.00    -0.203 F 
ATOM     85  C   UNL A   1      46.436  28.763  35.567  1.00  0.00     0.198 A 
ATOM     86  C   UNL A   1      44.967  27.216  36.668  1.00  0.00     0.198 A 
ATOM     87  F   UNL A   1      42.663  27.240  36.195  1.00  0.00    -0.203 F 
ATOM     88  F   UNL A   1      47.673  29.228  35.340  1.00  0.00    -0.200 F 
ATOM     89  C   UNL A   1      46.242  27.716  36.456  1.00  0.00     0.200 A 
ATOM     90  F   UNL A   1      44.776  26.213  37.537  1.00  0.00    -0.200 F 
ATOM     91  F   UNL A   1      47.288  27.183  37.103  1.00  0.00    -0.200 F 
ENDBRANCH  58  81
ENDBRANCH  32  33
ENDBRANCH  24  27
ENDBRANCH  22  23
ENDBRANCH  21  22
ENDBRANCH   1  21
TORSDOF 14
ENDMDL
MODEL 3
REMARK VINA RESULT:     -12.2      0.324      1.642
REMARK SMILES C[C@H]1CCN1c1cc(C(=O)NCCCCCCNC(=O)c2ccc(-c3c4nc(c(-c5c(F)c(F)c(F)c(F)c5F)c5ccc([nH]5)c(-c5c(F)c(F)c(F)c(F)c5F)c5nc(c(-c6c(F)c(F)c(F)c(F)c6F)c6ccc3[nH]6)C=C5)C=C4)cc2)ccc1Cl
REMARK SMILES IDX 15 1 14 2 13 3 12 4 11 5 9 6 10 7 8 9 6 10 7 11 86 12 85 13
REMARK SMILES IDX 87 14 84 15 5 16 1 17 2 18 3 19 4 20 16 21 17 22 18 23 19 24
REMARK SMILES IDX 20 26 21 27 22 28 83 29 23 30 82 31 24 32 25 33 26 34 76 35
REMARK SMILES IDX 27 36 81 37 75 38 77 39 28 40 80 41 74 42 73 43 29 45 61 46
REMARK SMILES IDX 41 47 60 48 42 49 45 50 59 51 78 52 43 53 44 54 58 56 79 57
REMARK SMILES IDX 46 58 30 59 31 60 39 61 32 62 33 63 37 64 40 65 34 66 35 67
REMARK SMILES IDX 38 68 36 69 62 70 63 71 71 72 64 73 65 74 69 75 72 76 66 77
REMARK SMILES IDX 67 78 70 79 68 80 47 81 48 82 56 83 49 84 50 85 54 86 57 87
REMARK SMILES IDX 51 88 52 89 55 90 53 91
REMARK H PARENT 11 8 18 25 77 44 45 55
REMARK Flexibility Score: inf
ROOT
ATOM      1  C   UNL A   1      36.863  20.616  24.963  1.00  0.00     0.002 C 
ENDROOT
BRANCH   1   2
ATOM      2  C   UNL A   1      36.991  21.989  24.289  1.00  0.00     0.002 C 
BRANCH   2   3
ATOM      3  C   UNL A   1      36.726  23.193  25.207  1.00  0.00     0.021 C 
BRANCH   3   4
ATOM      4  C   UNL A   1      35.292  23.722  25.117  1.00  0.00     0.116 C 
BRANCH   4   5
ATOM      5  N   UNL A   1      34.501  23.210  26.218  1.00  0.00    -0.352 N 
ATOM      6  C   UNL A   1      33.607  22.185  26.362  1.00  0.00     0.251 C 
ATOM      7  O   UNL A   1      33.107  22.055  27.481  1.00  0.00    -0.269 OA
ATOM      8  H   UNL A   1      34.640  23.714  27.053  1.00  0.00     0.163 HD
BRANCH   6   9
ATOM      9  C   UNL A   1      33.229  21.213  25.292  1.00  0.00     0.041 A 
ATOM     10  C   UNL A   1      33.207  18.817  24.651  1.00  0.00     0.057 A 
ATOM     11  C   UNL A   1      33.509  19.858  25.555  1.00  0.00     0.041 A 
ATOM     12  C   UNL A   1      32.628  19.172  23.426  1.00  0.00     0.064 A 
ATOM     13  C   UNL A   1      32.319  20.513  23.159  1.00  0.00     0.023 A 
ATOM     14  Cl  UNL A   1      32.130  18.029  22.232  1.00  0.00    -0.082 Cl
ATOM     15  C   UNL A   1      32.584  21.519  24.097  1.00  0.00     0.015 A 
BRANCH  10  16
ATOM     16  N   UNL A   1      33.455  17.507  25.109  1.00  0.00    -0.367 N 
ATOM     17  C   UNL A   1      35.443  16.123  25.357  1.00  0.00     0.031 C 
ATOM     18  C   UNL A   1      34.168  16.387  24.570  1.00  0.00     0.081 C 
ATOM     19  C   UNL A   1      32.968  15.510  24.949  1.00  0.00     0.046 C 
ATOM     20  C   UNL A   1      32.471  16.695  25.773  1.00  0.00     0.119 C 
ENDBRANCH  10  16
ENDBRANCH   6   9
ENDBRANCH   4   5
ENDBRANCH   3   4
ENDBRANCH   2   3
ENDBRANCH   1   2
BRANCH   1  21
ATOM     21  C   UNL A   1      38.119  19.741  24.904  1.00  0.00     0.021 C 
BRANCH  21  22
ATOM     22  C   UNL A   1      39.190  20.105  25.926  1.00  0.00     0.116 C 
BRANCH  22  23
ATOM     23  N   UNL A   1      40.272  19.134  25.946  1.00  0.00    -0.352 N 
ATOM     24  C   UNL A   1      41.627  19.335  26.031  1.00  0.00     0.251 C 
ATOM     25  H   UNL A   1      39.991  18.193  25.890  1.00  0.00     0.163 HD
ATOM     26  O   UNL A   1      42.402  18.409  25.816  1.00  0.00    -0.269 OA
BRANCH  24  27
ATOM     27  C   UNL A   1      42.160  20.672  26.370  1.00  0.00     0.039 A 
ATOM     28  C   UNL A   1      42.509  21.541  25.332  1.00  0.00     0.014 A 
ATOM     29  C   UNL A   1      42.345  21.057  27.701  1.00  0.00     0.014 A 
ATOM     30  C   UNL A   1      42.995  22.816  25.630  1.00  0.00     0.010 A 
ATOM     31  C   UNL A   1      42.765  22.352  27.996  1.00  0.00     0.010 A 
ATOM     32  C   UNL A   1      43.100  23.241  26.964  1.00  0.00    -0.014 A 
BRANCH  32  33
ATOM     33  C   UNL A   1      43.551  24.615  27.294  1.00  0.00     0.031 A 
ATOM     34  C   UNL A   1      42.567  25.646  27.770  1.00  0.00     0.074 A 
ATOM     35  C   UNL A   1      44.838  24.955  27.090  1.00  0.00     0.049 A 
ATOM     36  N   UNL A   1      42.763  26.909  28.054  1.00  0.00    -0.248 NA
ATOM     37  C   UNL A   1      41.172  25.207  27.916  1.00  0.00     0.031 C 
ATOM     38  C   UNL A   1      45.872  24.064  26.565  1.00  0.00     0.029 A 
ATOM     39  N   UNL A   1      45.491  26.148  27.281  1.00  0.00    -0.354 N 
ATOM     40  C   UNL A   1      41.516  27.418  28.392  1.00  0.00     0.074 A 
ATOM     41  C   UNL A   1      40.563  26.341  28.228  1.00  0.00     0.031 C 
ATOM     42  C   UNL A   1      47.031  24.735  26.484  1.00  0.00     0.029 A 
ATOM     43  C   UNL A   1      46.815  26.111  26.923  1.00  0.00     0.049 A 
ATOM     44  H   UNL A   1      45.051  26.951  27.641  1.00  0.00     0.167 HD
ATOM     45  C   UNL A   1      41.199  28.664  28.818  1.00  0.00     0.037 A 
ATOM     46  C   UNL A   1      47.750  27.080  26.937  1.00  0.00     0.037 A 
ATOM     47  C   UNL A   1      42.157  29.723  29.004  1.00  0.00     0.049 A 
ATOM     48  C   UNL A   1      47.384  28.448  27.444  1.00  0.00     0.074 A 
ATOM     49  C   UNL A   1      41.955  30.990  29.523  1.00  0.00     0.029 A 
ATOM     50  N   UNL A   1      43.501  29.640  28.669  1.00  0.00    -0.354 N 
ATOM     51  N   UNL A   1      46.221  28.891  27.853  1.00  0.00    -0.248 NA
ATOM     52  C   UNL A   1      48.461  29.443  27.501  1.00  0.00     0.031 C 
ATOM     53  C   UNL A   1      43.164  31.691  29.452  1.00  0.00     0.029 A 
ATOM     54  C   UNL A   1      44.133  30.844  28.937  1.00  0.00     0.049 A 
ATOM     55  H   UNL A   1      43.941  28.842  28.293  1.00  0.00     0.167 HD
ATOM     56  C   UNL A   1      46.427  30.211  28.231  1.00  0.00     0.074 A 
ATOM     57  C   UNL A   1      47.833  30.489  28.020  1.00  0.00     0.031 C 
ATOM     58  C   UNL A   1      45.531  31.110  28.709  1.00  0.00     0.037 A 
BRANCH  45  59
ATOM     59  C   UNL A   1      39.751  28.950  29.102  1.00  0.00     0.064 A 
ATOM     60  C   UNL A   1      39.203  28.791  30.385  1.00  0.00     0.173 A 
ATOM     61  C   UNL A   1      38.904  29.403  28.079  1.00  0.00     0.173 A 
ATOM     62  F   UNL A   1      39.968  28.352  31.396  1.00  0.00    -0.203 F 
ATOM     63  C   UNL A   1      37.852  29.032  30.622  1.00  0.00     0.198 A 
ATOM     64  C   UNL A   1      37.560  29.675  28.329  1.00  0.00     0.198 A 
ATOM     65  F   UNL A   1      39.376  29.581  26.837  1.00  0.00    -0.203 F 
ATOM     66  F   UNL A   1      37.339  28.811  31.840  1.00  0.00    -0.200 F 
ATOM     67  C   UNL A   1      37.033  29.478  29.595  1.00  0.00     0.200 A 
ATOM     68  F   UNL A   1      36.774  30.118  27.338  1.00  0.00    -0.200 F 
ATOM     69  F   UNL A   1      35.734  29.708  29.826  1.00  0.00    -0.200 F 
ENDBRANCH  45  59
BRANCH  46  70
ATOM     70  C   UNL A   1      49.126  26.771  26.474  1.00  0.00     0.064 A 
ATOM     71  C   UNL A   1      50.087  26.257  27.356  1.00  0.00     0.173 A 
ATOM     72  C   UNL A   1      49.497  26.947  25.133  1.00  0.00     0.173 A 
ATOM     73  F   UNL A   1      49.783  26.089  28.651  1.00  0.00    -0.203 F 
ATOM     74  C   UNL A   1      51.369  25.939  26.915  1.00  0.00     0.198 A 
ATOM     75  C   UNL A   1      50.771  26.603  24.688  1.00  0.00     0.198 A 
ATOM     76  F   UNL A   1      48.610  27.426  24.248  1.00  0.00    -0.203 F 
ATOM     77  F   UNL A   1      52.278  25.477  27.784  1.00  0.00    -0.200 F 
ATOM     78  C   UNL A   1      51.708  26.104  25.580  1.00  0.00     0.200 A 
ATOM     79  F   UNL A   1      51.089  26.748  23.394  1.00  0.00    -0.200 F 
ATOM     80  F   UNL A   1      52.937  25.782  25.153  1.00  0.00    -0.200 F 
ENDBRANCH  46  70
BRANCH  58  81
ATOM     81  C   UNL A   1      46.049  32.479  29.046  1.00  0.00     0.064 A 
ATOM     82  C   UNL A   1      46.574  32.773  30.313  1.00  0.00     0.173 A 
ATOM     83  C   UNL A   1      46.053  33.496  28.081  1.00  0.00     0.173 A 
ATOM     84  F   UNL A   1      46.578  31.839  31.276  1.00  0.00    -0.203 F 
ATOM     85  C   UNL A   1      47.061  34.044  30.608  1.00  0.00     0.198 A 
ATOM     86  C   UNL A   1      46.568  34.757  28.369  1.00  0.00     0.198 A 
ATOM     87  F   UNL A   1      45.568  33.265  26.851  1.00  0.00    -0.203 F 
ATOM     88  F   UNL A   1      47.514  34.316  31.840  1.00  0.00    -0.200 F 
ATOM     89  C   UNL A   1      47.065  35.031  29.635  1.00  0.00     0.200 A 
ATOM     90  F   UNL A   1      46.584  35.706  27.424  1.00  0.00    -0.200 F 
ATOM     91  F   UNL A   1      47.540  36.252  29.919  1.00  0.00    -0.200 F 
ENDBRANCH  58  81
ENDBRANCH  32  33
ENDBRANCH  24  27
ENDBRANCH  22  23
ENDBRANCH  21  22
ENDBRANCH   1  21
TORSDOF 14
ENDMDL
