MODEL 1
REMARK VINA RESULT:      -9.0      0.000      0.000
REMARK SMILES CCCCCCNC(=O)Oc1cccc(-c2ccc([C@H](C)C(=O)NCCCCCCNC(=O)c3ccc(-c4c5nc(c(-c6c(F)c(F)c(F)c(F)c6F)c6ccc([nH]6)c(-c6c(F)c(F)c(F)c(F)c6F)c6nc(c(-c7c(F)c(F)c(F)c(F)c7F)c7ccc4[nH]7)C=C6)C=C5)cc3)cc2F)c1
REMARK SMILES IDX 22 1 23 2 24 3 20 5 21 6 19 7 16 8 17 9 98 10 18 11 97 12
REMARK SMILES IDX 99 13 15 14 11 15 12 16 100 17 13 18 14 19 10 20 8 21 7 22
REMARK SMILES IDX 9 24 6 25 5 26 4 27 3 28 2 29 1 30 25 31 26 32 27 33 28 34
REMARK SMILES IDX 29 35 30 36 31 37 32 38 33 40 34 41 35 42 96 43 36 44 95 45
REMARK SMILES IDX 37 46 38 47 39 48 89 49 40 50 94 51 88 52 90 53 41 54 93 55
REMARK SMILES IDX 87 56 86 57 42 59 74 60 54 61 73 62 55 63 58 64 72 65 91 66
REMARK SMILES IDX 56 67 57 68 71 70 92 71 59 72 43 73 44 74 52 75 45 76 46 77
REMARK SMILES IDX 50 78 53 79 47 80 48 81 51 82 49 83 75 84 76 85 84 86 77 87
REMARK SMILES IDX 78 88 82 89 85 90 79 91 80 92 83 93 81 94 60 95 61 96 69 97
REMARK SMILES IDX 62 98 63 99 67 100 70 101 64 102 65 103 68 104 66 105
REMARK H PARENT 24 4 7 23 31 39 90 58 58 69
REMARK Flexibility Score: inf
ROOT
ATOM      1  C   UNL A   1      38.709  30.549  35.417  1.00  0.00     0.227 C 
ATOM      2  O   UNL A   1      38.293  30.235  36.535  1.00  0.00    -0.274 OA
ATOM      3  N   UNL A   1      37.796  30.666  34.409  1.00  0.00    -0.356 N 
ATOM      4  H   UNL A   1      36.871  30.433  34.655  1.00  0.00     0.163 HD
ENDROOT
BRANCH   1   5
ATOM      5  C   UNL A   1      40.204  30.784  35.169  1.00  0.00     0.105 C 
ATOM      6  C   UNL A   1      40.731  31.717  36.268  1.00  0.00     0.023 C 
BRANCH   5   7
ATOM      7  C   UNL A   1      40.992  29.504  34.893  1.00  0.00    -0.033 A 
ATOM      8  C   UNL A   1      42.494  27.136  34.316  1.00  0.00     0.018 A 
ATOM      9  C   UNL A   1      41.902  27.888  33.292  1.00  0.00     0.012 A 
ATOM     10  C   UNL A   1      42.337  27.611  35.625  1.00  0.00     0.131 A 
ATOM     11  C   UNL A   1      41.185  29.058  33.572  1.00  0.00     0.005 A 
ATOM     12  C   UNL A   1      41.607  28.770  35.914  1.00  0.00     0.044 A 
ATOM     13  F   UNL A   1      42.908  26.965  36.652  1.00  0.00    -0.206 F 
BRANCH   8  14
ATOM     14  C   UNL A   1      43.255  25.912  34.012  1.00  0.00    -0.012 A 
ATOM     15  C   UNL A   1      44.038  23.693  34.618  1.00  0.00     0.133 A 
ATOM     16  C   UNL A   1      44.744  23.582  33.424  1.00  0.00     0.047 A 
ATOM     17  C   UNL A   1      43.309  24.843  34.923  1.00  0.00     0.056 A 
ATOM     18  C   UNL A   1      44.697  24.627  32.506  1.00  0.00     0.004 A 
ATOM     19  C   UNL A   1      43.959  25.778  32.800  1.00  0.00     0.009 A 
BRANCH  15  20
ATOM     20  O   UNL A   1      44.201  22.659  35.553  1.00  0.00    -0.410 OA
BRANCH  20  21
ATOM     21  C   UNL A   1      45.332  22.666  36.352  1.00  0.00     0.412 C 
ATOM     22  N   UNL A   1      46.178  21.625  36.093  1.00  0.00    -0.321 N 
ATOM     23  H   UNL A   1      46.996  21.572  36.639  1.00  0.00     0.167 HD
ATOM     24  O   UNL A   1      45.594  23.488  37.228  1.00  0.00    -0.224 OA
BRANCH  22  25
ATOM     25  C   UNL A   1      45.994  20.588  35.095  1.00  0.00     0.119 C 
BRANCH  25  26
ATOM     26  C   UNL A   1      47.259  20.354  34.271  1.00  0.00     0.021 C 
BRANCH  26  27
ATOM     27  C   UNL A   1      48.571  20.484  35.054  1.00  0.00     0.002 C 
BRANCH  27  28
ATOM     28  C   UNL A   1      49.374  21.761  34.786  1.00  0.00    -0.000 C 
BRANCH  28  29
ATOM     29  C   UNL A   1      50.893  21.589  34.724  1.00  0.00    -0.003 C 
ATOM     30  C   UNL A   1      51.443  21.599  33.308  1.00  0.00     0.004 C 
ENDBRANCH  28  29
ENDBRANCH  27  28
ENDBRANCH  26  27
ENDBRANCH  25  26
ENDBRANCH  22  25
ENDBRANCH  20  21
ENDBRANCH  15  20
ENDBRANCH   8  14
ENDBRANCH   5   7
ENDBRANCH   1   5
BRANCH   3  31
ATOM     31  C   UNL A   1      37.979  31.082  33.030  1.00  0.00     0.116 C 
BRANCH  31  32
ATOM     32  C   UNL A   1      38.090  32.599  32.918  1.00  0.00     0.021 C 
BRANCH  32  33
ATOM     33  C   UNL A   1      37.122  33.230  31.912  1.00  0.00     0.002 C 
BRANCH  33  34
ATOM     34  C   UNL A   1      37.471  33.002  30.436  1.00  0.00     0.002 C 
BRANCH  34  35
ATOM     35  C   UNL A   1      36.283  33.011  29.471  1.00  0.00     0.021 C 
BRANCH  35  36
ATOM     36  C   UNL A   1      35.039  32.283  29.971  1.00  0.00     0.116 C 
BRANCH  36  37
ATOM     37  N   UNL A   1      34.393  31.502  28.928  1.00  0.00    -0.352 N 
ATOM     38  C   UNL A   1      34.920  30.516  28.132  1.00  0.00     0.251 C 
ATOM     39  H   UNL A   1      33.444  31.709  28.772  1.00  0.00     0.163 HD
ATOM     40  O   UNL A   1      34.270  30.059  27.198  1.00  0.00    -0.269 OA
BRANCH  38  41
ATOM     41  C   UNL A   1      36.288  30.018  28.386  1.00  0.00     0.039 A 
ATOM     42  C   UNL A   1      37.265  30.199  27.403  1.00  0.00     0.014 A 
ATOM     43  C   UNL A   1      36.607  29.369  29.583  1.00  0.00     0.014 A 
ATOM     44  C   UNL A   1      38.575  29.781  27.643  1.00  0.00     0.010 A 
ATOM     45  C   UNL A   1      37.926  29.009  29.845  1.00  0.00     0.010 A 
ATOM     46  C   UNL A   1      38.922  29.208  28.877  1.00  0.00    -0.014 A 
BRANCH  46  47
ATOM     47  C   UNL A   1      40.318  28.799  29.172  1.00  0.00     0.031 A 
ATOM     48  C   UNL A   1      41.224  29.720  29.940  1.00  0.00     0.074 A 
ATOM     49  C   UNL A   1      40.786  27.627  28.700  1.00  0.00     0.049 A 
ATOM     50  N   UNL A   1      42.496  29.589  30.218  1.00  0.00    -0.248 NA
ATOM     51  C   UNL A   1      40.623  30.964  30.445  1.00  0.00     0.031 C 
ATOM     52  C   UNL A   1      40.014  26.661  27.918  1.00  0.00     0.029 A 
ATOM     53  N   UNL A   1      42.030  27.054  28.800  1.00  0.00    -0.354 N 
ATOM     54  C   UNL A   1      42.848  30.735  30.920  1.00  0.00     0.074 A 
ATOM     55  C   UNL A   1      41.671  31.573  30.982  1.00  0.00     0.031 C 
ATOM     56  C   UNL A   1      40.794  25.607  27.627  1.00  0.00     0.029 A 
ATOM     57  C   UNL A   1      42.130  25.840  28.166  1.00  0.00     0.049 A 
ATOM     58  H   UNL A   1      42.779  27.475  29.281  1.00  0.00     0.167 HD
ATOM     59  C   UNL A   1      44.040  31.046  31.483  1.00  0.00     0.037 A 
ATOM     60  C   UNL A   1      43.185  25.015  28.027  1.00  0.00     0.037 A 
ATOM     61  C   UNL A   1      45.204  30.203  31.439  1.00  0.00     0.049 A 
ATOM     62  C   UNL A   1      44.504  25.400  28.645  1.00  0.00     0.074 A 
ATOM     63  C   UNL A   1      46.452  30.421  31.998  1.00  0.00     0.029 A 
ATOM     64  N   UNL A   1      45.261  28.971  30.803  1.00  0.00    -0.354 N 
ATOM     65  N   UNL A   1      44.813  26.467  29.340  1.00  0.00    -0.248 NA
ATOM     66  C   UNL A   1      45.621  24.461  28.461  1.00  0.00     0.031 C 
ATOM     67  C   UNL A   1      47.272  29.336  31.674  1.00  0.00     0.029 A 
ATOM     68  C   UNL A   1      46.524  28.422  30.950  1.00  0.00     0.049 A 
ATOM     69  H   UNL A   1      44.514  28.550  30.319  1.00  0.00     0.167 HD
ATOM     70  C   UNL A   1      46.143  26.311  29.708  1.00  0.00     0.074 A 
ATOM     71  C   UNL A   1      46.580  25.041  29.168  1.00  0.00     0.031 C 
ATOM     72  C   UNL A   1      46.932  27.144  30.429  1.00  0.00     0.037 A 
BRANCH  59  73
ATOM     73  C   UNL A   1      44.140  32.353  32.213  1.00  0.00     0.064 A 
ATOM     74  C   UNL A   1      44.449  33.545  31.538  1.00  0.00     0.173 A 
ATOM     75  C   UNL A   1      43.880  32.427  33.589  1.00  0.00     0.173 A 
ATOM     76  F   UNL A   1      44.717  33.524  30.224  1.00  0.00    -0.203 F 
ATOM     77  C   UNL A   1      44.513  34.757  32.218  1.00  0.00     0.198 A 
ATOM     78  C   UNL A   1      43.917  33.646  34.261  1.00  0.00     0.198 A 
ATOM     79  F   UNL A   1      43.575  31.319  34.281  1.00  0.00    -0.203 F 
ATOM     80  F   UNL A   1      44.849  35.875  31.560  1.00  0.00    -0.200 F 
ATOM     81  C   UNL A   1      44.240  34.809  33.576  1.00  0.00     0.200 A 
ATOM     82  F   UNL A   1      43.642  33.697  35.572  1.00  0.00    -0.200 F 
ATOM     83  F   UNL A   1      44.291  35.979  34.228  1.00  0.00    -0.200 F 
ENDBRANCH  59  73
BRANCH  60  84
ATOM     84  C   UNL A   1      43.041  23.730  27.296  1.00  0.00     0.064 A 
ATOM     85  C   UNL A   1      42.502  22.600  27.930  1.00  0.00     0.173 A 
ATOM     86  C   UNL A   1      43.455  23.592  25.963  1.00  0.00     0.173 A 
ATOM     87  F   UNL A   1      42.109  22.676  29.210  1.00  0.00    -0.203 F 
ATOM     88  C   UNL A   1      42.415  21.376  27.271  1.00  0.00     0.198 A 
ATOM     89  C   UNL A   1      43.330  22.378  25.293  1.00  0.00     0.198 A 
ATOM     90  F   UNL A   1      43.978  24.640  25.307  1.00  0.00    -0.203 F 
ATOM     91  F   UNL A   1      41.953  20.300  27.921  1.00  0.00    -0.200 F 
ATOM     92  C   UNL A   1      42.826  21.266  25.952  1.00  0.00     0.200 A 
ATOM     93  F   UNL A   1      43.702  22.283  24.011  1.00  0.00    -0.200 F 
ATOM     94  F   UNL A   1      42.747  20.089  25.317  1.00  0.00    -0.200 F 
ENDBRANCH  60  84
BRANCH  72  95
ATOM     95  C   UNL A   1      48.330  26.687  30.721  1.00  0.00     0.064 A 
ATOM     96  C   UNL A   1      48.640  25.949  31.873  1.00  0.00     0.173 A 
ATOM     97  C   UNL A   1      49.367  26.957  29.814  1.00  0.00     0.173 A 
ATOM     98  F   UNL A   1      47.686  25.680  32.778  1.00  0.00    -0.203 F 
ATOM     99  C   UNL A   1      49.940  25.518  32.118  1.00  0.00     0.198 A 
ATOM    100  C   UNL A   1      50.660  26.500  30.049  1.00  0.00     0.198 A 
ATOM    101  F   UNL A   1      49.121  27.653  28.695  1.00  0.00    -0.203 F 
ATOM    102  F   UNL A   1      50.222  24.854  33.247  1.00  0.00    -0.200 F 
ATOM    103  C   UNL A   1      50.948  25.788  31.202  1.00  0.00     0.200 A 
ATOM    104  F   UNL A   1      51.630  26.751  29.157  1.00  0.00    -0.200 F 
ATOM    105  F   UNL A   1      52.198  25.366  31.437  1.00  0.00    -0.200 F 
ENDBRANCH  72  95
ENDBRANCH  46  47
ENDBRANCH  38  41
ENDBRANCH  36  37
ENDBRANCH  35  36
ENDBRANCH  34  35
ENDBRANCH  33  34
ENDBRANCH  32  33
ENDBRANCH  31  32
ENDBRANCH   3  31
TORSDOF 22
ENDMDL
MODEL 2
REMARK VINA RESULT:      -8.9      3.135      6.626
REMARK SMILES CCCCCCNC(=O)Oc1cccc(-c2ccc([C@H](C)C(=O)NCCCCCCNC(=O)c3ccc(-c4c5nc(c(-c6c(F)c(F)c(F)c(F)c6F)c6ccc([nH]6)c(-c6c(F)c(F)c(F)c(F)c6F)c6nc(c(-c7c(F)c(F)c(F)c(F)c7F)c7ccc4[nH]7)C=C6)C=C5)cc3)cc2F)c1
REMARK SMILES IDX 22 1 23 2 24 3 20 5 21 6 19 7 16 8 17 9 98 10 18 11 97 12
REMARK SMILES IDX 99 13 15 14 11 15 12 16 100 17 13 18 14 19 10 20 8 21 7 22
REMARK SMILES IDX 9 24 6 25 5 26 4 27 3 28 2 29 1 30 25 31 26 32 27 33 28 34
REMARK SMILES IDX 29 35 30 36 31 37 32 38 33 40 34 41 35 42 96 43 36 44 95 45
REMARK SMILES IDX 37 46 38 47 39 48 89 49 40 50 94 51 88 52 90 53 41 54 93 55
REMARK SMILES IDX 87 56 86 57 42 59 74 60 54 61 73 62 55 63 58 64 72 65 91 66
REMARK SMILES IDX 56 67 57 68 71 70 92 71 59 72 43 73 44 74 52 75 45 76 46 77
REMARK SMILES IDX 50 78 53 79 47 80 48 81 51 82 49 83 75 84 76 85 84 86 77 87
REMARK SMILES IDX 78 88 82 89 85 90 79 91 80 92 83 93 81 94 60 95 61 96 69 97
REMARK SMILES IDX 62 98 63 99 67 100 70 101 64 102 65 103 68 104 66 105
REMARK H PARENT 24 4 7 23 31 39 90 58 58 69
REMARK Flexibility Score: inf
ROOT
ATOM      1  C   UNL A   1      36.665  30.219  29.739  1.00  0.00     0.227 C 
ATOM      2  O   UNL A   1      36.583  29.631  30.821  1.00  0.00    -0.274 OA
ATOM      3  N   UNL A   1      35.502  30.532  29.098  1.00  0.00    -0.356 N 
ATOM      4  H   UNL A   1      34.682  30.208  29.538  1.00  0.00     0.163 HD
ENDROOT
BRANCH   1   5
ATOM      5  C   UNL A   1      38.029  30.571  29.134  1.00  0.00     0.105 C 
ATOM      6  C   UNL A   1      38.530  31.862  29.798  1.00  0.00     0.023 C 
BRANCH   5   7
ATOM      7  C   UNL A   1      38.998  29.390  29.069  1.00  0.00    -0.033 A 
ATOM      8  C   UNL A   1      40.860  27.217  28.986  1.00  0.00     0.018 A 
ATOM      9  C   UNL A   1      41.294  28.548  28.933  1.00  0.00     0.012 A 
ATOM     10  C   UNL A   1      39.480  27.004  29.107  1.00  0.00     0.131 A 
ATOM     11  C   UNL A   1      40.386  29.612  28.995  1.00  0.00     0.005 A 
ATOM     12  C   UNL A   1      38.564  28.061  29.152  1.00  0.00     0.044 A 
ATOM     13  F   UNL A   1      38.993  25.757  29.202  1.00  0.00    -0.206 F 
BRANCH   8  14
ATOM     14  C   UNL A   1      41.823  26.103  28.930  1.00  0.00    -0.012 A 
ATOM     15  C   UNL A   1      42.427  23.850  28.251  1.00  0.00     0.133 A 
ATOM     16  C   UNL A   1      43.674  23.968  28.859  1.00  0.00     0.047 A 
ATOM     17  C   UNL A   1      41.502  24.894  28.290  1.00  0.00     0.056 A 
ATOM     18  C   UNL A   1      44.012  25.160  29.491  1.00  0.00     0.004 A 
ATOM     19  C   UNL A   1      43.094  26.215  29.525  1.00  0.00     0.009 A 
BRANCH  15  20
ATOM     20  O   UNL A   1      42.094  22.596  27.717  1.00  0.00    -0.410 OA
BRANCH  20  21
ATOM     21  C   UNL A   1      41.358  22.553  26.545  1.00  0.00     0.412 C 
ATOM     22  N   UNL A   1      42.132  22.644  25.422  1.00  0.00    -0.321 N 
ATOM     23  H   UNL A   1      41.661  22.630  24.558  1.00  0.00     0.167 HD
ATOM     24  O   UNL A   1      40.135  22.459  26.462  1.00  0.00    -0.224 OA
BRANCH  22  25
ATOM     25  C   UNL A   1      43.577  22.760  25.375  1.00  0.00     0.119 C 
BRANCH  25  26
ATOM     26  C   UNL A   1      44.027  24.028  24.650  1.00  0.00     0.021 C 
BRANCH  26  27
ATOM     27  C   UNL A   1      43.990  25.303  25.500  1.00  0.00     0.002 C 
BRANCH  27  28
ATOM     28  C   UNL A   1      45.346  25.974  25.742  1.00  0.00    -0.000 C 
BRANCH  28  29
ATOM     29  C   UNL A   1      45.333  27.504  25.776  1.00  0.00    -0.003 C 
ATOM     30  C   UNL A   1      44.153  28.079  26.543  1.00  0.00     0.004 C 
ENDBRANCH  28  29
ENDBRANCH  27  28
ENDBRANCH  26  27
ENDBRANCH  25  26
ENDBRANCH  22  25
ENDBRANCH  20  21
ENDBRANCH  15  20
ENDBRANCH   8  14
ENDBRANCH   5   7
ENDBRANCH   1   5
BRANCH   3  31
ATOM     31  C   UNL A   1      35.288  31.271  27.866  1.00  0.00     0.116 C 
BRANCH  31  32
ATOM     32  C   UNL A   1      35.120  32.763  28.136  1.00  0.00     0.021 C 
BRANCH  32  33
ATOM     33  C   UNL A   1      34.449  33.090  29.474  1.00  0.00     0.002 C 
BRANCH  33  34
ATOM     34  C   UNL A   1      35.338  33.814  30.493  1.00  0.00     0.002 C 
BRANCH  34  35
ATOM     35  C   UNL A   1      35.605  33.049  31.791  1.00  0.00     0.021 C 
BRANCH  35  36
ATOM     36  C   UNL A   1      36.779  33.568  32.615  1.00  0.00     0.116 C 
BRANCH  36  37
ATOM     37  N   UNL A   1      36.626  33.297  34.036  1.00  0.00    -0.352 N 
ATOM     38  C   UNL A   1      37.383  32.493  34.851  1.00  0.00     0.251 C 
ATOM     39  H   UNL A   1      35.874  33.755  34.475  1.00  0.00     0.163 HD
ATOM     40  O   UNL A   1      37.025  32.261  36.000  1.00  0.00    -0.269 OA
BRANCH  38  41
ATOM     41  C   UNL A   1      38.625  31.881  34.332  1.00  0.00     0.039 A 
ATOM     42  C   UNL A   1      38.527  30.807  33.443  1.00  0.00     0.014 A 
ATOM     43  C   UNL A   1      39.879  32.358  34.725  1.00  0.00     0.014 A 
ATOM     44  C   UNL A   1      39.687  30.247  32.904  1.00  0.00     0.010 A 
ATOM     45  C   UNL A   1      41.032  31.839  34.139  1.00  0.00     0.010 A 
ATOM     46  C   UNL A   1      40.946  30.778  33.226  1.00  0.00    -0.014 A 
BRANCH  46  47
ATOM     47  C   UNL A   1      42.189  30.229  32.628  1.00  0.00     0.031 A 
ATOM     48  C   UNL A   1      42.809  30.901  31.435  1.00  0.00     0.074 A 
ATOM     49  C   UNL A   1      42.727  29.097  33.121  1.00  0.00     0.049 A 
ATOM     50  N   UNL A   1      43.835  30.528  30.713  1.00  0.00    -0.248 NA
ATOM     51  C   UNL A   1      42.177  32.149  30.980  1.00  0.00     0.031 C 
ATOM     52  C   UNL A   1      42.203  28.337  34.257  1.00  0.00     0.029 A 
ATOM     53  N   UNL A   1      43.828  28.380  32.723  1.00  0.00    -0.354 N 
ATOM     54  C   UNL A   1      43.964  31.488  29.717  1.00  0.00     0.074 A 
ATOM     55  C   UNL A   1      42.883  32.432  29.894  1.00  0.00     0.031 C 
ATOM     56  C   UNL A   1      42.993  27.273  34.476  1.00  0.00     0.029 A 
ATOM     57  C   UNL A   1      44.054  27.253  33.475  1.00  0.00     0.049 A 
ATOM     58  H   UNL A   1      44.401  28.650  31.969  1.00  0.00     0.167 HD
ATOM     59  C   UNL A   1      44.914  31.585  28.757  1.00  0.00     0.037 A 
ATOM     60  C   UNL A   1      45.005  26.307  33.360  1.00  0.00     0.037 A 
ATOM     61  C   UNL A   1      46.002  30.657  28.594  1.00  0.00     0.049 A 
ATOM     62  C   UNL A   1      46.036  26.430  32.268  1.00  0.00     0.074 A 
ATOM     63  C   UNL A   1      47.028  30.682  27.665  1.00  0.00     0.029 A 
ATOM     64  N   UNL A   1      46.208  29.538  29.388  1.00  0.00    -0.354 N 
ATOM     65  N   UNL A   1      46.170  27.363  31.357  1.00  0.00    -0.248 NA
ATOM     66  C   UNL A   1      47.049  25.368  32.190  1.00  0.00     0.031 C 
ATOM     67  C   UNL A   1      47.837  29.561  27.876  1.00  0.00     0.029 A 
ATOM     68  C   UNL A   1      47.339  28.861  28.964  1.00  0.00     0.049 A 
ATOM     69  H   UNL A   1      45.634  29.265  30.140  1.00  0.00     0.167 HD
ATOM     70  C   UNL A   1      47.301  27.023  30.626  1.00  0.00     0.074 A 
ATOM     71  C   UNL A   1      47.822  25.802  31.205  1.00  0.00     0.031 C 
ATOM     72  C   UNL A   1      47.858  27.663  29.570  1.00  0.00     0.037 A 
BRANCH  59  73
ATOM     73  C   UNL A   1      44.830  32.749  27.814  1.00  0.00     0.064 A 
ATOM     74  C   UNL A   1      44.169  32.642  26.581  1.00  0.00     0.173 A 
ATOM     75  C   UNL A   1      45.372  33.995  28.163  1.00  0.00     0.173 A 
ATOM     76  F   UNL A   1      43.645  31.469  26.196  1.00  0.00    -0.203 F 
ATOM     77  C   UNL A   1      44.072  33.735  25.723  1.00  0.00     0.198 A 
ATOM     78  C   UNL A   1      45.248  35.093  27.316  1.00  0.00     0.198 A 
ATOM     79  F   UNL A   1      46.009  34.152  29.334  1.00  0.00    -0.203 F 
ATOM     80  F   UNL A   1      43.470  33.599  24.534  1.00  0.00    -0.200 F 
ATOM     81  C   UNL A   1      44.604  34.960  26.095  1.00  0.00     0.200 A 
ATOM     82  F   UNL A   1      45.752  36.280  27.681  1.00  0.00    -0.200 F 
ATOM     83  F   UNL A   1      44.499  36.014  25.273  1.00  0.00    -0.200 F 
ENDBRANCH  59  73
BRANCH  60  84
ATOM     84  C   UNL A   1      45.051  25.171  34.316  1.00  0.00     0.064 A 
ATOM     85  C   UNL A   1      45.597  25.334  35.598  1.00  0.00     0.173 A 
ATOM     86  C   UNL A   1      44.576  23.898  33.968  1.00  0.00     0.173 A 
ATOM     87  F   UNL A   1      46.082  26.528  35.972  1.00  0.00    -0.203 F 
ATOM     88  C   UNL A   1      45.696  24.261  36.482  1.00  0.00     0.198 A 
ATOM     89  C   UNL A   1      44.641  22.837  34.867  1.00  0.00     0.198 A 
ATOM     90  F   UNL A   1      44.045  23.685  32.755  1.00  0.00    -0.203 F 
ATOM     91  F   UNL A   1      46.278  24.432  37.676  1.00  0.00    -0.200 F 
ATOM     92  C   UNL A   1      45.215  23.014  36.117  1.00  0.00     0.200 A 
ATOM     93  F   UNL A   1      44.149  21.640  34.522  1.00  0.00    -0.200 F 
ATOM     94  F   UNL A   1      45.313  21.980  36.963  1.00  0.00    -0.200 F 
ENDBRANCH  60  84
BRANCH  72  95
ATOM     95  C   UNL A   1      49.124  27.088  29.006  1.00  0.00     0.064 A 
ATOM     96  C   UNL A   1      50.386  27.500  29.457  1.00  0.00     0.173 A 
ATOM     97  C   UNL A   1      49.068  26.083  28.028  1.00  0.00     0.173 A 
ATOM     98  F   UNL A   1      50.490  28.470  30.378  1.00  0.00    -0.203 F 
ATOM     99  C   UNL A   1      51.548  26.941  28.933  1.00  0.00     0.198 A 
ATOM    100  C   UNL A   1      50.232  25.506  27.528  1.00  0.00     0.198 A 
ATOM    101  F   UNL A   1      47.885  25.651  27.569  1.00  0.00    -0.203 F 
ATOM    102  F   UNL A   1      52.745  27.380  29.346  1.00  0.00    -0.200 F 
ATOM    103  C   UNL A   1      51.470  25.940  27.975  1.00  0.00     0.200 A 
ATOM    104  F   UNL A   1      50.155  24.532  26.611  1.00  0.00    -0.200 F 
ATOM    105  F   UNL A   1      52.591  25.399  27.478  1.00  0.00    -0.200 F 
ENDBRANCH  72  95
ENDBRANCH  46  47
ENDBRANCH  38  41
ENDBRANCH  36  37
ENDBRANCH  35  36
ENDBRANCH  34  35
ENDBRANCH  33  34
ENDBRANCH  32  33
ENDBRANCH  31  32
ENDBRANCH   3  31
TORSDOF 22
ENDMDL
MODEL 3
REMARK VINA RESULT:      -8.9      3.131      7.712
REMARK SMILES CCCCCCNC(=O)Oc1cccc(-c2ccc([C@H](C)C(=O)NCCCCCCNC(=O)c3ccc(-c4c5nc(c(-c6c(F)c(F)c(F)c(F)c6F)c6ccc([nH]6)c(-c6c(F)c(F)c(F)c(F)c6F)c6nc(c(-c7c(F)c(F)c(F)c(F)c7F)c7ccc4[nH]7)C=C6)C=C5)cc3)cc2F)c1
REMARK SMILES IDX 22 1 23 2 24 3 20 5 21 6 19 7 16 8 17 9 98 10 18 11 97 12
REMARK SMILES IDX 99 13 15 14 11 15 12 16 100 17 13 18 14 19 10 20 8 21 7 22
REMARK SMILES IDX 9 24 6 25 5 26 4 27 3 28 2 29 1 30 25 31 26 32 27 33 28 34
REMARK SMILES IDX 29 35 30 36 31 37 32 38 33 40 34 41 35 42 96 43 36 44 95 45
REMARK SMILES IDX 37 46 38 47 39 48 89 49 40 50 94 51 88 52 90 53 41 54 93 55
REMARK SMILES IDX 87 56 86 57 42 59 74 60 54 61 73 62 55 63 58 64 72 65 91 66
REMARK SMILES IDX 56 67 57 68 71 70 92 71 59 72 43 73 44 74 52 75 45 76 46 77
REMARK SMILES IDX 50 78 53 79 47 80 48 81 51 82 49 83 75 84 76 85 84 86 77 87
REMARK SMILES IDX 78 88 82 89 85 90 79 91 80 92 83 93 81 94 60 95 61 96 69 97
REMARK SMILES IDX 62 98 63 99 67 100 70 101 64 102 65 103 68 104 66 105
REMARK H PARENT 24 4 7 23 31 39 90 58 58 69
REMARK Flexibility Score: inf
ROOT
ATOM      1  C   UNL A   1      36.981  29.551  29.628  1.00  0.00     0.227 C 
ATOM      2  O   UNL A   1      36.999  28.938  30.699  1.00  0.00    -0.274 OA
ATOM      3  N   UNL A   1      35.764  29.900  29.118  1.00  0.00    -0.356 N 
ATOM      4  H   UNL A   1      34.988  29.580  29.632  1.00  0.00     0.163 HD
ENDROOT
BRANCH   1   5
ATOM      5  C   UNL A   1      38.282  29.894  28.894  1.00  0.00     0.105 C 
ATOM      6  C   UNL A   1      38.783  31.249  29.413  1.00  0.00     0.023 C 
BRANCH   5   7
ATOM      7  C   UNL A   1      39.286  28.741  28.848  1.00  0.00    -0.033 A 
ATOM      8  C   UNL A   1      41.196  26.609  28.823  1.00  0.00     0.018 A 
ATOM      9  C   UNL A   1      41.548  27.895  29.256  1.00  0.00     0.012 A 
ATOM     10  C   UNL A   1      39.866  26.415  28.429  1.00  0.00     0.131 A 
ATOM     11  C   UNL A   1      40.609  28.933  29.289  1.00  0.00     0.005 A 
ATOM     12  C   UNL A   1      38.926  27.451  28.442  1.00  0.00     0.044 A 
ATOM     13  F   UNL A   1      39.446  25.201  28.039  1.00  0.00    -0.206 F 
BRANCH   8  14
ATOM     14  C   UNL A   1      42.188  25.520  28.801  1.00  0.00    -0.012 A 
ATOM     15  C   UNL A   1      42.896  23.307  28.091  1.00  0.00     0.133 A 
ATOM     16  C   UNL A   1      44.091  23.429  28.794  1.00  0.00     0.047 A 
ATOM     17  C   UNL A   1      41.945  24.328  28.097  1.00  0.00     0.056 A 
ATOM     18  C   UNL A   1      44.352  24.605  29.492  1.00  0.00     0.004 A 
ATOM     19  C   UNL A   1      43.409  25.638  29.493  1.00  0.00     0.009 A 
BRANCH  15  20
ATOM     20  O   UNL A   1      42.635  22.066  27.490  1.00  0.00    -0.410 OA
BRANCH  20  21
ATOM     21  C   UNL A   1      42.014  22.052  26.252  1.00  0.00     0.412 C 
ATOM     22  N   UNL A   1      42.891  22.181  25.212  1.00  0.00    -0.321 N 
ATOM     23  H   UNL A   1      42.505  22.187  24.306  1.00  0.00     0.167 HD
ATOM     24  O   UNL A   1      40.806  21.950  26.050  1.00  0.00    -0.224 OA
BRANCH  22  25
ATOM     25  C   UNL A   1      44.332  22.309  25.306  1.00  0.00     0.119 C 
BRANCH  25  26
ATOM     26  C   UNL A   1      44.856  23.500  24.503  1.00  0.00     0.021 C 
BRANCH  26  27
ATOM     27  C   UNL A   1      45.428  24.645  25.349  1.00  0.00     0.002 C 
BRANCH  27  28
ATOM     28  C   UNL A   1      44.440  25.763  25.696  1.00  0.00    -0.000 C 
BRANCH  28  29
ATOM     29  C   UNL A   1      45.000  26.900  26.554  1.00  0.00    -0.003 C 
ATOM     30  C   UNL A   1      45.545  28.059  25.737  1.00  0.00     0.004 C 
ENDBRANCH  28  29
ENDBRANCH  27  28
ENDBRANCH  26  27
ENDBRANCH  25  26
ENDBRANCH  22  25
ENDBRANCH  20  21
ENDBRANCH  15  20
ENDBRANCH   8  14
ENDBRANCH   5   7
ENDBRANCH   1   5
BRANCH   3  31
ATOM     31  C   UNL A   1      35.440  30.674  27.932  1.00  0.00     0.116 C 
BRANCH  31  32
ATOM     32  C   UNL A   1      35.265  32.152  28.264  1.00  0.00     0.021 C 
BRANCH  32  33
ATOM     33  C   UNL A   1      34.610  32.420  29.623  1.00  0.00     0.002 C 
BRANCH  33  34
ATOM     34  C   UNL A   1      35.438  33.271  30.593  1.00  0.00     0.002 C 
BRANCH  34  35
ATOM     35  C   UNL A   1      36.075  32.509  31.757  1.00  0.00     0.021 C 
BRANCH  35  36
ATOM     36  C   UNL A   1      36.976  33.344  32.660  1.00  0.00     0.116 C 
BRANCH  36  37
ATOM     37  N   UNL A   1      36.853  32.980  34.063  1.00  0.00    -0.352 N 
ATOM     38  C   UNL A   1      37.624  32.122  34.806  1.00  0.00     0.251 C 
ATOM     39  H   UNL A   1      36.112  33.411  34.548  1.00  0.00     0.163 HD
ATOM     40  O   UNL A   1      37.290  31.816  35.946  1.00  0.00    -0.269 OA
BRANCH  38  41
ATOM     41  C   UNL A   1      38.852  31.543  34.221  1.00  0.00     0.039 A 
ATOM     42  C   UNL A   1      38.732  30.504  33.294  1.00  0.00     0.014 A 
ATOM     43  C   UNL A   1      40.115  32.016  34.590  1.00  0.00     0.014 A 
ATOM     44  C   UNL A   1      39.876  29.976  32.694  1.00  0.00     0.010 A 
ATOM     45  C   UNL A   1      41.251  31.531  33.944  1.00  0.00     0.010 A 
ATOM     46  C   UNL A   1      41.142  30.506  32.993  1.00  0.00    -0.014 A 
BRANCH  46  47
ATOM     47  C   UNL A   1      42.367  29.992  32.331  1.00  0.00     0.031 A 
ATOM     48  C   UNL A   1      43.053  28.767  32.869  1.00  0.00     0.074 A 
ATOM     49  C   UNL A   1      42.894  30.657  31.285  1.00  0.00     0.049 A 
ATOM     50  N   UNL A   1      44.179  28.215  32.493  1.00  0.00    -0.248 NA
ATOM     51  C   UNL A   1      42.395  28.083  33.992  1.00  0.00     0.031 C 
ATOM     52  C   UNL A   1      42.337  31.873  30.689  1.00  0.00     0.029 A 
ATOM     53  N   UNL A   1      44.022  30.412  30.543  1.00  0.00    -0.354 N 
ATOM     54  C   UNL A   1      44.367  27.129  33.339  1.00  0.00     0.074 A 
ATOM     55  C   UNL A   1      43.268  27.128  34.279  1.00  0.00     0.031 C 
ATOM     56  C   UNL A   1      43.114  32.255  29.662  1.00  0.00     0.029 A 
ATOM     57  C   UNL A   1      44.243  31.336  29.552  1.00  0.00     0.049 A 
ATOM     58  H   UNL A   1      44.617  29.644  30.706  1.00  0.00     0.167 HD
ATOM     59  C   UNL A   1      45.354  26.203  33.316  1.00  0.00     0.037 A 
ATOM     60  C   UNL A   1      45.249  31.435  28.662  1.00  0.00     0.037 A 
ATOM     61  C   UNL A   1      46.436  26.192  32.367  1.00  0.00     0.049 A 
ATOM     62  C   UNL A   1      46.345  30.402  28.676  1.00  0.00     0.074 A 
ATOM     63  C   UNL A   1      47.473  25.284  32.248  1.00  0.00     0.029 A 
ATOM     64  N   UNL A   1      46.614  27.135  31.366  1.00  0.00    -0.354 N 
ATOM     65  N   UNL A   1      46.490  29.359  29.454  1.00  0.00    -0.248 NA
ATOM     66  C   UNL A   1      47.417  30.562  27.682  1.00  0.00     0.031 C 
ATOM     67  C   UNL A   1      48.297  25.694  31.196  1.00  0.00     0.029 A 
ATOM     68  C   UNL A   1      47.749  26.834  30.631  1.00  0.00     0.049 A 
ATOM     69  H   UNL A   1      46.023  27.905  31.202  1.00  0.00     0.167 HD
ATOM     70  C   UNL A   1      47.644  28.717  29.022  1.00  0.00     0.074 A 
ATOM     71  C   UNL A   1      48.155  29.484  27.905  1.00  0.00     0.031 C 
ATOM     72  C   UNL A   1      48.227  27.594  29.505  1.00  0.00     0.037 A 
BRANCH  59  73
ATOM     73  C   UNL A   1      45.302  25.109  34.341  1.00  0.00     0.064 A 
ATOM     74  C   UNL A   1      44.769  23.846  34.035  1.00  0.00     0.173 A 
ATOM     75  C   UNL A   1      45.830  25.305  35.626  1.00  0.00     0.173 A 
ATOM     76  F   UNL A   1      44.241  23.613  32.825  1.00  0.00    -0.203 F 
ATOM     77  C   UNL A   1      44.749  22.829  34.985  1.00  0.00     0.198 A 
ATOM     78  C   UNL A   1      45.835  24.276  36.563  1.00  0.00     0.198 A 
ATOM     79  F   UNL A   1      46.357  26.491  35.967  1.00  0.00    -0.203 F 
ATOM     80  F   UNL A   1      44.200  21.644  34.683  1.00  0.00    -0.200 F 
ATOM     81  C   UNL A   1      45.289  23.041  36.244  1.00  0.00     0.200 A 
ATOM     82  F   UNL A   1      46.367  24.478  37.777  1.00  0.00    -0.200 F 
ATOM     83  F   UNL A   1      45.279  22.056  37.153  1.00  0.00    -0.200 F 
ENDBRANCH  59  73
BRANCH  60  84
ATOM     84  C   UNL A   1      45.261  32.536  27.664  1.00  0.00     0.064 A 
ATOM     85  C   UNL A   1      44.501  32.446  26.488  1.00  0.00     0.173 A 
ATOM     86  C   UNL A   1      46.043  33.685  27.846  1.00  0.00     0.173 A 
ATOM     87  F   UNL A   1      43.750  31.358  26.259  1.00  0.00    -0.203 F 
ATOM     88  C   UNL A   1      44.548  33.447  25.520  1.00  0.00     0.198 A 
ATOM     89  C   UNL A   1      46.059  34.702  26.896  1.00  0.00     0.198 A 
ATOM     90  F   UNL A   1      46.791  33.824  28.952  1.00  0.00    -0.203 F 
ATOM     91  F   UNL A   1      43.860  33.306  24.380  1.00  0.00    -0.200 F 
ATOM     92  C   UNL A   1      45.326  34.576  25.725  1.00  0.00     0.200 A 
ATOM     93  F   UNL A   1      46.789  35.804  27.111  1.00  0.00    -0.200 F 
ATOM     94  F   UNL A   1      45.377  35.537  24.794  1.00  0.00    -0.200 F 
ENDBRANCH  60  84
BRANCH  72  95
ATOM     95  C   UNL A   1      49.452  27.095  28.798  1.00  0.00     0.064 A 
ATOM     96  C   UNL A   1      50.743  27.416  29.244  1.00  0.00     0.173 A 
ATOM     97  C   UNL A   1      49.330  26.252  27.683  1.00  0.00     0.173 A 
ATOM     98  F   UNL A   1      50.910  28.232  30.295  1.00  0.00    -0.203 F 
ATOM     99  C   UNL A   1      51.867  26.929  28.584  1.00  0.00     0.198 A 
ATOM    100  C   UNL A   1      50.458  25.743  27.044  1.00  0.00     0.198 A 
ATOM    101  F   UNL A   1      48.118  25.911  27.222  1.00  0.00    -0.203 F 
ATOM    102  F   UNL A   1      53.091  27.284  28.999  1.00  0.00    -0.200 F 
ATOM    103  C   UNL A   1      51.724  26.087  27.490  1.00  0.00     0.200 A 
ATOM    104  F   UNL A   1      50.317  24.921  25.994  1.00  0.00    -0.200 F 
ATOM    105  F   UNL A   1      52.809  25.614  26.861  1.00  0.00    -0.200 F 
ENDBRANCH  72  95
ENDBRANCH  46  47
ENDBRANCH  38  41
ENDBRANCH  36  37
ENDBRANCH  35  36
ENDBRANCH  34  35
ENDBRANCH  33  34
ENDBRANCH  32  33
ENDBRANCH  31  32
ENDBRANCH   3  31
TORSDOF 22
ENDMDL
