MODEL 1
REMARK VINA RESULT:     -12.4      0.000      0.000
REMARK SMILES O=C(NCCCCCCNC(=O)c1ccc(-c2c3nc(c(-c4c(F)c(F)c(F)c(F)c4F)c4ccc([nH]4)c(-c4c(F)c(F)c(F)c(F)c4F)c4nc(c(-c5c(F)c(F)c(F)c(F)c5F)c5ccc2[nH]5)C=C4)C=C3)cc1)C1=Cc2c(ccc(Cl)c2Cl)O[C@H]1C(F)(F)F
REMARK SMILES IDX 7 1 6 2 5 3 4 4 3 5 1 6 2 7 76 9 77 10 87 11 78 12 86 13
REMARK SMILES IDX 79 14 84 15 80 16 82 17 85 18 81 19 83 20 88 21 89 22 90 23
REMARK SMILES IDX 91 24 8 25 9 26 10 27 11 28 12 30 13 31 14 32 75 33 15 34
REMARK SMILES IDX 74 35 16 36 17 37 18 38 68 39 19 40 73 41 67 42 69 43 20 44
REMARK SMILES IDX 72 45 66 46 65 47 21 49 53 50 33 51 52 52 34 53 37 54 51 55
REMARK SMILES IDX 70 56 35 57 36 58 50 60 71 61 38 62 22 63 23 64 31 65 24 66
REMARK SMILES IDX 25 67 29 68 32 69 26 70 27 71 30 72 28 73 54 74 55 75 63 76
REMARK SMILES IDX 56 77 57 78 61 79 64 80 58 81 59 82 62 83 60 84 39 85 40 86
REMARK SMILES IDX 48 87 41 88 42 89 46 90 49 91 43 92 44 93 47 94 45 95
REMARK H PARENT 3 8 10 29 69 48 37 59
REMARK Flexibility Score: inf
ROOT
ATOM      1  C   UNL A   1      31.412  30.465  25.675  1.00  0.00     0.002 C 
ENDROOT
BRANCH   1   2
ATOM      2  C   UNL A   1      32.743  29.710  25.766  1.00  0.00     0.002 C 
BRANCH   2   3
ATOM      3  C   UNL A   1      33.424  29.345  24.445  1.00  0.00     0.021 C 
BRANCH   3   4
ATOM      4  C   UNL A   1      32.499  29.019  23.277  1.00  0.00     0.116 C 
BRANCH   4   5
ATOM      5  N   UNL A   1      32.997  28.041  22.330  1.00  0.00    -0.352 N 
ATOM      6  O   UNL A   1      33.512  25.983  21.562  1.00  0.00    -0.270 OA
ATOM      7  C   UNL A   1      32.981  26.674  22.427  1.00  0.00     0.251 C 
ATOM      8  H   UNL A   1      33.399  28.406  21.509  1.00  0.00     0.163 HD
BRANCH   7   9
ATOM      9  C   UNL A   1      32.352  26.009  23.597  1.00  0.00     0.067 C 
ATOM     10  C   UNL A   1      33.167  25.514  24.545  1.00  0.00     0.027 C 
ATOM     11  C   UNL A   1      30.975  25.443  23.393  1.00  0.00     0.314 C 
ATOM     12  C   UNL A   1      33.178  24.029  24.522  1.00  0.00     0.037 A 
ATOM     13  O   UNL A   1      30.928  23.993  23.550  1.00  0.00    -0.475 OA
ATOM     14  C   UNL A   1      32.067  23.358  23.979  1.00  0.00     0.129 A 
ATOM     15  C   UNL A   1      34.342  23.309  24.854  1.00  0.00     0.070 A 
ATOM     16  C   UNL A   1      32.130  21.989  23.728  1.00  0.00     0.049 A 
ATOM     17  C   UNL A   1      34.405  21.939  24.565  1.00  0.00     0.060 A 
ATOM     18  Cl  UNL A   1      35.712  24.141  25.522  1.00  0.00    -0.082 Cl
ATOM     19  C   UNL A   1      33.306  21.288  23.993  1.00  0.00     0.026 A 
ATOM     20  Cl  UNL A   1      35.839  21.004  24.810  1.00  0.00    -0.083 Cl
BRANCH  11  21
ATOM     21  C   UNL A   1      29.914  26.119  24.287  1.00  0.00     0.429 C 
ATOM     22  F   UNL A   1      28.687  26.157  23.716  1.00  0.00    -0.167 F 
ATOM     23  F   UNL A   1      29.786  25.464  25.466  1.00  0.00    -0.167 F 
ATOM     24  F   UNL A   1      30.243  27.402  24.580  1.00  0.00    -0.167 F 
ENDBRANCH  11  21
ENDBRANCH   7   9
ENDBRANCH   4   5
ENDBRANCH   3   4
ENDBRANCH   2   3
ENDBRANCH   1   2
BRANCH   1  25
ATOM     25  C   UNL A   1      31.284  31.750  26.498  1.00  0.00     0.021 C 
BRANCH  25  26
ATOM     26  C   UNL A   1      32.588  32.409  26.938  1.00  0.00     0.116 C 
BRANCH  26  27
ATOM     27  N   UNL A   1      32.407  33.763  27.428  1.00  0.00    -0.352 N 
ATOM     28  C   UNL A   1      33.069  34.457  28.413  1.00  0.00     0.251 C 
ATOM     29  H   UNL A   1      31.692  34.270  26.980  1.00  0.00     0.163 HD
ATOM     30  O   UNL A   1      32.656  35.563  28.749  1.00  0.00    -0.269 OA
BRANCH  28  31
ATOM     31  C   UNL A   1      34.259  33.892  29.094  1.00  0.00     0.039 A 
ATOM     32  C   UNL A   1      34.063  32.907  30.069  1.00  0.00     0.014 A 
ATOM     33  C   UNL A   1      35.552  34.352  28.831  1.00  0.00     0.014 A 
ATOM     34  C   UNL A   1      35.158  32.349  30.736  1.00  0.00     0.010 A 
ATOM     35  C   UNL A   1      36.650  33.744  29.444  1.00  0.00     0.010 A 
ATOM     36  C   UNL A   1      36.465  32.740  30.407  1.00  0.00    -0.014 A 
BRANCH  36  37
ATOM     37  C   UNL A   1      37.643  32.117  31.070  1.00  0.00     0.031 A 
ATOM     38  C   UNL A   1      38.432  31.044  30.370  1.00  0.00     0.074 A 
ATOM     39  C   UNL A   1      37.973  32.479  32.325  1.00  0.00     0.049 A 
ATOM     40  N   UNL A   1      39.447  30.339  30.809  1.00  0.00    -0.248 NA
ATOM     41  C   UNL A   1      38.009  30.699  29.005  1.00  0.00     0.031 C 
ATOM     42  C   UNL A   1      37.264  33.474  33.130  1.00  0.00     0.029 A 
ATOM     43  N   UNL A   1      38.981  32.042  33.149  1.00  0.00    -0.354 N 
ATOM     44  C   UNL A   1      39.775  29.466  29.781  1.00  0.00     0.074 A 
ATOM     45  C   UNL A   1      38.815  29.685  28.720  1.00  0.00     0.031 C 
ATOM     46  C   UNL A   1      37.866  33.583  34.324  1.00  0.00     0.029 A 
ATOM     47  C   UNL A   1      38.980  32.640  34.385  1.00  0.00     0.049 A 
ATOM     48  H   UNL A   1      39.642  31.364  32.879  1.00  0.00     0.167 HD
ATOM     49  C   UNL A   1      40.799  28.581  29.713  1.00  0.00     0.037 A 
ATOM     50  C   UNL A   1      39.778  32.444  35.453  1.00  0.00     0.037 A 
ATOM     51  C   UNL A   1      41.761  28.372  30.763  1.00  0.00     0.049 A 
ATOM     52  C   UNL A   1      40.901  31.448  35.360  1.00  0.00     0.074 A 
ATOM     53  C   UNL A   1      42.860  27.529  30.775  1.00  0.00     0.029 A 
ATOM     54  N   UNL A   1      41.739  29.013  31.994  1.00  0.00    -0.354 N 
ATOM     55  N   UNL A   1      41.237  30.670  34.360  1.00  0.00    -0.248 NA
ATOM     56  C   UNL A   1      41.761  31.307  36.543  1.00  0.00     0.031 C 
ATOM     57  C   UNL A   1      43.473  27.624  32.029  1.00  0.00     0.029 A 
ATOM     58  C   UNL A   1      42.790  28.567  32.781  1.00  0.00     0.049 A 
ATOM     59  H   UNL A   1      41.073  29.684  32.270  1.00  0.00     0.167 HD
ATOM     60  C   UNL A   1      42.359  29.967  34.781  1.00  0.00     0.074 A 
ATOM     61  C   UNL A   1      42.657  30.424  36.122  1.00  0.00     0.031 C 
ATOM     62  C   UNL A   1      43.077  29.029  34.115  1.00  0.00     0.037 A 
BRANCH  49  63
ATOM     63  C   UNL A   1      40.929  27.769  28.454  1.00  0.00     0.064 A 
ATOM     64  C   UNL A   1      40.290  26.529  28.309  1.00  0.00     0.173 A 
ATOM     65  C   UNL A   1      41.682  28.247  27.371  1.00  0.00     0.173 A 
ATOM     66  F   UNL A   1      39.565  26.021  29.318  1.00  0.00    -0.203 F 
ATOM     67  C   UNL A   1      40.431  25.779  27.144  1.00  0.00     0.198 A 
ATOM     68  C   UNL A   1      41.793  27.509  26.194  1.00  0.00     0.198 A 
ATOM     69  F   UNL A   1      42.309  29.430  27.449  1.00  0.00    -0.203 F 
ATOM     70  F   UNL A   1      39.859  24.571  27.054  1.00  0.00    -0.200 F 
ATOM     71  C   UNL A   1      41.176  26.273  26.085  1.00  0.00     0.200 A 
ATOM     72  F   UNL A   1      42.504  27.995  25.165  1.00  0.00    -0.200 F 
ATOM     73  F   UNL A   1      41.309  25.551  24.963  1.00  0.00    -0.200 F 
ENDBRANCH  49  63
BRANCH  50  74
ATOM     74  C   UNL A   1      39.548  33.225  36.698  1.00  0.00     0.064 A 
ATOM     75  C   UNL A   1      38.663  32.769  37.683  1.00  0.00     0.173 A 
ATOM     76  C   UNL A   1      40.216  34.436  36.929  1.00  0.00     0.173 A 
ATOM     77  F   UNL A   1      37.985  31.627  37.499  1.00  0.00    -0.203 F 
ATOM     78  C   UNL A   1      38.441  33.504  38.847  1.00  0.00     0.198 A 
ATOM     79  C   UNL A   1      40.016  35.156  38.105  1.00  0.00     0.198 A 
ATOM     80  F   UNL A   1      41.078  34.914  36.018  1.00  0.00    -0.203 F 
ATOM     81  F   UNL A   1      37.556  33.068  39.754  1.00  0.00    -0.200 F 
ATOM     82  C   UNL A   1      39.123  34.694  39.059  1.00  0.00     0.200 A 
ATOM     83  F   UNL A   1      40.687  36.296  38.313  1.00  0.00    -0.200 F 
ATOM     84  F   UNL A   1      38.913  35.396  40.181  1.00  0.00    -0.200 F 
ENDBRANCH  50  74
BRANCH  62  85
ATOM     85  C   UNL A   1      44.274  28.452  34.815  1.00  0.00     0.064 A 
ATOM     86  C   UNL A   1      44.183  27.286  35.591  1.00  0.00     0.173 A 
ATOM     87  C   UNL A   1      45.535  29.051  34.676  1.00  0.00     0.173 A 
ATOM     88  F   UNL A   1      42.997  26.684  35.768  1.00  0.00    -0.203 F 
ATOM     89  C   UNL A   1      45.306  26.758  36.222  1.00  0.00     0.198 A 
ATOM     90  C   UNL A   1      46.661  28.501  35.283  1.00  0.00     0.198 A 
ATOM     91  F   UNL A   1      45.678  30.164  33.940  1.00  0.00    -0.203 F 
ATOM     92  F   UNL A   1      45.187  25.671  36.997  1.00  0.00    -0.200 F 
ATOM     93  C   UNL A   1      46.545  27.360  36.061  1.00  0.00     0.200 A 
ATOM     94  F   UNL A   1      47.860  29.077  35.114  1.00  0.00    -0.200 F 
ATOM     95  F   UNL A   1      47.626  26.844  36.662  1.00  0.00    -0.200 F 
ENDBRANCH  62  85
ENDBRANCH  36  37
ENDBRANCH  28  31
ENDBRANCH  26  27
ENDBRANCH  25  26
ENDBRANCH   1  25
TORSDOF 14
ENDMDL
MODEL 2
REMARK VINA RESULT:     -12.4      0.162      1.628
REMARK SMILES O=C(NCCCCCCNC(=O)c1ccc(-c2c3nc(c(-c4c(F)c(F)c(F)c(F)c4F)c4ccc([nH]4)c(-c4c(F)c(F)c(F)c(F)c4F)c4nc(c(-c5c(F)c(F)c(F)c(F)c5F)c5ccc2[nH]5)C=C4)C=C3)cc1)C1=Cc2c(ccc(Cl)c2Cl)O[C@H]1C(F)(F)F
REMARK SMILES IDX 7 1 6 2 5 3 4 4 3 5 1 6 2 7 76 9 77 10 87 11 78 12 86 13
REMARK SMILES IDX 79 14 84 15 80 16 82 17 85 18 81 19 83 20 88 21 89 22 90 23
REMARK SMILES IDX 91 24 8 25 9 26 10 27 11 28 12 30 13 31 14 32 75 33 15 34
REMARK SMILES IDX 74 35 16 36 17 37 18 38 68 39 19 40 73 41 67 42 69 43 20 44
REMARK SMILES IDX 72 45 66 46 65 47 21 49 53 50 33 51 52 52 34 53 37 54 51 55
REMARK SMILES IDX 70 56 35 57 36 58 50 60 71 61 38 62 22 63 23 64 31 65 24 66
REMARK SMILES IDX 25 67 29 68 32 69 26 70 27 71 30 72 28 73 54 74 55 75 63 76
REMARK SMILES IDX 56 77 57 78 61 79 64 80 58 81 59 82 62 83 60 84 39 85 40 86
REMARK SMILES IDX 48 87 41 88 42 89 46 90 49 91 43 92 44 93 47 94 45 95
REMARK H PARENT 3 8 10 29 69 48 37 59
REMARK Flexibility Score: inf
ROOT
ATOM      1  C   UNL A   1      31.422  30.467  25.622  1.00  0.00     0.002 C 
ENDROOT
BRANCH   1   2
ATOM      2  C   UNL A   1      32.742  29.699  25.762  1.00  0.00     0.002 C 
BRANCH   2   3
ATOM      3  C   UNL A   1      33.466  29.324  24.468  1.00  0.00     0.021 C 
BRANCH   3   4
ATOM      4  C   UNL A   1      32.580  28.983  23.274  1.00  0.00     0.116 C 
BRANCH   4   5
ATOM      5  N   UNL A   1      33.111  27.995  22.354  1.00  0.00    -0.352 N 
ATOM      6  O   UNL A   1      33.653  25.930  21.627  1.00  0.00    -0.270 OA
ATOM      7  C   UNL A   1      33.092  26.629  22.465  1.00  0.00     0.251 C 
ATOM      8  H   UNL A   1      33.540  28.352  21.544  1.00  0.00     0.163 HD
BRANCH   7   9
ATOM      9  C   UNL A   1      32.425  25.976  23.620  1.00  0.00     0.067 C 
ATOM     10  C   UNL A   1      33.208  25.476  24.592  1.00  0.00     0.027 C 
ATOM     11  C   UNL A   1      31.047  25.425  23.381  1.00  0.00     0.314 C 
ATOM     12  C   UNL A   1      33.202  23.991  24.575  1.00  0.00     0.037 A 
ATOM     13  O   UNL A   1      30.979  23.976  23.542  1.00  0.00    -0.475 OA
ATOM     14  C   UNL A   1      32.099  23.330  24.004  1.00  0.00     0.129 A 
ATOM     15  C   UNL A   1      34.349  23.258  24.940  1.00  0.00     0.070 A 
ATOM     16  C   UNL A   1      32.153  21.960  23.760  1.00  0.00     0.049 A 
ATOM     17  C   UNL A   1      34.404  21.887  24.658  1.00  0.00     0.060 A 
ATOM     18  Cl  UNL A   1      35.710  24.078  25.642  1.00  0.00    -0.082 Cl
ATOM     19  C   UNL A   1      33.313  21.246  24.059  1.00  0.00     0.026 A 
ATOM     20  Cl  UNL A   1      35.820  20.937  24.945  1.00  0.00    -0.083 Cl
BRANCH  11  21
ATOM     21  C   UNL A   1      29.970  26.117  24.245  1.00  0.00     0.429 C 
ATOM     22  F   UNL A   1      29.674  25.429  25.373  1.00  0.00    -0.167 F 
ATOM     23  F   UNL A   1      30.373  27.353  24.624  1.00  0.00    -0.167 F 
ATOM     24  F   UNL A   1      28.804  26.270  23.569  1.00  0.00    -0.167 F 
ENDBRANCH  11  21
ENDBRANCH   7   9
ENDBRANCH   4   5
ENDBRANCH   3   4
ENDBRANCH   2   3
ENDBRANCH   1   2
BRANCH   1  25
ATOM     25  C   UNL A   1      31.291  31.772  26.412  1.00  0.00     0.021 C 
BRANCH  25  26
ATOM     26  C   UNL A   1      32.593  32.417  26.882  1.00  0.00     0.116 C 
BRANCH  26  27
ATOM     27  N   UNL A   1      32.414  33.770  27.378  1.00  0.00    -0.352 N 
ATOM     28  C   UNL A   1      33.066  34.453  28.376  1.00  0.00     0.251 C 
ATOM     29  H   UNL A   1      31.708  34.284  26.923  1.00  0.00     0.163 HD
ATOM     30  O   UNL A   1      32.656  35.560  28.714  1.00  0.00    -0.269 OA
BRANCH  28  31
ATOM     31  C   UNL A   1      34.244  33.875  29.069  1.00  0.00     0.039 A 
ATOM     32  C   UNL A   1      34.027  32.904  30.053  1.00  0.00     0.014 A 
ATOM     33  C   UNL A   1      35.546  34.312  28.809  1.00  0.00     0.014 A 
ATOM     34  C   UNL A   1      35.108  32.335  30.732  1.00  0.00     0.010 A 
ATOM     35  C   UNL A   1      36.630  33.692  29.434  1.00  0.00     0.010 A 
ATOM     36  C   UNL A   1      36.423  32.702  30.407  1.00  0.00    -0.014 A 
BRANCH  36  37
ATOM     37  C   UNL A   1      37.587  32.067  31.082  1.00  0.00     0.031 A 
ATOM     38  C   UNL A   1      38.383  30.996  30.386  1.00  0.00     0.074 A 
ATOM     39  C   UNL A   1      37.899  32.415  32.346  1.00  0.00     0.049 A 
ATOM     40  N   UNL A   1      39.386  30.282  30.835  1.00  0.00    -0.248 NA
ATOM     41  C   UNL A   1      37.980  30.665  29.011  1.00  0.00     0.031 C 
ATOM     42  C   UNL A   1      37.182  33.407  33.149  1.00  0.00     0.029 A 
ATOM     43  N   UNL A   1      38.892  31.966  33.182  1.00  0.00    -0.354 N 
ATOM     44  C   UNL A   1      39.726  29.416  29.803  1.00  0.00     0.074 A 
ATOM     45  C   UNL A   1      38.784  29.651  28.729  1.00  0.00     0.031 C 
ATOM     46  C   UNL A   1      37.766  33.502  34.353  1.00  0.00     0.029 A 
ATOM     47  C   UNL A   1      38.874  32.553  34.424  1.00  0.00     0.049 A 
ATOM     48  H   UNL A   1      39.554  31.287  32.917  1.00  0.00     0.167 HD
ATOM     49  C   UNL A   1      40.747  28.526  29.744  1.00  0.00     0.037 A 
ATOM     50  C   UNL A   1      39.654  32.343  35.502  1.00  0.00     0.037 A 
ATOM     51  C   UNL A   1      41.691  28.304  30.808  1.00  0.00     0.049 A 
ATOM     52  C   UNL A   1      40.772  31.341  35.418  1.00  0.00     0.074 A 
ATOM     53  C   UNL A   1      42.785  27.455  30.829  1.00  0.00     0.029 A 
ATOM     54  N   UNL A   1      41.652  28.933  32.044  1.00  0.00    -0.354 N 
ATOM     55  N   UNL A   1      41.121  30.572  34.417  1.00  0.00    -0.248 NA
ATOM     56  C   UNL A   1      41.613  31.185  36.614  1.00  0.00     0.031 C 
ATOM     57  C   UNL A   1      43.378  27.535  32.093  1.00  0.00     0.029 A 
ATOM     58  C   UNL A   1      42.688  28.475  32.843  1.00  0.00     0.049 A 
ATOM     59  H   UNL A   1      40.985  29.605  32.315  1.00  0.00     0.167 HD
ATOM     60  C   UNL A   1      42.233  29.859  34.849  1.00  0.00     0.074 A 
ATOM     61  C   UNL A   1      42.511  30.302  36.199  1.00  0.00     0.031 C 
ATOM     62  C   UNL A   1      42.956  28.924  34.186  1.00  0.00     0.037 A 
BRANCH  49  63
ATOM     63  C   UNL A   1      40.893  27.726  28.480  1.00  0.00     0.064 A 
ATOM     64  C   UNL A   1      41.698  28.167  27.419  1.00  0.00     0.173 A 
ATOM     65  C   UNL A   1      40.241  26.492  28.337  1.00  0.00     0.173 A 
ATOM     66  F   UNL A   1      42.337  29.344  27.500  1.00  0.00    -0.203 F 
ATOM     67  C   UNL A   1      41.813  27.424  26.247  1.00  0.00     0.198 A 
ATOM     68  C   UNL A   1      40.386  25.735  27.176  1.00  0.00     0.198 A 
ATOM     69  F   UNL A   1      39.465  26.016  29.322  1.00  0.00    -0.203 F 
ATOM     70  F   UNL A   1      42.540  27.896  25.225  1.00  0.00    -0.200 F 
ATOM     71  C   UNL A   1      41.163  26.206  26.129  1.00  0.00     0.200 A 
ATOM     72  F   UNL A   1      39.766  24.550  27.069  1.00  0.00    -0.200 F 
ATOM     73  F   UNL A   1      41.276  25.490  25.001  1.00  0.00    -0.200 F 
ENDBRANCH  49  63
BRANCH  50  74
ATOM     74  C   UNL A   1      39.408  33.113  36.750  1.00  0.00     0.064 A 
ATOM     75  C   UNL A   1      38.483  32.668  37.704  1.00  0.00     0.173 A 
ATOM     76  C   UNL A   1      40.099  34.304  37.016  1.00  0.00     0.173 A 
ATOM     77  F   UNL A   1      37.782  31.547  37.485  1.00  0.00    -0.203 F 
ATOM     78  C   UNL A   1      38.246  33.394  38.870  1.00  0.00     0.198 A 
ATOM     79  C   UNL A   1      39.883  35.014  38.196  1.00  0.00     0.198 A 
ATOM     80  F   UNL A   1      40.998  34.771  36.137  1.00  0.00    -0.203 F 
ATOM     81  F   UNL A   1      37.324  32.969  39.746  1.00  0.00    -0.200 F 
ATOM     82  C   UNL A   1      38.951  34.563  39.118  1.00  0.00     0.200 A 
ATOM     83  F   UNL A   1      40.577  36.134  38.438  1.00  0.00    -0.200 F 
ATOM     84  F   UNL A   1      38.728  35.256  40.242  1.00  0.00    -0.200 F 
ENDBRANCH  50  74
BRANCH  62  85
ATOM     85  C   UNL A   1      44.138  28.333  34.900  1.00  0.00     0.064 A 
ATOM     86  C   UNL A   1      45.403  28.938  34.857  1.00  0.00     0.173 A 
ATOM     87  C   UNL A   1      43.994  27.168  35.668  1.00  0.00     0.173 A 
ATOM     88  F   UNL A   1      45.598  30.045  34.125  1.00  0.00    -0.203 F 
ATOM     89  C   UNL A   1      46.485  28.384  35.537  1.00  0.00     0.198 A 
ATOM     90  C   UNL A   1      45.071  26.635  36.372  1.00  0.00     0.198 A 
ATOM     91  F   UNL A   1      42.804  26.553  35.749  1.00  0.00    -0.203 F 
ATOM     92  F   UNL A   1      47.695  28.953  35.443  1.00  0.00    -0.200 F 
ATOM     93  C   UNL A   1      46.317  27.238  36.300  1.00  0.00     0.200 A 
ATOM     94  F   UNL A   1      44.902  25.536  37.121  1.00  0.00    -0.200 F 
ATOM     95  F   UNL A   1      47.357  26.712  36.960  1.00  0.00    -0.200 F 
ENDBRANCH  62  85
ENDBRANCH  36  37
ENDBRANCH  28  31
ENDBRANCH  26  27
ENDBRANCH  25  26
ENDBRANCH   1  25
TORSDOF 14
ENDMDL
MODEL 3
REMARK VINA RESULT:     -12.3      0.341      7.411
REMARK SMILES O=C(NCCCCCCNC(=O)c1ccc(-c2c3nc(c(-c4c(F)c(F)c(F)c(F)c4F)c4ccc([nH]4)c(-c4c(F)c(F)c(F)c(F)c4F)c4nc(c(-c5c(F)c(F)c(F)c(F)c5F)c5ccc2[nH]5)C=C4)C=C3)cc1)C1=Cc2c(ccc(Cl)c2Cl)O[C@H]1C(F)(F)F
REMARK SMILES IDX 7 1 6 2 5 3 4 4 3 5 1 6 2 7 76 9 77 10 87 11 78 12 86 13
REMARK SMILES IDX 79 14 84 15 80 16 82 17 85 18 81 19 83 20 88 21 89 22 90 23
REMARK SMILES IDX 91 24 8 25 9 26 10 27 11 28 12 30 13 31 14 32 75 33 15 34
REMARK SMILES IDX 74 35 16 36 17 37 18 38 68 39 19 40 73 41 67 42 69 43 20 44
REMARK SMILES IDX 72 45 66 46 65 47 21 49 53 50 33 51 52 52 34 53 37 54 51 55
REMARK SMILES IDX 70 56 35 57 36 58 50 60 71 61 38 62 22 63 23 64 31 65 24 66
REMARK SMILES IDX 25 67 29 68 32 69 26 70 27 71 30 72 28 73 54 74 55 75 63 76
REMARK SMILES IDX 56 77 57 78 61 79 64 80 58 81 59 82 62 83 60 84 39 85 40 86
REMARK SMILES IDX 48 87 41 88 42 89 46 90 49 91 43 92 44 93 47 94 45 95
REMARK H PARENT 3 8 10 29 69 48 37 59
REMARK Flexibility Score: inf
ROOT
ATOM      1  C   UNL A   1      31.316  30.564  25.549  1.00  0.00     0.002 C 
ENDROOT
BRANCH   1   2
ATOM      2  C   UNL A   1      32.592  29.724  25.685  1.00  0.00     0.002 C 
BRANCH   2   3
ATOM      3  C   UNL A   1      33.311  29.343  24.389  1.00  0.00     0.021 C 
BRANCH   3   4
ATOM      4  C   UNL A   1      32.421  28.985  23.203  1.00  0.00     0.116 C 
BRANCH   4   5
ATOM      5  N   UNL A   1      32.957  28.000  22.284  1.00  0.00    -0.352 N 
ATOM      6  O   UNL A   1      33.541  25.942  21.571  1.00  0.00    -0.270 OA
ATOM      7  C   UNL A   1      32.981  26.636  22.414  1.00  0.00     0.251 C 
ATOM      8  H   UNL A   1      33.356  28.358  21.458  1.00  0.00     0.163 HD
BRANCH   7   9
ATOM      9  C   UNL A   1      32.362  25.981  23.594  1.00  0.00     0.067 C 
ATOM     10  C   UNL A   1      33.183  25.495  24.541  1.00  0.00     0.027 C 
ATOM     11  C   UNL A   1      30.983  25.412  23.405  1.00  0.00     0.314 C 
ATOM     12  C   UNL A   1      33.196  24.010  24.531  1.00  0.00     0.037 A 
ATOM     13  O   UNL A   1      30.939  23.963  23.574  1.00  0.00    -0.475 OA
ATOM     14  C   UNL A   1      32.083  23.333  24.001  1.00  0.00     0.129 A 
ATOM     15  C   UNL A   1      34.363  23.294  24.860  1.00  0.00     0.070 A 
ATOM     16  C   UNL A   1      32.146  21.962  23.761  1.00  0.00     0.049 A 
ATOM     17  C   UNL A   1      34.426  21.921  24.583  1.00  0.00     0.060 A 
ATOM     18  Cl  UNL A   1      35.737  24.134  25.512  1.00  0.00    -0.082 Cl
ATOM     19  C   UNL A   1      33.324  21.265  24.025  1.00  0.00     0.026 A 
ATOM     20  Cl  UNL A   1      35.863  20.991  24.826  1.00  0.00    -0.083 Cl
BRANCH  11  21
ATOM     21  C   UNL A   1      29.928  26.094  24.300  1.00  0.00     0.429 C 
ATOM     22  F   UNL A   1      29.768  25.476  25.495  1.00  0.00    -0.167 F 
ATOM     23  F   UNL A   1      30.268  27.379  24.558  1.00  0.00    -0.167 F 
ATOM     24  F   UNL A   1      28.706  26.118  23.712  1.00  0.00    -0.167 F 
ENDBRANCH  11  21
ENDBRANCH   7   9
ENDBRANCH   4   5
ENDBRANCH   3   4
ENDBRANCH   2   3
ENDBRANCH   1   2
BRANCH   1  25
ATOM     25  C   UNL A   1      31.223  31.829  26.407  1.00  0.00     0.021 C 
BRANCH  25  26
ATOM     26  C   UNL A   1      32.532  32.352  26.992  1.00  0.00     0.116 C 
BRANCH  26  27
ATOM     27  N   UNL A   1      32.444  33.727  27.450  1.00  0.00    -0.352 N 
ATOM     28  C   UNL A   1      33.179  34.409  28.390  1.00  0.00     0.251 C 
ATOM     29  H   UNL A   1      31.741  34.261  27.013  1.00  0.00     0.163 HD
ATOM     30  O   UNL A   1      32.841  35.545  28.709  1.00  0.00    -0.269 OA
BRANCH  28  31
ATOM     31  C   UNL A   1      34.362  33.796  29.043  1.00  0.00     0.039 A 
ATOM     32  C   UNL A   1      34.150  32.797  30.000  1.00  0.00     0.014 A 
ATOM     33  C   UNL A   1      35.664  34.225  28.773  1.00  0.00     0.014 A 
ATOM     34  C   UNL A   1      35.237  32.195  30.641  1.00  0.00     0.010 A 
ATOM     35  C   UNL A   1      36.751  33.574  29.358  1.00  0.00     0.010 A 
ATOM     36  C   UNL A   1      36.551  32.556  30.303  1.00  0.00    -0.014 A 
BRANCH  36  37
ATOM     37  C   UNL A   1      37.719  31.886  30.937  1.00  0.00     0.031 A 
ATOM     38  C   UNL A   1      38.177  32.292  32.312  1.00  0.00     0.074 A 
ATOM     39  C   UNL A   1      38.402  30.946  30.255  1.00  0.00     0.049 A 
ATOM     40  N   UNL A   1      39.210  31.871  33.001  1.00  0.00    -0.248 NA
ATOM     41  C   UNL A   1      37.385  33.327  32.991  1.00  0.00     0.031 C 
ATOM     42  C   UNL A   1      38.088  30.493  28.899  1.00  0.00     0.029 A 
ATOM     43  N   UNL A   1      39.509  30.212  30.603  1.00  0.00    -0.354 N 
ATOM     44  C   UNL A   1      39.194  32.594  34.186  1.00  0.00     0.074 A 
ATOM     45  C   UNL A   1      38.087  33.523  34.098  1.00  0.00     0.031 C 
ATOM     46  C   UNL A   1      38.971  29.550  28.536  1.00  0.00     0.029 A 
ATOM     47  C   UNL A   1      39.936  29.357  29.616  1.00  0.00     0.049 A 
ATOM     48  H   UNL A   1      39.955  30.291  31.477  1.00  0.00     0.167 HD
ATOM     49  C   UNL A   1      40.009  32.477  35.263  1.00  0.00     0.037 A 
ATOM     50  C   UNL A   1      40.991  28.520  29.579  1.00  0.00     0.037 A 
ATOM     51  C   UNL A   1      41.101  31.543  35.355  1.00  0.00     0.049 A 
ATOM     52  C   UNL A   1      41.890  28.416  30.780  1.00  0.00     0.074 A 
ATOM     53  C   UNL A   1      41.959  31.318  36.418  1.00  0.00     0.029 A 
ATOM     54  N   UNL A   1      41.490  30.679  34.341  1.00  0.00    -0.354 N 
ATOM     55  N   UNL A   1      41.830  29.062  31.919  1.00  0.00    -0.248 NA
ATOM     56  C   UNL A   1      43.001  27.457  30.695  1.00  0.00     0.031 C 
ATOM     57  C   UNL A   1      42.895  30.354  36.031  1.00  0.00     0.029 A 
ATOM     58  C   UNL A   1      42.588  29.935  34.746  1.00  0.00     0.049 A 
ATOM     59  H   UNL A   1      41.051  30.605  33.462  1.00  0.00     0.167 HD
ATOM     60  C   UNL A   1      42.875  28.574  32.693  1.00  0.00     0.074 A 
ATOM     61  C   UNL A   1      43.543  27.564  31.900  1.00  0.00     0.031 C 
ATOM     62  C   UNL A   1      43.245  28.932  33.947  1.00  0.00     0.037 A 
BRANCH  49  63
ATOM     63  C   UNL A   1      39.747  33.385  36.431  1.00  0.00     0.064 A 
ATOM     64  C   UNL A   1      40.390  34.626  36.557  1.00  0.00     0.173 A 
ATOM     65  C   UNL A   1      38.824  33.024  37.424  1.00  0.00     0.173 A 
ATOM     66  F   UNL A   1      41.288  35.017  35.641  1.00  0.00    -0.203 F 
ATOM     67  C   UNL A   1      40.150  35.452  37.652  1.00  0.00     0.198 A 
ATOM     68  C   UNL A   1      38.561  33.868  38.501  1.00  0.00     0.198 A 
ATOM     69  F   UNL A   1      38.173  31.853  37.351  1.00  0.00    -0.203 F 
ATOM     70  F   UNL A   1      40.821  36.605  37.780  1.00  0.00    -0.200 F 
ATOM     71  C   UNL A   1      39.231  35.076  38.619  1.00  0.00     0.200 A 
ATOM     72  F   UNL A   1      37.661  33.509  39.428  1.00  0.00    -0.200 F 
ATOM     73  F   UNL A   1      38.999  35.873  39.672  1.00  0.00    -0.200 F 
ENDBRANCH  49  63
BRANCH  50  74
ATOM     74  C   UNL A   1      41.242  27.704  28.362  1.00  0.00     0.064 A 
ATOM     75  C   UNL A   1      42.116  28.148  27.361  1.00  0.00     0.173 A 
ATOM     76  C   UNL A   1      40.618  26.461  28.180  1.00  0.00     0.173 A 
ATOM     77  F   UNL A   1      42.719  29.339  27.479  1.00  0.00    -0.203 F 
ATOM     78  C   UNL A   1      42.345  27.387  26.216  1.00  0.00     0.198 A 
ATOM     79  C   UNL A   1      40.870  25.687  27.049  1.00  0.00     0.198 A 
ATOM     80  F   UNL A   1      39.775  25.989  29.111  1.00  0.00    -0.203 F 
ATOM     81  F   UNL A   1      43.152  27.855  25.253  1.00  0.00    -0.200 F 
ATOM     82  C   UNL A   1      41.727  26.154  26.064  1.00  0.00     0.200 A 
ATOM     83  F   UNL A   1      40.283  24.491  26.914  1.00  0.00    -0.200 F 
ATOM     84  F   UNL A   1      41.953  25.421  24.966  1.00  0.00    -0.200 F 
ENDBRANCH  50  74
BRANCH  62  85
ATOM     85  C   UNL A   1      44.412  28.206  34.555  1.00  0.00     0.064 A 
ATOM     86  C   UNL A   1      45.721  28.700  34.454  1.00  0.00     0.173 A 
ATOM     87  C   UNL A   1      44.211  27.021  35.279  1.00  0.00     0.173 A 
ATOM     88  F   UNL A   1      45.968  29.821  33.760  1.00  0.00    -0.203 F 
ATOM     89  C   UNL A   1      46.788  28.020  35.036  1.00  0.00     0.198 A 
ATOM     90  C   UNL A   1      45.277  26.361  35.885  1.00  0.00     0.198 A 
ATOM     91  F   UNL A   1      42.978  26.509  35.411  1.00  0.00    -0.203 F 
ATOM     92  F   UNL A   1      48.036  28.485  34.886  1.00  0.00    -0.200 F 
ATOM     93  C   UNL A   1      46.565  26.856  35.757  1.00  0.00     0.200 A 
ATOM     94  F   UNL A   1      45.056  25.245  36.594  1.00  0.00    -0.200 F 
ATOM     95  F   UNL A   1      47.593  26.209  36.323  1.00  0.00    -0.200 F 
ENDBRANCH  62  85
ENDBRANCH  36  37
ENDBRANCH  28  31
ENDBRANCH  26  27
ENDBRANCH  25  26
ENDBRANCH   1  25
TORSDOF 14
ENDMDL
