MODEL 1
REMARK VINA RESULT:     -12.4      0.000      0.000
REMARK SMILES O=C(NCCCCCCNC(=O)c1ccc2c(c1)[C@@H](C1CCOCC1)C(=O)N2)c1ccc(-c2c3nc(c(-c4c(F)c(F)c(F)c(F)c4F)c4ccc([nH]4)c(-c4c(F)c(F)c(F)c(F)c4F)c4nc(c(-c5c(F)c(F)c(F)c(F)c5F)c5ccc2[nH]5)C=C4)C=C3)cc1
REMARK SMILES IDX 6 1 5 2 4 3 3 4 1 5 2 6 29 8 30 9 91 10 31 11 90 12 32 13
REMARK SMILES IDX 33 14 34 15 84 16 35 17 89 18 83 19 85 20 36 21 88 22 82 23
REMARK SMILES IDX 81 24 37 26 69 27 49 28 68 29 50 30 53 31 67 32 86 33 51 34
REMARK SMILES IDX 52 35 66 37 87 38 54 39 38 40 39 41 47 42 40 43 41 44 45 45
REMARK SMILES IDX 48 46 42 47 43 48 46 49 44 50 70 51 71 52 79 53 72 54 73 55
REMARK SMILES IDX 77 56 80 57 74 58 75 59 78 60 76 61 55 62 56 63 64 64 57 65
REMARK SMILES IDX 58 66 62 67 65 68 59 69 60 70 63 71 61 72 7 73 8 74 9 75
REMARK SMILES IDX 10 76 11 77 12 79 13 80 14 81 18 82 15 83 17 84 16 85 19 86
REMARK SMILES IDX 28 87 26 88 27 90 20 91 21 92 25 93 22 94 24 95 23 96
REMARK H PARENT 3 7 85 25 53 36 10 78 28 89
REMARK Flexibility Score: inf
ROOT
ATOM      1  C   UNL A   1      34.613  33.773  28.877  1.00  0.00     0.002 C 
ENDROOT
BRANCH   1   2
ATOM      2  C   UNL A   1      33.272  34.505  28.875  1.00  0.00     0.021 C 
BRANCH   2   3
ATOM      3  C   UNL A   1      33.334  35.947  29.358  1.00  0.00     0.116 C 
BRANCH   3   4
ATOM      4  N   UNL A   1      32.451  36.195  30.485  1.00  0.00    -0.352 N 
ATOM      5  O   UNL A   1      31.621  35.903  32.566  1.00  0.00    -0.269 OA
ATOM      6  C   UNL A   1      32.545  35.737  31.777  1.00  0.00     0.251 C 
ATOM      7  H   UNL A   1      31.677  36.774  30.298  1.00  0.00     0.163 HD
BRANCH   6   8
ATOM      8  C   UNL A   1      33.762  35.019  32.208  1.00  0.00     0.039 A 
ATOM      9  C   UNL A   1      35.009  35.645  32.155  1.00  0.00     0.014 A 
ATOM     10  C   UNL A   1      33.654  33.705  32.670  1.00  0.00     0.014 A 
ATOM     11  C   UNL A   1      36.160  34.917  32.427  1.00  0.00     0.010 A 
ATOM     12  C   UNL A   1      34.806  33.003  33.037  1.00  0.00     0.010 A 
ATOM     13  C   UNL A   1      36.070  33.596  32.898  1.00  0.00    -0.014 A 
BRANCH  13  14
ATOM     14  C   UNL A   1      37.306  32.890  33.315  1.00  0.00     0.031 A 
ATOM     15  C   UNL A   1      37.971  33.183  34.629  1.00  0.00     0.074 A 
ATOM     16  C   UNL A   1      37.819  31.957  32.489  1.00  0.00     0.049 A 
ATOM     17  N   UNL A   1      39.057  32.657  35.139  1.00  0.00    -0.248 NA
ATOM     18  C   UNL A   1      37.342  34.203  35.482  1.00  0.00     0.031 C 
ATOM     19  C   UNL A   1      37.260  31.594  31.184  1.00  0.00     0.029 A 
ATOM     20  N   UNL A   1      38.909  31.137  32.622  1.00  0.00    -0.354 N 
ATOM     21  C   UNL A   1      39.248  33.285  36.362  1.00  0.00     0.074 A 
ATOM     22  C   UNL A   1      38.185  34.258  36.504  1.00  0.00     0.031 C 
ATOM     23  C   UNL A   1      37.983  30.597  30.657  1.00  0.00     0.029 A 
ATOM     24  C   UNL A   1      39.097  30.301  31.549  1.00  0.00     0.049 A 
ATOM     25  H   UNL A   1      39.499  31.146  33.409  1.00  0.00     0.167 HD
ATOM     26  C   UNL A   1      40.220  33.062  37.281  1.00  0.00     0.037 A 
ATOM     27  C   UNL A   1      40.075  29.411  31.296  1.00  0.00     0.037 A 
ATOM     28  C   UNL A   1      41.275  32.092  37.126  1.00  0.00     0.049 A 
ATOM     29  C   UNL A   1      41.167  29.228  32.308  1.00  0.00     0.074 A 
ATOM     30  C   UNL A   1      42.291  31.773  38.011  1.00  0.00     0.029 A 
ATOM     31  N   UNL A   1      41.457  31.291  36.007  1.00  0.00    -0.354 N 
ATOM     32  N   UNL A   1      41.319  29.802  33.476  1.00  0.00    -0.248 NA
ATOM     33  C   UNL A   1      42.229  28.274  31.965  1.00  0.00     0.031 C 
ATOM     34  C   UNL A   1      43.120  30.825  37.403  1.00  0.00     0.029 A 
ATOM     35  C   UNL A   1      42.586  30.501  36.167  1.00  0.00     0.049 A 
ATOM     36  H   UNL A   1      40.871  31.285  35.216  1.00  0.00     0.167 HD
ATOM     37  C   UNL A   1      42.476  29.264  34.019  1.00  0.00     0.074 A 
ATOM     38  C   UNL A   1      42.976  28.301  33.059  1.00  0.00     0.031 C 
ATOM     39  C   UNL A   1      43.071  29.543  35.205  1.00  0.00     0.037 A 
BRANCH  26  40
ATOM     40  C   UNL A   1      40.203  33.895  38.533  1.00  0.00     0.064 A 
ATOM     41  C   UNL A   1      40.922  35.096  38.631  1.00  0.00     0.173 A 
ATOM     42  C   UNL A   1      39.416  33.515  39.631  1.00  0.00     0.173 A 
ATOM     43  F   UNL A   1      41.698  35.505  37.615  1.00  0.00    -0.203 F 
ATOM     44  C   UNL A   1      40.876  35.869  39.790  1.00  0.00     0.198 A 
ATOM     45  C   UNL A   1      39.346  34.306  40.775  1.00  0.00     0.198 A 
ATOM     46  F   UNL A   1      38.701  32.381  39.590  1.00  0.00    -0.203 F 
ATOM     47  F   UNL A   1      41.608  36.988  39.877  1.00  0.00    -0.200 F 
ATOM     48  C   UNL A   1      40.082  35.478  40.857  1.00  0.00     0.200 A 
ATOM     49  F   UNL A   1      38.565  33.934  41.799  1.00  0.00    -0.200 F 
ATOM     50  F   UNL A   1      40.030  36.228  41.967  1.00  0.00    -0.200 F 
ENDBRANCH  26  40
BRANCH  27  51
ATOM     51  C   UNL A   1      40.061  28.639  30.026  1.00  0.00     0.064 A 
ATOM     52  C   UNL A   1      40.667  29.144  28.868  1.00  0.00     0.173 A 
ATOM     53  C   UNL A   1      39.449  27.378  29.947  1.00  0.00     0.173 A 
ATOM     54  F   UNL A   1      41.250  30.351  28.890  1.00  0.00    -0.203 F 
ATOM     55  C   UNL A   1      40.643  28.427  27.675  1.00  0.00     0.198 A 
ATOM     56  C   UNL A   1      39.458  26.647  28.763  1.00  0.00     0.198 A 
ATOM     57  F   UNL A   1      38.862  26.846  31.030  1.00  0.00    -0.203 F 
ATOM     58  F   UNL A   1      41.189  28.953  26.569  1.00  0.00    -0.200 F 
ATOM     59  C   UNL A   1      40.046  27.176  27.625  1.00  0.00     0.200 A 
ATOM     60  F   UNL A   1      38.898  25.430  28.726  1.00  0.00    -0.200 F 
ATOM     61  F   UNL A   1      40.033  26.483  26.477  1.00  0.00    -0.200 F 
ENDBRANCH  27  51
BRANCH  39  62
ATOM     62  C   UNL A   1      44.310  28.767  35.547  1.00  0.00     0.064 A 
ATOM     63  C   UNL A   1      44.254  27.563  36.265  1.00  0.00     0.173 A 
ATOM     64  C   UNL A   1      45.569  29.221  35.126  1.00  0.00     0.173 A 
ATOM     65  F   UNL A   1      43.077  27.095  36.707  1.00  0.00    -0.203 F 
ATOM     66  C   UNL A   1      45.415  26.859  36.574  1.00  0.00     0.198 A 
ATOM     67  C   UNL A   1      46.724  28.497  35.406  1.00  0.00     0.198 A 
ATOM     68  F   UNL A   1      45.679  30.365  34.432  1.00  0.00    -0.203 F 
ATOM     69  F   UNL A   1      45.342  25.741  37.310  1.00  0.00    -0.200 F 
ATOM     70  C   UNL A   1      46.647  27.322  36.137  1.00  0.00     0.200 A 
ATOM     71  F   UNL A   1      47.912  28.938  34.968  1.00  0.00    -0.200 F 
ATOM     72  F   UNL A   1      47.762  26.638  36.428  1.00  0.00    -0.200 F 
ENDBRANCH  39  62
ENDBRANCH  13  14
ENDBRANCH   6   8
ENDBRANCH   3   4
ENDBRANCH   2   3
ENDBRANCH   1   2
BRANCH   1  73
ATOM     73  C   UNL A   1      34.523  32.246  28.784  1.00  0.00     0.002 C 
BRANCH  73  74
ATOM     74  C   UNL A   1      33.675  31.705  27.629  1.00  0.00     0.021 C 
BRANCH  74  75
ATOM     75  C   UNL A   1      33.966  30.257  27.238  1.00  0.00     0.116 C 
BRANCH  75  76
ATOM     76  N   UNL A   1      33.055  29.325  27.880  1.00  0.00    -0.352 N 
ATOM     77  C   UNL A   1      32.167  28.449  27.311  1.00  0.00     0.251 C 
ATOM     78  H   UNL A   1      33.078  29.323  28.864  1.00  0.00     0.163 HD
ATOM     79  O   UNL A   1      31.335  27.868  28.000  1.00  0.00    -0.269 OA
BRANCH  77  80
ATOM     80  C   UNL A   1      32.190  28.230  25.850  1.00  0.00     0.040 A 
ATOM     81  C   UNL A   1      31.405  29.029  24.990  1.00  0.00     0.016 A 
ATOM     82  C   UNL A   1      33.004  27.207  25.349  1.00  0.00     0.020 A 
ATOM     83  C   UNL A   1      31.361  28.762  23.621  1.00  0.00     0.027 A 
ATOM     84  C   UNL A   1      32.943  26.947  23.991  1.00  0.00    -0.011 A 
ATOM     85  C   UNL A   1      32.123  27.710  23.160  1.00  0.00     0.045 A 
ATOM     86  C   UNL A   1      33.621  25.868  23.175  1.00  0.00     0.114 C 
ATOM     87  N   UNL A   1      32.185  27.228  21.865  1.00  0.00    -0.325 N 
ATOM     88  C   UNL A   1      33.032  26.132  21.769  1.00  0.00     0.232 C 
ATOM     89  H   UNL A   1      31.691  27.614  21.107  1.00  0.00     0.169 HD
ATOM     90  O   UNL A   1      33.275  25.528  20.735  1.00  0.00    -0.274 OA
BRANCH  86  91
ATOM     91  C   UNL A   1      33.412  24.448  23.735  1.00  0.00     0.010 C 
ATOM     92  C   UNL A   1      34.485  23.455  23.261  1.00  0.00     0.033 C 
ATOM     93  C   UNL A   1      32.022  23.849  23.457  1.00  0.00     0.033 C 
ATOM     94  C   UNL A   1      34.249  22.079  23.876  1.00  0.00     0.160 C 
ATOM     95  C   UNL A   1      31.918  22.460  24.078  1.00  0.00     0.160 C 
ATOM     96  O   UNL A   1      32.938  21.603  23.572  1.00  0.00    -0.381 OA
ENDBRANCH  86  91
ENDBRANCH  77  80
ENDBRANCH  75  76
ENDBRANCH  74  75
ENDBRANCH  73  74
ENDBRANCH   1  73
TORSDOF 14
ENDMDL
MODEL 2
REMARK VINA RESULT:     -12.3      0.267      7.157
REMARK SMILES O=C(NCCCCCCNC(=O)c1ccc2c(c1)[C@@H](C1CCOCC1)C(=O)N2)c1ccc(-c2c3nc(c(-c4c(F)c(F)c(F)c(F)c4F)c4ccc([nH]4)c(-c4c(F)c(F)c(F)c(F)c4F)c4nc(c(-c5c(F)c(F)c(F)c(F)c5F)c5ccc2[nH]5)C=C4)C=C3)cc1
REMARK SMILES IDX 6 1 5 2 4 3 3 4 1 5 2 6 29 8 30 9 91 10 31 11 90 12 32 13
REMARK SMILES IDX 33 14 34 15 84 16 35 17 89 18 83 19 85 20 36 21 88 22 82 23
REMARK SMILES IDX 81 24 37 26 69 27 49 28 68 29 50 30 53 31 67 32 86 33 51 34
REMARK SMILES IDX 52 35 66 37 87 38 54 39 38 40 39 41 47 42 40 43 41 44 45 45
REMARK SMILES IDX 48 46 42 47 43 48 46 49 44 50 70 51 71 52 79 53 72 54 73 55
REMARK SMILES IDX 77 56 80 57 74 58 75 59 78 60 76 61 55 62 56 63 64 64 57 65
REMARK SMILES IDX 58 66 62 67 65 68 59 69 60 70 63 71 61 72 7 73 8 74 9 75
REMARK SMILES IDX 10 76 11 77 12 79 13 80 14 81 18 82 15 83 17 84 16 85 19 86
REMARK SMILES IDX 28 87 26 88 27 90 20 91 21 92 25 93 22 94 24 95 23 96
REMARK H PARENT 3 7 85 25 53 36 10 78 28 89
REMARK Flexibility Score: inf
ROOT
ATOM      1  C   UNL A   1      34.594  33.721  28.888  1.00  0.00     0.002 C 
ENDROOT
BRANCH   1   2
ATOM      2  C   UNL A   1      33.270  34.481  28.945  1.00  0.00     0.021 C 
BRANCH   2   3
ATOM      3  C   UNL A   1      33.377  35.904  29.473  1.00  0.00     0.116 C 
BRANCH   3   4
ATOM      4  N   UNL A   1      32.507  36.142  30.613  1.00  0.00    -0.352 N 
ATOM      5  O   UNL A   1      31.706  35.834  32.703  1.00  0.00    -0.269 OA
ATOM      6  C   UNL A   1      32.620  35.677  31.901  1.00  0.00     0.251 C 
ATOM      7  H   UNL A   1      31.727  36.717  30.438  1.00  0.00     0.163 HD
BRANCH   6   8
ATOM      8  C   UNL A   1      33.847  34.964  32.312  1.00  0.00     0.039 A 
ATOM      9  C   UNL A   1      35.082  35.616  32.302  1.00  0.00     0.014 A 
ATOM     10  C   UNL A   1      33.760  33.628  32.712  1.00  0.00     0.014 A 
ATOM     11  C   UNL A   1      36.244  34.898  32.554  1.00  0.00     0.010 A 
ATOM     12  C   UNL A   1      34.922  32.933  33.060  1.00  0.00     0.010 A 
ATOM     13  C   UNL A   1      36.175  33.556  32.962  1.00  0.00    -0.014 A 
BRANCH  13  14
ATOM     14  C   UNL A   1      37.421  32.855  33.361  1.00  0.00     0.031 A 
ATOM     15  C   UNL A   1      38.059  31.825  32.474  1.00  0.00     0.074 A 
ATOM     16  C   UNL A   1      37.984  33.177  34.542  1.00  0.00     0.049 A 
ATOM     17  N   UNL A   1      39.145  31.121  32.677  1.00  0.00    -0.248 NA
ATOM     18  C   UNL A   1      37.392  31.542  31.194  1.00  0.00     0.031 C 
ATOM     19  C   UNL A   1      37.449  34.159  35.488  1.00  0.00     0.029 A 
ATOM     20  N   UNL A   1      39.131  32.728  35.144  1.00  0.00    -0.354 N 
ATOM     21  C   UNL A   1      39.286  30.305  31.563  1.00  0.00     0.074 A 
ATOM     22  C   UNL A   1      38.156  30.577  30.699  1.00  0.00     0.031 C 
ATOM     23  C   UNL A   1      38.285  34.271  36.528  1.00  0.00     0.029 A 
ATOM     24  C   UNL A   1      39.375  33.317  36.360  1.00  0.00     0.049 A 
ATOM     25  H   UNL A   1      39.722  32.050  34.744  1.00  0.00     0.167 HD
ATOM     26  C   UNL A   1      40.274  29.419  31.287  1.00  0.00     0.037 A 
ATOM     27  C   UNL A   1      40.354  33.098  37.257  1.00  0.00     0.037 A 
ATOM     28  C   UNL A   1      41.392  29.156  32.158  1.00  0.00     0.049 A 
ATOM     29  C   UNL A   1      41.402  32.068  36.947  1.00  0.00     0.074 A 
ATOM     30  C   UNL A   1      42.458  28.295  31.956  1.00  0.00     0.029 A 
ATOM     31  N   UNL A   1      41.585  29.742  33.401  1.00  0.00    -0.354 N 
ATOM     32  N   UNL A   1      41.545  31.329  35.875  1.00  0.00    -0.248 NA
ATOM     33  C   UNL A   1      42.424  31.840  37.977  1.00  0.00     0.031 C 
ATOM     34  C   UNL A   1      43.262  28.316  33.102  1.00  0.00     0.029 A 
ATOM     35  C   UNL A   1      42.736  29.240  33.990  1.00  0.00     0.049 A 
ATOM     36  H   UNL A   1      40.991  30.416  33.805  1.00  0.00     0.167 HD
ATOM     37  C   UNL A   1      42.684  30.566  36.087  1.00  0.00     0.074 A 
ATOM     38  C   UNL A   1      43.205  30.948  37.383  1.00  0.00     0.031 C 
ATOM     39  C   UNL A   1      43.245  29.632  35.281  1.00  0.00     0.037 A 
BRANCH  26  40
ATOM     40  C   UNL A   1      40.183  28.649  29.999  1.00  0.00     0.064 A 
ATOM     41  C   UNL A   1      40.778  29.114  28.816  1.00  0.00     0.173 A 
ATOM     42  C   UNL A   1      39.538  27.403  29.958  1.00  0.00     0.173 A 
ATOM     43  F   UNL A   1      41.402  30.302  28.795  1.00  0.00    -0.203 F 
ATOM     44  C   UNL A   1      40.707  28.375  27.637  1.00  0.00     0.198 A 
ATOM     45  C   UNL A   1      39.496  26.652  28.786  1.00  0.00     0.198 A 
ATOM     46  F   UNL A   1      38.959  26.905  31.061  1.00  0.00    -0.203 F 
ATOM     47  F   UNL A   1      41.243  28.862  26.509  1.00  0.00    -0.200 F 
ATOM     48  C   UNL A   1      40.073  27.141  27.624  1.00  0.00     0.200 A 
ATOM     49  F   UNL A   1      38.897  25.453  28.780  1.00  0.00    -0.200 F 
ATOM     50  F   UNL A   1      40.014  26.428  26.491  1.00  0.00    -0.200 F 
ENDBRANCH  26  40
BRANCH  27  51
ATOM     51  C   UNL A   1      40.376  33.863  38.530  1.00  0.00     0.064 A 
ATOM     52  C   UNL A   1      41.146  35.026  38.660  1.00  0.00     0.173 A 
ATOM     53  C   UNL A   1      39.620  33.453  39.639  1.00  0.00     0.173 A 
ATOM     54  F   UNL A   1      41.898  35.449  37.633  1.00  0.00    -0.203 F 
ATOM     55  C   UNL A   1      41.176  35.737  39.857  1.00  0.00     0.198 A 
ATOM     56  C   UNL A   1      39.623  34.185  40.823  1.00  0.00     0.198 A 
ATOM     57  F   UNL A   1      38.858  32.351  39.564  1.00  0.00    -0.203 F 
ATOM     58  F   UNL A   1      41.959  36.820  39.970  1.00  0.00    -0.200 F 
ATOM     59  C   UNL A   1      40.409  35.321  40.935  1.00  0.00     0.200 A 
ATOM     60  F   UNL A   1      38.863  33.791  41.854  1.00  0.00    -0.200 F 
ATOM     61  F   UNL A   1      40.433  36.012  42.083  1.00  0.00    -0.200 F 
ENDBRANCH  27  51
BRANCH  39  62
ATOM     62  C   UNL A   1      44.513  28.986  35.762  1.00  0.00     0.064 A 
ATOM     63  C   UNL A   1      44.500  27.806  36.520  1.00  0.00     0.173 A 
ATOM     64  C   UNL A   1      45.759  29.542  35.436  1.00  0.00     0.173 A 
ATOM     65  F   UNL A   1      43.335  27.244  36.875  1.00  0.00    -0.203 F 
ATOM     66  C   UNL A   1      45.687  27.223  36.958  1.00  0.00     0.198 A 
ATOM     67  C   UNL A   1      46.945  28.938  35.844  1.00  0.00     0.198 A 
ATOM     68  F   UNL A   1      45.828  30.668  34.708  1.00  0.00    -0.203 F 
ATOM     69  F   UNL A   1      45.648  26.127  37.728  1.00  0.00    -0.200 F 
ATOM     70  C   UNL A   1      46.907  27.785  36.613  1.00  0.00     0.200 A 
ATOM     71  F   UNL A   1      48.123  29.474  35.496  1.00  0.00    -0.200 F 
ATOM     72  F   UNL A   1      48.048  27.218  37.028  1.00  0.00    -0.200 F 
ENDBRANCH  39  62
ENDBRANCH  13  14
ENDBRANCH   6   8
ENDBRANCH   3   4
ENDBRANCH   2   3
ENDBRANCH   1   2
BRANCH   1  73
ATOM     73  C   UNL A   1      34.469  32.196  28.807  1.00  0.00     0.002 C 
BRANCH  73  74
ATOM     74  C   UNL A   1      33.758  31.658  27.560  1.00  0.00     0.021 C 
BRANCH  74  75
ATOM     75  C   UNL A   1      34.052  30.196  27.230  1.00  0.00     0.116 C 
BRANCH  75  76
ATOM     76  N   UNL A   1      33.109  29.294  27.869  1.00  0.00    -0.352 N 
ATOM     77  C   UNL A   1      32.185  28.457  27.296  1.00  0.00     0.251 C 
ATOM     78  H   UNL A   1      33.137  29.281  28.852  1.00  0.00     0.163 HD
ATOM     79  O   UNL A   1      31.336  27.901  27.984  1.00  0.00    -0.269 OA
BRANCH  77  80
ATOM     80  C   UNL A   1      32.194  28.251  25.833  1.00  0.00     0.040 A 
ATOM     81  C   UNL A   1      31.404  29.061  24.988  1.00  0.00     0.016 A 
ATOM     82  C   UNL A   1      32.997  27.229  25.315  1.00  0.00     0.020 A 
ATOM     83  C   UNL A   1      31.345  28.807  23.617  1.00  0.00     0.027 A 
ATOM     84  C   UNL A   1      32.923  26.981  23.955  1.00  0.00    -0.011 A 
ATOM     85  C   UNL A   1      32.098  27.756  23.139  1.00  0.00     0.045 A 
ATOM     86  C   UNL A   1      33.587  25.908  23.123  1.00  0.00     0.114 C 
ATOM     87  N   UNL A   1      32.144  27.286  21.839  1.00  0.00    -0.325 N 
ATOM     88  C   UNL A   1      32.985  26.187  21.725  1.00  0.00     0.232 C 
ATOM     89  H   UNL A   1      31.644  27.681  21.090  1.00  0.00     0.169 HD
ATOM     90  O   UNL A   1      33.216  25.591  20.683  1.00  0.00    -0.274 OA
BRANCH  86  91
ATOM     91  C   UNL A   1      33.377  24.483  23.672  1.00  0.00     0.010 C 
ATOM     92  C   UNL A   1      34.535  23.533  23.328  1.00  0.00     0.033 C 
ATOM     93  C   UNL A   1      32.052  23.824  23.250  1.00  0.00     0.033 C 
ATOM     94  C   UNL A   1      34.291  22.152  23.928  1.00  0.00     0.160 C 
ATOM     95  C   UNL A   1      31.938  22.436  23.872  1.00  0.00     0.160 C 
ATOM     96  O   UNL A   1      33.042  21.619  23.489  1.00  0.00    -0.381 OA
ENDBRANCH  86  91
ENDBRANCH  77  80
ENDBRANCH  75  76
ENDBRANCH  74  75
ENDBRANCH  73  74
ENDBRANCH   1  73
TORSDOF 14
ENDMDL
MODEL 3
REMARK VINA RESULT:     -12.2      6.494     11.790
REMARK SMILES O=C(NCCCCCCNC(=O)c1ccc2c(c1)[C@@H](C1CCOCC1)C(=O)N2)c1ccc(-c2c3nc(c(-c4c(F)c(F)c(F)c(F)c4F)c4ccc([nH]4)c(-c4c(F)c(F)c(F)c(F)c4F)c4nc(c(-c5c(F)c(F)c(F)c(F)c5F)c5ccc2[nH]5)C=C4)C=C3)cc1
REMARK SMILES IDX 6 1 5 2 4 3 3 4 1 5 2 6 29 8 30 9 91 10 31 11 90 12 32 13
REMARK SMILES IDX 33 14 34 15 84 16 35 17 89 18 83 19 85 20 36 21 88 22 82 23
REMARK SMILES IDX 81 24 37 26 69 27 49 28 68 29 50 30 53 31 67 32 86 33 51 34
REMARK SMILES IDX 52 35 66 37 87 38 54 39 38 40 39 41 47 42 40 43 41 44 45 45
REMARK SMILES IDX 48 46 42 47 43 48 46 49 44 50 70 51 71 52 79 53 72 54 73 55
REMARK SMILES IDX 77 56 80 57 74 58 75 59 78 60 76 61 55 62 56 63 64 64 57 65
REMARK SMILES IDX 58 66 62 67 65 68 59 69 60 70 63 71 61 72 7 73 8 74 9 75
REMARK SMILES IDX 10 76 11 77 12 79 13 80 14 81 18 82 15 83 17 84 16 85 19 86
REMARK SMILES IDX 28 87 26 88 27 90 20 91 21 92 25 93 22 94 24 95 23 96
REMARK H PARENT 3 7 85 25 53 36 10 78 28 89
REMARK Flexibility Score: inf
ROOT
ATOM      1  C   UNL A   1      37.109  20.322  24.947  1.00  0.00     0.002 C 
ENDROOT
BRANCH   1   2
ATOM      2  C   UNL A   1      38.322  19.393  24.980  1.00  0.00     0.021 C 
BRANCH   2   3
ATOM      3  C   UNL A   1      39.399  19.791  25.978  1.00  0.00     0.116 C 
BRANCH   3   4
ATOM      4  N   UNL A   1      40.537  18.886  25.961  1.00  0.00    -0.352 N 
ATOM      5  O   UNL A   1      42.717  18.307  25.833  1.00  0.00    -0.269 OA
ATOM      6  C   UNL A   1      41.877  19.178  26.032  1.00  0.00     0.251 C 
ATOM      7  H   UNL A   1      40.316  17.929  25.888  1.00  0.00     0.163 HD
BRANCH   6   8
ATOM      8  C   UNL A   1      42.305  20.561  26.331  1.00  0.00     0.039 A 
ATOM      9  C   UNL A   1      42.423  20.996  27.653  1.00  0.00     0.014 A 
ATOM     10  C   UNL A   1      42.593  21.431  25.276  1.00  0.00     0.014 A 
ATOM     11  C   UNL A   1      42.688  22.333  27.919  1.00  0.00     0.010 A 
ATOM     12  C   UNL A   1      42.956  22.753  25.548  1.00  0.00     0.010 A 
ATOM     13  C   UNL A   1      42.985  23.220  26.871  1.00  0.00    -0.014 A 
BRANCH  13  14
ATOM     14  C   UNL A   1      43.403  24.607  27.193  1.00  0.00     0.031 A 
ATOM     15  C   UNL A   1      44.803  25.084  26.937  1.00  0.00     0.074 A 
ATOM     16  C   UNL A   1      42.485  25.447  27.711  1.00  0.00     0.049 A 
ATOM     17  N   UNL A   1      45.328  26.262  27.165  1.00  0.00    -0.248 NA
ATOM     18  C   UNL A   1      45.742  24.112  26.355  1.00  0.00     0.031 C 
ATOM     19  C   UNL A   1      41.095  25.092  28.007  1.00  0.00     0.029 A 
ATOM     20  N   UNL A   1      42.572  26.768  28.067  1.00  0.00    -0.354 N 
ATOM     21  C   UNL A   1      46.655  26.172  26.768  1.00  0.00     0.074 A 
ATOM     22  C   UNL A   1      46.867  24.814  26.314  1.00  0.00     0.031 C 
ATOM     23  C   UNL A   1      40.449  26.175  28.458  1.00  0.00     0.029 A 
ATOM     24  C   UNL A   1      41.394  27.281  28.553  1.00  0.00     0.049 A 
ATOM     25  H   UNL A   1      43.397  27.297  27.983  1.00  0.00     0.167 HD
ATOM     26  C   UNL A   1      47.604  27.141  26.775  1.00  0.00     0.037 A 
ATOM     27  C   UNL A   1      41.110  28.500  29.048  1.00  0.00     0.037 A 
ATOM     28  C   UNL A   1      47.381  28.490  27.232  1.00  0.00     0.049 A 
ATOM     29  C   UNL A   1      42.198  29.533  29.095  1.00  0.00     0.074 A 
ATOM     30  C   UNL A   1      48.271  29.551  27.255  1.00  0.00     0.029 A 
ATOM     31  N   UNL A   1      46.186  28.962  27.756  1.00  0.00    -0.354 N 
ATOM     32  N   UNL A   1      43.439  29.448  28.684  1.00  0.00    -0.248 NA
ATOM     33  C   UNL A   1      41.845  30.833  29.680  1.00  0.00     0.031 C 
ATOM     34  C   UNL A   1      47.632  30.646  27.848  1.00  0.00     0.029 A 
ATOM     35  C   UNL A   1      46.324  30.290  28.133  1.00  0.00     0.049 A 
ATOM     36  H   UNL A   1      45.361  28.432  27.846  1.00  0.00     0.167 HD
ATOM     37  C   UNL A   1      44.010  30.687  28.936  1.00  0.00     0.074 A 
ATOM     38  C   UNL A   1      42.971  31.512  29.517  1.00  0.00     0.031 C 
ATOM     39  C   UNL A   1      45.280  31.102  28.708  1.00  0.00     0.037 A 
BRANCH  26  40
ATOM     40  C   UNL A   1      48.981  26.776  26.294  1.00  0.00     0.064 A 
ATOM     41  C   UNL A   1      49.380  26.987  24.966  1.00  0.00     0.173 A 
ATOM     42  C   UNL A   1      49.932  26.255  27.185  1.00  0.00     0.173 A 
ATOM     43  F   UNL A   1      48.510  27.476  24.068  1.00  0.00    -0.203 F 
ATOM     44  C   UNL A   1      50.668  26.667  24.542  1.00  0.00     0.198 A 
ATOM     45  C   UNL A   1      51.228  25.965  26.767  1.00  0.00     0.198 A 
ATOM     46  F   UNL A   1      49.609  26.040  28.469  1.00  0.00    -0.203 F 
ATOM     47  F   UNL A   1      51.011  26.835  23.257  1.00  0.00    -0.200 F 
ATOM     48  C   UNL A   1      51.594  26.164  25.444  1.00  0.00     0.200 A 
ATOM     49  F   UNL A   1      52.125  25.494  27.644  1.00  0.00    -0.200 F 
ATOM     50  F   UNL A   1      52.835  25.865  25.037  1.00  0.00    -0.200 F 
ENDBRANCH  26  40
BRANCH  27  51
ATOM     51  C   UNL A   1      39.741  28.796  29.542  1.00  0.00     0.064 A 
ATOM     52  C   UNL A   1      39.376  28.518  30.865  1.00  0.00     0.173 A 
ATOM     53  C   UNL A   1      38.773  29.372  28.704  1.00  0.00     0.173 A 
ATOM     54  F   UNL A   1      40.261  27.952  31.700  1.00  0.00    -0.203 F 
ATOM     55  C   UNL A   1      38.089  28.784  31.326  1.00  0.00     0.198 A 
ATOM     56  C   UNL A   1      37.499  29.670  29.177  1.00  0.00     0.198 A 
ATOM     57  F   UNL A   1      39.075  29.666  27.431  1.00  0.00    -0.203 F 
ATOM     58  F   UNL A   1      37.751  28.463  32.583  1.00  0.00    -0.200 F 
ATOM     59  C   UNL A   1      37.154  29.367  30.484  1.00  0.00     0.200 A 
ATOM     60  F   UNL A   1      36.606  30.253  28.365  1.00  0.00    -0.200 F 
ATOM     61  F   UNL A   1      35.918  29.630  30.932  1.00  0.00    -0.200 F 
ENDBRANCH  27  51
BRANCH  39  62
ATOM     62  C   UNL A   1      45.606  32.527  29.052  1.00  0.00     0.064 A 
ATOM     63  C   UNL A   1      45.360  33.579  28.157  1.00  0.00     0.173 A 
ATOM     64  C   UNL A   1      46.146  32.847  30.307  1.00  0.00     0.173 A 
ATOM     65  F   UNL A   1      44.863  33.325  26.937  1.00  0.00    -0.203 F 
ATOM     66  C   UNL A   1      45.671  34.893  28.494  1.00  0.00     0.198 A 
ATOM     67  C   UNL A   1      46.422  34.166  30.655  1.00  0.00     0.198 A 
ATOM     68  F   UNL A   1      46.396  31.879  31.203  1.00  0.00    -0.203 F 
ATOM     69  F   UNL A   1      45.480  35.875  27.602  1.00  0.00    -0.200 F 
ATOM     70  C   UNL A   1      46.193  35.186  29.745  1.00  0.00     0.200 A 
ATOM     71  F   UNL A   1      46.912  34.448  31.870  1.00  0.00    -0.200 F 
ATOM     72  F   UNL A   1      46.483  36.453  30.071  1.00  0.00    -0.200 F 
ENDBRANCH  39  62
ENDBRANCH  13  14
ENDBRANCH   6   8
ENDBRANCH   3   4
ENDBRANCH   2   3
ENDBRANCH   1   2
BRANCH   1  73
ATOM     73  C   UNL A   1      37.415  21.782  24.598  1.00  0.00     0.002 C 
BRANCH  73  74
ATOM     74  C   UNL A   1      37.338  22.769  25.766  1.00  0.00     0.021 C 
BRANCH  74  75
ATOM     75  C   UNL A   1      36.019  23.531  25.881  1.00  0.00     0.116 C 
BRANCH  75  76
ATOM     76  N   UNL A   1      35.267  23.144  27.063  1.00  0.00    -0.352 N 
ATOM     77  C   UNL A   1      34.071  22.479  27.150  1.00  0.00     0.251 C 
ATOM     78  H   UNL A   1      35.675  23.394  27.923  1.00  0.00     0.163 HD
ATOM     79  O   UNL A   1      33.481  22.397  28.222  1.00  0.00    -0.269 OA
BRANCH  77  80
ATOM     80  C   UNL A   1      33.474  21.885  25.937  1.00  0.00     0.040 A 
ATOM     81  C   UNL A   1      32.390  22.515  25.287  1.00  0.00     0.016 A 
ATOM     82  C   UNL A   1      34.007  20.682  25.459  1.00  0.00     0.020 A 
ATOM     83  C   UNL A   1      31.770  21.907  24.194  1.00  0.00     0.027 A 
ATOM     84  C   UNL A   1      33.378  20.085  24.381  1.00  0.00    -0.011 A 
ATOM     85  C   UNL A   1      32.274  20.693  23.780  1.00  0.00     0.045 A 
ATOM     86  C   UNL A   1      33.654  18.763  23.701  1.00  0.00     0.114 C 
ATOM     87  N   UNL A   1      31.784  19.886  22.769  1.00  0.00    -0.325 N 
ATOM     88  C   UNL A   1      32.521  18.715  22.650  1.00  0.00     0.232 C 
ATOM     89  H   UNL A   1      31.011  20.114  22.206  1.00  0.00     0.169 HD
ATOM     90  O   UNL A   1      32.308  17.839  21.825  1.00  0.00    -0.274 OA
BRANCH  86  91
ATOM     91  C   UNL A   1      33.717  17.570  24.675  1.00  0.00     0.010 C 
ATOM     92  C   UNL A   1      34.871  16.604  24.364  1.00  0.00     0.033 C 
ATOM     93  C   UNL A   1      32.410  16.765  24.786  1.00  0.00     0.033 C 
ATOM     94  C   UNL A   1      34.906  15.467  25.380  1.00  0.00     0.160 C 
ATOM     95  C   UNL A   1      32.578  15.633  25.794  1.00  0.00     0.160 C 
ATOM     96  O   UNL A   1      33.656  14.779  25.420  1.00  0.00    -0.381 OA
ENDBRANCH  86  91
ENDBRANCH  77  80
ENDBRANCH  75  76
ENDBRANCH  74  75
ENDBRANCH  73  74
ENDBRANCH   1  73
TORSDOF 14
ENDMDL
