MODEL 1
REMARK VINA RESULT:     -12.4      0.000      0.000
REMARK SMILES CC1(C)S[C@H](c2ccc(Cl)cc2Cl)[NH2+][C@H]1C(=O)NCCCCCCNC(=O)c1ccc(-c2c3nc(c(-c4c(F)c(F)c(F)c(F)c4F)c4ccc([nH]4)c(-c4c(F)c(F)c(F)c(F)c4F)c4nc(c(-c5c(F)c(F)c(F)c(F)c5F)c5ccc2[nH]5)C=C4)C=C3)cc1
REMARK SMILES IDX 22 1 21 2 20 3 19 4 18 5 16 6 17 7 15 9 1 10 2 11 3 12 4 13
REMARK SMILES IDX 5 14 14 15 6 18 7 19 12 20 8 21 11 22 13 23 9 24 10 25 23 26
REMARK SMILES IDX 24 27 25 28 26 29 27 31 28 32 29 33 90 34 30 35 89 36 31 37
REMARK SMILES IDX 32 38 33 39 83 40 34 41 88 42 82 43 84 44 35 45 87 46 81 47
REMARK SMILES IDX 80 48 36 50 68 51 48 52 67 53 49 54 52 55 66 56 85 57 50 58
REMARK SMILES IDX 51 59 65 61 86 62 53 63 37 64 38 65 46 66 39 67 40 68 44 69
REMARK SMILES IDX 47 70 41 71 42 72 45 73 43 74 69 75 70 76 78 77 71 78 72 79
REMARK SMILES IDX 76 80 79 81 73 82 74 83 77 84 75 85 54 86 55 87 63 88 56 89
REMARK SMILES IDX 57 90 61 91 64 92 58 93 59 94 62 95 60 96
REMARK H PARENT 18 8 14 16 14 17 25 30 84 49 52 60
REMARK Flexibility Score: inf
ROOT
ATOM      1  C   UNL A   1      31.353  30.698  25.784  1.00  0.00     0.002 C 
ENDROOT
BRANCH   1   2
ATOM      2  C   UNL A   1      32.728  30.024  25.828  1.00  0.00     0.002 C 
BRANCH   2   3
ATOM      3  C   UNL A   1      32.956  29.094  27.020  1.00  0.00     0.021 C 
BRANCH   3   4
ATOM      4  C   UNL A   1      31.676  28.527  27.632  1.00  0.00     0.116 C 
BRANCH   4   5
ATOM      5  N   UNL A   1      31.648  27.085  27.522  1.00  0.00    -0.351 N 
ATOM      6  C   UNL A   1      31.333  26.232  26.512  1.00  0.00     0.279 C 
ATOM      7  O   UNL A   1      31.235  25.038  26.829  1.00  0.00    -0.268 OA
ATOM      8  H   UNL A   1      31.911  26.625  28.353  1.00  0.00     0.163 HD
BRANCH   6   9
ATOM      9  C   UNL A   1      31.055  26.656  25.055  1.00  0.00     0.289 C 
ATOM     10  C   UNL A   1      32.409  24.652  24.030  1.00  0.00     0.030 C 
ATOM     11  C   UNL A   1      32.045  26.134  23.999  1.00  0.00     0.077 C 
ATOM     12  C   UNL A   1      33.332  26.967  23.994  1.00  0.00     0.030 C 
ATOM     13  S   UNL A   1      31.130  26.415  22.440  1.00  0.00    -0.081 SA
ATOM     14  C   UNL A   1      29.527  26.828  23.242  1.00  0.00     0.276 C 
ATOM     15  N   UNL A   1      29.644  26.430  24.642  1.00  0.00    -0.320 N 
ATOM     16  H   UNL A   1      29.406  25.444  24.745  1.00  0.00     0.348 HD
ATOM     17  H   UNL A   1      29.008  26.975  25.225  1.00  0.00     0.348 HD
BRANCH  14  18
ATOM     18  C   UNL A   1      29.085  28.251  22.906  1.00  0.00     0.039 A 
ATOM     19  C   UNL A   1      30.068  29.063  22.276  1.00  0.00     0.014 A 
ATOM     20  C   UNL A   1      27.822  28.837  23.110  1.00  0.00     0.052 A 
ATOM     21  C   UNL A   1      29.836  30.397  21.942  1.00  0.00     0.021 A 
ATOM     22  C   UNL A   1      27.595  30.187  22.785  1.00  0.00     0.041 A 
ATOM     23  Cl  UNL A   1      26.431  28.005  23.712  1.00  0.00    -0.084 Cl
ATOM     24  C   UNL A   1      28.600  30.959  22.215  1.00  0.00     0.042 A 
ATOM     25  Cl  UNL A   1      28.306  32.608  21.831  1.00  0.00    -0.084 Cl
ENDBRANCH  14  18
ENDBRANCH   6   9
ENDBRANCH   4   5
ENDBRANCH   3   4
ENDBRANCH   2   3
ENDBRANCH   1   2
BRANCH   1  26
ATOM     26  C   UNL A   1      31.268  32.068  26.463  1.00  0.00     0.021 C 
BRANCH  26  27
ATOM     27  C   UNL A   1      32.589  32.614  26.996  1.00  0.00     0.116 C 
BRANCH  27  28
ATOM     28  N   UNL A   1      32.445  33.932  27.585  1.00  0.00    -0.352 N 
ATOM     29  C   UNL A   1      33.153  34.515  28.602  1.00  0.00     0.251 C 
ATOM     30  H   UNL A   1      31.733  34.489  27.196  1.00  0.00     0.163 HD
ATOM     31  O   UNL A   1      32.778  35.582  29.077  1.00  0.00    -0.269 OA
BRANCH  29  32
ATOM     32  C   UNL A   1      34.362  33.858  29.143  1.00  0.00     0.039 A 
ATOM     33  C   UNL A   1      34.198  32.771  30.005  1.00  0.00     0.014 A 
ATOM     34  C   UNL A   1      35.644  34.336  28.853  1.00  0.00     0.014 A 
ATOM     35  C   UNL A   1      35.318  32.151  30.560  1.00  0.00     0.010 A 
ATOM     36  C   UNL A   1      36.764  33.674  29.353  1.00  0.00     0.010 A 
ATOM     37  C   UNL A   1      36.610  32.591  30.231  1.00  0.00    -0.014 A 
BRANCH  37  38
ATOM     38  C   UNL A   1      37.800  31.953  30.847  1.00  0.00     0.031 A 
ATOM     39  C   UNL A   1      38.224  32.336  32.238  1.00  0.00     0.074 A 
ATOM     40  C   UNL A   1      38.506  31.045  30.150  1.00  0.00     0.049 A 
ATOM     41  N   UNL A   1      39.223  31.885  32.953  1.00  0.00    -0.248 NA
ATOM     42  C   UNL A   1      37.434  33.383  32.907  1.00  0.00     0.031 C 
ATOM     43  C   UNL A   1      38.224  30.630  28.774  1.00  0.00     0.029 A 
ATOM     44  N   UNL A   1      39.605  30.303  30.503  1.00  0.00    -0.354 N 
ATOM     45  C   UNL A   1      39.188  32.598  34.145  1.00  0.00     0.074 A 
ATOM     46  C   UNL A   1      38.107  33.551  34.035  1.00  0.00     0.031 C 
ATOM     47  C   UNL A   1      39.109  29.687  28.411  1.00  0.00     0.029 A 
ATOM     48  C   UNL A   1      40.031  29.447  29.518  1.00  0.00     0.049 A 
ATOM     49  H   UNL A   1      40.046  30.378  31.380  1.00  0.00     0.167 HD
ATOM     50  C   UNL A   1      39.969  32.451  35.242  1.00  0.00     0.037 A 
ATOM     51  C   UNL A   1      41.045  28.563  29.514  1.00  0.00     0.037 A 
ATOM     52  C   UNL A   1      41.024  31.480  35.360  1.00  0.00     0.049 A 
ATOM     53  C   UNL A   1      41.881  28.401  30.755  1.00  0.00     0.074 A 
ATOM     54  C   UNL A   1      41.834  31.210  36.448  1.00  0.00     0.029 A 
ATOM     55  N   UNL A   1      41.414  30.614  34.347  1.00  0.00    -0.354 N 
ATOM     56  N   UNL A   1      41.792  29.030  31.902  1.00  0.00    -0.248 NA
ATOM     57  C   UNL A   1      42.949  27.394  30.703  1.00  0.00     0.031 C 
ATOM     58  C   UNL A   1      42.738  30.206  36.082  1.00  0.00     0.029 A 
ATOM     59  C   UNL A   1      42.462  29.820  34.781  1.00  0.00     0.049 A 
ATOM     60  H   UNL A   1      41.004  30.571  33.453  1.00  0.00     0.167 HD
ATOM     61  C   UNL A   1      42.775  28.481  32.715  1.00  0.00     0.074 A 
ATOM     62  C   UNL A   1      43.432  27.452  31.936  1.00  0.00     0.031 C 
ATOM     63  C   UNL A   1      43.104  28.802  33.990  1.00  0.00     0.037 A 
BRANCH  50  64
ATOM     64  C   UNL A   1      39.703  33.362  36.406  1.00  0.00     0.064 A 
ATOM     65  C   UNL A   1      40.359  34.595  36.539  1.00  0.00     0.173 A 
ATOM     66  C   UNL A   1      38.764  33.009  37.387  1.00  0.00     0.173 A 
ATOM     67  F   UNL A   1      41.277  34.973  35.636  1.00  0.00    -0.203 F 
ATOM     68  C   UNL A   1      40.108  35.427  37.627  1.00  0.00     0.198 A 
ATOM     69  C   UNL A   1      38.494  33.858  38.457  1.00  0.00     0.198 A 
ATOM     70  F   UNL A   1      38.105  31.844  37.306  1.00  0.00    -0.203 F 
ATOM     71  F   UNL A   1      40.786  36.576  37.759  1.00  0.00    -0.200 F 
ATOM     72  C   UNL A   1      39.172  35.062  38.581  1.00  0.00     0.200 A 
ATOM     73  F   UNL A   1      37.580  33.509  39.373  1.00  0.00    -0.200 F 
ATOM     74  F   UNL A   1      38.928  35.865  39.625  1.00  0.00    -0.200 F 
ENDBRANCH  50  64
BRANCH  51  75
ATOM     75  C   UNL A   1      41.298  27.730  28.310  1.00  0.00     0.064 A 
ATOM     76  C   UNL A   1      40.654  26.497  28.141  1.00  0.00     0.173 A 
ATOM     77  C   UNL A   1      42.189  28.146  27.311  1.00  0.00     0.173 A 
ATOM     78  F   UNL A   1      39.808  26.049  29.080  1.00  0.00    -0.203 F 
ATOM     79  C   UNL A   1      40.908  25.700  27.027  1.00  0.00     0.198 A 
ATOM     80  C   UNL A   1      42.422  27.360  26.184  1.00  0.00     0.198 A 
ATOM     81  F   UNL A   1      42.825  29.320  27.424  1.00  0.00    -0.203 F 
ATOM     82  F   UNL A   1      40.313  24.505  26.911  1.00  0.00    -0.200 F 
ATOM     83  C   UNL A   1      41.788  26.135  26.046  1.00  0.00     0.200 A 
ATOM     84  F   UNL A   1      43.263  27.789  25.233  1.00  0.00    -0.200 F 
ATOM     85  F   UNL A   1      42.030  25.369  24.974  1.00  0.00    -0.200 F 
ENDBRANCH  51  75
BRANCH  63  86
ATOM     86  C   UNL A   1      44.214  28.015  34.625  1.00  0.00     0.064 A 
ATOM     87  C   UNL A   1      45.546  28.447  34.571  1.00  0.00     0.173 A 
ATOM     88  C   UNL A   1      43.936  26.823  35.311  1.00  0.00     0.173 A 
ATOM     89  F   UNL A   1      45.863  29.573  33.912  1.00  0.00    -0.203 F 
ATOM     90  C   UNL A   1      46.566  27.699  35.153  1.00  0.00     0.198 A 
ATOM     91  C   UNL A   1      44.954  26.093  35.918  1.00  0.00     0.198 A 
ATOM     92  F   UNL A   1      42.677  26.369  35.399  1.00  0.00    -0.203 F 
ATOM     93  F   UNL A   1      47.839  28.104  35.041  1.00  0.00    -0.200 F 
ATOM     94  C   UNL A   1      46.269  26.526  35.829  1.00  0.00     0.200 A 
ATOM     95  F   UNL A   1      44.665  24.965  36.582  1.00  0.00    -0.200 F 
ATOM     96  F   UNL A   1      47.252  25.807  36.389  1.00  0.00    -0.200 F 
ENDBRANCH  63  86
ENDBRANCH  37  38
ENDBRANCH  29  32
ENDBRANCH  27  28
ENDBRANCH  26  27
ENDBRANCH   1  26
TORSDOF 14
ENDMDL
MODEL 2
REMARK VINA RESULT:     -12.4      0.029      1.584
REMARK SMILES CC1(C)S[C@H](c2ccc(Cl)cc2Cl)[NH2+][C@H]1C(=O)NCCCCCCNC(=O)c1ccc(-c2c3nc(c(-c4c(F)c(F)c(F)c(F)c4F)c4ccc([nH]4)c(-c4c(F)c(F)c(F)c(F)c4F)c4nc(c(-c5c(F)c(F)c(F)c(F)c5F)c5ccc2[nH]5)C=C4)C=C3)cc1
REMARK SMILES IDX 22 1 21 2 20 3 19 4 18 5 16 6 17 7 15 9 1 10 2 11 3 12 4 13
REMARK SMILES IDX 5 14 14 15 6 18 7 19 12 20 8 21 11 22 13 23 9 24 10 25 23 26
REMARK SMILES IDX 24 27 25 28 26 29 27 31 28 32 29 33 90 34 30 35 89 36 31 37
REMARK SMILES IDX 32 38 33 39 83 40 34 41 88 42 82 43 84 44 35 45 87 46 81 47
REMARK SMILES IDX 80 48 36 50 68 51 48 52 67 53 49 54 52 55 66 56 85 57 50 58
REMARK SMILES IDX 51 59 65 61 86 62 53 63 37 64 38 65 46 66 39 67 40 68 44 69
REMARK SMILES IDX 47 70 41 71 42 72 45 73 43 74 69 75 70 76 78 77 71 78 72 79
REMARK SMILES IDX 76 80 79 81 73 82 74 83 77 84 75 85 54 86 55 87 63 88 56 89
REMARK SMILES IDX 57 90 61 91 64 92 58 93 59 94 62 95 60 96
REMARK H PARENT 18 8 14 16 14 17 25 30 84 49 52 60
REMARK Flexibility Score: inf
ROOT
ATOM      1  C   UNL A   1      31.348  30.679  25.762  1.00  0.00     0.002 C 
ENDROOT
BRANCH   1   2
ATOM      2  C   UNL A   1      32.721  30.003  25.809  1.00  0.00     0.002 C 
BRANCH   2   3
ATOM      3  C   UNL A   1      32.954  29.092  27.016  1.00  0.00     0.021 C 
BRANCH   3   4
ATOM      4  C   UNL A   1      31.677  28.519  27.629  1.00  0.00     0.116 C 
BRANCH   4   5
ATOM      5  N   UNL A   1      31.659  27.076  27.523  1.00  0.00    -0.351 N 
ATOM      6  C   UNL A   1      31.347  26.218  26.516  1.00  0.00     0.279 C 
ATOM      7  O   UNL A   1      31.259  25.025  26.837  1.00  0.00    -0.268 OA
ATOM      8  H   UNL A   1      31.929  26.621  28.354  1.00  0.00     0.163 HD
BRANCH   6   9
ATOM      9  C   UNL A   1      31.060  26.636  25.060  1.00  0.00     0.289 C 
ATOM     10  C   UNL A   1      32.409  24.629  24.035  1.00  0.00     0.030 C 
ATOM     11  C   UNL A   1      32.044  26.111  24.000  1.00  0.00     0.077 C 
ATOM     12  C   UNL A   1      33.331  26.944  23.984  1.00  0.00     0.030 C 
ATOM     13  S   UNL A   1      31.121  26.385  22.445  1.00  0.00    -0.081 SA
ATOM     14  C   UNL A   1      29.522  26.801  23.254  1.00  0.00     0.276 C 
ATOM     15  N   UNL A   1      29.648  26.409  24.656  1.00  0.00    -0.320 N 
ATOM     16  H   UNL A   1      29.410  25.422  24.764  1.00  0.00     0.348 HD
ATOM     17  H   UNL A   1      29.015  26.956  25.239  1.00  0.00     0.348 HD
BRANCH  14  18
ATOM     18  C   UNL A   1      29.078  28.222  22.915  1.00  0.00     0.039 A 
ATOM     19  C   UNL A   1      30.058  29.033  22.278  1.00  0.00     0.014 A 
ATOM     20  C   UNL A   1      27.816  28.808  23.122  1.00  0.00     0.052 A 
ATOM     21  C   UNL A   1      29.823  30.365  21.941  1.00  0.00     0.021 A 
ATOM     22  C   UNL A   1      27.586  30.157  22.792  1.00  0.00     0.041 A 
ATOM     23  Cl  UNL A   1      26.427  27.977  23.732  1.00  0.00    -0.084 Cl
ATOM     24  C   UNL A   1      28.588  30.928  22.216  1.00  0.00     0.042 A 
ATOM     25  Cl  UNL A   1      28.292  32.575  21.827  1.00  0.00    -0.084 Cl
ENDBRANCH  14  18
ENDBRANCH   6   9
ENDBRANCH   4   5
ENDBRANCH   3   4
ENDBRANCH   2   3
ENDBRANCH   1   2
BRANCH   1  26
ATOM     26  C   UNL A   1      31.261  32.043  26.453  1.00  0.00     0.021 C 
BRANCH  26  27
ATOM     27  C   UNL A   1      32.583  32.592  26.981  1.00  0.00     0.116 C 
BRANCH  27  28
ATOM     28  N   UNL A   1      32.441  33.913  27.563  1.00  0.00    -0.352 N 
ATOM     29  C   UNL A   1      33.148  34.501  28.577  1.00  0.00     0.251 C 
ATOM     30  H   UNL A   1      31.729  34.470  27.170  1.00  0.00     0.163 HD
ATOM     31  O   UNL A   1      32.775  35.571  29.045  1.00  0.00    -0.269 OA
BRANCH  29  32
ATOM     32  C   UNL A   1      34.356  33.845  29.122  1.00  0.00     0.039 A 
ATOM     33  C   UNL A   1      34.190  32.758  29.983  1.00  0.00     0.014 A 
ATOM     34  C   UNL A   1      35.639  34.325  28.837  1.00  0.00     0.014 A 
ATOM     35  C   UNL A   1      35.309  32.139  30.542  1.00  0.00     0.010 A 
ATOM     36  C   UNL A   1      36.758  33.665  29.341  1.00  0.00     0.010 A 
ATOM     37  C   UNL A   1      36.601  32.581  30.218  1.00  0.00    -0.014 A 
BRANCH  37  38
ATOM     38  C   UNL A   1      37.790  31.945  30.838  1.00  0.00     0.031 A 
ATOM     39  C   UNL A   1      38.209  32.328  32.231  1.00  0.00     0.074 A 
ATOM     40  C   UNL A   1      38.499  31.037  30.144  1.00  0.00     0.049 A 
ATOM     41  N   UNL A   1      39.206  31.878  32.950  1.00  0.00    -0.248 NA
ATOM     42  C   UNL A   1      37.416  33.374  32.896  1.00  0.00     0.031 C 
ATOM     43  C   UNL A   1      38.223  30.621  28.767  1.00  0.00     0.029 A 
ATOM     44  N   UNL A   1      39.598  30.296  30.501  1.00  0.00    -0.354 N 
ATOM     45  C   UNL A   1      39.166  32.591  34.141  1.00  0.00     0.074 A 
ATOM     46  C   UNL A   1      38.084  33.544  34.027  1.00  0.00     0.031 C 
ATOM     47  C   UNL A   1      39.110  29.679  28.407  1.00  0.00     0.029 A 
ATOM     48  C   UNL A   1      40.028  29.441  29.517  1.00  0.00     0.049 A 
ATOM     49  H   UNL A   1      40.036  30.371  31.380  1.00  0.00     0.167 HD
ATOM     50  C   UNL A   1      39.943  32.446  35.241  1.00  0.00     0.037 A 
ATOM     51  C   UNL A   1      41.043  28.557  29.518  1.00  0.00     0.037 A 
ATOM     52  C   UNL A   1      40.999  31.475  35.362  1.00  0.00     0.049 A 
ATOM     53  C   UNL A   1      41.875  28.396  30.761  1.00  0.00     0.074 A 
ATOM     54  C   UNL A   1      41.805  31.207  36.454  1.00  0.00     0.029 A 
ATOM     55  N   UNL A   1      41.393  30.610  34.351  1.00  0.00    -0.354 N 
ATOM     56  N   UNL A   1      41.781  29.025  31.908  1.00  0.00    -0.248 NA
ATOM     57  C   UNL A   1      42.944  27.390  30.714  1.00  0.00     0.031 C 
ATOM     58  C   UNL A   1      42.712  30.203  36.091  1.00  0.00     0.029 A 
ATOM     59  C   UNL A   1      42.441  29.817  34.789  1.00  0.00     0.049 A 
ATOM     60  H   UNL A   1      40.987  30.566  33.455  1.00  0.00     0.167 HD
ATOM     61  C   UNL A   1      42.762  28.478  32.724  1.00  0.00     0.074 A 
ATOM     62  C   UNL A   1      43.423  27.449  31.948  1.00  0.00     0.031 C 
ATOM     63  C   UNL A   1      43.086  28.800  34.001  1.00  0.00     0.037 A 
BRANCH  50  64
ATOM     64  C   UNL A   1      39.673  33.356  36.403  1.00  0.00     0.064 A 
ATOM     65  C   UNL A   1      38.763  33.008  37.413  1.00  0.00     0.173 A 
ATOM     66  C   UNL A   1      40.349  34.580  36.523  1.00  0.00     0.173 A 
ATOM     67  F   UNL A   1      38.080  31.855  37.339  1.00  0.00    -0.203 F 
ATOM     68  C   UNL A   1      38.516  33.864  38.484  1.00  0.00     0.198 A 
ATOM     69  C   UNL A   1      40.121  35.420  37.611  1.00  0.00     0.198 A 
ATOM     70  F   UNL A   1      41.232  34.960  35.589  1.00  0.00    -0.203 F 
ATOM     71  F   UNL A   1      37.604  33.532  39.408  1.00  0.00    -0.200 F 
ATOM     72  C   UNL A   1      39.200  35.065  38.585  1.00  0.00     0.200 A 
ATOM     73  F   UNL A   1      40.791  36.576  37.714  1.00  0.00    -0.200 F 
ATOM     74  F   UNL A   1      38.964  35.887  39.617  1.00  0.00    -0.200 F 
ENDBRANCH  50  64
BRANCH  51  75
ATOM     75  C   UNL A   1      41.302  27.724  28.315  1.00  0.00     0.064 A 
ATOM     76  C   UNL A   1      40.657  26.492  28.141  1.00  0.00     0.173 A 
ATOM     77  C   UNL A   1      42.198  28.139  27.320  1.00  0.00     0.173 A 
ATOM     78  F   UNL A   1      39.805  26.045  29.076  1.00  0.00    -0.203 F 
ATOM     79  C   UNL A   1      40.915  25.695  27.028  1.00  0.00     0.198 A 
ATOM     80  C   UNL A   1      42.436  27.353  26.194  1.00  0.00     0.198 A 
ATOM     81  F   UNL A   1      42.836  29.312  27.437  1.00  0.00    -0.203 F 
ATOM     82  F   UNL A   1      40.319  24.501  26.909  1.00  0.00    -0.200 F 
ATOM     83  C   UNL A   1      41.800  26.129  26.053  1.00  0.00     0.200 A 
ATOM     84  F   UNL A   1      43.282  27.781  25.248  1.00  0.00    -0.200 F 
ATOM     85  F   UNL A   1      42.047  25.364  24.982  1.00  0.00    -0.200 F 
ENDBRANCH  51  75
BRANCH  63  86
ATOM     86  C   UNL A   1      44.194  28.013  34.640  1.00  0.00     0.064 A 
ATOM     87  C   UNL A   1      43.946  26.810  35.315  1.00  0.00     0.173 A 
ATOM     88  C   UNL A   1      45.522  28.460  34.557  1.00  0.00     0.173 A 
ATOM     89  F   UNL A   1      42.691  26.349  35.434  1.00  0.00    -0.203 F 
ATOM     90  C   UNL A   1      44.982  26.099  35.914  1.00  0.00     0.198 A 
ATOM     91  C   UNL A   1      46.559  27.731  35.132  1.00  0.00     0.198 A 
ATOM     92  F   UNL A   1      45.814  29.602  33.916  1.00  0.00    -0.203 F 
ATOM     93  F   UNL A   1      44.714  24.980  36.602  1.00  0.00    -0.200 F 
ATOM     94  C   UNL A   1      46.287  26.557  35.818  1.00  0.00     0.200 A 
ATOM     95  F   UNL A   1      47.822  28.169  35.028  1.00  0.00    -0.200 F 
ATOM     96  F   UNL A   1      47.284  25.871  36.395  1.00  0.00    -0.200 F 
ENDBRANCH  63  86
ENDBRANCH  37  38
ENDBRANCH  29  32
ENDBRANCH  27  28
ENDBRANCH  26  27
ENDBRANCH   1  26
TORSDOF 14
ENDMDL
MODEL 3
REMARK VINA RESULT:     -12.1      0.974      7.428
REMARK SMILES CC1(C)S[C@H](c2ccc(Cl)cc2Cl)[NH2+][C@H]1C(=O)NCCCCCCNC(=O)c1ccc(-c2c3nc(c(-c4c(F)c(F)c(F)c(F)c4F)c4ccc([nH]4)c(-c4c(F)c(F)c(F)c(F)c4F)c4nc(c(-c5c(F)c(F)c(F)c(F)c5F)c5ccc2[nH]5)C=C4)C=C3)cc1
REMARK SMILES IDX 22 1 21 2 20 3 19 4 18 5 16 6 17 7 15 9 1 10 2 11 3 12 4 13
REMARK SMILES IDX 5 14 14 15 6 18 7 19 12 20 8 21 11 22 13 23 9 24 10 25 23 26
REMARK SMILES IDX 24 27 25 28 26 29 27 31 28 32 29 33 90 34 30 35 89 36 31 37
REMARK SMILES IDX 32 38 33 39 83 40 34 41 88 42 82 43 84 44 35 45 87 46 81 47
REMARK SMILES IDX 80 48 36 50 68 51 48 52 67 53 49 54 52 55 66 56 85 57 50 58
REMARK SMILES IDX 51 59 65 61 86 62 53 63 37 64 38 65 46 66 39 67 40 68 44 69
REMARK SMILES IDX 47 70 41 71 42 72 45 73 43 74 69 75 70 76 78 77 71 78 72 79
REMARK SMILES IDX 76 80 79 81 73 82 74 83 77 84 75 85 54 86 55 87 63 88 56 89
REMARK SMILES IDX 57 90 61 91 64 92 58 93 59 94 62 95 60 96
REMARK H PARENT 18 8 14 16 14 17 25 30 84 49 52 60
REMARK Flexibility Score: inf
ROOT
ATOM      1  C   UNL A   1      31.238  30.995  26.492  1.00  0.00     0.002 C 
ENDROOT
BRANCH   1   2
ATOM      2  C   UNL A   1      32.409  30.236  25.862  1.00  0.00     0.002 C 
BRANCH   2   3
ATOM      3  C   UNL A   1      33.352  29.558  26.858  1.00  0.00     0.021 C 
BRANCH   3   4
ATOM      4  C   UNL A   1      33.963  28.250  26.357  1.00  0.00     0.116 C 
BRANCH   4   5
ATOM      5  N   UNL A   1      33.150  27.119  26.749  1.00  0.00    -0.351 N 
ATOM      6  C   UNL A   1      32.071  26.508  26.192  1.00  0.00     0.279 C 
ATOM      7  O   UNL A   1      31.502  25.670  26.905  1.00  0.00    -0.268 OA
ATOM      8  H   UNL A   1      33.437  26.707  27.596  1.00  0.00     0.163 HD
BRANCH   6   9
ATOM      9  C   UNL A   1      31.508  26.820  24.791  1.00  0.00     0.289 C 
ATOM     10  C   UNL A   1      32.592  24.695  23.691  1.00  0.00     0.030 C 
ATOM     11  C   UNL A   1      32.253  26.181  23.606  1.00  0.00     0.077 C 
ATOM     12  C   UNL A   1      33.525  26.968  23.267  1.00  0.00     0.030 C 
ATOM     13  S   UNL A   1      31.043  26.363  22.245  1.00  0.00    -0.081 SA
ATOM     14  C   UNL A   1      29.645  26.893  23.316  1.00  0.00     0.276 C 
ATOM     15  N   UNL A   1      30.040  26.608  24.693  1.00  0.00    -0.320 N 
ATOM     16  H   UNL A   1      29.811  25.642  24.927  1.00  0.00     0.348 HD
ATOM     17  H   UNL A   1      29.545  27.220  25.342  1.00  0.00     0.348 HD
BRANCH  14  18
ATOM     18  C   UNL A   1      29.166  28.298  22.953  1.00  0.00     0.039 A 
ATOM     19  C   UNL A   1      30.128  29.125  22.312  1.00  0.00     0.014 A 
ATOM     20  C   UNL A   1      27.887  28.854  23.145  1.00  0.00     0.052 A 
ATOM     21  C   UNL A   1      29.861  30.446  21.954  1.00  0.00     0.021 A 
ATOM     22  C   UNL A   1      27.624  30.191  22.795  1.00  0.00     0.041 A 
ATOM     23  Cl  UNL A   1      26.517  27.995  23.758  1.00  0.00    -0.084 Cl
ATOM     24  C   UNL A   1      28.611  30.980  22.213  1.00  0.00     0.042 A 
ATOM     25  Cl  UNL A   1      28.274  32.613  21.800  1.00  0.00    -0.084 Cl
ENDBRANCH  14  18
ENDBRANCH   6   9
ENDBRANCH   4   5
ENDBRANCH   3   4
ENDBRANCH   2   3
ENDBRANCH   1   2
BRANCH   1  26
ATOM     26  C   UNL A   1      31.376  32.520  26.514  1.00  0.00     0.021 C 
BRANCH  26  27
ATOM     27  C   UNL A   1      32.604  33.053  27.246  1.00  0.00     0.116 C 
BRANCH  27  28
ATOM     28  N   UNL A   1      32.431  34.423  27.691  1.00  0.00    -0.352 N 
ATOM     29  C   UNL A   1      33.019  35.081  28.739  1.00  0.00     0.251 C 
ATOM     30  H   UNL A   1      31.797  34.959  27.161  1.00  0.00     0.163 HD
ATOM     31  O   UNL A   1      32.624  36.195  29.062  1.00  0.00    -0.269 OA
BRANCH  29  32
ATOM     32  C   UNL A   1      34.122  34.447  29.494  1.00  0.00     0.039 A 
ATOM     33  C   UNL A   1      35.419  34.553  28.989  1.00  0.00     0.014 A 
ATOM     34  C   UNL A   1      33.879  33.709  30.657  1.00  0.00     0.014 A 
ATOM     35  C   UNL A   1      36.477  33.938  29.659  1.00  0.00     0.010 A 
ATOM     36  C   UNL A   1      34.944  33.152  31.363  1.00  0.00     0.010 A 
ATOM     37  C   UNL A   1      36.249  33.240  30.856  1.00  0.00    -0.014 A 
BRANCH  37  38
ATOM     38  C   UNL A   1      37.368  32.557  31.552  1.00  0.00     0.031 A 
ATOM     39  C   UNL A   1      38.085  31.417  30.884  1.00  0.00     0.074 A 
ATOM     40  C   UNL A   1      37.727  32.952  32.787  1.00  0.00     0.049 A 
ATOM     41  N   UNL A   1      39.093  30.702  31.319  1.00  0.00    -0.248 NA
ATOM     42  C   UNL A   1      37.590  31.007  29.560  1.00  0.00     0.031 C 
ATOM     43  C   UNL A   1      37.073  34.010  33.559  1.00  0.00     0.029 A 
ATOM     44  N   UNL A   1      38.731  32.510  33.611  1.00  0.00    -0.354 N 
ATOM     45  C   UNL A   1      39.342  29.758  30.332  1.00  0.00     0.074 A 
ATOM     46  C   UNL A   1      38.345  29.950  29.302  1.00  0.00     0.031 C 
ATOM     47  C   UNL A   1      37.712  34.156  34.731  1.00  0.00     0.029 A 
ATOM     48  C   UNL A   1      38.803  33.189  34.802  1.00  0.00     0.049 A 
ATOM     49  H   UNL A   1      39.341  31.776  33.371  1.00  0.00     0.167 HD
ATOM     50  C   UNL A   1      40.329  28.832  30.276  1.00  0.00     0.037 A 
ATOM     51  C   UNL A   1      39.661  33.051  35.829  1.00  0.00     0.037 A 
ATOM     52  C   UNL A   1      41.338  28.664  31.289  1.00  0.00     0.049 A 
ATOM     53  C   UNL A   1      40.766  32.033  35.731  1.00  0.00     0.074 A 
ATOM     54  C   UNL A   1      42.416  27.796  31.300  1.00  0.00     0.029 A 
ATOM     55  N   UNL A   1      41.392  29.385  32.473  1.00  0.00    -0.354 N 
ATOM     56  N   UNL A   1      41.035  31.194  34.760  1.00  0.00    -0.248 NA
ATOM     57  C   UNL A   1      41.693  31.955  36.868  1.00  0.00     0.031 C 
ATOM     58  C   UNL A   1      43.101  27.967  32.508  1.00  0.00     0.029 A 
ATOM     59  C   UNL A   1      42.477  28.971  33.229  1.00  0.00     0.049 A 
ATOM     60  H   UNL A   1      40.754  30.087  32.737  1.00  0.00     0.167 HD
ATOM     61  C   UNL A   1      42.173  30.505  35.157  1.00  0.00     0.074 A 
ATOM     62  C   UNL A   1      42.556  31.041  36.447  1.00  0.00     0.031 C 
ATOM     63  C   UNL A   1      42.840  29.516  34.512  1.00  0.00     0.037 A 
BRANCH  50  64
ATOM     64  C   UNL A   1      40.367  27.933  29.074  1.00  0.00     0.064 A 
ATOM     65  C   UNL A   1      39.634  26.738  29.026  1.00  0.00     0.173 A 
ATOM     66  C   UNL A   1      41.125  28.283  27.946  1.00  0.00     0.173 A 
ATOM     67  F   UNL A   1      38.904  26.351  30.084  1.00  0.00    -0.203 F 
ATOM     68  C   UNL A   1      39.683  25.910  27.907  1.00  0.00     0.198 A 
ATOM     69  C   UNL A   1      41.147  27.468  26.817  1.00  0.00     0.198 A 
ATOM     70  F   UNL A   1      41.840  29.417  27.936  1.00  0.00    -0.203 F 
ATOM     71  F   UNL A   1      39.015  24.748  27.907  1.00  0.00    -0.200 F 
ATOM     72  C   UNL A   1      40.434  26.279  26.802  1.00  0.00     0.200 A 
ATOM     73  F   UNL A   1      41.865  27.830  25.745  1.00  0.00    -0.200 F 
ATOM     74  F   UNL A   1      40.477  25.484  25.724  1.00  0.00    -0.200 F 
ENDBRANCH  50  64
BRANCH  51  75
ATOM     75  C   UNL A   1      39.539  33.929  37.021  1.00  0.00     0.064 A 
ATOM     76  C   UNL A   1      40.151  35.189  37.053  1.00  0.00     0.173 A 
ATOM     77  C   UNL A   1      38.812  33.527  38.151  1.00  0.00     0.173 A 
ATOM     78  F   UNL A   1      40.872  35.609  36.002  1.00  0.00    -0.203 F 
ATOM     79  C   UNL A   1      40.061  36.006  38.178  1.00  0.00     0.198 A 
ATOM     80  C   UNL A   1      38.701  34.356  39.266  1.00  0.00     0.198 A 
ATOM     81  F   UNL A   1      38.203  32.333  38.168  1.00  0.00    -0.203 F 
ATOM     82  F   UNL A   1      40.694  37.186  38.198  1.00  0.00    -0.200 F 
ATOM     83  C   UNL A   1      39.331  35.591  39.281  1.00  0.00     0.200 A 
ATOM     84  F   UNL A   1      37.983  33.957  40.325  1.00  0.00    -0.200 F 
ATOM     85  F   UNL A   1      39.242  36.376  40.362  1.00  0.00    -0.200 F 
ENDBRANCH  51  75
BRANCH  63  86
ATOM     86  C   UNL A   1      44.063  28.968  35.187  1.00  0.00     0.064 A 
ATOM     87  C   UNL A   1      45.334  29.516  34.964  1.00  0.00     0.173 A 
ATOM     88  C   UNL A   1      43.958  27.893  36.083  1.00  0.00     0.173 A 
ATOM     89  F   UNL A   1      45.487  30.535  34.104  1.00  0.00    -0.203 F 
ATOM     90  C   UNL A   1      46.461  28.988  35.588  1.00  0.00     0.198 A 
ATOM     91  C   UNL A   1      45.083  27.386  36.728  1.00  0.00     0.198 A 
ATOM     92  F   UNL A   1      42.764  27.337  36.337  1.00  0.00    -0.203 F 
ATOM     93  F   UNL A   1      47.673  29.492  35.317  1.00  0.00    -0.200 F 
ATOM     94  C   UNL A   1      46.334  27.928  36.472  1.00  0.00     0.200 A 
ATOM     95  F   UNL A   1      44.958  26.369  37.592  1.00  0.00    -0.200 F 
ATOM     96  F   UNL A   1      47.420  27.420  37.072  1.00  0.00    -0.200 F 
ENDBRANCH  63  86
ENDBRANCH  37  38
ENDBRANCH  29  32
ENDBRANCH  27  28
ENDBRANCH  26  27
ENDBRANCH   1  26
TORSDOF 14
ENDMDL
