MODEL 1
REMARK VINA RESULT:     -12.1      0.000      0.000
REMARK SMILES O=C(NCCCCCCNC(=O)[C@H]1C=C[C@H](NS(=O)(=O)c2ccc(F)c(F)c2F)C1)c1ccc(-c2c3nc(c(-c4c(F)c(F)c(F)c(F)c4F)c4ccc([nH]4)c(-c4c(F)c(F)c(F)c(F)c4F)c4nc(c(-c5c(F)c(F)c(F)c(F)c5F)c5ccc2[nH]5)C=C4)C=C3)cc1
REMARK SMILES IDX 7 1 6 2 5 3 4 4 3 5 1 6 2 7 31 9 32 10 93 11 33 12 92 13
REMARK SMILES IDX 34 14 35 15 36 16 86 17 37 18 91 19 85 20 87 21 38 22 90 23
REMARK SMILES IDX 84 24 83 25 39 27 71 28 51 29 70 30 52 31 55 32 69 33 88 34
REMARK SMILES IDX 53 35 54 36 68 38 89 39 56 40 40 41 41 42 49 43 42 44 43 45
REMARK SMILES IDX 47 46 50 47 44 48 45 49 48 50 46 51 72 52 73 53 81 54 74 55
REMARK SMILES IDX 75 56 79 57 82 58 76 59 77 60 80 61 78 62 57 63 58 64 66 65
REMARK SMILES IDX 59 66 60 67 64 68 67 69 61 70 62 71 65 72 63 73 8 74 9 75
REMARK SMILES IDX 10 76 11 77 12 79 13 80 14 81 30 82 15 83 16 84 17 85 18 87
REMARK SMILES IDX 19 88 20 89 21 90 22 91 28 92 23 93 26 94 29 95 24 96 27 97
REMARK SMILES IDX 25 98
REMARK H PARENT 3 8 87 26 55 37 10 78 17 86
REMARK Flexibility Score: inf
ROOT
ATOM      1  C   UNL A   1      34.534  32.647  29.091  1.00  0.00     0.002 C 
ENDROOT
BRANCH   1   2
ATOM      2  C   UNL A   1      34.585  34.166  28.886  1.00  0.00     0.002 C 
BRANCH   2   3
ATOM      3  C   UNL A   1      33.235  34.877  28.988  1.00  0.00     0.021 C 
BRANCH   3   4
ATOM      4  C   UNL A   1      33.311  36.285  29.565  1.00  0.00     0.116 C 
BRANCH   4   5
ATOM      5  N   UNL A   1      32.451  36.442  30.725  1.00  0.00    -0.352 N 
ATOM      6  O   UNL A   1      31.607  35.918  32.751  1.00  0.00    -0.269 OA
ATOM      7  C   UNL A   1      32.534  35.835  31.952  1.00  0.00     0.251 C 
ATOM      8  H   UNL A   1      31.703  37.073  30.615  1.00  0.00     0.163 HD
BRANCH   7   9
ATOM      9  C   UNL A   1      33.746  35.067  32.306  1.00  0.00     0.039 A 
ATOM     10  C   UNL A   1      35.002  35.681  32.311  1.00  0.00     0.014 A 
ATOM     11  C   UNL A   1      33.614  33.723  32.664  1.00  0.00     0.014 A 
ATOM     12  C   UNL A   1      36.140  34.925  32.568  1.00  0.00     0.010 A 
ATOM     13  C   UNL A   1      34.750  32.984  32.995  1.00  0.00     0.010 A 
ATOM     14  C   UNL A   1      36.022  33.575  32.933  1.00  0.00    -0.014 A 
BRANCH  14  15
ATOM     15  C   UNL A   1      37.225  32.809  33.335  1.00  0.00     0.031 A 
ATOM     16  C   UNL A   1      37.927  33.097  34.627  1.00  0.00     0.074 A 
ATOM     17  C   UNL A   1      37.697  31.865  32.500  1.00  0.00     0.049 A 
ATOM     18  N   UNL A   1      39.030  32.574  35.100  1.00  0.00    -0.248 NA
ATOM     19  C   UNL A   1      37.322  34.112  35.502  1.00  0.00     0.031 C 
ATOM     20  C   UNL A   1      37.093  31.505  31.216  1.00  0.00     0.029 A 
ATOM     21  N   UNL A   1      38.790  31.041  32.597  1.00  0.00    -0.354 N 
ATOM     22  C   UNL A   1      39.265  33.210  36.309  1.00  0.00     0.074 A 
ATOM     23  C   UNL A   1      38.200  34.174  36.494  1.00  0.00     0.031 C 
ATOM     24  C   UNL A   1      37.807  30.521  30.655  1.00  0.00     0.029 A 
ATOM     25  C   UNL A   1      38.956  30.226  31.505  1.00  0.00     0.049 A 
ATOM     26  H   UNL A   1      39.395  31.037  33.373  1.00  0.00     0.167 HD
ATOM     27  C   UNL A   1      40.280  33.002  37.182  1.00  0.00     0.037 A 
ATOM     28  C   UNL A   1      39.940  29.358  31.202  1.00  0.00     0.037 A 
ATOM     29  C   UNL A   1      41.319  32.024  36.991  1.00  0.00     0.049 A 
ATOM     30  C   UNL A   1      41.075  29.175  32.165  1.00  0.00     0.074 A 
ATOM     31  C   UNL A   1      42.349  31.688  37.852  1.00  0.00     0.029 A 
ATOM     32  N   UNL A   1      41.472  31.237  35.858  1.00  0.00    -0.354 N 
ATOM     33  N   UNL A   1      41.264  29.749  33.327  1.00  0.00    -0.248 NA
ATOM     34  C   UNL A   1      42.135  28.235  31.777  1.00  0.00     0.031 C 
ATOM     35  C   UNL A   1      43.162  30.748  37.213  1.00  0.00     0.029 A 
ATOM     36  C   UNL A   1      42.604  30.447  35.980  1.00  0.00     0.049 A 
ATOM     37  H   UNL A   1      40.865  31.240  35.083  1.00  0.00     0.167 HD
ATOM     38  C   UNL A   1      42.454  29.232  33.819  1.00  0.00     0.074 A 
ATOM     39  C   UNL A   1      42.941  28.291  32.830  1.00  0.00     0.031 C 
ATOM     40  C   UNL A   1      43.080  29.515  34.987  1.00  0.00     0.037 A 
BRANCH  27  41
ATOM     41  C   UNL A   1      40.338  33.858  38.414  1.00  0.00     0.064 A 
ATOM     42  C   UNL A   1      39.600  33.502  39.555  1.00  0.00     0.173 A 
ATOM     43  C   UNL A   1      41.058  35.061  38.450  1.00  0.00     0.173 A 
ATOM     44  F   UNL A   1      38.886  32.366  39.572  1.00  0.00    -0.203 F 
ATOM     45  C   UNL A   1      39.574  34.323  40.679  1.00  0.00     0.198 A 
ATOM     46  C   UNL A   1      41.054  35.865  39.587  1.00  0.00     0.198 A 
ATOM     47  F   UNL A   1      41.785  35.445  37.390  1.00  0.00    -0.203 F 
ATOM     48  F   UNL A   1      38.837  33.977  41.744  1.00  0.00    -0.200 F 
ATOM     49  C   UNL A   1      40.306  35.500  40.697  1.00  0.00     0.200 A 
ATOM     50  F   UNL A   1      41.781  36.991  39.612  1.00  0.00    -0.200 F 
ATOM     51  F   UNL A   1      40.292  36.283  41.785  1.00  0.00    -0.200 F 
ENDBRANCH  27  41
BRANCH  28  52
ATOM     52  C   UNL A   1      39.859  28.611  29.922  1.00  0.00     0.064 A 
ATOM     53  C   UNL A   1      39.323  27.315  29.871  1.00  0.00     0.173 A 
ATOM     54  C   UNL A   1      40.420  29.136  28.752  1.00  0.00     0.173 A 
ATOM     55  F   UNL A   1      38.786  26.766  30.970  1.00  0.00    -0.203 F 
ATOM     56  C   UNL A   1      39.391  26.555  28.706  1.00  0.00     0.198 A 
ATOM     57  C   UNL A   1      40.464  28.383  27.580  1.00  0.00     0.198 A 
ATOM     58  F   UNL A   1      40.932  30.375  28.751  1.00  0.00    -0.203 F 
ATOM     59  F   UNL A   1      38.929  25.297  28.700  1.00  0.00    -0.200 F 
ATOM     60  C   UNL A   1      39.964  27.089  27.562  1.00  0.00     0.200 A 
ATOM     61  F   UNL A   1      41.007  28.906  26.471  1.00  0.00    -0.200 F 
ATOM     62  F   UNL A   1      40.041  26.354  26.445  1.00  0.00    -0.200 F 
ENDBRANCH  28  52
BRANCH  40  63
ATOM     63  C   UNL A   1      44.361  28.796  35.291  1.00  0.00     0.064 A 
ATOM     64  C   UNL A   1      45.585  29.308  34.832  1.00  0.00     0.173 A 
ATOM     65  C   UNL A   1      44.364  27.543  35.917  1.00  0.00     0.173 A 
ATOM     66  F   UNL A   1      45.631  30.501  34.220  1.00  0.00    -0.203 F 
ATOM     67  C   UNL A   1      46.759  28.573  34.957  1.00  0.00     0.198 A 
ATOM     68  C   UNL A   1      45.546  26.822  36.065  1.00  0.00     0.198 A 
ATOM     69  F   UNL A   1      43.220  27.020  36.384  1.00  0.00    -0.203 F 
ATOM     70  F   UNL A   1      47.907  29.057  34.463  1.00  0.00    -0.200 F 
ATOM     71  C   UNL A   1      46.738  27.330  35.571  1.00  0.00     0.200 A 
ATOM     72  F   UNL A   1      45.529  25.629  36.676  1.00  0.00    -0.200 F 
ATOM     73  F   UNL A   1      47.868  26.618  35.682  1.00  0.00    -0.200 F 
ENDBRANCH  40  63
ENDBRANCH  14  15
ENDBRANCH   7   9
ENDBRANCH   4   5
ENDBRANCH   3   4
ENDBRANCH   2   3
ENDBRANCH   1   2
BRANCH   1  74
ATOM     74  C   UNL A   1      34.846  31.807  27.845  1.00  0.00     0.021 C 
BRANCH  74  75
ATOM     75  C   UNL A   1      33.879  30.647  27.615  1.00  0.00     0.116 C 
BRANCH  75  76
ATOM     76  N   UNL A   1      33.654  30.421  26.202  1.00  0.00    -0.356 N 
ATOM     77  C   UNL A   1      33.294  29.281  25.549  1.00  0.00     0.226 C 
ATOM     78  H   UNL A   1      33.779  31.211  25.628  1.00  0.00     0.163 HD
ATOM     79  O   UNL A   1      33.169  29.332  24.325  1.00  0.00    -0.274 OA
BRANCH  77  80
ATOM     80  C   UNL A   1      33.022  28.015  26.357  1.00  0.00     0.103 C 
ATOM     81  C   UNL A   1      31.563  27.907  26.678  1.00  0.00    -0.016 C 
ATOM     82  C   UNL A   1      33.303  26.748  25.542  1.00  0.00     0.042 C 
ATOM     83  C   UNL A   1      31.052  26.732  26.295  1.00  0.00    -0.011 C 
ATOM     84  C   UNL A   1      32.061  25.854  25.634  1.00  0.00     0.093 C 
BRANCH  84  85
ATOM     85  N   UNL A   1      32.326  24.722  26.509  1.00  0.00    -0.204 NA
ATOM     86  H   UNL A   1      31.967  24.975  27.428  1.00  0.00     0.142 HD
BRANCH  85  87
ATOM     87  S   UNL A   1      31.715  23.206  26.160  1.00  0.00     0.244 S 
ATOM     88  O   UNL A   1      31.154  22.731  27.408  1.00  0.00    -0.207 OA
ATOM     89  O   UNL A   1      30.911  23.275  24.965  1.00  0.00    -0.207 OA
BRANCH  87  90
ATOM     90  C   UNL A   1      33.153  22.234  25.837  1.00  0.00     0.121 A 
ATOM     91  C   UNL A   1      34.427  22.715  26.172  1.00  0.00     0.028 A 
ATOM     92  C   UNL A   1      33.011  20.982  25.248  1.00  0.00     0.181 A 
ATOM     93  C   UNL A   1      35.555  21.949  25.865  1.00  0.00     0.044 A 
ATOM     94  C   UNL A   1      34.136  20.237  24.920  1.00  0.00     0.195 A 
ATOM     95  F   UNL A   1      31.804  20.503  24.919  1.00  0.00    -0.202 F 
ATOM     96  C   UNL A   1      35.401  20.721  25.226  1.00  0.00     0.161 A 
ATOM     97  F   UNL A   1      34.000  19.066  24.284  1.00  0.00    -0.200 F 
ATOM     98  F   UNL A   1      36.489  20.011  24.900  1.00  0.00    -0.204 F 
ENDBRANCH  87  90
ENDBRANCH  85  87
ENDBRANCH  84  85
ENDBRANCH  77  80
ENDBRANCH  75  76
ENDBRANCH  74  75
ENDBRANCH   1  74
TORSDOF 16
ENDMDL
MODEL 2
REMARK VINA RESULT:     -11.8      6.529     12.270
REMARK SMILES O=C(NCCCCCCNC(=O)[C@H]1C=C[C@H](NS(=O)(=O)c2ccc(F)c(F)c2F)C1)c1ccc(-c2c3nc(c(-c4c(F)c(F)c(F)c(F)c4F)c4ccc([nH]4)c(-c4c(F)c(F)c(F)c(F)c4F)c4nc(c(-c5c(F)c(F)c(F)c(F)c5F)c5ccc2[nH]5)C=C4)C=C3)cc1
REMARK SMILES IDX 7 1 6 2 5 3 4 4 3 5 1 6 2 7 31 9 32 10 93 11 33 12 92 13
REMARK SMILES IDX 34 14 35 15 36 16 86 17 37 18 91 19 85 20 87 21 38 22 90 23
REMARK SMILES IDX 84 24 83 25 39 27 71 28 51 29 70 30 52 31 55 32 69 33 88 34
REMARK SMILES IDX 53 35 54 36 68 38 89 39 56 40 40 41 41 42 49 43 42 44 43 45
REMARK SMILES IDX 47 46 50 47 44 48 45 49 48 50 46 51 72 52 73 53 81 54 74 55
REMARK SMILES IDX 75 56 79 57 82 58 76 59 77 60 80 61 78 62 57 63 58 64 66 65
REMARK SMILES IDX 59 66 60 67 64 68 67 69 61 70 62 71 65 72 63 73 8 74 9 75
REMARK SMILES IDX 10 76 11 77 12 79 13 80 14 81 30 82 15 83 16 84 17 85 18 87
REMARK SMILES IDX 19 88 20 89 21 90 22 91 28 92 23 93 26 94 29 95 24 96 27 97
REMARK SMILES IDX 25 98
REMARK H PARENT 3 8 87 26 55 37 10 78 17 86
REMARK Flexibility Score: inf
ROOT
ATOM      1  C   UNL A   1      40.464  22.027  26.383  1.00  0.00     0.002 C 
ENDROOT
BRANCH   1   2
ATOM      2  C   UNL A   1      41.217  20.888  27.080  1.00  0.00     0.002 C 
BRANCH   2   3
ATOM      3  C   UNL A   1      41.442  19.642  26.223  1.00  0.00     0.021 C 
BRANCH   3   4
ATOM      4  C   UNL A   1      42.706  18.865  26.567  1.00  0.00     0.116 C 
BRANCH   4   5
ATOM      5  N   UNL A   1      43.508  18.586  25.388  1.00  0.00    -0.352 N 
ATOM      6  O   UNL A   1      44.641  19.082  23.501  1.00  0.00    -0.269 OA
ATOM      7  C   UNL A   1      44.186  19.458  24.576  1.00  0.00     0.251 C 
ATOM      8  H   UNL A   1      43.573  17.636  25.137  1.00  0.00     0.163 HD
BRANCH   7   9
ATOM      9  C   UNL A   1      44.359  20.863  24.998  1.00  0.00     0.039 A 
ATOM     10  C   UNL A   1      45.123  21.180  26.126  1.00  0.00     0.014 A 
ATOM     11  C   UNL A   1      43.769  21.875  24.236  1.00  0.00     0.014 A 
ATOM     12  C   UNL A   1      45.208  22.500  26.555  1.00  0.00     0.010 A 
ATOM     13  C   UNL A   1      43.919  23.206  24.626  1.00  0.00     0.010 A 
ATOM     14  C   UNL A   1      44.624  23.527  25.796  1.00  0.00    -0.014 A 
BRANCH  14  15
ATOM     15  C   UNL A   1      44.831  24.943  26.184  1.00  0.00     0.031 A 
ATOM     16  C   UNL A   1      46.181  25.582  26.081  1.00  0.00     0.074 A 
ATOM     17  C   UNL A   1      43.783  25.639  26.663  1.00  0.00     0.049 A 
ATOM     18  N   UNL A   1      46.554  26.784  26.442  1.00  0.00    -0.248 NA
ATOM     19  C   UNL A   1      47.262  24.767  25.506  1.00  0.00     0.031 C 
ATOM     20  C   UNL A   1      42.424  25.113  26.808  1.00  0.00     0.029 A 
ATOM     21  N   UNL A   1      43.692  26.929  27.120  1.00  0.00    -0.354 N 
ATOM     22  C   UNL A   1      47.910  26.861  26.165  1.00  0.00     0.074 A 
ATOM     23  C   UNL A   1      48.305  25.579  25.620  1.00  0.00     0.031 C 
ATOM     24  C   UNL A   1      41.631  26.074  27.298  1.00  0.00     0.029 A 
ATOM     25  C   UNL A   1      42.436  27.262  27.564  1.00  0.00     0.049 A 
ATOM     26  H   UNL A   1      44.453  27.553  27.130  1.00  0.00     0.167 HD
ATOM     27  C   UNL A   1      48.745  27.912  26.351  1.00  0.00     0.037 A 
ATOM     28  C   UNL A   1      41.985  28.387  28.150  1.00  0.00     0.037 A 
ATOM     29  C   UNL A   1      48.330  29.187  26.875  1.00  0.00     0.049 A 
ATOM     30  C   UNL A   1      42.937  29.523  28.383  1.00  0.00     0.074 A 
ATOM     31  C   UNL A   1      49.084  30.337  27.031  1.00  0.00     0.029 A 
ATOM     32  N   UNL A   1      47.056  29.478  27.342  1.00  0.00    -0.354 N 
ATOM     33  N   UNL A   1      44.208  29.602  28.076  1.00  0.00    -0.248 NA
ATOM     34  C   UNL A   1      42.401  30.718  29.047  1.00  0.00     0.031 C 
ATOM     35  C   UNL A   1      48.287  31.301  27.653  1.00  0.00     0.029 A 
ATOM     36  C   UNL A   1      47.015  30.776  27.826  1.00  0.00     0.049 A 
ATOM     37  H   UNL A   1      46.294  28.855  27.330  1.00  0.00     0.167 HD
ATOM     38  C   UNL A   1      44.624  30.858  28.493  1.00  0.00     0.074 A 
ATOM     39  C   UNL A   1      43.466  31.510  29.071  1.00  0.00     0.031 C 
ATOM     40  C   UNL A   1      45.855  31.415  28.401  1.00  0.00     0.037 A 
BRANCH  27  41
ATOM     41  C   UNL A   1      50.195  27.731  26.009  1.00  0.00     0.064 A 
ATOM     42  C   UNL A   1      50.617  27.790  24.671  1.00  0.00     0.173 A 
ATOM     43  C   UNL A   1      51.156  27.428  26.985  1.00  0.00     0.173 A 
ATOM     44  F   UNL A   1      49.737  28.067  23.696  1.00  0.00    -0.203 F 
ATOM     45  C   UNL A   1      51.942  27.544  24.323  1.00  0.00     0.198 A 
ATOM     46  C   UNL A   1      52.487  27.212  26.637  1.00  0.00     0.198 A 
ATOM     47  F   UNL A   1      50.809  27.366  28.279  1.00  0.00    -0.203 F 
ATOM     48  F   UNL A   1      52.314  27.576  23.036  1.00  0.00    -0.200 F 
ATOM     49  C   UNL A   1      52.878  27.261  25.307  1.00  0.00     0.200 A 
ATOM     50  F   UNL A   1      53.395  26.962  27.591  1.00  0.00    -0.200 F 
ATOM     51  F   UNL A   1      54.157  27.038  24.973  1.00  0.00    -0.200 F 
ENDBRANCH  27  41
BRANCH  28  52
ATOM     52  C   UNL A   1      40.555  28.460  28.541  1.00  0.00     0.064 A 
ATOM     53  C   UNL A   1      39.589  28.977  27.664  1.00  0.00     0.173 A 
ATOM     54  C   UNL A   1      40.151  28.121  29.837  1.00  0.00     0.173 A 
ATOM     55  F   UNL A   1      39.932  29.328  26.417  1.00  0.00    -0.203 F 
ATOM     56  C   UNL A   1      38.278  29.192  28.086  1.00  0.00     0.198 A 
ATOM     57  C   UNL A   1      38.833  28.313  30.249  1.00  0.00     0.198 A 
ATOM     58  F   UNL A   1      41.038  27.611  30.704  1.00  0.00    -0.203 F 
ATOM     59  F   UNL A   1      37.390  29.746  27.250  1.00  0.00    -0.200 F 
ATOM     60  C   UNL A   1      37.903  28.862  29.379  1.00  0.00     0.200 A 
ATOM     61  F   UNL A   1      38.469  27.981  31.496  1.00  0.00    -0.200 F 
ATOM     62  F   UNL A   1      36.646  29.081  29.789  1.00  0.00    -0.200 F 
ENDBRANCH  28  52
BRANCH  40  63
ATOM     63  C   UNL A   1      46.037  32.810  28.919  1.00  0.00     0.064 A 
ATOM     64  C   UNL A   1      45.854  33.911  28.068  1.00  0.00     0.173 A 
ATOM     65  C   UNL A   1      46.518  33.051  30.213  1.00  0.00     0.173 A 
ATOM     66  F   UNL A   1      45.403  33.730  26.817  1.00  0.00    -0.203 F 
ATOM     67  C   UNL A   1      46.182  35.198  28.482  1.00  0.00     0.198 A 
ATOM     68  C   UNL A   1      46.819  34.344  30.634  1.00  0.00     0.198 A 
ATOM     69  F   UNL A   1      46.695  32.032  31.067  1.00  0.00    -0.203 F 
ATOM     70  F   UNL A   1      46.050  36.228  27.634  1.00  0.00    -0.200 F 
ATOM     71  C   UNL A   1      46.665  35.413  29.764  1.00  0.00     0.200 A 
ATOM     72  F   UNL A   1      47.268  34.554  31.879  1.00  0.00    -0.200 F 
ATOM     73  F   UNL A   1      46.989  36.652  30.159  1.00  0.00    -0.200 F 
ENDBRANCH  40  63
ENDBRANCH  14  15
ENDBRANCH   7   9
ENDBRANCH   4   5
ENDBRANCH   3   4
ENDBRANCH   2   3
ENDBRANCH   1   2
BRANCH   1  74
ATOM     74  C   UNL A   1      39.120  21.634  25.753  1.00  0.00     0.021 C 
BRANCH  74  75
ATOM     75  C   UNL A   1      38.051  22.723  25.830  1.00  0.00     0.116 C 
BRANCH  75  76
ATOM     76  N   UNL A   1      36.749  22.162  26.125  1.00  0.00    -0.356 N 
ATOM     77  C   UNL A   1      35.508  22.629  25.811  1.00  0.00     0.226 C 
ATOM     78  H   UNL A   1      36.763  21.316  26.628  1.00  0.00     0.163 HD
ATOM     79  O   UNL A   1      34.534  21.974  26.182  1.00  0.00    -0.274 OA
BRANCH  77  80
ATOM     80  C   UNL A   1      35.382  23.906  24.984  1.00  0.00     0.103 C 
ATOM     81  C   UNL A   1      35.012  23.576  23.570  1.00  0.00    -0.016 C 
ATOM     82  C   UNL A   1      34.217  24.781  25.462  1.00  0.00     0.042 C 
ATOM     83  C   UNL A   1      33.923  24.239  23.170  1.00  0.00    -0.011 C 
ATOM     84  C   UNL A   1      33.355  25.113  24.238  1.00  0.00     0.093 C 
BRANCH  84  85
ATOM     85  N   UNL A   1      33.555  26.500  23.850  1.00  0.00    -0.204 NA
ATOM     86  H   UNL A   1      33.897  26.487  22.891  1.00  0.00     0.142 HD
BRANCH  85  87
ATOM     87  S   UNL A   1      32.290  27.592  23.889  1.00  0.00     0.244 S 
ATOM     88  O   UNL A   1      32.383  28.318  22.639  1.00  0.00    -0.207 OA
ATOM     89  O   UNL A   1      31.076  26.910  24.262  1.00  0.00    -0.207 OA
BRANCH  87  90
ATOM     90  C   UNL A   1      32.742  28.717  25.173  1.00  0.00     0.121 A 
ATOM     91  C   UNL A   1      33.911  28.512  25.919  1.00  0.00     0.028 A 
ATOM     92  C   UNL A   1      31.925  29.811  25.438  1.00  0.00     0.181 A 
ATOM     93  C   UNL A   1      34.224  29.389  26.962  1.00  0.00     0.044 A 
ATOM     94  C   UNL A   1      32.227  30.663  26.492  1.00  0.00     0.195 A 
ATOM     95  F   UNL A   1      30.802  30.025  24.739  1.00  0.00    -0.202 F 
ATOM     96  C   UNL A   1      33.370  30.451  27.251  1.00  0.00     0.161 A 
ATOM     97  F   UNL A   1      31.398  31.673  26.794  1.00  0.00    -0.200 F 
ATOM     98  F   UNL A   1      33.657  31.263  28.277  1.00  0.00    -0.204 F 
ENDBRANCH  87  90
ENDBRANCH  85  87
ENDBRANCH  84  85
ENDBRANCH  77  80
ENDBRANCH  75  76
ENDBRANCH  74  75
ENDBRANCH   1  74
TORSDOF 16
ENDMDL
MODEL 3
REMARK VINA RESULT:     -11.8      0.464      7.246
REMARK SMILES O=C(NCCCCCCNC(=O)[C@H]1C=C[C@H](NS(=O)(=O)c2ccc(F)c(F)c2F)C1)c1ccc(-c2c3nc(c(-c4c(F)c(F)c(F)c(F)c4F)c4ccc([nH]4)c(-c4c(F)c(F)c(F)c(F)c4F)c4nc(c(-c5c(F)c(F)c(F)c(F)c5F)c5ccc2[nH]5)C=C4)C=C3)cc1
REMARK SMILES IDX 7 1 6 2 5 3 4 4 3 5 1 6 2 7 31 9 32 10 93 11 33 12 92 13
REMARK SMILES IDX 34 14 35 15 36 16 86 17 37 18 91 19 85 20 87 21 38 22 90 23
REMARK SMILES IDX 84 24 83 25 39 27 71 28 51 29 70 30 52 31 55 32 69 33 88 34
REMARK SMILES IDX 53 35 54 36 68 38 89 39 56 40 40 41 41 42 49 43 42 44 43 45
REMARK SMILES IDX 47 46 50 47 44 48 45 49 48 50 46 51 72 52 73 53 81 54 74 55
REMARK SMILES IDX 75 56 79 57 82 58 76 59 77 60 80 61 78 62 57 63 58 64 66 65
REMARK SMILES IDX 59 66 60 67 64 68 67 69 61 70 62 71 65 72 63 73 8 74 9 75
REMARK SMILES IDX 10 76 11 77 12 79 13 80 14 81 30 82 15 83 16 84 17 85 18 87
REMARK SMILES IDX 19 88 20 89 21 90 22 91 28 92 23 93 26 94 29 95 24 96 27 97
REMARK SMILES IDX 25 98
REMARK H PARENT 3 8 87 26 55 37 10 78 17 86
REMARK Flexibility Score: inf
ROOT
ATOM      1  C   UNL A   1      34.698  32.594  29.076  1.00  0.00     0.002 C 
ENDROOT
BRANCH   1   2
ATOM      2  C   UNL A   1      34.645  34.069  28.661  1.00  0.00     0.002 C 
BRANCH   2   3
ATOM      3  C   UNL A   1      33.273  34.729  28.796  1.00  0.00     0.021 C 
BRANCH   3   4
ATOM      4  C   UNL A   1      33.303  36.110  29.438  1.00  0.00     0.116 C 
BRANCH   4   5
ATOM      5  N   UNL A   1      32.432  36.186  30.598  1.00  0.00    -0.352 N 
ATOM      6  O   UNL A   1      31.630  35.576  32.617  1.00  0.00    -0.269 OA
ATOM      7  C   UNL A   1      32.561  35.574  31.819  1.00  0.00     0.251 C 
ATOM      8  H   UNL A   1      31.637  36.759  30.494  1.00  0.00     0.163 HD
BRANCH   7   9
ATOM      9  C   UNL A   1      33.829  34.898  32.165  1.00  0.00     0.039 A 
ATOM     10  C   UNL A   1      35.037  35.602  32.156  1.00  0.00     0.014 A 
ATOM     11  C   UNL A   1      33.798  33.551  32.532  1.00  0.00     0.014 A 
ATOM     12  C   UNL A   1      36.229  34.932  32.406  1.00  0.00     0.010 A 
ATOM     13  C   UNL A   1      34.988  32.898  32.856  1.00  0.00     0.010 A 
ATOM     14  C   UNL A   1      36.213  33.579  32.780  1.00  0.00    -0.014 A 
BRANCH  14  15
ATOM     15  C   UNL A   1      37.472  32.905  33.175  1.00  0.00     0.031 A 
ATOM     16  C   UNL A   1      38.103  31.871  32.294  1.00  0.00     0.074 A 
ATOM     17  C   UNL A   1      38.026  33.218  34.361  1.00  0.00     0.049 A 
ATOM     18  N   UNL A   1      39.162  31.134  32.517  1.00  0.00    -0.248 NA
ATOM     19  C   UNL A   1      37.461  31.620  30.996  1.00  0.00     0.031 C 
ATOM     20  C   UNL A   1      37.493  34.209  35.298  1.00  0.00     0.029 A 
ATOM     21  N   UNL A   1      39.148  32.738  34.987  1.00  0.00    -0.354 N 
ATOM     22  C   UNL A   1      39.297  30.317  31.405  1.00  0.00     0.074 A 
ATOM     23  C   UNL A   1      38.203  30.633  30.511  1.00  0.00     0.031 C 
ATOM     24  C   UNL A   1      38.297  34.279  36.367  1.00  0.00     0.029 A 
ATOM     25  C   UNL A   1      39.363  33.294  36.223  1.00  0.00     0.049 A 
ATOM     26  H   UNL A   1      39.740  32.060  34.587  1.00  0.00     0.167 HD
ATOM     27  C   UNL A   1      40.253  29.389  31.159  1.00  0.00     0.037 A 
ATOM     28  C   UNL A   1      40.295  33.021  37.155  1.00  0.00     0.037 A 
ATOM     29  C   UNL A   1      41.347  29.102  32.050  1.00  0.00     0.049 A 
ATOM     30  C   UNL A   1      41.319  31.961  36.877  1.00  0.00     0.074 A 
ATOM     31  C   UNL A   1      42.407  28.233  31.857  1.00  0.00     0.029 A 
ATOM     32  N   UNL A   1      41.515  29.665  33.308  1.00  0.00    -0.354 N 
ATOM     33  N   UNL A   1      41.466  31.225  35.803  1.00  0.00    -0.248 NA
ATOM     34  C   UNL A   1      42.299  31.685  37.935  1.00  0.00     0.031 C 
ATOM     35  C   UNL A   1      43.177  28.219  33.022  1.00  0.00     0.029 A 
ATOM     36  C   UNL A   1      42.638  29.129  33.919  1.00  0.00     0.049 A 
ATOM     37  H   UNL A   1      40.925  30.344  33.707  1.00  0.00     0.167 HD
ATOM     38  C   UNL A   1      42.561  30.409  36.046  1.00  0.00     0.074 A 
ATOM     39  C   UNL A   1      43.047  30.746  37.369  1.00  0.00     0.031 C 
ATOM     40  C   UNL A   1      43.111  29.470  35.239  1.00  0.00     0.037 A 
BRANCH  27  41
ATOM     41  C   UNL A   1      40.156  28.595  29.888  1.00  0.00     0.064 A 
ATOM     42  C   UNL A   1      39.506  27.350  29.883  1.00  0.00     0.173 A 
ATOM     43  C   UNL A   1      40.763  29.021  28.698  1.00  0.00     0.173 A 
ATOM     44  F   UNL A   1      38.917  26.889  30.998  1.00  0.00    -0.203 F 
ATOM     45  C   UNL A   1      39.477  26.559  28.738  1.00  0.00     0.198 A 
ATOM     46  C   UNL A   1      40.705  28.241  27.545  1.00  0.00     0.198 A 
ATOM     47  F   UNL A   1      41.391  30.205  28.646  1.00  0.00    -0.203 F 
ATOM     48  F   UNL A   1      38.877  25.361  28.767  1.00  0.00    -0.200 F 
ATOM     49  C   UNL A   1      40.070  27.008  27.568  1.00  0.00     0.200 A 
ATOM     50  F   UNL A   1      41.259  28.686  26.408  1.00  0.00    -0.200 F 
ATOM     51  F   UNL A   1      40.028  26.253  26.461  1.00  0.00    -0.200 F 
ENDBRANCH  27  41
BRANCH  28  52
ATOM     52  C   UNL A   1      40.275  33.788  38.426  1.00  0.00     0.064 A 
ATOM     53  C   UNL A   1      41.126  34.887  38.624  1.00  0.00     0.173 A 
ATOM     54  C   UNL A   1      39.488  33.365  39.503  1.00  0.00     0.173 A 
ATOM     55  F   UNL A   1      41.908  35.320  37.625  1.00  0.00    -0.203 F 
ATOM     56  C   UNL A   1      41.220  35.507  39.868  1.00  0.00     0.198 A 
ATOM     57  C   UNL A   1      39.565  34.003  40.740  1.00  0.00     0.198 A 
ATOM     58  F   UNL A   1      38.651  32.328  39.355  1.00  0.00    -0.203 F 
ATOM     59  F   UNL A   1      42.086  36.513  40.049  1.00  0.00    -0.200 F 
ATOM     60  C   UNL A   1      40.441  35.062  40.925  1.00  0.00     0.200 A 
ATOM     61  F   UNL A   1      38.801  33.580  41.757  1.00  0.00    -0.200 F 
ATOM     62  F   UNL A   1      40.541  35.650  42.125  1.00  0.00    -0.200 F 
ENDBRANCH  28  52
BRANCH  40  63
ATOM     63  C   UNL A   1      44.316  28.731  35.739  1.00  0.00     0.064 A 
ATOM     64  C   UNL A   1      44.163  27.572  36.516  1.00  0.00     0.173 A 
ATOM     65  C   UNL A   1      45.610  29.240  35.562  1.00  0.00     0.173 A 
ATOM     66  F   UNL A   1      42.944  27.051  36.719  1.00  0.00    -0.203 F 
ATOM     67  C   UNL A   1      45.259  26.971  37.128  1.00  0.00     0.198 A 
ATOM     68  C   UNL A   1      46.707  28.620  36.154  1.00  0.00     0.198 A 
ATOM     69  F   UNL A   1      45.807  30.338  34.816  1.00  0.00    -0.203 F 
ATOM     70  F   UNL A   1      45.083  25.897  37.910  1.00  0.00    -0.200 F 
ATOM     71  C   UNL A   1      46.529  27.497  36.947  1.00  0.00     0.200 A 
ATOM     72  F   UNL A   1      47.937  29.117  35.964  1.00  0.00    -0.200 F 
ATOM     73  F   UNL A   1      47.583  26.923  37.545  1.00  0.00    -0.200 F 
ENDBRANCH  40  63
ENDBRANCH  14  15
ENDBRANCH   7   9
ENDBRANCH   4   5
ENDBRANCH   3   4
ENDBRANCH   2   3
ENDBRANCH   1   2
BRANCH   1  74
ATOM     74  C   UNL A   1      34.926  31.599  27.929  1.00  0.00     0.021 C 
BRANCH  74  75
ATOM     75  C   UNL A   1      33.722  30.711  27.623  1.00  0.00     0.116 C 
BRANCH  75  76
ATOM     76  N   UNL A   1      33.603  30.456  26.202  1.00  0.00    -0.356 N 
ATOM     77  C   UNL A   1      33.298  29.301  25.547  1.00  0.00     0.226 C 
ATOM     78  H   UNL A   1      33.767  31.235  25.623  1.00  0.00     0.163 HD
ATOM     79  O   UNL A   1      33.263  29.328  24.316  1.00  0.00    -0.274 OA
BRANCH  77  80
ATOM     80  C   UNL A   1      32.974  28.049  26.358  1.00  0.00     0.103 C 
ATOM     81  C   UNL A   1      31.493  27.927  26.555  1.00  0.00    -0.016 C 
ATOM     82  C   UNL A   1      33.338  26.769  25.599  1.00  0.00     0.042 C 
ATOM     83  C   UNL A   1      31.032  26.738  26.158  1.00  0.00    -0.011 C 
ATOM     84  C   UNL A   1      32.104  25.859  25.606  1.00  0.00     0.093 C 
BRANCH  84  85
ATOM     85  N   UNL A   1      32.307  24.751  26.526  1.00  0.00    -0.204 NA
ATOM     86  H   UNL A   1      31.902  25.035  27.416  1.00  0.00     0.142 HD
BRANCH  85  87
ATOM     87  S   UNL A   1      31.696  23.233  26.188  1.00  0.00     0.244 S 
ATOM     88  O   UNL A   1      31.134  22.767  27.440  1.00  0.00    -0.207 OA
ATOM     89  O   UNL A   1      30.893  23.292  24.992  1.00  0.00    -0.207 OA
BRANCH  87  90
ATOM     90  C   UNL A   1      33.134  22.258  25.873  1.00  0.00     0.121 A 
ATOM     91  C   UNL A   1      34.410  22.756  26.172  1.00  0.00     0.028 A 
ATOM     92  C   UNL A   1      32.989  20.987  25.326  1.00  0.00     0.181 A 
ATOM     93  C   UNL A   1      35.537  21.986  25.871  1.00  0.00     0.044 A 
ATOM     94  C   UNL A   1      34.113  20.238  25.005  1.00  0.00     0.195 A 
ATOM     95  F   UNL A   1      31.779  20.492  25.032  1.00  0.00    -0.202 F 
ATOM     96  C   UNL A   1      35.380  20.737  25.275  1.00  0.00     0.161 A 
ATOM     97  F   UNL A   1      33.973  19.046  24.408  1.00  0.00    -0.200 F 
ATOM     98  F   UNL A   1      36.467  20.022  24.954  1.00  0.00    -0.204 F 
ENDBRANCH  87  90
ENDBRANCH  85  87
ENDBRANCH  84  85
ENDBRANCH  77  80
ENDBRANCH  75  76
ENDBRANCH  74  75
ENDBRANCH   1  74
TORSDOF 16
ENDMDL
