MODEL 1
REMARK VINA RESULT:     -10.4      0.000      0.000
REMARK SMILES CCCc1nsc(Oc2csc(C(=O)NCCCCCCNC(=O)c3ccc(-c4c5nc(c(-c6c(F)c(F)c(F)c(F)c6F)c6ccc([nH]6)c(-c6c(F)c(F)c(F)c(F)c6F)c6nc(c(-c7c(F)c(F)c(F)c(F)c7F)c7ccc4[nH]7)C=C6)C=C5)cc3)c2)n1
REMARK SMILES IDX 17 1 16 2 15 3 13 4 14 5 12 7 9 8 10 9 88 10 11 11 8 12 7 13
REMARK SMILES IDX 4 14 5 15 89 16 6 17 3 18 2 19 1 20 18 21 19 22 20 23 21 24
REMARK SMILES IDX 22 25 23 26 24 28 25 29 26 30 87 31 27 32 86 33 28 34 29 35
REMARK SMILES IDX 30 36 80 37 31 38 85 39 79 40 81 41 32 42 84 43 78 44 77 45
REMARK SMILES IDX 33 47 65 48 45 49 64 50 46 51 49 52 63 53 82 54 47 55 48 56
REMARK SMILES IDX 62 58 83 59 50 60 34 61 35 62 43 63 36 64 37 65 41 66 44 67
REMARK SMILES IDX 38 68 39 69 42 70 40 71 66 72 67 73 75 74 68 75 69 76 73 77
REMARK SMILES IDX 76 78 70 79 71 80 74 81 72 82 51 83 52 84 60 85 53 86 54 87
REMARK SMILES IDX 58 88 61 89 55 90 56 91 59 92 57 93
REMARK H PARENT 15 6 22 27 81 46 49 57
REMARK Flexibility Score: inf
ROOT
ATOM      1  C   UNL A   1      39.833  23.023  26.878  1.00  0.00     0.021 C 
ENDROOT
BRANCH   1   2
ATOM      2  C   UNL A   1      38.498  22.979  26.131  1.00  0.00     0.116 C 
BRANCH   2   3
ATOM      3  N   UNL A   1      38.251  21.654  25.604  1.00  0.00    -0.351 N 
ATOM      4  C   UNL A   1      37.230  21.094  24.873  1.00  0.00     0.261 C 
ATOM      5  O   UNL A   1      37.398  19.900  24.602  1.00  0.00    -0.268 OA
ATOM      6  H   UNL A   1      38.969  21.014  25.814  1.00  0.00     0.163 HD
BRANCH   4   7
ATOM      7  C   UNL A   1      36.069  21.857  24.424  1.00  0.00     0.096 A 
ATOM      8  C   UNL A   1      34.548  23.265  23.338  1.00  0.00     0.141 A 
ATOM      9  C   UNL A   1      33.682  22.521  24.098  1.00  0.00     0.112 A 
ATOM     10  C   UNL A   1      35.912  22.933  23.569  1.00  0.00     0.072 A 
ATOM     11  S   UNL A   1      34.525  21.396  25.067  1.00  0.00    -0.135 S 
BRANCH   8  12
ATOM     12  O   UNL A   1      34.155  24.144  22.392  1.00  0.00    -0.429 OA
BRANCH  12  13
ATOM     13  C   UNL A   1      33.562  25.280  22.749  1.00  0.00     0.298 A 
ATOM     14  C   UNL A   1      33.067  27.164  23.757  1.00  0.00     0.146 A 
ATOM     15  N   UNL A   1      32.095  27.250  22.843  1.00  0.00    -0.172 NA
ATOM     16  N   UNL A   1      33.938  26.076  23.727  1.00  0.00    -0.186 NA
ATOM     17  S   UNL A   1      32.183  25.866  21.919  1.00  0.00     0.025 S 
BRANCH  14  18
ATOM     18  C   UNL A   1      33.267  28.212  24.806  1.00  0.00     0.078 C 
BRANCH  18  19
ATOM     19  C   UNL A   1      33.784  27.729  26.163  1.00  0.00     0.005 C 
ATOM     20  C   UNL A   1      34.439  28.826  26.992  1.00  0.00     0.004 C 
ENDBRANCH  18  19
ENDBRANCH  14  18
ENDBRANCH  12  13
ENDBRANCH   8  12
ENDBRANCH   4   7
ENDBRANCH   2   3
ENDBRANCH   1   2
BRANCH   1  21
ATOM     21  C   UNL A   1      40.948  22.226  26.183  1.00  0.00     0.002 C 
BRANCH  21  22
ATOM     22  C   UNL A   1      41.485  21.026  26.978  1.00  0.00     0.002 C 
BRANCH  22  23
ATOM     23  C   UNL A   1      41.607  19.717  26.192  1.00  0.00     0.021 C 
BRANCH  23  24
ATOM     24  C   UNL A   1      42.924  18.969  26.388  1.00  0.00     0.116 C 
BRANCH  24  25
ATOM     25  N   UNL A   1      43.637  18.784  25.136  1.00  0.00    -0.352 N 
ATOM     26  C   UNL A   1      44.303  19.694  24.355  1.00  0.00     0.251 C 
ATOM     27  H   UNL A   1      43.646  17.860  24.795  1.00  0.00     0.163 HD
ATOM     28  O   UNL A   1      44.672  19.375  23.229  1.00  0.00    -0.269 OA
BRANCH  26  29
ATOM     29  C   UNL A   1      44.567  21.064  24.847  1.00  0.00     0.039 A 
ATOM     30  C   UNL A   1      44.141  22.146  24.069  1.00  0.00     0.014 A 
ATOM     31  C   UNL A   1      45.275  21.295  26.031  1.00  0.00     0.014 A 
ATOM     32  C   UNL A   1      44.378  23.452  24.500  1.00  0.00     0.010 A 
ATOM     33  C   UNL A   1      45.461  22.599  26.491  1.00  0.00     0.010 A 
ATOM     34  C   UNL A   1      45.018  23.690  25.728  1.00  0.00    -0.014 A 
BRANCH  34  35
ATOM     35  C   UNL A   1      45.210  25.077  26.221  1.00  0.00     0.031 A 
ATOM     36  C   UNL A   1      46.561  25.732  26.160  1.00  0.00     0.074 A 
ATOM     37  C   UNL A   1      44.165  25.736  26.757  1.00  0.00     0.049 A 
ATOM     38  N   UNL A   1      46.915  26.934  26.543  1.00  0.00    -0.248 NA
ATOM     39  C   UNL A   1      47.665  24.927  25.617  1.00  0.00     0.031 C 
ATOM     40  C   UNL A   1      42.817  25.189  26.921  1.00  0.00     0.029 A 
ATOM     41  N   UNL A   1      44.072  27.007  27.265  1.00  0.00    -0.354 N 
ATOM     42  C   UNL A   1      48.278  27.026  26.294  1.00  0.00     0.074 A 
ATOM     43  C   UNL A   1      48.699  25.743  25.772  1.00  0.00     0.031 C 
ATOM     44  C   UNL A   1      42.026  26.126  27.466  1.00  0.00     0.029 A 
ATOM     45  C   UNL A   1      42.814  27.329  27.712  1.00  0.00     0.049 A 
ATOM     46  H   UNL A   1      44.834  27.629  27.304  1.00  0.00     0.167 HD
ATOM     47  C   UNL A   1      49.099  28.091  26.463  1.00  0.00     0.037 A 
ATOM     48  C   UNL A   1      42.349  28.470  28.256  1.00  0.00     0.037 A 
ATOM     49  C   UNL A   1      48.676  29.373  26.963  1.00  0.00     0.049 A 
ATOM     50  C   UNL A   1      43.278  29.640  28.418  1.00  0.00     0.074 A 
ATOM     51  C   UNL A   1      49.420  30.530  27.117  1.00  0.00     0.029 A 
ATOM     52  N   UNL A   1      47.389  29.667  27.391  1.00  0.00    -0.354 N 
ATOM     53  N   UNL A   1      44.549  29.736  28.111  1.00  0.00    -0.248 NA
ATOM     54  C   UNL A   1      42.704  30.864  28.993  1.00  0.00     0.031 C 
ATOM     55  C   UNL A   1      48.595  31.513  27.672  1.00  0.00     0.029 A 
ATOM     56  C   UNL A   1      47.324  30.982  27.826  1.00  0.00     0.049 A 
ATOM     57  H   UNL A   1      46.634  29.036  27.387  1.00  0.00     0.167 HD
ATOM     58  C   UNL A   1      44.921  31.033  28.437  1.00  0.00     0.074 A 
ATOM     59  C   UNL A   1      43.737  31.694  28.943  1.00  0.00     0.031 C 
ATOM     60  C   UNL A   1      46.137  31.623  28.330  1.00  0.00     0.037 A 
BRANCH  47  61
ATOM     61  C   UNL A   1      50.544  27.918  26.095  1.00  0.00     0.064 A 
ATOM     62  C   UNL A   1      50.986  28.079  24.774  1.00  0.00     0.173 A 
ATOM     63  C   UNL A   1      51.503  27.638  27.080  1.00  0.00     0.173 A 
ATOM     64  F   UNL A   1      50.107  28.336  23.794  1.00  0.00    -0.203 F 
ATOM     65  C   UNL A   1      52.333  27.943  24.447  1.00  0.00     0.198 A 
ATOM     66  C   UNL A   1      52.852  27.529  26.753  1.00  0.00     0.198 A 
ATOM     67  F   UNL A   1      51.134  27.482  28.359  1.00  0.00    -0.203 F 
ATOM     68  F   UNL A   1      52.727  28.061  23.172  1.00  0.00    -0.200 F 
ATOM     69  C   UNL A   1      53.266  27.676  25.438  1.00  0.00     0.200 A 
ATOM     70  F   UNL A   1      53.755  27.282  27.713  1.00  0.00    -0.200 F 
ATOM     71  F   UNL A   1      54.563  27.553  25.124  1.00  0.00    -0.200 F 
ENDBRANCH  47  61
BRANCH  48  72
ATOM     72  C   UNL A   1      40.922  28.572  28.655  1.00  0.00     0.064 A 
ATOM     73  C   UNL A   1      39.953  29.023  27.748  1.00  0.00     0.173 A 
ATOM     74  C   UNL A   1      40.500  28.230  29.947  1.00  0.00     0.173 A 
ATOM     75  F   UNL A   1      40.313  29.381  26.508  1.00  0.00    -0.203 F 
ATOM     76  C   UNL A   1      38.618  29.148  28.127  1.00  0.00     0.198 A 
ATOM     77  C   UNL A   1      39.161  28.331  30.317  1.00  0.00     0.198 A 
ATOM     78  F   UNL A   1      41.389  27.789  30.849  1.00  0.00    -0.203 F 
ATOM     79  F   UNL A   1      37.719  29.626  27.255  1.00  0.00    -0.200 F 
ATOM     80  C   UNL A   1      38.222  28.799  29.409  1.00  0.00     0.200 A 
ATOM     81  F   UNL A   1      38.780  27.979  31.552  1.00  0.00    -0.200 F 
ATOM     82  F   UNL A   1      36.938  28.918  29.771  1.00  0.00    -0.200 F 
ENDBRANCH  48  72
BRANCH  60  83
ATOM     83  C   UNL A   1      46.236  33.058  28.756  1.00  0.00     0.064 A 
ATOM     84  C   UNL A   1      46.568  33.411  30.072  1.00  0.00     0.173 A 
ATOM     85  C   UNL A   1      46.007  34.091  27.834  1.00  0.00     0.173 A 
ATOM     86  F   UNL A   1      46.779  32.459  30.993  1.00  0.00    -0.203 F 
ATOM     87  C   UNL A   1      46.637  34.747  30.458  1.00  0.00     0.198 A 
ATOM     88  C   UNL A   1      46.104  35.426  28.218  1.00  0.00     0.198 A 
ATOM     89  F   UNL A   1      45.692  33.806  26.562  1.00  0.00    -0.203 F 
ATOM     90  F   UNL A   1      46.901  35.060  31.734  1.00  0.00    -0.200 F 
ATOM     91  C   UNL A   1      46.408  35.752  29.531  1.00  0.00     0.200 A 
ATOM     92  F   UNL A   1      45.894  36.397  27.318  1.00  0.00    -0.200 F 
ATOM     93  F   UNL A   1      46.473  37.038  29.905  1.00  0.00    -0.200 F 
ENDBRANCH  60  83
ENDBRANCH  34  35
ENDBRANCH  26  29
ENDBRANCH  24  25
ENDBRANCH  23  24
ENDBRANCH  22  23
ENDBRANCH  21  22
ENDBRANCH   1  21
TORSDOF 17
ENDMDL
MODEL 2
REMARK VINA RESULT:     -10.1      1.897      7.775
REMARK SMILES CCCc1nsc(Oc2csc(C(=O)NCCCCCCNC(=O)c3ccc(-c4c5nc(c(-c6c(F)c(F)c(F)c(F)c6F)c6ccc([nH]6)c(-c6c(F)c(F)c(F)c(F)c6F)c6nc(c(-c7c(F)c(F)c(F)c(F)c7F)c7ccc4[nH]7)C=C6)C=C5)cc3)c2)n1
REMARK SMILES IDX 17 1 16 2 15 3 13 4 14 5 12 7 9 8 10 9 88 10 11 11 8 12 7 13
REMARK SMILES IDX 4 14 5 15 89 16 6 17 3 18 2 19 1 20 18 21 19 22 20 23 21 24
REMARK SMILES IDX 22 25 23 26 24 28 25 29 26 30 87 31 27 32 86 33 28 34 29 35
REMARK SMILES IDX 30 36 80 37 31 38 85 39 79 40 81 41 32 42 84 43 78 44 77 45
REMARK SMILES IDX 33 47 65 48 45 49 64 50 46 51 49 52 63 53 82 54 47 55 48 56
REMARK SMILES IDX 62 58 83 59 50 60 34 61 35 62 43 63 36 64 37 65 41 66 44 67
REMARK SMILES IDX 38 68 39 69 42 70 40 71 66 72 67 73 75 74 68 75 69 76 73 77
REMARK SMILES IDX 76 78 70 79 71 80 74 81 72 82 51 83 52 84 60 85 53 86 54 87
REMARK SMILES IDX 58 88 61 89 55 90 56 91 59 92 57 93
REMARK H PARENT 15 6 22 27 81 46 49 57
REMARK Flexibility Score: inf
ROOT
ATOM      1  C   UNL A   1      34.693  19.913  24.760  1.00  0.00     0.021 C 
ENDROOT
BRANCH   1   2
ATOM      2  C   UNL A   1      33.343  20.112  25.453  1.00  0.00     0.116 C 
BRANCH   2   3
ATOM      3  N   UNL A   1      33.514  20.784  26.724  1.00  0.00    -0.351 N 
ATOM      4  C   UNL A   1      33.218  22.045  27.183  1.00  0.00     0.261 C 
ATOM      5  O   UNL A   1      33.519  22.235  28.366  1.00  0.00    -0.268 OA
ATOM      6  H   UNL A   1      33.935  20.214  27.408  1.00  0.00     0.163 HD
BRANCH   4   7
ATOM      7  C   UNL A   1      32.569  23.055  26.353  1.00  0.00     0.096 A 
ATOM      8  C   UNL A   1      32.030  24.798  24.887  1.00  0.00     0.141 A 
ATOM      9  C   UNL A   1      30.793  24.224  25.040  1.00  0.00     0.112 A 
ATOM     10  C   UNL A   1      33.030  24.174  25.683  1.00  0.00     0.072 A 
ATOM     11  S   UNL A   1      30.855  22.907  26.125  1.00  0.00    -0.135 S 
BRANCH   8  12
ATOM     12  O   UNL A   1      32.301  25.778  24.000  1.00  0.00    -0.429 OA
BRANCH  12  13
ATOM     13  C   UNL A   1      31.889  27.020  24.239  1.00  0.00     0.298 A 
ATOM     14  C   UNL A   1      31.659  29.030  25.087  1.00  0.00     0.146 A 
ATOM     15  N   UNL A   1      30.779  29.208  24.097  1.00  0.00    -0.172 NA
ATOM     16  N   UNL A   1      32.330  27.812  25.192  1.00  0.00    -0.186 NA
ATOM     17  S   UNL A   1      30.689  27.765  23.270  1.00  0.00     0.025 S 
BRANCH  14  18
ATOM     18  C   UNL A   1      31.965  30.104  26.082  1.00  0.00     0.078 C 
BRANCH  18  19
ATOM     19  C   UNL A   1      33.348  30.054  26.736  1.00  0.00     0.005 C 
ATOM     20  C   UNL A   1      33.647  31.254  27.625  1.00  0.00     0.004 C 
ENDBRANCH  18  19
ENDBRANCH  14  18
ENDBRANCH  12  13
ENDBRANCH   8  12
ENDBRANCH   4   7
ENDBRANCH   2   3
ENDBRANCH   1   2
BRANCH   1  21
ATOM     21  C   UNL A   1      35.820  20.766  25.364  1.00  0.00     0.002 C 
BRANCH  21  22
ATOM     22  C   UNL A   1      37.144  20.740  24.587  1.00  0.00     0.002 C 
BRANCH  22  23
ATOM     23  C   UNL A   1      38.129  19.641  25.001  1.00  0.00     0.021 C 
BRANCH  23  24
ATOM     24  C   UNL A   1      39.191  20.076  26.009  1.00  0.00     0.116 C 
BRANCH  24  25
ATOM     25  N   UNL A   1      40.309  19.150  26.054  1.00  0.00    -0.352 N 
ATOM     26  C   UNL A   1      41.656  19.395  26.138  1.00  0.00     0.251 C 
ATOM     27  H   UNL A   1      40.063  18.197  26.020  1.00  0.00     0.163 HD
ATOM     28  O   UNL A   1      42.453  18.478  25.963  1.00  0.00    -0.269 OA
BRANCH  26  29
ATOM     29  C   UNL A   1      42.163  20.756  26.422  1.00  0.00     0.039 A 
ATOM     30  C   UNL A   1      42.467  21.592  25.343  1.00  0.00     0.014 A 
ATOM     31  C   UNL A   1      42.391  21.196  27.731  1.00  0.00     0.014 A 
ATOM     32  C   UNL A   1      42.952  22.881  25.575  1.00  0.00     0.010 A 
ATOM     33  C   UNL A   1      42.820  22.503  27.963  1.00  0.00     0.010 A 
ATOM     34  C   UNL A   1      43.108  23.356  26.888  1.00  0.00    -0.014 A 
BRANCH  34  35
ATOM     35  C   UNL A   1      43.558  24.749  27.136  1.00  0.00     0.031 A 
ATOM     36  C   UNL A   1      42.593  25.792  27.624  1.00  0.00     0.074 A 
ATOM     37  C   UNL A   1      44.839  25.082  26.885  1.00  0.00     0.049 A 
ATOM     38  N   UNL A   1      42.807  27.056  27.894  1.00  0.00    -0.248 NA
ATOM     39  C   UNL A   1      41.198  25.367  27.817  1.00  0.00     0.031 C 
ATOM     40  C   UNL A   1      45.858  24.173  26.358  1.00  0.00     0.029 A 
ATOM     41  N   UNL A   1      45.502  26.273  27.038  1.00  0.00    -0.354 N 
ATOM     42  C   UNL A   1      41.579  27.575  28.281  1.00  0.00     0.074 A 
ATOM     43  C   UNL A   1      40.612  26.504  28.164  1.00  0.00     0.031 C 
ATOM     44  C   UNL A   1      47.023  24.832  26.255  1.00  0.00     0.029 A 
ATOM     45  C   UNL A   1      46.828  26.213  26.686  1.00  0.00     0.049 A 
ATOM     46  H   UNL A   1      45.069  27.092  27.370  1.00  0.00     0.167 HD
ATOM     47  C   UNL A   1      41.288  28.826  28.715  1.00  0.00     0.037 A 
ATOM     48  C   UNL A   1      47.780  27.165  26.711  1.00  0.00     0.037 A 
ATOM     49  C   UNL A   1      42.253  29.885  28.850  1.00  0.00     0.049 A 
ATOM     50  C   UNL A   1      47.433  28.539  27.212  1.00  0.00     0.074 A 
ATOM     51  C   UNL A   1      42.068  31.169  29.335  1.00  0.00     0.029 A 
ATOM     52  N   UNL A   1      43.592  29.782  28.499  1.00  0.00    -0.354 N 
ATOM     53  N   UNL A   1      46.282  28.997  27.642  1.00  0.00    -0.248 NA
ATOM     54  C   UNL A   1      48.521  29.526  27.240  1.00  0.00     0.031 C 
ATOM     55  C   UNL A   1      43.283  31.854  29.242  1.00  0.00     0.029 A 
ATOM     56  C   UNL A   1      44.238  30.985  28.739  1.00  0.00     0.049 A 
ATOM     57  H   UNL A   1      44.019  28.975  28.132  1.00  0.00     0.167 HD
ATOM     58  C   UNL A   1      46.512  30.315  28.009  1.00  0.00     0.074 A 
ATOM     59  C   UNL A   1      47.916  30.577  27.773  1.00  0.00     0.031 C 
ATOM     60  C   UNL A   1      45.636  31.229  28.495  1.00  0.00     0.037 A 
BRANCH  47  61
ATOM     61  C   UNL A   1      39.863  29.117  29.087  1.00  0.00     0.064 A 
ATOM     62  C   UNL A   1      38.916  29.489  28.123  1.00  0.00     0.173 A 
ATOM     63  C   UNL A   1      39.430  28.976  30.414  1.00  0.00     0.173 A 
ATOM     64  F   UNL A   1      39.283  29.649  26.842  1.00  0.00    -0.203 F 
ATOM     65  C   UNL A   1      37.591  29.732  28.476  1.00  0.00     0.198 A 
ATOM     66  C   UNL A   1      38.098  29.193  30.758  1.00  0.00     0.198 A 
ATOM     67  F   UNL A   1      40.294  28.615  31.374  1.00  0.00    -0.203 F 
ATOM     68  F   UNL A   1      36.712  30.125  27.543  1.00  0.00    -0.200 F 
ATOM     69  C   UNL A   1      37.181  29.576  29.791  1.00  0.00     0.200 A 
ATOM     70  F   UNL A   1      37.701  29.032  32.028  1.00  0.00    -0.200 F 
ATOM     71  F   UNL A   1      35.904  29.802  30.128  1.00  0.00    -0.200 F 
ENDBRANCH  47  61
BRANCH  48  72
ATOM     72  C   UNL A   1      49.164  26.840  26.281  1.00  0.00     0.064 A 
ATOM     73  C   UNL A   1      50.108  26.362  27.199  1.00  0.00     0.173 A 
ATOM     74  C   UNL A   1      49.571  27.008  24.950  1.00  0.00     0.173 A 
ATOM     75  F   UNL A   1      49.770  26.206  28.487  1.00  0.00    -0.203 F 
ATOM     76  C   UNL A   1      51.416  26.084  26.806  1.00  0.00     0.198 A 
ATOM     77  C   UNL A   1      50.872  26.705  24.552  1.00  0.00     0.198 A 
ATOM     78  F   UNL A   1      48.702  27.458  24.032  1.00  0.00    -0.203 F 
ATOM     79  F   UNL A   1      52.312  25.672  27.713  1.00  0.00    -0.200 F 
ATOM     80  C   UNL A   1      51.796  26.252  25.482  1.00  0.00     0.200 A 
ATOM     81  F   UNL A   1      51.230  26.855  23.271  1.00  0.00    -0.200 F 
ATOM     82  F   UNL A   1      53.052  25.983  25.105  1.00  0.00    -0.200 F 
ENDBRANCH  48  72
BRANCH  60  83
ATOM     83  C   UNL A   1      46.182  32.590  28.816  1.00  0.00     0.064 A 
ATOM     84  C   UNL A   1      46.184  33.621  27.866  1.00  0.00     0.173 A 
ATOM     85  C   UNL A   1      46.697  32.867  30.091  1.00  0.00     0.173 A 
ATOM     86  F   UNL A   1      45.717  33.399  26.628  1.00  0.00    -0.203 F 
ATOM     87  C   UNL A   1      46.711  34.873  28.170  1.00  0.00     0.198 A 
ATOM     88  C   UNL A   1      47.199  34.128  30.400  1.00  0.00     0.198 A 
ATOM     89  F   UNL A   1      46.713  31.916  31.036  1.00  0.00    -0.203 F 
ATOM     90  F   UNL A   1      46.753  35.826  27.230  1.00  0.00    -0.200 F 
ATOM     91  C   UNL A   1      47.215  35.126  29.437  1.00  0.00     0.200 A 
ATOM     92  F   UNL A   1      47.675  34.376  31.628  1.00  0.00    -0.200 F 
ATOM     93  F   UNL A   1      47.724  36.332  29.728  1.00  0.00    -0.200 F 
ENDBRANCH  60  83
ENDBRANCH  34  35
ENDBRANCH  26  29
ENDBRANCH  24  25
ENDBRANCH  23  24
ENDBRANCH  22  23
ENDBRANCH  21  22
ENDBRANCH   1  21
TORSDOF 17
ENDMDL
MODEL 3
REMARK VINA RESULT:     -10.0      1.556      2.274
REMARK SMILES CCCc1nsc(Oc2csc(C(=O)NCCCCCCNC(=O)c3ccc(-c4c5nc(c(-c6c(F)c(F)c(F)c(F)c6F)c6ccc([nH]6)c(-c6c(F)c(F)c(F)c(F)c6F)c6nc(c(-c7c(F)c(F)c(F)c(F)c7F)c7ccc4[nH]7)C=C6)C=C5)cc3)c2)n1
REMARK SMILES IDX 17 1 16 2 15 3 13 4 14 5 12 7 9 8 10 9 88 10 11 11 8 12 7 13
REMARK SMILES IDX 4 14 5 15 89 16 6 17 3 18 2 19 1 20 18 21 19 22 20 23 21 24
REMARK SMILES IDX 22 25 23 26 24 28 25 29 26 30 87 31 27 32 86 33 28 34 29 35
REMARK SMILES IDX 30 36 80 37 31 38 85 39 79 40 81 41 32 42 84 43 78 44 77 45
REMARK SMILES IDX 33 47 65 48 45 49 64 50 46 51 49 52 63 53 82 54 47 55 48 56
REMARK SMILES IDX 62 58 83 59 50 60 34 61 35 62 43 63 36 64 37 65 41 66 44 67
REMARK SMILES IDX 38 68 39 69 42 70 40 71 66 72 67 73 75 74 68 75 69 76 73 77
REMARK SMILES IDX 76 78 70 79 71 80 74 81 72 82 51 83 52 84 60 85 53 86 54 87
REMARK SMILES IDX 58 88 61 89 55 90 56 91 59 92 57 93
REMARK H PARENT 15 6 22 27 81 46 49 57
REMARK Flexibility Score: inf
ROOT
ATOM      1  C   UNL A   1      40.575  22.309  27.600  1.00  0.00     0.021 C 
ENDROOT
BRANCH   1   2
ATOM      2  C   UNL A   1      39.598  22.719  26.497  1.00  0.00     0.116 C 
BRANCH   2   3
ATOM      3  N   UNL A   1      39.038  21.550  25.849  1.00  0.00    -0.351 N 
ATOM      4  C   UNL A   1      37.844  21.288  25.222  1.00  0.00     0.261 C 
ATOM      5  O   UNL A   1      37.748  20.139  24.778  1.00  0.00    -0.268 OA
ATOM      6  H   UNL A   1      39.645  20.775  25.861  1.00  0.00     0.163 HD
BRANCH   4   7
ATOM      7  C   UNL A   1      36.798  22.294  25.063  1.00  0.00     0.096 A 
ATOM      8  C   UNL A   1      35.173  23.956  25.337  1.00  0.00     0.141 A 
ATOM      9  C   UNL A   1      35.324  23.994  23.974  1.00  0.00     0.112 A 
ATOM     10  C   UNL A   1      35.963  22.945  25.953  1.00  0.00     0.072 A 
ATOM     11  S   UNL A   1      36.453  22.825  23.448  1.00  0.00    -0.135 S 
BRANCH   8  12
ATOM     12  O   UNL A   1      34.439  24.846  26.038  1.00  0.00    -0.429 OA
BRANCH  12  13
ATOM     13  C   UNL A   1      33.126  24.671  26.160  1.00  0.00     0.298 A 
ATOM     14  C   UNL A   1      31.144  23.775  26.441  1.00  0.00     0.146 A 
ATOM     15  N   UNL A   1      30.706  25.037  26.382  1.00  0.00    -0.172 NA
ATOM     16  N   UNL A   1      32.511  23.522  26.344  1.00  0.00    -0.186 NA
ATOM     17  S   UNL A   1      32.040  25.994  26.105  1.00  0.00     0.025 S 
BRANCH  14  18
ATOM     18  C   UNL A   1      30.214  22.618  26.630  1.00  0.00     0.078 C 
BRANCH  18  19
ATOM     19  C   UNL A   1      29.004  22.857  27.536  1.00  0.00     0.005 C 
ATOM     20  C   UNL A   1      27.945  21.765  27.441  1.00  0.00     0.004 C 
ENDBRANCH  18  19
ENDBRANCH  14  18
ENDBRANCH  12  13
ENDBRANCH   8  12
ENDBRANCH   4   7
ENDBRANCH   2   3
ENDBRANCH   1   2
BRANCH   1  21
ATOM     21  C   UNL A   1      41.830  21.596  27.071  1.00  0.00     0.002 C 
BRANCH  21  22
ATOM     22  C   UNL A   1      41.870  20.080  27.315  1.00  0.00     0.002 C 
BRANCH  22  23
ATOM     23  C   UNL A   1      42.221  19.226  26.093  1.00  0.00     0.021 C 
BRANCH  23  24
ATOM     24  C   UNL A   1      43.641  18.662  26.089  1.00  0.00     0.116 C 
BRANCH  24  25
ATOM     25  N   UNL A   1      44.209  18.626  24.753  1.00  0.00    -0.352 N 
ATOM     26  C   UNL A   1      44.638  19.649  23.946  1.00  0.00     0.251 C 
ATOM     27  H   UNL A   1      44.302  17.725  24.364  1.00  0.00     0.163 HD
ATOM     28  O   UNL A   1      44.903  19.426  22.769  1.00  0.00    -0.269 OA
BRANCH  26  29
ATOM     29  C   UNL A   1      44.770  21.025  24.474  1.00  0.00     0.039 A 
ATOM     30  C   UNL A   1      45.437  21.212  25.689  1.00  0.00     0.014 A 
ATOM     31  C   UNL A   1      44.200  22.121  23.817  1.00  0.00     0.014 A 
ATOM     32  C   UNL A   1      45.575  22.496  26.219  1.00  0.00     0.010 A 
ATOM     33  C   UNL A   1      44.389  23.410  24.317  1.00  0.00     0.010 A 
ATOM     34  C   UNL A   1      45.075  23.609  25.524  1.00  0.00    -0.014 A 
BRANCH  34  35
ATOM     35  C   UNL A   1      45.281  24.981  26.051  1.00  0.00     0.031 A 
ATOM     36  C   UNL A   1      46.638  25.626  26.004  1.00  0.00     0.074 A 
ATOM     37  C   UNL A   1      44.244  25.636  26.607  1.00  0.00     0.049 A 
ATOM     38  N   UNL A   1      47.005  26.813  26.417  1.00  0.00    -0.248 NA
ATOM     39  C   UNL A   1      47.734  24.825  25.437  1.00  0.00     0.031 C 
ATOM     40  C   UNL A   1      42.892  25.097  26.761  1.00  0.00     0.029 A 
ATOM     41  N   UNL A   1      44.164  26.894  27.148  1.00  0.00    -0.354 N 
ATOM     42  C   UNL A   1      48.367  26.900  26.166  1.00  0.00     0.074 A 
ATOM     43  C   UNL A   1      48.775  25.626  25.610  1.00  0.00     0.031 C 
ATOM     44  C   UNL A   1      42.110  26.027  27.332  1.00  0.00     0.029 A 
ATOM     45  C   UNL A   1      42.910  27.217  27.606  1.00  0.00     0.049 A 
ATOM     46  H   UNL A   1      44.931  27.508  27.201  1.00  0.00     0.167 HD
ATOM     47  C   UNL A   1      49.199  27.952  26.361  1.00  0.00     0.037 A 
ATOM     48  C   UNL A   1      42.457  28.347  28.180  1.00  0.00     0.037 A 
ATOM     49  C   UNL A   1      48.788  29.225  26.894  1.00  0.00     0.049 A 
ATOM     50  C   UNL A   1      43.397  29.504  28.371  1.00  0.00     0.074 A 
ATOM     51  C   UNL A   1      49.544  30.371  27.076  1.00  0.00     0.029 A 
ATOM     52  N   UNL A   1      47.506  29.520  27.333  1.00  0.00    -0.354 N 
ATOM     53  N   UNL A   1      44.668  29.597  28.063  1.00  0.00    -0.248 NA
ATOM     54  C   UNL A   1      42.836  30.718  28.978  1.00  0.00     0.031 C 
ATOM     55  C   UNL A   1      48.729  31.347  27.659  1.00  0.00     0.029 A 
ATOM     56  C   UNL A   1      47.454  30.824  27.802  1.00  0.00     0.049 A 
ATOM     57  H   UNL A   1      46.745  28.896  27.315  1.00  0.00     0.167 HD
ATOM     58  C   UNL A   1      45.053  30.881  28.420  1.00  0.00     0.074 A 
ATOM     59  C   UNL A   1      43.876  31.539  28.946  1.00  0.00     0.031 C 
ATOM     60  C   UNL A   1      46.274  31.462  28.326  1.00  0.00     0.037 A 
BRANCH  47  61
ATOM     61  C   UNL A   1      50.641  27.776  25.984  1.00  0.00     0.064 A 
ATOM     62  C   UNL A   1      51.613  27.454  26.941  1.00  0.00     0.173 A 
ATOM     63  C   UNL A   1      51.046  27.883  24.645  1.00  0.00     0.173 A 
ATOM     64  F   UNL A   1      51.279  27.351  28.236  1.00  0.00    -0.203 F 
ATOM     65  C   UNL A   1      52.945  27.267  26.576  1.00  0.00     0.198 A 
ATOM     66  C   UNL A   1      52.373  27.669  24.280  1.00  0.00     0.198 A 
ATOM     67  F   UNL A   1      50.155  28.182  23.689  1.00  0.00    -0.203 F 
ATOM     68  F   UNL A   1      53.863  26.999  27.514  1.00  0.00    -0.200 F 
ATOM     69  C   UNL A   1      53.322  27.367  25.245  1.00  0.00     0.200 A 
ATOM     70  F   UNL A   1      52.735  27.755  22.993  1.00  0.00    -0.200 F 
ATOM     71  F   UNL A   1      54.601  27.179  24.895  1.00  0.00    -0.200 F 
ENDBRANCH  47  61
BRANCH  48  72
ATOM     72  C   UNL A   1      41.032  28.452  28.586  1.00  0.00     0.064 A 
ATOM     73  C   UNL A   1      40.070  28.967  27.706  1.00  0.00     0.173 A 
ATOM     74  C   UNL A   1      40.604  28.049  29.859  1.00  0.00     0.173 A 
ATOM     75  F   UNL A   1      40.436  29.385  26.485  1.00  0.00    -0.203 F 
ATOM     76  C   UNL A   1      38.738  29.095  28.091  1.00  0.00     0.198 A 
ATOM     77  C   UNL A   1      39.267  28.153  30.235  1.00  0.00     0.198 A 
ATOM     78  F   UNL A   1      41.486  27.545  30.735  1.00  0.00    -0.203 F 
ATOM     79  F   UNL A   1      37.847  29.633  27.247  1.00  0.00    -0.200 F 
ATOM     80  C   UNL A   1      38.336  28.684  29.354  1.00  0.00     0.200 A 
ATOM     81  F   UNL A   1      38.881  27.742  31.449  1.00  0.00    -0.200 F 
ATOM     82  F   UNL A   1      37.054  28.805  29.723  1.00  0.00    -0.200 F 
ENDBRANCH  48  72
BRANCH  60  83
ATOM     83  C   UNL A   1      46.387  32.885  28.788  1.00  0.00     0.064 A 
ATOM     84  C   UNL A   1      46.695  33.201  30.119  1.00  0.00     0.173 A 
ATOM     85  C   UNL A   1      46.197  33.943  27.886  1.00  0.00     0.173 A 
ATOM     86  F   UNL A   1      46.869  32.224  31.021  1.00  0.00    -0.203 F 
ATOM     87  C   UNL A   1      46.777  34.526  30.539  1.00  0.00     0.198 A 
ATOM     88  C   UNL A   1      46.308  35.266  28.304  1.00  0.00     0.198 A 
ATOM     89  F   UNL A   1      45.907  33.694  26.601  1.00  0.00    -0.203 F 
ATOM     90  F   UNL A   1      47.018  34.804  31.827  1.00  0.00    -0.200 F 
ATOM     91  C   UNL A   1      46.587  35.556  29.631  1.00  0.00     0.200 A 
ATOM     92  F   UNL A   1      46.134  36.262  27.424  1.00  0.00    -0.200 F 
ATOM     93  F   UNL A   1      46.665  36.831  30.038  1.00  0.00    -0.200 F 
ENDBRANCH  60  83
ENDBRANCH  34  35
ENDBRANCH  26  29
ENDBRANCH  24  25
ENDBRANCH  23  24
ENDBRANCH  22  23
ENDBRANCH  21  22
ENDBRANCH   1  21
TORSDOF 17
ENDMDL
