MODEL 1
REMARK VINA RESULT:     -11.6      0.000      0.000
REMARK SMILES CC(C)[C@@H]1CCCN1C(=O)N1CCO[C@H](CC(=O)NCCCCCCNC(=O)c2ccc(-c3c4nc(c(-c5c(F)c(F)c(F)c(F)c5F)c5ccc([nH]5)c(-c5c(F)c(F)c(F)c(F)c5F)c5nc(c(-c6c(F)c(F)c(F)c(F)c6F)c6ccc3[nH]6)C=C5)C=C4)cc2)C1
REMARK SMILES IDX 21 1 20 2 19 3 17 4 18 5 16 7 15 8 11 9 12 10 92 11 13 12
REMARK SMILES IDX 14 13 9 14 10 15 8 16 4 17 5 18 6 19 7 20 2 21 1 22 3 23
REMARK SMILES IDX 22 24 23 25 24 26 25 27 26 28 27 29 28 31 29 32 30 33 91 34
REMARK SMILES IDX 31 35 90 36 32 37 33 38 34 39 84 40 35 41 89 42 83 43 85 44
REMARK SMILES IDX 36 45 88 46 82 47 81 48 37 50 69 51 49 52 68 53 50 54 53 55
REMARK SMILES IDX 67 56 86 57 51 58 52 59 66 61 87 62 54 63 38 64 39 65 47 66
REMARK SMILES IDX 40 67 41 68 45 69 48 70 42 71 43 72 46 73 44 74 70 75 71 76
REMARK SMILES IDX 79 77 72 78 73 79 77 80 80 81 74 82 75 83 78 84 76 85 55 86
REMARK SMILES IDX 56 87 64 88 57 89 58 90 62 91 65 92 59 93 60 94 63 95 61 96
REMARK H PARENT 19 6 26 30 85 49 53 60
REMARK Flexibility Score: inf
ROOT
ATOM      1  C   UNL A   1      36.901  23.504  25.072  1.00  0.00     0.021 C 
ENDROOT
BRANCH   1   2
ATOM      2  C   UNL A   1      35.430  23.917  24.970  1.00  0.00     0.116 C 
BRANCH   2   3
ATOM      3  N   UNL A   1      34.948  23.826  23.610  1.00  0.00    -0.356 N 
ATOM      4  C   UNL A   1      34.008  23.138  22.940  1.00  0.00     0.222 C 
ATOM      5  O   UNL A   1      33.847  23.564  21.781  1.00  0.00    -0.275 OA
ATOM      6  H   UNL A   1      35.443  24.432  23.014  1.00  0.00     0.163 HD
BRANCH   4   7
ATOM      7  C   UNL A   1      33.033  22.058  23.408  1.00  0.00     0.133 C 
BRANCH   7   8
ATOM      8  C   UNL A   1      32.022  22.002  24.565  1.00  0.00     0.147 C 
ATOM      9  N   UNL A   1      31.576  24.264  25.593  1.00  0.00    -0.320 N 
ATOM     10  C   UNL A   1      31.972  23.693  26.882  1.00  0.00     0.150 C 
ATOM     11  C   UNL A   1      31.083  23.217  24.711  1.00  0.00     0.154 C 
ATOM     12  C   UNL A   1      32.749  22.363  26.837  1.00  0.00     0.182 C 
ATOM     13  O   UNL A   1      32.447  21.440  25.799  1.00  0.00    -0.374 OA
BRANCH   9  14
ATOM     14  C   UNL A   1      30.686  25.329  25.706  1.00  0.00     0.320 C 
ATOM     15  O   UNL A   1      29.696  25.212  26.436  1.00  0.00    -0.248 OA
BRANCH  14  16
ATOM     16  N   UNL A   1      30.934  26.505  25.037  1.00  0.00    -0.321 N 
ATOM     17  C   UNL A   1      31.917  27.601  25.136  1.00  0.00     0.089 C 
ATOM     18  C   UNL A   1      31.102  28.787  24.608  1.00  0.00     0.027 C 
ATOM     19  C   UNL A   1      30.436  28.167  23.391  1.00  0.00     0.024 C 
ATOM     20  C   UNL A   1      30.092  26.760  23.866  1.00  0.00     0.122 C 
BRANCH  17  21
ATOM     21  C   UNL A   1      32.658  27.866  26.445  1.00  0.00     0.005 C 
ATOM     22  C   UNL A   1      33.963  28.591  26.112  1.00  0.00     0.009 C 
ATOM     23  C   UNL A   1      31.883  28.734  27.443  1.00  0.00     0.009 C 
ENDBRANCH  17  21
ENDBRANCH  14  16
ENDBRANCH   9  14
ENDBRANCH   7   8
ENDBRANCH   4   7
ENDBRANCH   2   3
ENDBRANCH   1   2
BRANCH   1  24
ATOM     24  C   UNL A   1      37.106  22.095  25.642  1.00  0.00     0.002 C 
BRANCH  24  25
ATOM     25  C   UNL A   1      37.140  20.967  24.602  1.00  0.00     0.002 C 
BRANCH  25  26
ATOM     26  C   UNL A   1      38.131  19.834  24.884  1.00  0.00     0.021 C 
BRANCH  26  27
ATOM     27  C   UNL A   1      39.103  20.099  26.029  1.00  0.00     0.116 C 
BRANCH  27  28
ATOM     28  N   UNL A   1      40.249  19.205  25.997  1.00  0.00    -0.352 N 
ATOM     29  C   UNL A   1      41.584  19.494  26.051  1.00  0.00     0.251 C 
ATOM     30  H   UNL A   1      40.031  18.248  25.927  1.00  0.00     0.163 HD
ATOM     31  O   UNL A   1      42.417  18.620  25.810  1.00  0.00    -0.269 OA
BRANCH  29  32
ATOM     32  C   UNL A   1      42.028  20.859  26.387  1.00  0.00     0.039 A 
ATOM     33  C   UNL A   1      42.223  21.779  25.354  1.00  0.00     0.014 A 
ATOM     34  C   UNL A   1      42.270  21.223  27.714  1.00  0.00     0.014 A 
ATOM     35  C   UNL A   1      42.621  23.080  25.658  1.00  0.00     0.010 A 
ATOM     36  C   UNL A   1      42.583  22.542  28.022  1.00  0.00     0.010 A 
ATOM     37  C   UNL A   1      42.779  23.477  26.996  1.00  0.00    -0.014 A 
BRANCH  37  38
ATOM     38  C   UNL A   1      43.175  24.864  27.337  1.00  0.00     0.031 A 
ATOM     39  C   UNL A   1      44.587  25.322  27.096  1.00  0.00     0.074 A 
ATOM     40  C   UNL A   1      42.275  25.690  27.902  1.00  0.00     0.049 A 
ATOM     41  N   UNL A   1      45.138  26.479  27.361  1.00  0.00    -0.248 NA
ATOM     42  C   UNL A   1      45.510  24.339  26.507  1.00  0.00     0.031 C 
ATOM     43  C   UNL A   1      40.891  25.338  28.226  1.00  0.00     0.029 A 
ATOM     44  N   UNL A   1      42.389  26.995  28.309  1.00  0.00    -0.354 N 
ATOM     45  C   UNL A   1      46.468  26.358  26.979  1.00  0.00     0.074 A 
ATOM     46  C   UNL A   1      46.659  24.997  26.531  1.00  0.00     0.031 C 
ATOM     47  C   UNL A   1      40.276  26.410  28.749  1.00  0.00     0.029 A 
ATOM     48  C   UNL A   1      41.231  27.510  28.837  1.00  0.00     0.049 A 
ATOM     49  H   UNL A   1      43.222  27.514  28.230  1.00  0.00     0.167 HD
ATOM     50  C   UNL A   1      47.435  27.306  26.976  1.00  0.00     0.037 A 
ATOM     51  C   UNL A   1      40.973  28.732  29.339  1.00  0.00     0.037 A 
ATOM     52  C   UNL A   1      47.228  28.663  27.410  1.00  0.00     0.049 A 
ATOM     53  C   UNL A   1      42.070  29.762  29.341  1.00  0.00     0.074 A 
ATOM     54  C   UNL A   1      48.124  29.717  27.404  1.00  0.00     0.029 A 
ATOM     55  N   UNL A   1      46.039  29.151  27.934  1.00  0.00    -0.354 N 
ATOM     56  N   UNL A   1      43.304  29.659  28.911  1.00  0.00    -0.248 NA
ATOM     57  C   UNL A   1      41.734  31.083  29.890  1.00  0.00     0.031 C 
ATOM     58  C   UNL A   1      47.495  30.827  27.977  1.00  0.00     0.029 A 
ATOM     59  C   UNL A   1      46.187  30.484  28.280  1.00  0.00     0.049 A 
ATOM     60  H   UNL A   1      45.213  28.626  28.045  1.00  0.00     0.167 HD
ATOM     61  C   UNL A   1      43.883  30.906  29.107  1.00  0.00     0.074 A 
ATOM     62  C   UNL A   1      42.856  31.754  29.678  1.00  0.00     0.031 C 
ATOM     63  C   UNL A   1      45.149  31.313  28.840  1.00  0.00     0.037 A 
BRANCH  50  64
ATOM     64  C   UNL A   1      48.799  26.907  26.488  1.00  0.00     0.064 A 
ATOM     65  C   UNL A   1      49.770  26.384  27.356  1.00  0.00     0.173 A 
ATOM     66  C   UNL A   1      49.134  27.025  25.130  1.00  0.00     0.173 A 
ATOM     67  F   UNL A   1      49.509  26.261  28.667  1.00  0.00    -0.203 F 
ATOM     68  C   UNL A   1      51.034  26.029  26.891  1.00  0.00     0.198 A 
ATOM     69  C   UNL A   1      50.386  26.635  24.662  1.00  0.00     0.198 A 
ATOM     70  F   UNL A   1      48.243  27.515  24.255  1.00  0.00    -0.203 F 
ATOM     71  F   UNL A   1      51.964  25.588  27.751  1.00  0.00    -0.200 F 
ATOM     72  C   UNL A   1      51.338  26.147  25.544  1.00  0.00     0.200 A 
ATOM     73  F   UNL A   1      50.673  26.736  23.357  1.00  0.00    -0.200 F 
ATOM     74  F   UNL A   1      52.552  25.799  25.096  1.00  0.00    -0.200 F 
ENDBRANCH  50  64
BRANCH  51  75
ATOM     75  C   UNL A   1      39.615  29.056  29.852  1.00  0.00     0.064 A 
ATOM     76  C   UNL A   1      39.267  28.795  31.185  1.00  0.00     0.173 A 
ATOM     77  C   UNL A   1      38.637  29.626  29.024  1.00  0.00     0.173 A 
ATOM     78  F   UNL A   1      40.162  28.236  32.014  1.00  0.00    -0.203 F 
ATOM     79  C   UNL A   1      37.986  29.067  31.662  1.00  0.00     0.198 A 
ATOM     80  C   UNL A   1      37.367  29.928  29.511  1.00  0.00     0.198 A 
ATOM     81  F   UNL A   1      38.920  29.904  27.743  1.00  0.00    -0.203 F 
ATOM     82  F   UNL A   1      37.667  28.760  32.927  1.00  0.00    -0.200 F 
ATOM     83  C   UNL A   1      37.040  29.639  30.827  1.00  0.00     0.200 A 
ATOM     84  F   UNL A   1      36.461  30.498  28.705  1.00  0.00    -0.200 F 
ATOM     85  F   UNL A   1      35.810  29.904  31.288  1.00  0.00    -0.200 F 
ENDBRANCH  51  75
BRANCH  63  86
ATOM     86  C   UNL A   1      45.481  32.751  29.121  1.00  0.00     0.064 A 
ATOM     87  C   UNL A   1      45.263  33.760  28.172  1.00  0.00     0.173 A 
ATOM     88  C   UNL A   1      45.993  33.127  30.373  1.00  0.00     0.173 A 
ATOM     89  F   UNL A   1      44.790  33.453  26.955  1.00  0.00    -0.203 F 
ATOM     90  C   UNL A   1      45.577  35.088  28.453  1.00  0.00     0.198 A 
ATOM     91  C   UNL A   1      46.269  34.459  30.665  1.00  0.00     0.198 A 
ATOM     92  F   UNL A   1      46.210  32.202  31.320  1.00  0.00    -0.203 F 
ATOM     93  F   UNL A   1      45.416  36.026  27.511  1.00  0.00    -0.200 F 
ATOM     94  C   UNL A   1      46.072  35.436  29.701  1.00  0.00     0.200 A 
ATOM     95  F   UNL A   1      46.730  34.796  31.877  1.00  0.00    -0.200 F 
ATOM     96  F   UNL A   1      46.366  36.715  29.973  1.00  0.00    -0.200 F 
ENDBRANCH  63  86
ENDBRANCH  37  38
ENDBRANCH  29  32
ENDBRANCH  27  28
ENDBRANCH  26  27
ENDBRANCH  25  26
ENDBRANCH  24  25
ENDBRANCH   1  24
TORSDOF 17
ENDMDL
MODEL 2
REMARK VINA RESULT:     -11.5      0.499      7.215
REMARK SMILES CC(C)[C@@H]1CCCN1C(=O)N1CCO[C@H](CC(=O)NCCCCCCNC(=O)c2ccc(-c3c4nc(c(-c5c(F)c(F)c(F)c(F)c5F)c5ccc([nH]5)c(-c5c(F)c(F)c(F)c(F)c5F)c5nc(c(-c6c(F)c(F)c(F)c(F)c6F)c6ccc3[nH]6)C=C5)C=C4)cc2)C1
REMARK SMILES IDX 21 1 20 2 19 3 17 4 18 5 16 7 15 8 11 9 12 10 92 11 13 12
REMARK SMILES IDX 14 13 9 14 10 15 8 16 4 17 5 18 6 19 7 20 2 21 1 22 3 23
REMARK SMILES IDX 22 24 23 25 24 26 25 27 26 28 27 29 28 31 29 32 30 33 91 34
REMARK SMILES IDX 31 35 90 36 32 37 33 38 34 39 84 40 35 41 89 42 83 43 85 44
REMARK SMILES IDX 36 45 88 46 82 47 81 48 37 50 69 51 49 52 68 53 50 54 53 55
REMARK SMILES IDX 67 56 86 57 51 58 52 59 66 61 87 62 54 63 38 64 39 65 47 66
REMARK SMILES IDX 40 67 41 68 45 69 48 70 42 71 43 72 46 73 44 74 70 75 71 76
REMARK SMILES IDX 79 77 72 78 73 79 77 80 80 81 74 82 75 83 78 84 76 85 55 86
REMARK SMILES IDX 56 87 64 88 57 89 58 90 62 91 65 92 59 93 60 94 63 95 61 96
REMARK H PARENT 19 6 26 30 85 49 53 60
REMARK Flexibility Score: inf
ROOT
ATOM      1  C   UNL A   1      37.098  23.424  24.890  1.00  0.00     0.021 C 
ENDROOT
BRANCH   1   2
ATOM      2  C   UNL A   1      35.632  23.870  24.918  1.00  0.00     0.116 C 
BRANCH   2   3
ATOM      3  N   UNL A   1      35.040  23.824  23.601  1.00  0.00    -0.356 N 
ATOM      4  C   UNL A   1      34.038  23.167  22.992  1.00  0.00     0.222 C 
ATOM      5  O   UNL A   1      33.789  23.628  21.862  1.00  0.00    -0.275 OA
ATOM      6  H   UNL A   1      35.493  24.441  22.982  1.00  0.00     0.163 HD
BRANCH   4   7
ATOM      7  C   UNL A   1      33.089  22.087  23.508  1.00  0.00     0.133 C 
BRANCH   7   8
ATOM      8  C   UNL A   1      32.087  22.055  24.673  1.00  0.00     0.147 C 
ATOM      9  N   UNL A   1      31.617  24.344  25.630  1.00  0.00    -0.320 N 
ATOM     10  C   UNL A   1      32.028  23.820  26.935  1.00  0.00     0.150 C 
ATOM     11  C   UNL A   1      31.132  23.262  24.786  1.00  0.00     0.154 C 
ATOM     12  C   UNL A   1      32.823  22.499  26.927  1.00  0.00     0.182 C 
ATOM     13  O   UNL A   1      32.526  21.539  25.921  1.00  0.00    -0.374 OA
BRANCH   9  14
ATOM     14  C   UNL A   1      30.714  25.400  25.715  1.00  0.00     0.320 C 
ATOM     15  O   UNL A   1      29.690  25.265  26.393  1.00  0.00    -0.248 OA
BRANCH  14  16
ATOM     16  N   UNL A   1      30.986  26.588  25.076  1.00  0.00    -0.321 N 
ATOM     17  C   UNL A   1      31.940  27.699  25.253  1.00  0.00     0.089 C 
ATOM     18  C   UNL A   1      31.142  28.878  24.684  1.00  0.00     0.027 C 
ATOM     19  C   UNL A   1      30.570  28.261  23.418  1.00  0.00     0.024 C 
ATOM     20  C   UNL A   1      30.219  26.844  23.855  1.00  0.00     0.122 C 
BRANCH  17  21
ATOM     21  C   UNL A   1      32.588  27.961  26.611  1.00  0.00     0.005 C 
ATOM     22  C   UNL A   1      34.056  28.320  26.375  1.00  0.00     0.009 C 
ATOM     23  C   UNL A   1      31.948  29.107  27.404  1.00  0.00     0.009 C 
ENDBRANCH  17  21
ENDBRANCH  14  16
ENDBRANCH   9  14
ENDBRANCH   7   8
ENDBRANCH   4   7
ENDBRANCH   2   3
ENDBRANCH   1   2
BRANCH   1  24
ATOM     24  C   UNL A   1      37.342  22.070  25.566  1.00  0.00     0.002 C 
BRANCH  24  25
ATOM     25  C   UNL A   1      37.226  20.848  24.646  1.00  0.00     0.002 C 
BRANCH  25  26
ATOM     26  C   UNL A   1      38.212  19.711  24.925  1.00  0.00     0.021 C 
BRANCH  26  27
ATOM     27  C   UNL A   1      39.232  19.998  26.022  1.00  0.00     0.116 C 
BRANCH  27  28
ATOM     28  N   UNL A   1      40.341  19.057  26.004  1.00  0.00    -0.352 N 
ATOM     29  C   UNL A   1      41.687  19.293  26.052  1.00  0.00     0.251 C 
ATOM     30  H   UNL A   1      40.084  18.109  25.950  1.00  0.00     0.163 HD
ATOM     31  O   UNL A   1      42.483  18.382  25.825  1.00  0.00    -0.269 OA
BRANCH  29  32
ATOM     32  C   UNL A   1      42.186  20.644  26.366  1.00  0.00     0.039 A 
ATOM     33  C   UNL A   1      42.444  21.529  25.317  1.00  0.00     0.014 A 
ATOM     34  C   UNL A   1      42.419  21.028  27.689  1.00  0.00     0.014 A 
ATOM     35  C   UNL A   1      42.895  22.817  25.599  1.00  0.00     0.010 A 
ATOM     36  C   UNL A   1      42.786  22.338  27.974  1.00  0.00     0.010 A 
ATOM     37  C   UNL A   1      43.045  23.238  26.931  1.00  0.00    -0.014 A 
BRANCH  37  38
ATOM     38  C   UNL A   1      43.498  24.614  27.247  1.00  0.00     0.031 A 
ATOM     39  C   UNL A   1      42.514  25.626  27.767  1.00  0.00     0.074 A 
ATOM     40  C   UNL A   1      44.779  24.958  27.023  1.00  0.00     0.049 A 
ATOM     41  N   UNL A   1      42.704  26.886  28.065  1.00  0.00    -0.248 NA
ATOM     42  C   UNL A   1      41.127  25.169  27.947  1.00  0.00     0.031 C 
ATOM     43  C   UNL A   1      45.809  24.072  26.477  1.00  0.00     0.029 A 
ATOM     44  N   UNL A   1      45.436  26.145  27.224  1.00  0.00    -0.354 N 
ATOM     45  C   UNL A   1      41.463  27.370  28.458  1.00  0.00     0.074 A 
ATOM     46  C   UNL A   1      40.514  26.292  28.294  1.00  0.00     0.031 C 
ATOM     47  C   UNL A   1      46.974  24.735  26.417  1.00  0.00     0.029 A 
ATOM     48  C   UNL A   1      46.765  26.103  26.881  1.00  0.00     0.049 A 
ATOM     49  H   UNL A   1      44.996  26.951  27.580  1.00  0.00     0.167 HD
ATOM     50  C   UNL A   1      41.149  28.597  28.939  1.00  0.00     0.037 A 
ATOM     51  C   UNL A   1      47.706  27.064  26.932  1.00  0.00     0.037 A 
ATOM     52  C   UNL A   1      42.105  29.658  29.114  1.00  0.00     0.049 A 
ATOM     53  C   UNL A   1      47.327  28.424  27.454  1.00  0.00     0.074 A 
ATOM     54  C   UNL A   1      41.905  30.923  29.638  1.00  0.00     0.029 A 
ATOM     55  N   UNL A   1      43.445  29.578  28.761  1.00  0.00    -0.354 N 
ATOM     56  N   UNL A   1      46.167  28.851  27.891  1.00  0.00    -0.248 NA
ATOM     57  C   UNL A   1      48.393  29.434  27.500  1.00  0.00     0.031 C 
ATOM     58  C   UNL A   1      43.111  31.627  29.549  1.00  0.00     0.029 A 
ATOM     59  C   UNL A   1      44.078  30.780  29.031  1.00  0.00     0.049 A 
ATOM     60  H   UNL A   1      43.881  28.784  28.373  1.00  0.00     0.167 HD
ATOM     61  C   UNL A   1      46.368  30.165  28.291  1.00  0.00     0.074 A 
ATOM     62  C   UNL A   1      47.768  30.458  28.063  1.00  0.00     0.031 C 
ATOM     63  C   UNL A   1      45.476  31.049  28.802  1.00  0.00     0.037 A 
BRANCH  50  64
ATOM     64  C   UNL A   1      39.716  28.852  29.311  1.00  0.00     0.064 A 
ATOM     65  C   UNL A   1      38.785  29.336  28.378  1.00  0.00     0.173 A 
ATOM     66  C   UNL A   1      39.258  28.586  30.611  1.00  0.00     0.173 A 
ATOM     67  F   UNL A   1      39.171  29.620  27.125  1.00  0.00    -0.203 F 
ATOM     68  C   UNL A   1      37.463  29.579  28.741  1.00  0.00     0.198 A 
ATOM     69  C   UNL A   1      37.926  28.794  30.960  1.00  0.00     0.198 A 
ATOM     70  F   UNL A   1      40.102  28.117  31.543  1.00  0.00    -0.203 F 
ATOM     71  F   UNL A   1      36.609  30.098  27.848  1.00  0.00    -0.200 F 
ATOM     72  C   UNL A   1      37.032  29.300  30.029  1.00  0.00     0.200 A 
ATOM     73  F   UNL A   1      37.508  28.511  32.202  1.00  0.00    -0.200 F 
ATOM     74  F   UNL A   1      35.758  29.527  30.375  1.00  0.00    -0.200 F 
ENDBRANCH  50  64
BRANCH  51  75
ATOM     75  C   UNL A   1      49.099  26.767  26.506  1.00  0.00     0.064 A 
ATOM     76  C   UNL A   1      50.053  26.310  27.428  1.00  0.00     0.173 A 
ATOM     77  C   UNL A   1      49.510  26.938  25.177  1.00  0.00     0.173 A 
ATOM     78  F   UNL A   1      49.714  26.145  28.715  1.00  0.00    -0.203 F 
ATOM     79  C   UNL A   1      51.368  26.061  27.041  1.00  0.00     0.198 A 
ATOM     80  C   UNL A   1      50.818  26.657  24.784  1.00  0.00     0.198 A 
ATOM     81  F   UNL A   1      48.637  27.364  24.253  1.00  0.00    -0.203 F 
ATOM     82  F   UNL A   1      52.269  25.673  27.953  1.00  0.00    -0.200 F 
ATOM     83  C   UNL A   1      51.747  26.228  25.718  1.00  0.00     0.200 A 
ATOM     84  F   UNL A   1      51.175  26.802  23.501  1.00  0.00    -0.200 F 
ATOM     85  F   UNL A   1      53.011  25.984  25.346  1.00  0.00    -0.200 F 
ENDBRANCH  51  75
BRANCH  63  86
ATOM     86  C   UNL A   1      45.998  32.404  29.189  1.00  0.00     0.064 A 
ATOM     87  C   UNL A   1      45.986  33.484  28.295  1.00  0.00     0.173 A 
ATOM     88  C   UNL A   1      46.485  32.630  30.486  1.00  0.00     0.173 A 
ATOM     89  F   UNL A   1      45.544  33.318  27.040  1.00  0.00    -0.203 F 
ATOM     90  C   UNL A   1      46.474  34.733  28.675  1.00  0.00     0.198 A 
ATOM     91  C   UNL A   1      46.936  33.888  30.874  1.00  0.00     0.198 A 
ATOM     92  F   UNL A   1      46.509  31.633  31.383  1.00  0.00    -0.203 F 
ATOM     93  F   UNL A   1      46.507  35.734  27.786  1.00  0.00    -0.200 F 
ATOM     94  C   UNL A   1      46.940  34.934  29.965  1.00  0.00     0.200 A 
ATOM     95  F   UNL A   1      47.370  34.086  32.126  1.00  0.00    -0.200 F 
ATOM     96  F   UNL A   1      47.402  36.138  30.330  1.00  0.00    -0.200 F 
ENDBRANCH  63  86
ENDBRANCH  37  38
ENDBRANCH  29  32
ENDBRANCH  27  28
ENDBRANCH  26  27
ENDBRANCH  25  26
ENDBRANCH  24  25
ENDBRANCH   1  24
TORSDOF 17
ENDMDL
MODEL 3
REMARK VINA RESULT:     -11.5      0.683      7.235
REMARK SMILES CC(C)[C@@H]1CCCN1C(=O)N1CCO[C@H](CC(=O)NCCCCCCNC(=O)c2ccc(-c3c4nc(c(-c5c(F)c(F)c(F)c(F)c5F)c5ccc([nH]5)c(-c5c(F)c(F)c(F)c(F)c5F)c5nc(c(-c6c(F)c(F)c(F)c(F)c6F)c6ccc3[nH]6)C=C5)C=C4)cc2)C1
REMARK SMILES IDX 21 1 20 2 19 3 17 4 18 5 16 7 15 8 11 9 12 10 92 11 13 12
REMARK SMILES IDX 14 13 9 14 10 15 8 16 4 17 5 18 6 19 7 20 2 21 1 22 3 23
REMARK SMILES IDX 22 24 23 25 24 26 25 27 26 28 27 29 28 31 29 32 30 33 91 34
REMARK SMILES IDX 31 35 90 36 32 37 33 38 34 39 84 40 35 41 89 42 83 43 85 44
REMARK SMILES IDX 36 45 88 46 82 47 81 48 37 50 69 51 49 52 68 53 50 54 53 55
REMARK SMILES IDX 67 56 86 57 51 58 52 59 66 61 87 62 54 63 38 64 39 65 47 66
REMARK SMILES IDX 40 67 41 68 45 69 48 70 42 71 43 72 46 73 44 74 70 75 71 76
REMARK SMILES IDX 79 77 72 78 73 79 77 80 80 81 74 82 75 83 78 84 76 85 55 86
REMARK SMILES IDX 56 87 64 88 57 89 58 90 62 91 65 92 59 93 60 94 63 95 61 96
REMARK H PARENT 19 6 26 30 85 49 53 60
REMARK Flexibility Score: inf
ROOT
ATOM      1  C   UNL A   1      37.100  23.372  24.972  1.00  0.00     0.021 C 
ENDROOT
BRANCH   1   2
ATOM      2  C   UNL A   1      35.571  23.269  24.955  1.00  0.00     0.116 C 
BRANCH   2   3
ATOM      3  N   UNL A   1      35.024  23.723  23.697  1.00  0.00    -0.356 N 
ATOM      4  C   UNL A   1      33.943  23.467  22.941  1.00  0.00     0.222 C 
ATOM      5  O   UNL A   1      33.818  24.281  22.006  1.00  0.00    -0.275 OA
ATOM      6  H   UNL A   1      35.600  24.405  23.282  1.00  0.00     0.163 HD
BRANCH   4   7
ATOM      7  C   UNL A   1      32.801  22.471  23.131  1.00  0.00     0.133 C 
BRANCH   7   8
ATOM      8  C   UNL A   1      31.681  22.362  24.178  1.00  0.00     0.147 C 
ATOM      9  N   UNL A   1      31.332  24.501  25.471  1.00  0.00    -0.320 N 
ATOM     10  C   UNL A   1      31.548  23.729  26.697  1.00  0.00     0.150 C 
ATOM     11  C   UNL A   1      30.839  23.634  24.412  1.00  0.00     0.154 C 
ATOM     12  C   UNL A   1      32.208  22.346  26.532  1.00  0.00     0.182 C 
ATOM     13  O   UNL A   1      31.931  21.603  25.351  1.00  0.00    -0.374 OA
BRANCH   9  14
ATOM     14  C   UNL A   1      30.530  25.625  25.657  1.00  0.00     0.320 C 
ATOM     15  O   UNL A   1      29.571  25.559  26.434  1.00  0.00    -0.248 OA
BRANCH  14  16
ATOM     16  N   UNL A   1      30.832  26.798  25.006  1.00  0.00    -0.321 N 
ATOM     17  C   UNL A   1      31.881  27.830  25.101  1.00  0.00     0.089 C 
ATOM     18  C   UNL A   1      31.126  29.075  24.619  1.00  0.00     0.027 C 
ATOM     19  C   UNL A   1      30.393  28.523  23.408  1.00  0.00     0.024 C 
ATOM     20  C   UNL A   1      29.976  27.130  23.864  1.00  0.00     0.122 C 
BRANCH  17  21
ATOM     21  C   UNL A   1      32.671  28.022  26.394  1.00  0.00     0.005 C 
ATOM     22  C   UNL A   1      33.620  29.205  26.199  1.00  0.00     0.009 C 
ATOM     23  C   UNL A   1      31.804  28.316  27.624  1.00  0.00     0.009 C 
ENDBRANCH  17  21
ENDBRANCH  14  16
ENDBRANCH   9  14
ENDBRANCH   7   8
ENDBRANCH   4   7
ENDBRANCH   2   3
ENDBRANCH   1   2
BRANCH   1  24
ATOM     24  C   UNL A   1      37.795  22.112  25.501  1.00  0.00     0.002 C 
BRANCH  24  25
ATOM     25  C   UNL A   1      37.472  20.819  24.741  1.00  0.00     0.002 C 
BRANCH  25  26
ATOM     26  C   UNL A   1      38.414  19.641  25.005  1.00  0.00     0.021 C 
BRANCH  26  27
ATOM     27  C   UNL A   1      39.397  19.847  26.153  1.00  0.00     0.116 C 
BRANCH  27  28
ATOM     28  N   UNL A   1      40.523  18.930  26.087  1.00  0.00    -0.352 N 
ATOM     29  C   UNL A   1      41.864  19.194  26.049  1.00  0.00     0.251 C 
ATOM     30  H   UNL A   1      40.284  17.975  26.066  1.00  0.00     0.163 HD
ATOM     31  O   UNL A   1      42.665  18.295  25.793  1.00  0.00    -0.269 OA
BRANCH  29  32
ATOM     32  C   UNL A   1      42.351  20.562  26.306  1.00  0.00     0.039 A 
ATOM     33  C   UNL A   1      42.617  21.399  25.220  1.00  0.00     0.014 A 
ATOM     34  C   UNL A   1      42.565  21.009  27.613  1.00  0.00     0.014 A 
ATOM     35  C   UNL A   1      43.057  22.701  25.447  1.00  0.00     0.010 A 
ATOM     36  C   UNL A   1      42.920  22.333  27.840  1.00  0.00     0.010 A 
ATOM     37  C   UNL A   1      43.187  23.185  26.760  1.00  0.00    -0.014 A 
BRANCH  37  38
ATOM     38  C   UNL A   1      43.628  24.577  27.018  1.00  0.00     0.031 A 
ATOM     39  C   UNL A   1      42.647  25.589  27.539  1.00  0.00     0.074 A 
ATOM     40  C   UNL A   1      44.895  24.933  26.738  1.00  0.00     0.049 A 
ATOM     41  N   UNL A   1      42.825  26.861  27.792  1.00  0.00    -0.248 NA
ATOM     42  C   UNL A   1      41.274  25.117  27.783  1.00  0.00     0.031 C 
ATOM     43  C   UNL A   1      45.920  24.046  26.184  1.00  0.00     0.029 A 
ATOM     44  N   UNL A   1      45.539  26.136  26.879  1.00  0.00    -0.354 N 
ATOM     45  C   UNL A   1      41.591  27.338  28.213  1.00  0.00     0.074 A 
ATOM     46  C   UNL A   1      40.655  26.240  28.116  1.00  0.00     0.031 C 
ATOM     47  C   UNL A   1      47.071  24.726  26.063  1.00  0.00     0.029 A 
ATOM     48  C   UNL A   1      46.855  26.104  26.491  1.00  0.00     0.049 A 
ATOM     49  H   UNL A   1      45.098  26.946  27.225  1.00  0.00     0.167 HD
ATOM     50  C   UNL A   1      41.273  28.574  28.667  1.00  0.00     0.037 A 
ATOM     51  C   UNL A   1      47.782  27.081  26.480  1.00  0.00     0.037 A 
ATOM     52  C   UNL A   1      42.217  29.655  28.774  1.00  0.00     0.049 A 
ATOM     53  C   UNL A   1      47.398  28.450  26.972  1.00  0.00     0.074 A 
ATOM     54  C   UNL A   1      42.015  30.933  29.266  1.00  0.00     0.029 A 
ATOM     55  N   UNL A   1      43.545  29.585  28.377  1.00  0.00    -0.354 N 
ATOM     56  N   UNL A   1      46.247  28.873  27.435  1.00  0.00    -0.248 NA
ATOM     57  C   UNL A   1      48.448  29.477  26.949  1.00  0.00     0.031 C 
ATOM     58  C   UNL A   1      43.205  31.652  29.113  1.00  0.00     0.029 A 
ATOM     59  C   UNL A   1      44.167  30.805  28.588  1.00  0.00     0.049 A 
ATOM     60  H   UNL A   1      43.981  28.786  28.000  1.00  0.00     0.167 HD
ATOM     61  C   UNL A   1      46.440  30.202  27.788  1.00  0.00     0.074 A 
ATOM     62  C   UNL A   1      47.827  30.509  27.502  1.00  0.00     0.031 C 
ATOM     63  C   UNL A   1      45.552  31.088  28.302  1.00  0.00     0.037 A 
BRANCH  50  64
ATOM     64  C   UNL A   1      39.850  28.818  29.080  1.00  0.00     0.064 A 
ATOM     65  C   UNL A   1      39.419  28.617  30.401  1.00  0.00     0.173 A 
ATOM     66  C   UNL A   1      38.906  29.284  28.150  1.00  0.00     0.173 A 
ATOM     67  F   UNL A   1      40.275  28.160  31.329  1.00  0.00    -0.203 F 
ATOM     68  C   UNL A   1      38.093  28.837  30.767  1.00  0.00     0.198 A 
ATOM     69  C   UNL A   1      37.590  29.538  28.528  1.00  0.00     0.198 A 
ATOM     70  F   UNL A   1      39.263  29.498  26.875  1.00  0.00    -0.203 F 
ATOM     71  F   UNL A   1      37.694  28.580  32.020  1.00  0.00    -0.200 F 
ATOM     72  C   UNL A   1      37.182  29.305  29.833  1.00  0.00     0.200 A 
ATOM     73  F   UNL A   1      36.715  30.004  27.627  1.00  0.00    -0.200 F 
ATOM     74  F   UNL A   1      35.909  29.522  30.187  1.00  0.00    -0.200 F 
ENDBRANCH  50  64
BRANCH  51  75
ATOM     75  C   UNL A   1      49.164  26.792  26.015  1.00  0.00     0.064 A 
ATOM     76  C   UNL A   1      49.534  27.002  24.678  1.00  0.00     0.173 A 
ATOM     77  C   UNL A   1      50.142  26.296  26.889  1.00  0.00     0.173 A 
ATOM     78  F   UNL A   1      48.631  27.460  23.798  1.00  0.00    -0.203 F 
ATOM     79  C   UNL A   1      50.819  26.703  24.230  1.00  0.00     0.198 A 
ATOM     80  C   UNL A   1      51.436  26.028  26.447  1.00  0.00     0.198 A 
ATOM     81  F   UNL A   1      49.844  26.085  28.180  1.00  0.00    -0.203 F 
ATOM     82  F   UNL A   1      51.129  26.866  22.936  1.00  0.00    -0.200 F 
ATOM     83  C   UNL A   1      51.770  26.222  25.116  1.00  0.00     0.200 A 
ATOM     84  F   UNL A   1      52.357  25.581  27.310  1.00  0.00    -0.200 F 
ATOM     85  F   UNL A   1      53.007  25.938  24.685  1.00  0.00    -0.200 F 
ENDBRANCH  51  75
BRANCH  63  86
ATOM     86  C   UNL A   1      46.064  32.462  28.628  1.00  0.00     0.064 A 
ATOM     87  C   UNL A   1      45.985  33.519  27.710  1.00  0.00     0.173 A 
ATOM     88  C   UNL A   1      46.612  32.731  29.893  1.00  0.00     0.173 A 
ATOM     89  F   UNL A   1      45.484  33.312  26.483  1.00  0.00    -0.203 F 
ATOM     90  C   UNL A   1      46.465  34.786  28.033  1.00  0.00     0.198 A 
ATOM     91  C   UNL A   1      47.055  34.007  30.226  1.00  0.00     0.198 A 
ATOM     92  F   UNL A   1      46.702  31.758  30.812  1.00  0.00    -0.203 F 
ATOM     93  F   UNL A   1      46.433  35.764  27.119  1.00  0.00    -0.200 F 
ATOM     94  C   UNL A   1      46.992  35.029  29.292  1.00  0.00     0.200 A 
ATOM     95  F   UNL A   1      47.547  34.245  31.449  1.00  0.00    -0.200 F 
ATOM     96  F   UNL A   1      47.446  36.251  29.604  1.00  0.00    -0.200 F 
ENDBRANCH  63  86
ENDBRANCH  37  38
ENDBRANCH  29  32
ENDBRANCH  27  28
ENDBRANCH  26  27
ENDBRANCH  25  26
ENDBRANCH  24  25
ENDBRANCH   1  24
TORSDOF 17
ENDMDL
