MODEL 1
REMARK VINA RESULT:     -12.9      0.000      0.000
REMARK SMILES O=C(NCCCCCCNC(=O)[C@@H]1C=C[C@@H]([NH+]2CC3(CCOCC3)C2)C1)c1ccc(-c2c3nc(c(-c4c(F)c(F)c(F)c(F)c4F)c4ccc([nH]4)c(-c4c(F)c(F)c(F)c(F)c4F)c4nc(c(-c5c(F)c(F)c(F)c(F)c5F)c5ccc2[nH]5)C=C4)C=C3)cc1
REMARK SMILES IDX 6 1 5 2 4 3 3 4 1 5 2 6 27 8 28 9 89 10 29 11 88 12 30 13
REMARK SMILES IDX 31 14 32 15 82 16 33 17 87 18 81 19 83 20 34 21 86 22 80 23
REMARK SMILES IDX 79 24 35 26 67 27 47 28 66 29 48 30 51 31 65 32 84 33 49 34
REMARK SMILES IDX 50 35 64 37 85 38 52 39 36 40 37 41 45 42 38 43 39 44 43 45
REMARK SMILES IDX 46 46 40 47 41 48 44 49 42 50 68 51 69 52 77 53 70 54 71 55
REMARK SMILES IDX 75 56 78 57 72 58 73 59 76 60 74 61 53 62 54 63 62 64 55 65
REMARK SMILES IDX 56 66 60 67 63 68 57 69 58 70 61 71 59 72 7 73 8 74 9 75
REMARK SMILES IDX 10 76 11 77 12 79 13 80 14 81 26 82 15 83 16 84 17 85 18 86
REMARK SMILES IDX 25 87 19 89 20 90 24 91 21 92 23 93 22 94
REMARK H PARENT 3 7 83 25 51 36 10 78 17 88
REMARK Flexibility Score: inf
ROOT
ATOM      1  C   UNL A   1      31.344  31.001  25.872  1.00  0.00     0.002 C 
ENDROOT
BRANCH   1   2
ATOM      2  C   UNL A   1      31.265  32.394  26.501  1.00  0.00     0.021 C 
BRANCH   2   3
ATOM      3  C   UNL A   1      32.523  32.837  27.243  1.00  0.00     0.116 C 
BRANCH   3   4
ATOM      4  N   UNL A   1      32.422  34.204  27.728  1.00  0.00    -0.352 N 
ATOM      5  O   UNL A   1      32.769  35.937  29.127  1.00  0.00    -0.269 OA
ATOM      6  C   UNL A   1      33.120  34.832  28.729  1.00  0.00     0.251 C 
ATOM      7  H   UNL A   1      31.754  34.763  27.270  1.00  0.00     0.163 HD
BRANCH   6   8
ATOM      8  C   UNL A   1      34.290  34.170  29.343  1.00  0.00     0.039 A 
ATOM      9  C   UNL A   1      34.130  33.196  30.333  1.00  0.00     0.014 A 
ATOM     10  C   UNL A   1      35.568  34.511  28.893  1.00  0.00     0.014 A 
ATOM     11  C   UNL A   1      35.248  32.646  30.954  1.00  0.00     0.010 A 
ATOM     12  C   UNL A   1      36.687  33.906  29.467  1.00  0.00     0.010 A 
ATOM     13  C   UNL A   1      36.537  32.987  30.519  1.00  0.00    -0.014 A 
BRANCH  13  14
ATOM     14  C   UNL A   1      37.731  32.351  31.127  1.00  0.00     0.031 A 
ATOM     15  C   UNL A   1      38.459  31.252  30.412  1.00  0.00     0.074 A 
ATOM     16  C   UNL A   1      38.128  32.739  32.353  1.00  0.00     0.049 A 
ATOM     17  N   UNL A   1      39.448  30.503  30.831  1.00  0.00    -0.248 NA
ATOM     18  C   UNL A   1      38.008  30.945  29.048  1.00  0.00     0.031 C 
ATOM     19  C   UNL A   1      37.499  33.797  33.144  1.00  0.00     0.029 A 
ATOM     20  N   UNL A   1      39.138  32.275  33.157  1.00  0.00    -0.354 N 
ATOM     21  C   UNL A   1      39.720  29.620  29.795  1.00  0.00     0.074 A 
ATOM     22  C   UNL A   1      38.775  29.909  28.736  1.00  0.00     0.031 C 
ATOM     23  C   UNL A   1      38.135  33.902  34.320  1.00  0.00     0.029 A 
ATOM     24  C   UNL A   1      39.172  32.878  34.390  1.00  0.00     0.049 A 
ATOM     25  H   UNL A   1      39.776  31.580  32.877  1.00  0.00     0.167 HD
ATOM     26  C   UNL A   1      40.674  28.658  29.735  1.00  0.00     0.037 A 
ATOM     27  C   UNL A   1      39.924  32.609  35.474  1.00  0.00     0.037 A 
ATOM     28  C   UNL A   1      41.608  28.381  30.797  1.00  0.00     0.049 A 
ATOM     29  C   UNL A   1      40.941  31.507  35.406  1.00  0.00     0.074 A 
ATOM     30  C   UNL A   1      42.638  27.457  30.821  1.00  0.00     0.029 A 
ATOM     31  N   UNL A   1      41.611  29.014  32.033  1.00  0.00    -0.354 N 
ATOM     32  N   UNL A   1      41.220  30.702  34.410  1.00  0.00    -0.248 NA
ATOM     33  C   UNL A   1      41.751  31.275  36.609  1.00  0.00     0.031 C 
ATOM     34  C   UNL A   1      43.221  27.486  32.092  1.00  0.00     0.029 A 
ATOM     35  C   UNL A   1      42.605  28.479  32.838  1.00  0.00     0.049 A 
ATOM     36  H   UNL A   1      40.998  29.738  32.299  1.00  0.00     0.167 HD
ATOM     37  C   UNL A   1      42.255  29.890  34.851  1.00  0.00     0.074 A 
ATOM     38  C   UNL A   1      42.556  30.299  36.208  1.00  0.00     0.031 C 
ATOM     39  C   UNL A   1      42.902  28.903  34.184  1.00  0.00     0.037 A 
BRANCH  26  40
ATOM     40  C   UNL A   1      40.726  27.809  28.496  1.00  0.00     0.064 A 
ATOM     41  C   UNL A   1      40.019  26.601  28.391  1.00  0.00     0.173 A 
ATOM     42  C   UNL A   1      41.491  28.214  27.390  1.00  0.00     0.173 A 
ATOM     43  F   UNL A   1      39.277  26.161  29.419  1.00  0.00    -0.203 F 
ATOM     44  C   UNL A   1      40.115  25.809  27.248  1.00  0.00     0.198 A 
ATOM     45  C   UNL A   1      41.555  27.439  26.235  1.00  0.00     0.198 A 
ATOM     46  F   UNL A   1      42.178  29.365  27.428  1.00  0.00    -0.203 F 
ATOM     47  F   UNL A   1      39.485  24.626  27.200  1.00  0.00    -0.200 F 
ATOM     48  C   UNL A   1      40.878  26.230  26.170  1.00  0.00     0.200 A 
ATOM     49  F   UNL A   1      42.279  27.856  25.188  1.00  0.00    -0.200 F 
ATOM     50  F   UNL A   1      40.972  25.467  25.073  1.00  0.00    -0.200 F 
ENDBRANCH  26  40
BRANCH  27  51
ATOM     51  C   UNL A   1      39.717  33.405  36.711  1.00  0.00     0.064 A 
ATOM     52  C   UNL A   1      40.427  34.591  36.933  1.00  0.00     0.173 A 
ATOM     53  C   UNL A   1      38.762  33.024  37.665  1.00  0.00     0.173 A 
ATOM     54  F   UNL A   1      41.361  34.987  36.055  1.00  0.00    -0.203 F 
ATOM     55  C   UNL A   1      40.192  35.365  38.067  1.00  0.00     0.198 A 
ATOM     56  C   UNL A   1      38.508  33.814  38.783  1.00  0.00     0.198 A 
ATOM     57  F   UNL A   1      38.050  31.901  37.492  1.00  0.00    -0.203 F 
ATOM     58  F   UNL A   1      40.903  36.484  38.270  1.00  0.00    -0.200 F 
ATOM     59  C   UNL A   1      39.226  34.982  38.985  1.00  0.00     0.200 A 
ATOM     60  F   UNL A   1      37.558  33.450  39.656  1.00  0.00    -0.200 F 
ATOM     61  F   UNL A   1      38.987  35.740  40.065  1.00  0.00    -0.200 F 
ENDBRANCH  27  51
BRANCH  39  62
ATOM     62  C   UNL A   1      44.045  28.224  34.883  1.00  0.00     0.064 A 
ATOM     63  C   UNL A   1      45.342  28.755  34.874  1.00  0.00     0.173 A 
ATOM     64  C   UNL A   1      43.815  27.065  35.640  1.00  0.00     0.173 A 
ATOM     65  F   UNL A   1      45.618  29.852  34.152  1.00  0.00    -0.203 F 
ATOM     66  C   UNL A   1      46.369  28.146  35.592  1.00  0.00     0.198 A 
ATOM     67  C   UNL A   1      44.835  26.476  36.380  1.00  0.00     0.198 A 
ATOM     68  F   UNL A   1      42.590  26.518  35.684  1.00  0.00    -0.203 F 
ATOM     69  F   UNL A   1      47.609  28.653  35.545  1.00  0.00    -0.200 F 
ATOM     70  C   UNL A   1      46.112  27.016  36.354  1.00  0.00     0.200 A 
ATOM     71  F   UNL A   1      44.580  25.393  37.128  1.00  0.00    -0.200 F 
ATOM     72  F   UNL A   1      47.096  26.444  37.062  1.00  0.00    -0.200 F 
ENDBRANCH  39  62
ENDBRANCH  13  14
ENDBRANCH   6   8
ENDBRANCH   3   4
ENDBRANCH   2   3
ENDBRANCH   1   2
BRANCH   1  73
ATOM     73  C   UNL A   1      32.408  30.071  26.466  1.00  0.00     0.002 C 
BRANCH  73  74
ATOM     74  C   UNL A   1      31.863  28.875  27.249  1.00  0.00     0.021 C 
BRANCH  74  75
ATOM     75  C   UNL A   1      32.374  27.523  26.764  1.00  0.00     0.116 C 
BRANCH  75  76
ATOM     76  N   UNL A   1      31.424  26.446  27.017  1.00  0.00    -0.356 N 
ATOM     77  C   UNL A   1      30.653  25.732  26.126  1.00  0.00     0.227 C 
ATOM     78  H   UNL A   1      31.316  26.193  27.962  1.00  0.00     0.163 HD
ATOM     79  O   UNL A   1      29.885  24.875  26.556  1.00  0.00    -0.274 OA
BRANCH  77  80
ATOM     80  C   UNL A   1      30.821  26.049  24.640  1.00  0.00     0.107 C 
ATOM     81  C   UNL A   1      31.917  26.959  24.196  1.00  0.00    -0.012 C 
ATOM     82  C   UNL A   1      29.570  26.774  24.145  1.00  0.00     0.087 C 
ATOM     83  C   UNL A   1      31.458  28.034  23.539  1.00  0.00     0.033 C 
ATOM     84  C   UNL A   1      29.962  28.135  23.562  1.00  0.00     0.208 C 
BRANCH  84  85
ATOM     85  N   UNL A   1      29.354  28.580  22.302  1.00  0.00    -0.328 N 
ATOM     86  C   UNL A   1      29.835  29.904  21.851  1.00  0.00     0.275 C 
ATOM     87  C   UNL A   1      27.977  29.080  22.394  1.00  0.00     0.275 C 
ATOM     88  H   UNL A   1      29.531  27.743  21.748  1.00  0.00     0.348 HD
ATOM     89  C   UNL A   1      28.478  30.560  22.245  1.00  0.00     0.073 C 
ATOM     90  C   UNL A   1      27.653  31.266  21.154  1.00  0.00     0.047 C 
ATOM     91  C   UNL A   1      28.546  31.454  23.497  1.00  0.00     0.047 C 
ATOM     92  C   UNL A   1      28.118  32.704  20.964  1.00  0.00     0.161 C 
ATOM     93  C   UNL A   1      28.931  32.883  23.150  1.00  0.00     0.161 C 
ATOM     94  O   UNL A   1      28.028  33.420  22.195  1.00  0.00    -0.381 OA
ENDBRANCH  84  85
ENDBRANCH  77  80
ENDBRANCH  75  76
ENDBRANCH  74  75
ENDBRANCH  73  74
ENDBRANCH   1  73
TORSDOF 14
ENDMDL
MODEL 2
REMARK VINA RESULT:     -12.7      2.669      8.421
REMARK SMILES O=C(NCCCCCCNC(=O)[C@@H]1C=C[C@@H]([NH+]2CC3(CCOCC3)C2)C1)c1ccc(-c2c3nc(c(-c4c(F)c(F)c(F)c(F)c4F)c4ccc([nH]4)c(-c4c(F)c(F)c(F)c(F)c4F)c4nc(c(-c5c(F)c(F)c(F)c(F)c5F)c5ccc2[nH]5)C=C4)C=C3)cc1
REMARK SMILES IDX 6 1 5 2 4 3 3 4 1 5 2 6 27 8 28 9 89 10 29 11 88 12 30 13
REMARK SMILES IDX 31 14 32 15 82 16 33 17 87 18 81 19 83 20 34 21 86 22 80 23
REMARK SMILES IDX 79 24 35 26 67 27 47 28 66 29 48 30 51 31 65 32 84 33 49 34
REMARK SMILES IDX 50 35 64 37 85 38 52 39 36 40 37 41 45 42 38 43 39 44 43 45
REMARK SMILES IDX 46 46 40 47 41 48 44 49 42 50 68 51 69 52 77 53 70 54 71 55
REMARK SMILES IDX 75 56 78 57 72 58 73 59 76 60 74 61 53 62 54 63 62 64 55 65
REMARK SMILES IDX 56 66 60 67 63 68 57 69 58 70 61 71 59 72 7 73 8 74 9 75
REMARK SMILES IDX 10 76 11 77 12 79 13 80 14 81 26 82 15 83 16 84 17 85 18 86
REMARK SMILES IDX 25 87 19 89 20 90 24 91 21 92 23 93 22 94
REMARK H PARENT 3 7 83 25 51 36 10 78 17 88
REMARK Flexibility Score: inf
ROOT
ATOM      1  C   UNL A   1      34.588  33.803  29.035  1.00  0.00     0.002 C 
ENDROOT
BRANCH   1   2
ATOM      2  C   UNL A   1      33.255  34.553  28.984  1.00  0.00     0.021 C 
BRANCH   2   3
ATOM      3  C   UNL A   1      33.328  36.021  29.393  1.00  0.00     0.116 C 
BRANCH   3   4
ATOM      4  N   UNL A   1      32.492  36.313  30.546  1.00  0.00    -0.352 N 
ATOM      5  O   UNL A   1      31.680  36.061  32.634  1.00  0.00    -0.269 OA
ATOM      6  C   UNL A   1      32.588  35.855  31.836  1.00  0.00     0.251 C 
ATOM      7  H   UNL A   1      31.745  36.932  30.376  1.00  0.00     0.163 HD
BRANCH   6   8
ATOM      8  C   UNL A   1      33.781  35.096  32.265  1.00  0.00     0.039 A 
ATOM      9  C   UNL A   1      35.054  35.672  32.229  1.00  0.00     0.014 A 
ATOM     10  C   UNL A   1      33.612  33.793  32.742  1.00  0.00     0.014 A 
ATOM     11  C   UNL A   1      36.172  34.910  32.560  1.00  0.00     0.010 A 
ATOM     12  C   UNL A   1      34.727  33.053  33.142  1.00  0.00     0.010 A 
ATOM     13  C   UNL A   1      36.017  33.597  33.031  1.00  0.00    -0.014 A 
BRANCH  13  14
ATOM     14  C   UNL A   1      37.197  32.804  33.453  1.00  0.00     0.031 A 
ATOM     15  C   UNL A   1      37.905  33.113  34.739  1.00  0.00     0.074 A 
ATOM     16  C   UNL A   1      37.658  31.833  32.644  1.00  0.00     0.049 A 
ATOM     17  N   UNL A   1      39.013  32.607  35.218  1.00  0.00    -0.248 NA
ATOM     18  C   UNL A   1      37.290  34.135  35.597  1.00  0.00     0.031 C 
ATOM     19  C   UNL A   1      37.053  31.442  31.370  1.00  0.00     0.029 A 
ATOM     20  N   UNL A   1      38.752  31.012  32.760  1.00  0.00    -0.354 N 
ATOM     21  C   UNL A   1      39.244  33.266  36.418  1.00  0.00     0.074 A 
ATOM     22  C   UNL A   1      38.173  34.227  36.582  1.00  0.00     0.031 C 
ATOM     23  C   UNL A   1      37.783  30.460  30.822  1.00  0.00     0.029 A 
ATOM     24  C   UNL A   1      38.938  30.197  31.672  1.00  0.00     0.049 A 
ATOM     25  H   UNL A   1      39.343  31.008  33.548  1.00  0.00     0.167 HD
ATOM     26  C   UNL A   1      40.256  33.082  37.300  1.00  0.00     0.037 A 
ATOM     27  C   UNL A   1      39.949  29.362  31.369  1.00  0.00     0.037 A 
ATOM     28  C   UNL A   1      41.317  32.122  37.122  1.00  0.00     0.049 A 
ATOM     29  C   UNL A   1      41.088  29.208  32.336  1.00  0.00     0.074 A 
ATOM     30  C   UNL A   1      42.366  31.828  37.975  1.00  0.00     0.029 A 
ATOM     31  N   UNL A   1      41.472  31.313  36.005  1.00  0.00    -0.354 N 
ATOM     32  N   UNL A   1      41.280  29.805  33.486  1.00  0.00    -0.248 NA
ATOM     33  C   UNL A   1      42.151  28.264  31.965  1.00  0.00     0.031 C 
ATOM     34  C   UNL A   1      43.191  30.890  37.345  1.00  0.00     0.029 A 
ATOM     35  C   UNL A   1      42.618  30.542  36.132  1.00  0.00     0.049 A 
ATOM     36  H   UNL A   1      40.858  31.288  35.235  1.00  0.00     0.167 HD
ATOM     37  C   UNL A   1      42.464  29.289  33.994  1.00  0.00     0.074 A 
ATOM     38  C   UNL A   1      42.950  28.329  33.023  1.00  0.00     0.031 C 
ATOM     39  C   UNL A   1      43.084  29.580  35.163  1.00  0.00     0.037 A 
BRANCH  26  40
ATOM     40  C   UNL A   1      40.287  33.966  38.515  1.00  0.00     0.064 A 
ATOM     41  C   UNL A   1      40.984  35.184  38.532  1.00  0.00     0.173 A 
ATOM     42  C   UNL A   1      39.603  33.592  39.682  1.00  0.00     0.173 A 
ATOM     43  F   UNL A   1      41.662  35.590  37.447  1.00  0.00    -0.203 F 
ATOM     44  C   UNL A   1      41.033  35.969  39.683  1.00  0.00     0.198 A 
ATOM     45  C   UNL A   1      39.622  34.395  40.820  1.00  0.00     0.198 A 
ATOM     46  F   UNL A   1      38.910  32.443  39.721  1.00  0.00    -0.203 F 
ATOM     47  F   UNL A   1      41.762  37.094  39.694  1.00  0.00    -0.200 F 
ATOM     48  C   UNL A   1      40.349  35.576  40.823  1.00  0.00     0.200 A 
ATOM     49  F   UNL A   1      38.947  34.022  41.914  1.00  0.00    -0.200 F 
ATOM     50  F   UNL A   1      40.399  36.329  41.931  1.00  0.00    -0.200 F 
ENDBRANCH  26  40
BRANCH  27  51
ATOM     51  C   UNL A   1      39.915  28.624  30.081  1.00  0.00     0.064 A 
ATOM     52  C   UNL A   1      40.495  29.162  28.925  1.00  0.00     0.173 A 
ATOM     53  C   UNL A   1      39.353  27.341  29.996  1.00  0.00     0.173 A 
ATOM     54  F   UNL A   1      41.031  30.391  28.956  1.00  0.00    -0.203 F 
ATOM     55  C   UNL A   1      40.511  28.445  27.731  1.00  0.00     0.198 A 
ATOM     56  C   UNL A   1      39.396  26.614  28.809  1.00  0.00     0.198 A 
ATOM     57  F   UNL A   1      38.793  26.779  31.077  1.00  0.00    -0.203 F 
ATOM     58  F   UNL A   1      41.050  28.992  26.633  1.00  0.00    -0.200 F 
ATOM     59  C   UNL A   1      39.971  27.169  27.676  1.00  0.00     0.200 A 
ATOM     60  F   UNL A   1      38.892  25.373  28.767  1.00  0.00    -0.200 F 
ATOM     61  F   UNL A   1      40.008  26.472  26.531  1.00  0.00    -0.200 F 
ENDBRANCH  27  51
BRANCH  39  62
ATOM     62  C   UNL A   1      44.332  28.815  35.500  1.00  0.00     0.064 A 
ATOM     63  C   UNL A   1      44.291  27.599  36.195  1.00  0.00     0.173 A 
ATOM     64  C   UNL A   1      45.579  29.271  35.046  1.00  0.00     0.173 A 
ATOM     65  F   UNL A   1      43.127  27.127  36.665  1.00  0.00    -0.203 F 
ATOM     66  C   UNL A   1      45.456  26.870  36.429  1.00  0.00     0.198 A 
ATOM     67  C   UNL A   1      46.736  28.528  35.254  1.00  0.00     0.198 A 
ATOM     68  F   UNL A   1      45.671  30.429  34.372  1.00  0.00    -0.203 F 
ATOM     69  F   UNL A   1      45.400  25.725  37.123  1.00  0.00    -0.200 F 
ATOM     70  C   UNL A   1      46.674  27.329  35.948  1.00  0.00     0.200 A 
ATOM     71  F   UNL A   1      47.908  28.965  34.775  1.00  0.00    -0.200 F 
ATOM     72  F   UNL A   1      47.790  26.616  36.155  1.00  0.00    -0.200 F 
ENDBRANCH  39  62
ENDBRANCH  13  14
ENDBRANCH   6   8
ENDBRANCH   3   4
ENDBRANCH   2   3
ENDBRANCH   1   2
BRANCH   1  73
ATOM     73  C   UNL A   1      34.486  32.275  28.987  1.00  0.00     0.002 C 
BRANCH  73  74
ATOM     74  C   UNL A   1      35.170  31.614  27.789  1.00  0.00     0.021 C 
BRANCH  74  75
ATOM     75  C   UNL A   1      34.907  30.117  27.664  1.00  0.00     0.116 C 
BRANCH  75  76
ATOM     76  N   UNL A   1      33.499  29.782  27.840  1.00  0.00    -0.356 N 
ATOM     77  C   UNL A   1      32.765  28.760  27.280  1.00  0.00     0.227 C 
ATOM     78  H   UNL A   1      33.000  30.374  28.448  1.00  0.00     0.163 HD
ATOM     79  O   UNL A   1      31.568  28.672  27.542  1.00  0.00    -0.274 OA
BRANCH  77  80
ATOM     80  C   UNL A   1      33.506  27.781  26.369  1.00  0.00     0.107 C 
ATOM     81  C   UNL A   1      33.904  28.204  24.995  1.00  0.00    -0.012 C 
ATOM     82  C   UNL A   1      32.603  26.580  26.095  1.00  0.00     0.087 C 
ATOM     83  C   UNL A   1      33.376  27.423  24.043  1.00  0.00     0.033 C 
ATOM     84  C   UNL A   1      32.391  26.431  24.585  1.00  0.00     0.208 C 
BRANCH  84  85
ATOM     85  N   UNL A   1      32.460  25.095  23.977  1.00  0.00    -0.328 N 
ATOM     86  C   UNL A   1      32.816  24.029  24.938  1.00  0.00     0.275 C 
ATOM     87  C   UNL A   1      33.658  24.815  23.177  1.00  0.00     0.275 C 
ATOM     88  H   UNL A   1      31.553  25.098  23.511  1.00  0.00     0.348 HD
ATOM     89  C   UNL A   1      34.244  23.917  24.323  1.00  0.00     0.073 C 
ATOM     90  C   UNL A   1      34.692  22.569  23.732  1.00  0.00     0.047 C 
ATOM     91  C   UNL A   1      35.364  24.484  25.215  1.00  0.00     0.047 C 
ATOM     92  C   UNL A   1      35.253  21.658  24.814  1.00  0.00     0.161 C 
ATOM     93  C   UNL A   1      35.895  23.441  26.185  1.00  0.00     0.161 C 
ATOM     94  O   UNL A   1      36.344  22.294  25.480  1.00  0.00    -0.381 OA
ENDBRANCH  84  85
ENDBRANCH  77  80
ENDBRANCH  75  76
ENDBRANCH  74  75
ENDBRANCH  73  74
ENDBRANCH   1  73
TORSDOF 14
ENDMDL
MODEL 3
REMARK VINA RESULT:     -12.7      1.711      7.605
REMARK SMILES O=C(NCCCCCCNC(=O)[C@@H]1C=C[C@@H]([NH+]2CC3(CCOCC3)C2)C1)c1ccc(-c2c3nc(c(-c4c(F)c(F)c(F)c(F)c4F)c4ccc([nH]4)c(-c4c(F)c(F)c(F)c(F)c4F)c4nc(c(-c5c(F)c(F)c(F)c(F)c5F)c5ccc2[nH]5)C=C4)C=C3)cc1
REMARK SMILES IDX 6 1 5 2 4 3 3 4 1 5 2 6 27 8 28 9 89 10 29 11 88 12 30 13
REMARK SMILES IDX 31 14 32 15 82 16 33 17 87 18 81 19 83 20 34 21 86 22 80 23
REMARK SMILES IDX 79 24 35 26 67 27 47 28 66 29 48 30 51 31 65 32 84 33 49 34
REMARK SMILES IDX 50 35 64 37 85 38 52 39 36 40 37 41 45 42 38 43 39 44 43 45
REMARK SMILES IDX 46 46 40 47 41 48 44 49 42 50 68 51 69 52 77 53 70 54 71 55
REMARK SMILES IDX 75 56 78 57 72 58 73 59 76 60 74 61 53 62 54 63 62 64 55 65
REMARK SMILES IDX 56 66 60 67 63 68 57 69 58 70 61 71 59 72 7 73 8 74 9 75
REMARK SMILES IDX 10 76 11 77 12 79 13 80 14 81 26 82 15 83 16 84 17 85 18 86
REMARK SMILES IDX 25 87 19 89 20 90 24 91 21 92 23 93 22 94
REMARK H PARENT 3 7 83 25 51 36 10 78 17 88
REMARK Flexibility Score: inf
ROOT
ATOM      1  C   UNL A   1      34.883  34.514  28.286  1.00  0.00     0.002 C 
ENDROOT
BRANCH   1   2
ATOM      2  C   UNL A   1      33.549  34.873  28.945  1.00  0.00     0.021 C 
BRANCH   2   3
ATOM      3  C   UNL A   1      33.438  36.316  29.429  1.00  0.00     0.116 C 
BRANCH   3   4
ATOM      4  N   UNL A   1      32.510  36.453  30.540  1.00  0.00    -0.352 N 
ATOM      5  O   UNL A   1      31.562  35.952  32.522  1.00  0.00    -0.269 OA
ATOM      6  C   UNL A   1      32.533  35.864  31.779  1.00  0.00     0.251 C 
ATOM      7  H   UNL A   1      31.751  37.059  30.379  1.00  0.00     0.163 HD
BRANCH   6   8
ATOM      8  C   UNL A   1      33.724  35.107  32.216  1.00  0.00     0.039 A 
ATOM      9  C   UNL A   1      34.993  35.694  32.216  1.00  0.00     0.014 A 
ATOM     10  C   UNL A   1      33.558  33.794  32.666  1.00  0.00     0.014 A 
ATOM     11  C   UNL A   1      36.110  34.935  32.554  1.00  0.00     0.010 A 
ATOM     12  C   UNL A   1      34.671  33.056  33.073  1.00  0.00     0.010 A 
ATOM     13  C   UNL A   1      35.958  33.613  32.997  1.00  0.00    -0.014 A 
BRANCH  13  14
ATOM     14  C   UNL A   1      37.137  32.822  33.427  1.00  0.00     0.031 A 
ATOM     15  C   UNL A   1      37.829  33.125  34.723  1.00  0.00     0.074 A 
ATOM     16  C   UNL A   1      37.610  31.857  32.617  1.00  0.00     0.049 A 
ATOM     17  N   UNL A   1      38.935  32.621  35.210  1.00  0.00    -0.248 NA
ATOM     18  C   UNL A   1      37.201  34.139  35.581  1.00  0.00     0.031 C 
ATOM     19  C   UNL A   1      37.021  31.473  31.334  1.00  0.00     0.029 A 
ATOM     20  N   UNL A   1      38.706  31.041  32.740  1.00  0.00    -0.354 N 
ATOM     21  C   UNL A   1      39.149  33.272  36.417  1.00  0.00     0.074 A 
ATOM     22  C   UNL A   1      38.073  34.229  36.576  1.00  0.00     0.031 C 
ATOM     23  C   UNL A   1      37.760  30.497  30.787  1.00  0.00     0.029 A 
ATOM     24  C   UNL A   1      38.908  30.233  31.648  1.00  0.00     0.049 A 
ATOM     25  H   UNL A   1      39.289  31.034  33.533  1.00  0.00     0.167 HD
ATOM     26  C   UNL A   1      40.153  33.087  37.309  1.00  0.00     0.037 A 
ATOM     27  C   UNL A   1      39.925  29.404  31.351  1.00  0.00     0.037 A 
ATOM     28  C   UNL A   1      41.219  32.132  37.136  1.00  0.00     0.049 A 
ATOM     29  C   UNL A   1      41.054  29.248  32.329  1.00  0.00     0.074 A 
ATOM     30  C   UNL A   1      42.261  31.837  37.998  1.00  0.00     0.029 A 
ATOM     31  N   UNL A   1      41.389  31.331  36.015  1.00  0.00    -0.354 N 
ATOM     32  N   UNL A   1      41.231  29.839  33.485  1.00  0.00    -0.248 NA
ATOM     33  C   UNL A   1      42.125  28.311  31.964  1.00  0.00     0.031 C 
ATOM     34  C   UNL A   1      43.096  30.906  37.371  1.00  0.00     0.029 A 
ATOM     35  C   UNL A   1      42.537  30.564  36.150  1.00  0.00     0.049 A 
ATOM     36  H   UNL A   1      40.784  31.309  35.239  1.00  0.00     0.167 HD
ATOM     37  C   UNL A   1      42.412  29.324  34.002  1.00  0.00     0.074 A 
ATOM     38  C   UNL A   1      42.912  28.372  33.031  1.00  0.00     0.031 C 
ATOM     39  C   UNL A   1      43.018  29.611  35.180  1.00  0.00     0.037 A 
BRANCH  26  40
ATOM     40  C   UNL A   1      40.167  33.964  38.530  1.00  0.00     0.064 A 
ATOM     41  C   UNL A   1      39.520  33.595  39.719  1.00  0.00     0.173 A 
ATOM     42  C   UNL A   1      40.847  35.192  38.512  1.00  0.00     0.173 A 
ATOM     43  F   UNL A   1      38.849  32.435  39.792  1.00  0.00    -0.203 F 
ATOM     44  C   UNL A   1      39.513  34.443  40.826  1.00  0.00     0.198 A 
ATOM     45  C   UNL A   1      40.869  36.021  39.631  1.00  0.00     0.198 A 
ATOM     46  F   UNL A   1      41.494  35.592  37.406  1.00  0.00    -0.203 F 
ATOM     47  F   UNL A   1      38.829  34.099  41.926  1.00  0.00    -0.200 F 
ATOM     48  C   UNL A   1      40.190  35.651  40.782  1.00  0.00     0.200 A 
ATOM     49  F   UNL A   1      41.539  37.180  39.592  1.00  0.00    -0.200 F 
ATOM     50  F   UNL A   1      40.180  36.468  41.845  1.00  0.00    -0.200 F 
ENDBRANCH  26  40
BRANCH  27  51
ATOM     51  C   UNL A   1      39.908  28.674  30.058  1.00  0.00     0.064 A 
ATOM     52  C   UNL A   1      40.504  29.219  28.914  1.00  0.00     0.173 A 
ATOM     53  C   UNL A   1      39.346  27.392  29.957  1.00  0.00     0.173 A 
ATOM     54  F   UNL A   1      41.040  30.448  28.959  1.00  0.00    -0.203 F 
ATOM     55  C   UNL A   1      40.535  28.510  27.715  1.00  0.00     0.198 A 
ATOM     56  C   UNL A   1      39.405  26.673  28.767  1.00  0.00     0.198 A 
ATOM     57  F   UNL A   1      38.772  26.824  31.028  1.00  0.00    -0.203 F 
ATOM     58  F   UNL A   1      41.089  29.064  26.628  1.00  0.00    -0.200 F 
ATOM     59  C   UNL A   1      39.996  27.234  27.645  1.00  0.00     0.200 A 
ATOM     60  F   UNL A   1      38.901  25.433  28.710  1.00  0.00    -0.200 F 
ATOM     61  F   UNL A   1      40.047  26.545  26.496  1.00  0.00    -0.200 F 
ENDBRANCH  27  51
BRANCH  39  62
ATOM     62  C   UNL A   1      44.265  28.848  35.526  1.00  0.00     0.064 A 
ATOM     63  C   UNL A   1      45.541  29.327  35.203  1.00  0.00     0.173 A 
ATOM     64  C   UNL A   1      44.177  27.657  36.264  1.00  0.00     0.173 A 
ATOM     65  F   UNL A   1      45.680  30.451  34.485  1.00  0.00    -0.203 F 
ATOM     66  C   UNL A   1      46.686  28.637  35.601  1.00  0.00     0.198 A 
ATOM     67  C   UNL A   1      45.320  26.987  36.685  1.00  0.00     0.198 A 
ATOM     68  F   UNL A   1      42.977  27.157  36.601  1.00  0.00    -0.203 F 
ATOM     69  F   UNL A   1      47.896  29.096  35.256  1.00  0.00    -0.200 F 
ATOM     70  C   UNL A   1      46.574  27.476  36.352  1.00  0.00     0.200 A 
ATOM     71  F   UNL A   1      45.210  25.874  37.424  1.00  0.00    -0.200 F 
ATOM     72  F   UNL A   1      47.676  26.827  36.752  1.00  0.00    -0.200 F 
ENDBRANCH  39  62
ENDBRANCH  13  14
ENDBRANCH   6   8
ENDBRANCH   3   4
ENDBRANCH   2   3
ENDBRANCH   1   2
BRANCH   1  73
ATOM     73  C   UNL A   1      35.246  33.026  28.304  1.00  0.00     0.002 C 
BRANCH  73  74
ATOM     74  C   UNL A   1      34.076  32.074  28.561  1.00  0.00     0.021 C 
BRANCH  74  75
ATOM     75  C   UNL A   1      33.495  31.441  27.300  1.00  0.00     0.116 C 
BRANCH  75  76
ATOM     76  N   UNL A   1      34.160  30.193  26.947  1.00  0.00    -0.356 N 
ATOM     77  C   UNL A   1      33.675  29.110  26.247  1.00  0.00     0.227 C 
ATOM     78  H   UNL A   1      35.092  30.112  27.253  1.00  0.00     0.163 HD
ATOM     79  O   UNL A   1      34.401  28.133  26.082  1.00  0.00    -0.274 OA
BRANCH  77  80
ATOM     80  C   UNL A   1      32.250  29.207  25.703  1.00  0.00     0.107 C 
ATOM     81  C   UNL A   1      31.278  28.107  25.973  1.00  0.00    -0.012 C 
ATOM     82  C   UNL A   1      32.303  29.232  24.177  1.00  0.00     0.087 C 
ATOM     83  C   UNL A   1      30.799  27.557  24.849  1.00  0.00     0.033 C 
ATOM     84  C   UNL A   1      31.481  28.068  23.615  1.00  0.00     0.208 C 
BRANCH  84  85
ATOM     85  N   UNL A   1      30.593  28.301  22.469  1.00  0.00    -0.328 N 
ATOM     86  C   UNL A   1      30.596  29.702  21.997  1.00  0.00     0.275 C 
ATOM     87  C   UNL A   1      29.159  28.376  22.772  1.00  0.00     0.275 C 
ATOM     88  H   UNL A   1      30.924  27.546  21.868  1.00  0.00     0.348 HD
ATOM     89  C   UNL A   1      29.178  29.935  22.601  1.00  0.00     0.073 C 
ATOM     90  C   UNL A   1      28.034  30.357  21.662  1.00  0.00     0.047 C 
ATOM     91  C   UNL A   1      29.164  30.824  23.859  1.00  0.00     0.047 C 
ATOM     92  C   UNL A   1      28.026  31.865  21.455  1.00  0.00     0.161 C 
ATOM     93  C   UNL A   1      29.060  32.299  23.507  1.00  0.00     0.161 C 
ATOM     94  O   UNL A   1      27.911  32.536  22.709  1.00  0.00    -0.381 OA
ENDBRANCH  84  85
ENDBRANCH  77  80
ENDBRANCH  75  76
ENDBRANCH  74  75
ENDBRANCH  73  74
ENDBRANCH   1  73
TORSDOF 14
ENDMDL
