MODEL 1
REMARK VINA RESULT:     -12.4      0.000      0.000
REMARK SMILES Cc1onc(-c2cccc(Br)c2)c1C(=O)NCCCCCCNC(=O)c1ccc(-c2c3nc(c(-c4c(F)c(F)c(F)c(F)c4F)c4ccc([nH]4)c(-c4c(F)c(F)c(F)c(F)c4F)c4nc(c(-c5c(F)c(F)c(F)c(F)c5F)c5ccc2[nH]5)C=C4)C=C3)cc1
REMARK SMILES IDX 20 1 19 2 18 3 17 4 16 5 14 6 15 7 13 9 1 10 2 11 3 12 4 13
REMARK SMILES IDX 5 14 6 15 7 16 12 17 8 18 10 19 9 20 11 21 21 22 22 23 23 24
REMARK SMILES IDX 24 25 25 27 26 28 27 29 88 30 28 31 87 32 29 33 30 34 31 35
REMARK SMILES IDX 81 36 32 37 86 38 80 39 82 40 33 41 85 42 79 43 78 44 34 46
REMARK SMILES IDX 66 47 46 48 65 49 47 50 50 51 64 52 83 53 48 54 49 55 63 57
REMARK SMILES IDX 84 58 51 59 35 60 36 61 44 62 37 63 38 64 42 65 45 66 39 67
REMARK SMILES IDX 40 68 43 69 41 70 67 71 68 72 76 73 69 74 70 75 74 76 77 77
REMARK SMILES IDX 71 78 72 79 75 80 73 81 52 82 53 83 61 84 54 85 55 86 59 87
REMARK SMILES IDX 62 88 56 89 57 90 60 91 58 92
REMARK H PARENT 16 8 23 26 82 45 50 56
REMARK Flexibility Score: inf
ROOT
ATOM      1  C   UNL A   1      31.404  30.870  26.092  1.00  0.00     0.002 C 
ENDROOT
BRANCH   1   2
ATOM      2  C   UNL A   1      32.339  30.023  26.965  1.00  0.00     0.002 C 
BRANCH   2   3
ATOM      3  C   UNL A   1      33.516  29.381  26.213  1.00  0.00     0.021 C 
BRANCH   3   4
ATOM      4  C   UNL A   1      33.522  27.854  26.292  1.00  0.00     0.116 C 
BRANCH   4   5
ATOM      5  N   UNL A   1      32.176  27.353  26.280  1.00  0.00    -0.352 N 
ATOM      6  C   UNL A   1      31.316  26.895  25.328  1.00  0.00     0.257 C 
ATOM      7  O   UNL A   1      30.229  26.562  25.810  1.00  0.00    -0.269 OA
ATOM      8  H   UNL A   1      31.778  27.336  27.180  1.00  0.00     0.163 HD
BRANCH   6   9
ATOM      9  C   UNL A   1      31.581  26.755  23.898  1.00  0.00     0.110 A 
ATOM     10  C   UNL A   1      33.783  25.328  23.278  1.00  0.00     0.092 C 
ATOM     11  C   UNL A   1      32.544  26.116  23.124  1.00  0.00     0.147 A 
ATOM     12  O   UNL A   1      32.244  26.274  21.805  1.00  0.00    -0.360 OA
ATOM     13  N   UNL A   1      31.136  27.051  21.652  1.00  0.00    -0.079 NA
ATOM     14  C   UNL A   1      30.747  27.382  22.887  1.00  0.00     0.126 A 
BRANCH  14  15
ATOM     15  C   UNL A   1      29.603  28.271  23.049  1.00  0.00     0.006 A 
ATOM     16  C   UNL A   1      28.311  27.746  23.196  1.00  0.00     0.010 A 
ATOM     17  C   UNL A   1      29.793  29.658  23.075  1.00  0.00     0.026 A 
ATOM     18  C   UNL A   1      27.214  28.597  23.327  1.00  0.00     0.002 A 
ATOM     19  C   UNL A   1      28.691  30.501  23.213  1.00  0.00     0.018 A 
ATOM     20  C   UNL A   1      27.404  29.978  23.333  1.00  0.00     0.016 A 
ATOM     21  Br  UNL A   1      28.945  32.374  23.233  1.00  0.00    -0.051 Br
ENDBRANCH  14  15
ENDBRANCH   6   9
ENDBRANCH   4   5
ENDBRANCH   3   4
ENDBRANCH   2   3
ENDBRANCH   1   2
BRANCH   1  22
ATOM     22  C   UNL A   1      31.305  32.342  26.501  1.00  0.00     0.021 C 
BRANCH  22  23
ATOM     23  C   UNL A   1      32.515  32.850  27.279  1.00  0.00     0.116 C 
BRANCH  23  24
ATOM     24  N   UNL A   1      32.382  34.261  27.608  1.00  0.00    -0.352 N 
ATOM     25  C   UNL A   1      32.993  34.981  28.597  1.00  0.00     0.251 C 
ATOM     26  H   UNL A   1      31.764  34.771  27.036  1.00  0.00     0.163 HD
ATOM     27  O   UNL A   1      32.574  36.100  28.898  1.00  0.00    -0.269 OA
BRANCH  25  28
ATOM     28  C   UNL A   1      34.152  34.415  29.311  1.00  0.00     0.039 A 
ATOM     29  C   UNL A   1      33.948  33.750  30.524  1.00  0.00     0.014 A 
ATOM     30  C   UNL A   1      35.444  34.557  28.794  1.00  0.00     0.014 A 
ATOM     31  C   UNL A   1      35.033  33.186  31.192  1.00  0.00     0.010 A 
ATOM     32  C   UNL A   1      36.513  33.928  29.422  1.00  0.00     0.010 A 
ATOM     33  C   UNL A   1      36.320  33.245  30.631  1.00  0.00    -0.014 A 
BRANCH  33  34
ATOM     34  C   UNL A   1      37.478  32.603  31.300  1.00  0.00     0.031 A 
ATOM     35  C   UNL A   1      38.208  31.475  30.628  1.00  0.00     0.074 A 
ATOM     36  C   UNL A   1      37.830  32.998  32.538  1.00  0.00     0.049 A 
ATOM     37  N   UNL A   1      39.201  30.748  31.075  1.00  0.00    -0.248 NA
ATOM     38  C   UNL A   1      37.742  31.093  29.285  1.00  0.00     0.031 C 
ATOM     39  C   UNL A   1      37.167  34.050  33.310  1.00  0.00     0.029 A 
ATOM     40  N   UNL A   1      38.827  32.553  33.370  1.00  0.00    -0.354 N 
ATOM     41  C   UNL A   1      39.468  29.819  30.077  1.00  0.00     0.074 A 
ATOM     42  C   UNL A   1      38.496  30.036  29.027  1.00  0.00     0.031 C 
ATOM     43  C   UNL A   1      37.789  34.187  34.491  1.00  0.00     0.029 A 
ATOM     44  C   UNL A   1      38.867  33.207  34.577  1.00  0.00     0.049 A 
ATOM     45  H   UNL A   1      39.453  31.834  33.124  1.00  0.00     0.167 HD
ATOM     46  C   UNL A   1      40.450  28.888  30.031  1.00  0.00     0.037 A 
ATOM     47  C   UNL A   1      39.679  33.028  35.636  1.00  0.00     0.037 A 
ATOM     48  C   UNL A   1      41.425  28.693  31.073  1.00  0.00     0.049 A 
ATOM     49  C   UNL A   1      40.754  31.978  35.566  1.00  0.00     0.074 A 
ATOM     50  C   UNL A   1      42.498  27.818  31.098  1.00  0.00     0.029 A 
ATOM     51  N   UNL A   1      41.442  29.381  32.278  1.00  0.00    -0.354 N 
ATOM     52  N   UNL A   1      41.043  31.154  34.588  1.00  0.00    -0.248 NA
ATOM     53  C   UNL A   1      41.617  31.837  36.746  1.00  0.00     0.031 C 
ATOM     54  C   UNL A   1      43.130  27.939  32.340  1.00  0.00     0.029 A 
ATOM     55  C   UNL A   1      42.489  28.930  33.066  1.00  0.00     0.049 A 
ATOM     56  H   UNL A   1      40.803  30.084  32.535  1.00  0.00     0.167 HD
ATOM     57  C   UNL A   1      42.138  30.418  35.021  1.00  0.00     0.074 A 
ATOM     58  C   UNL A   1      42.471  30.904  36.344  1.00  0.00     0.031 C 
ATOM     59  C   UNL A   1      42.808  29.428  34.380  1.00  0.00     0.037 A 
BRANCH  46  60
ATOM     60  C   UNL A   1      40.517  28.009  28.816  1.00  0.00     0.064 A 
ATOM     61  C   UNL A   1      39.813  26.796  28.742  1.00  0.00     0.173 A 
ATOM     62  C   UNL A   1      41.272  28.395  27.698  1.00  0.00     0.173 A 
ATOM     63  F   UNL A   1      39.085  26.374  29.787  1.00  0.00    -0.203 F 
ATOM     64  C   UNL A   1      39.892  25.988  27.610  1.00  0.00     0.198 A 
ATOM     65  C   UNL A   1      41.320  27.601  26.555  1.00  0.00     0.198 A 
ATOM     66  F   UNL A   1      41.961  29.546  27.711  1.00  0.00    -0.203 F 
ATOM     67  F   UNL A   1      39.257  24.809  27.587  1.00  0.00    -0.200 F 
ATOM     68  C   UNL A   1      40.639  26.395  26.516  1.00  0.00     0.200 A 
ATOM     69  F   UNL A   1      42.032  28.002  25.492  1.00  0.00    -0.200 F 
ATOM     70  F   UNL A   1      40.708  25.619  25.425  1.00  0.00    -0.200 F 
ENDBRANCH  46  60
BRANCH  47  71
ATOM     71  C   UNL A   1      39.521  33.882  36.843  1.00  0.00     0.064 A 
ATOM     72  C   UNL A   1      38.778  33.439  37.946  1.00  0.00     0.173 A 
ATOM     73  C   UNL A   1      40.109  35.154  36.919  1.00  0.00     0.173 A 
ATOM     74  F   UNL A   1      38.183  32.239  37.912  1.00  0.00    -0.203 F 
ATOM     75  C   UNL A   1      38.611  34.243  39.071  1.00  0.00     0.198 A 
ATOM     76  C   UNL A   1      39.966  35.945  38.057  1.00  0.00     0.198 A 
ATOM     77  F   UNL A   1      40.836  35.622  35.895  1.00  0.00    -0.203 F 
ATOM     78  F   UNL A   1      37.857  33.813  40.092  1.00  0.00    -0.200 F 
ATOM     79  C   UNL A   1      39.210  35.493  39.128  1.00  0.00     0.200 A 
ATOM     80  F   UNL A   1      40.560  37.144  38.116  1.00  0.00    -0.200 F 
ATOM     81  F   UNL A   1      39.054  36.263  40.214  1.00  0.00    -0.200 F 
ENDBRANCH  47  71
BRANCH  59  82
ATOM     82  C   UNL A   1      43.988  28.827  35.087  1.00  0.00     0.064 A 
ATOM     83  C   UNL A   1      43.850  27.735  35.957  1.00  0.00     0.173 A 
ATOM     84  C   UNL A   1      45.280  29.327  34.864  1.00  0.00     0.173 A 
ATOM     85  F   UNL A   1      42.635  27.228  36.217  1.00  0.00    -0.203 F 
ATOM     86  C   UNL A   1      44.957  27.183  36.596  1.00  0.00     0.198 A 
ATOM     87  C   UNL A   1      46.389  28.753  35.477  1.00  0.00     0.198 A 
ATOM     88  F   UNL A   1      45.468  30.366  34.036  1.00  0.00    -0.203 F 
ATOM     89  F   UNL A   1      44.795  26.174  37.461  1.00  0.00    -0.200 F 
ATOM     90  C   UNL A   1      46.225  27.688  36.350  1.00  0.00     0.200 A 
ATOM     91  F   UNL A   1      47.615  29.231  35.226  1.00  0.00    -0.200 F 
ATOM     92  F   UNL A   1      47.292  27.151  36.959  1.00  0.00    -0.200 F 
ENDBRANCH  59  82
ENDBRANCH  33  34
ENDBRANCH  25  28
ENDBRANCH  23  24
ENDBRANCH  22  23
ENDBRANCH   1  22
TORSDOF 14
ENDMDL
MODEL 2
REMARK VINA RESULT:     -12.3      0.355      1.648
REMARK SMILES Cc1onc(-c2cccc(Br)c2)c1C(=O)NCCCCCCNC(=O)c1ccc(-c2c3nc(c(-c4c(F)c(F)c(F)c(F)c4F)c4ccc([nH]4)c(-c4c(F)c(F)c(F)c(F)c4F)c4nc(c(-c5c(F)c(F)c(F)c(F)c5F)c5ccc2[nH]5)C=C4)C=C3)cc1
REMARK SMILES IDX 20 1 19 2 18 3 17 4 16 5 14 6 15 7 13 9 1 10 2 11 3 12 4 13
REMARK SMILES IDX 5 14 6 15 7 16 12 17 8 18 10 19 9 20 11 21 21 22 22 23 23 24
REMARK SMILES IDX 24 25 25 27 26 28 27 29 88 30 28 31 87 32 29 33 30 34 31 35
REMARK SMILES IDX 81 36 32 37 86 38 80 39 82 40 33 41 85 42 79 43 78 44 34 46
REMARK SMILES IDX 66 47 46 48 65 49 47 50 50 51 64 52 83 53 48 54 49 55 63 57
REMARK SMILES IDX 84 58 51 59 35 60 36 61 44 62 37 63 38 64 42 65 45 66 39 67
REMARK SMILES IDX 40 68 43 69 41 70 67 71 68 72 76 73 69 74 70 75 74 76 77 77
REMARK SMILES IDX 71 78 72 79 75 80 73 81 52 82 53 83 61 84 54 85 55 86 59 87
REMARK SMILES IDX 62 88 56 89 57 90 60 91 58 92
REMARK H PARENT 16 8 23 26 82 45 50 56
REMARK Flexibility Score: inf
ROOT
ATOM      1  C   UNL A   1      31.408  31.029  25.835  1.00  0.00     0.002 C 
ENDROOT
BRANCH   1   2
ATOM      2  C   UNL A   1      32.415  29.965  26.291  1.00  0.00     0.002 C 
BRANCH   2   3
ATOM      3  C   UNL A   1      31.867  28.960  27.317  1.00  0.00     0.021 C 
BRANCH   3   4
ATOM      4  C   UNL A   1      32.244  27.511  27.003  1.00  0.00     0.116 C 
BRANCH   4   5
ATOM      5  N   UNL A   1      31.082  26.778  26.581  1.00  0.00    -0.352 N 
ATOM      6  C   UNL A   1      30.589  26.336  25.392  1.00  0.00     0.257 C 
ATOM      7  O   UNL A   1      29.521  25.732  25.531  1.00  0.00    -0.269 OA
ATOM      8  H   UNL A   1      30.501  26.538  27.338  1.00  0.00     0.163 HD
BRANCH   6   9
ATOM      9  C   UNL A   1      31.202  26.490  24.074  1.00  0.00     0.110 A 
ATOM     10  C   UNL A   1      33.494  25.118  23.713  1.00  0.00     0.092 C 
ATOM     11  C   UNL A   1      32.329  25.982  23.437  1.00  0.00     0.147 A 
ATOM     12  O   UNL A   1      32.366  26.432  22.152  1.00  0.00    -0.360 OA
ATOM     13  N   UNL A   1      31.328  27.279  21.908  1.00  0.00    -0.079 NA
ATOM     14  C   UNL A   1      30.643  27.359  23.053  1.00  0.00     0.126 A 
BRANCH  14  15
ATOM     15  C   UNL A   1      29.491  28.250  23.121  1.00  0.00     0.006 A 
ATOM     16  C   UNL A   1      28.194  27.727  23.229  1.00  0.00     0.010 A 
ATOM     17  C   UNL A   1      29.677  29.638  23.097  1.00  0.00     0.026 A 
ATOM     18  C   UNL A   1      27.091  28.579  23.270  1.00  0.00     0.002 A 
ATOM     19  C   UNL A   1      28.569  30.481  23.146  1.00  0.00     0.018 A 
ATOM     20  C   UNL A   1      27.278  29.959  23.226  1.00  0.00     0.016 A 
ATOM     21  Br  UNL A   1      28.818  32.355  23.098  1.00  0.00    -0.051 Br
ENDBRANCH  14  15
ENDBRANCH   6   9
ENDBRANCH   4   5
ENDBRANCH   3   4
ENDBRANCH   2   3
ENDBRANCH   1   2
BRANCH   1  22
ATOM     22  C   UNL A   1      31.249  32.212  26.794  1.00  0.00     0.021 C 
BRANCH  22  23
ATOM     23  C   UNL A   1      32.571  32.833  27.236  1.00  0.00     0.116 C 
BRANCH  23  24
ATOM     24  N   UNL A   1      32.401  34.224  27.625  1.00  0.00    -0.352 N 
ATOM     25  C   UNL A   1      32.976  34.911  28.660  1.00  0.00     0.251 C 
ATOM     26  H   UNL A   1      31.784  34.747  27.064  1.00  0.00     0.163 HD
ATOM     27  O   UNL A   1      32.528  36.006  29.002  1.00  0.00    -0.269 OA
BRANCH  25  28
ATOM     28  C   UNL A   1      34.133  34.336  29.371  1.00  0.00     0.039 A 
ATOM     29  C   UNL A   1      33.922  33.651  30.571  1.00  0.00     0.014 A 
ATOM     30  C   UNL A   1      35.427  34.490  28.865  1.00  0.00     0.014 A 
ATOM     31  C   UNL A   1      35.005  33.079  31.237  1.00  0.00     0.010 A 
ATOM     32  C   UNL A   1      36.494  33.854  29.489  1.00  0.00     0.010 A 
ATOM     33  C   UNL A   1      36.296  33.150  30.686  1.00  0.00    -0.014 A 
BRANCH  33  34
ATOM     34  C   UNL A   1      37.451  32.501  31.351  1.00  0.00     0.031 A 
ATOM     35  C   UNL A   1      38.168  31.364  30.680  1.00  0.00     0.074 A 
ATOM     36  C   UNL A   1      37.812  32.897  32.587  1.00  0.00     0.049 A 
ATOM     37  N   UNL A   1      39.156  30.630  31.125  1.00  0.00    -0.248 NA
ATOM     38  C   UNL A   1      37.692  30.982  29.341  1.00  0.00     0.031 C 
ATOM     39  C   UNL A   1      37.162  33.957  33.357  1.00  0.00     0.029 A 
ATOM     40  N   UNL A   1      38.809  32.446  33.415  1.00  0.00    -0.354 N 
ATOM     41  C   UNL A   1      39.411  29.696  30.129  1.00  0.00     0.074 A 
ATOM     42  C   UNL A   1      38.436  29.917  29.083  1.00  0.00     0.031 C 
ATOM     43  C   UNL A   1      37.792  34.093  34.535  1.00  0.00     0.029 A 
ATOM     44  C   UNL A   1      38.861  33.104  34.619  1.00  0.00     0.049 A 
ATOM     45  H   UNL A   1      39.428  31.721  33.169  1.00  0.00     0.167 HD
ATOM     46  C   UNL A   1      40.384  28.756  30.082  1.00  0.00     0.037 A 
ATOM     47  C   UNL A   1      39.677  32.922  35.675  1.00  0.00     0.037 A 
ATOM     48  C   UNL A   1      41.363  28.555  31.119  1.00  0.00     0.049 A 
ATOM     49  C   UNL A   1      40.742  31.862  35.603  1.00  0.00     0.074 A 
ATOM     50  C   UNL A   1      42.428  27.671  31.142  1.00  0.00     0.029 A 
ATOM     51  N   UNL A   1      41.391  29.247  32.321  1.00  0.00    -0.354 N 
ATOM     52  N   UNL A   1      41.019  31.032  34.627  1.00  0.00    -0.248 NA
ATOM     53  C   UNL A   1      41.610  31.717  36.780  1.00  0.00     0.031 C 
ATOM     54  C   UNL A   1      43.068  27.791  32.381  1.00  0.00     0.029 A 
ATOM     55  C   UNL A   1      42.438  28.790  33.106  1.00  0.00     0.049 A 
ATOM     56  H   UNL A   1      40.760  29.958  32.579  1.00  0.00     0.167 HD
ATOM     57  C   UNL A   1      42.110  30.288  35.057  1.00  0.00     0.074 A 
ATOM     58  C   UNL A   1      42.453  30.776  36.377  1.00  0.00     0.031 C 
ATOM     59  C   UNL A   1      42.768  29.290  34.417  1.00  0.00     0.037 A 
BRANCH  46  60
ATOM     60  C   UNL A   1      40.438  27.871  28.869  1.00  0.00     0.064 A 
ATOM     61  C   UNL A   1      41.199  28.212  27.740  1.00  0.00     0.173 A 
ATOM     62  C   UNL A   1      39.741  26.653  28.845  1.00  0.00     0.173 A 
ATOM     63  F   UNL A   1      41.874  29.370  27.705  1.00  0.00    -0.203 F 
ATOM     64  C   UNL A   1      41.231  27.384  26.620  1.00  0.00     0.198 A 
ATOM     65  C   UNL A   1      39.804  25.812  27.737  1.00  0.00     0.198 A 
ATOM     66  F   UNL A   1      39.002  26.275  29.898  1.00  0.00    -0.203 F 
ATOM     67  F   UNL A   1      41.919  27.759  25.533  1.00  0.00    -0.200 F 
ATOM     68  C   UNL A   1      40.540  26.182  26.622  1.00  0.00     0.200 A 
ATOM     69  F   UNL A   1      39.147  24.644  27.746  1.00  0.00    -0.200 F 
ATOM     70  F   UNL A   1      40.579  25.384  25.546  1.00  0.00    -0.200 F 
ENDBRANCH  46  60
BRANCH  47  71
ATOM     71  C   UNL A   1      39.532  33.781  36.879  1.00  0.00     0.064 A 
ATOM     72  C   UNL A   1      40.185  35.019  36.963  1.00  0.00     0.173 A 
ATOM     73  C   UNL A   1      38.740  33.387  37.968  1.00  0.00     0.173 A 
ATOM     74  F   UNL A   1      40.968  35.431  35.955  1.00  0.00    -0.203 F 
ATOM     75  C   UNL A   1      40.069  35.820  38.096  1.00  0.00     0.198 A 
ATOM     76  C   UNL A   1      38.601  34.203  39.089  1.00  0.00     0.198 A 
ATOM     77  F   UNL A   1      38.089  32.216  37.937  1.00  0.00    -0.203 F 
ATOM     78  F   UNL A   1      40.741  36.977  38.167  1.00  0.00    -0.200 F 
ATOM     79  C   UNL A   1      39.272  35.414  39.156  1.00  0.00     0.200 A 
ATOM     80  F   UNL A   1      37.816  33.814  40.103  1.00  0.00    -0.200 F 
ATOM     81  F   UNL A   1      39.155  36.188  40.244  1.00  0.00    -0.200 F 
ENDBRANCH  47  71
BRANCH  59  82
ATOM     82  C   UNL A   1      43.946  28.681  35.121  1.00  0.00     0.064 A 
ATOM     83  C   UNL A   1      43.810  27.563  35.957  1.00  0.00     0.173 A 
ATOM     84  C   UNL A   1      45.235  29.201  34.926  1.00  0.00     0.173 A 
ATOM     85  F   UNL A   1      42.597  27.038  36.189  1.00  0.00    -0.203 F 
ATOM     86  C   UNL A   1      44.915  27.005  36.594  1.00  0.00     0.198 A 
ATOM     87  C   UNL A   1      46.343  28.621  35.536  1.00  0.00     0.198 A 
ATOM     88  F   UNL A   1      45.422  30.265  34.130  1.00  0.00    -0.203 F 
ATOM     89  F   UNL A   1      44.754  25.970  37.428  1.00  0.00    -0.200 F 
ATOM     90  C   UNL A   1      46.181  27.529  36.376  1.00  0.00     0.200 A 
ATOM     91  F   UNL A   1      47.567  29.117  35.313  1.00  0.00    -0.200 F 
ATOM     92  F   UNL A   1      47.245  26.986  36.983  1.00  0.00    -0.200 F 
ENDBRANCH  59  82
ENDBRANCH  33  34
ENDBRANCH  25  28
ENDBRANCH  23  24
ENDBRANCH  22  23
ENDBRANCH   1  22
TORSDOF 14
ENDMDL
MODEL 3
REMARK VINA RESULT:     -12.2      2.037      3.297
REMARK SMILES Cc1onc(-c2cccc(Br)c2)c1C(=O)NCCCCCCNC(=O)c1ccc(-c2c3nc(c(-c4c(F)c(F)c(F)c(F)c4F)c4ccc([nH]4)c(-c4c(F)c(F)c(F)c(F)c4F)c4nc(c(-c5c(F)c(F)c(F)c(F)c5F)c5ccc2[nH]5)C=C4)C=C3)cc1
REMARK SMILES IDX 20 1 19 2 18 3 17 4 16 5 14 6 15 7 13 9 1 10 2 11 3 12 4 13
REMARK SMILES IDX 5 14 6 15 7 16 12 17 8 18 10 19 9 20 11 21 21 22 22 23 23 24
REMARK SMILES IDX 24 25 25 27 26 28 27 29 88 30 28 31 87 32 29 33 30 34 31 35
REMARK SMILES IDX 81 36 32 37 86 38 80 39 82 40 33 41 85 42 79 43 78 44 34 46
REMARK SMILES IDX 66 47 46 48 65 49 47 50 50 51 64 52 83 53 48 54 49 55 63 57
REMARK SMILES IDX 84 58 51 59 35 60 36 61 44 62 37 63 38 64 42 65 45 66 39 67
REMARK SMILES IDX 40 68 43 69 41 70 67 71 68 72 76 73 69 74 70 75 74 76 77 77
REMARK SMILES IDX 71 78 72 79 75 80 73 81 52 82 53 83 61 84 54 85 55 86 59 87
REMARK SMILES IDX 62 88 56 89 57 90 60 91 58 92
REMARK H PARENT 16 8 23 26 82 45 50 56
REMARK Flexibility Score: inf
ROOT
ATOM      1  C   UNL A   1      31.394  30.858  26.117  1.00  0.00     0.002 C 
ENDROOT
BRANCH   1   2
ATOM      2  C   UNL A   1      32.204  29.996  27.095  1.00  0.00     0.002 C 
BRANCH   2   3
ATOM      3  C   UNL A   1      31.687  28.558  27.264  1.00  0.00     0.021 C 
BRANCH   3   4
ATOM      4  C   UNL A   1      31.831  27.713  25.998  1.00  0.00     0.116 C 
BRANCH   4   5
ATOM      5  N   UNL A   1      32.947  26.816  26.126  1.00  0.00    -0.352 N 
ATOM      6  C   UNL A   1      33.753  26.136  25.266  1.00  0.00     0.257 C 
ATOM      7  O   UNL A   1      34.604  25.467  25.860  1.00  0.00    -0.269 OA
ATOM      8  H   UNL A   1      33.186  26.653  27.067  1.00  0.00     0.163 HD
BRANCH   6   9
ATOM      9  C   UNL A   1      33.704  26.164  23.805  1.00  0.00     0.110 A 
ATOM     10  C   UNL A   1      33.632  28.628  22.712  1.00  0.00     0.092 C 
ATOM     11  C   UNL A   1      33.679  27.157  22.831  1.00  0.00     0.147 A 
ATOM     12  O   UNL A   1      33.703  26.582  21.597  1.00  0.00    -0.360 OA
ATOM     13  N   UNL A   1      33.684  25.224  21.697  1.00  0.00    -0.079 NA
ATOM     14  C   UNL A   1      33.644  24.953  23.005  1.00  0.00     0.126 A 
BRANCH  14  15
ATOM     15  C   UNL A   1      33.558  23.562  23.432  1.00  0.00     0.006 A 
ATOM     16  C   UNL A   1      32.351  22.856  23.313  1.00  0.00     0.010 A 
ATOM     17  C   UNL A   1      34.688  22.918  23.951  1.00  0.00     0.026 A 
ATOM     18  C   UNL A   1      32.263  21.533  23.744  1.00  0.00     0.002 A 
ATOM     19  C   UNL A   1      34.591  21.592  24.372  1.00  0.00     0.018 A 
ATOM     20  C   UNL A   1      33.384  20.900  24.277  1.00  0.00     0.016 A 
ATOM     21  Br  UNL A   1      36.112  20.726  25.087  1.00  0.00    -0.051 Br
ENDBRANCH  14  15
ENDBRANCH   6   9
ENDBRANCH   4   5
ENDBRANCH   3   4
ENDBRANCH   2   3
ENDBRANCH   1   2
BRANCH   1  22
ATOM     22  C   UNL A   1      31.316  32.342  26.486  1.00  0.00     0.021 C 
BRANCH  22  23
ATOM     23  C   UNL A   1      32.527  32.851  27.262  1.00  0.00     0.116 C 
BRANCH  23  24
ATOM     24  N   UNL A   1      32.379  34.253  27.620  1.00  0.00    -0.352 N 
ATOM     25  C   UNL A   1      32.981  34.959  28.626  1.00  0.00     0.251 C 
ATOM     26  H   UNL A   1      31.756  34.768  27.058  1.00  0.00     0.163 HD
ATOM     27  O   UNL A   1      32.550  36.067  28.949  1.00  0.00    -0.269 OA
BRANCH  25  28
ATOM     28  C   UNL A   1      34.145  34.390  29.329  1.00  0.00     0.039 A 
ATOM     29  C   UNL A   1      33.942  33.661  30.504  1.00  0.00     0.014 A 
ATOM     30  C   UNL A   1      35.439  34.592  28.840  1.00  0.00     0.014 A 
ATOM     31  C   UNL A   1      35.033  33.095  31.161  1.00  0.00     0.010 A 
ATOM     32  C   UNL A   1      36.517  33.963  29.453  1.00  0.00     0.010 A 
ATOM     33  C   UNL A   1      36.326  33.216  30.625  1.00  0.00    -0.014 A 
BRANCH  33  34
ATOM     34  C   UNL A   1      37.491  32.574  31.279  1.00  0.00     0.031 A 
ATOM     35  C   UNL A   1      38.201  31.432  30.608  1.00  0.00     0.074 A 
ATOM     36  C   UNL A   1      37.869  32.982  32.506  1.00  0.00     0.049 A 
ATOM     37  N   UNL A   1      39.196  30.703  31.046  1.00  0.00    -0.248 NA
ATOM     38  C   UNL A   1      37.707  31.037  29.279  1.00  0.00     0.031 C 
ATOM     39  C   UNL A   1      37.229  34.048  33.277  1.00  0.00     0.029 A 
ATOM     40  N   UNL A   1      38.878  32.540  33.325  1.00  0.00    -0.354 N 
ATOM     41  C   UNL A   1      39.438  29.761  30.055  1.00  0.00     0.074 A 
ATOM     42  C   UNL A   1      38.448  29.972  29.021  1.00  0.00     0.031 C 
ATOM     43  C   UNL A   1      37.874  34.195  34.444  1.00  0.00     0.029 A 
ATOM     44  C   UNL A   1      38.946  33.208  34.522  1.00  0.00     0.049 A 
ATOM     45  H   UNL A   1      39.494  31.813  33.076  1.00  0.00     0.167 HD
ATOM     46  C   UNL A   1      40.412  28.821  30.002  1.00  0.00     0.037 A 
ATOM     47  C   UNL A   1      39.777  33.036  35.568  1.00  0.00     0.037 A 
ATOM     48  C   UNL A   1      41.405  28.632  31.028  1.00  0.00     0.049 A 
ATOM     49  C   UNL A   1      40.842  31.977  35.491  1.00  0.00     0.074 A 
ATOM     50  C   UNL A   1      42.472  27.749  31.043  1.00  0.00     0.029 A 
ATOM     51  N   UNL A   1      41.450  29.334  32.223  1.00  0.00    -0.354 N 
ATOM     52  N   UNL A   1      41.107  31.139  34.518  1.00  0.00    -0.248 NA
ATOM     53  C   UNL A   1      41.727  31.844  36.656  1.00  0.00     0.031 C 
ATOM     54  C   UNL A   1      43.128  27.880  32.272  1.00  0.00     0.029 A 
ATOM     55  C   UNL A   1      42.508  28.885  32.997  1.00  0.00     0.049 A 
ATOM     56  H   UNL A   1      40.821  30.046  32.483  1.00  0.00     0.167 HD
ATOM     57  C   UNL A   1      42.204  30.401  34.939  1.00  0.00     0.074 A 
ATOM     58  C   UNL A   1      42.566  30.900  36.250  1.00  0.00     0.031 C 
ATOM     59  C   UNL A   1      42.855  29.397  34.299  1.00  0.00     0.037 A 
BRANCH  46  60
ATOM     60  C   UNL A   1      40.449  27.926  28.797  1.00  0.00     0.064 A 
ATOM     61  C   UNL A   1      41.201  28.254  27.658  1.00  0.00     0.173 A 
ATOM     62  C   UNL A   1      39.746  26.711  28.790  1.00  0.00     0.173 A 
ATOM     63  F   UNL A   1      41.882  29.408  27.607  1.00  0.00    -0.203 F 
ATOM     64  C   UNL A   1      41.219  27.416  26.545  1.00  0.00     0.198 A 
ATOM     65  C   UNL A   1      39.795  25.860  27.688  1.00  0.00     0.198 A 
ATOM     66  F   UNL A   1      39.015  26.346  29.853  1.00  0.00    -0.203 F 
ATOM     67  F   UNL A   1      41.899  27.778  25.448  1.00  0.00    -0.200 F 
ATOM     68  C   UNL A   1      40.523  26.218  26.564  1.00  0.00     0.200 A 
ATOM     69  F   UNL A   1      39.132  24.696  27.714  1.00  0.00    -0.200 F 
ATOM     70  F   UNL A   1      40.547  25.410  25.494  1.00  0.00    -0.200 F 
ENDBRANCH  46  60
BRANCH  47  71
ATOM     71  C   UNL A   1      39.648  33.906  36.767  1.00  0.00     0.064 A 
ATOM     72  C   UNL A   1      40.311  35.139  36.835  1.00  0.00     0.173 A 
ATOM     73  C   UNL A   1      38.861  33.526  37.864  1.00  0.00     0.173 A 
ATOM     74  F   UNL A   1      41.090  35.537  35.819  1.00  0.00    -0.203 F 
ATOM     75  C   UNL A   1      40.210  35.950  37.963  1.00  0.00     0.198 A 
ATOM     76  C   UNL A   1      38.736  34.352  38.979  1.00  0.00     0.198 A 
ATOM     77  F   UNL A   1      38.199  32.360  37.846  1.00  0.00    -0.203 F 
ATOM     78  F   UNL A   1      40.891  37.102  38.021  1.00  0.00    -0.200 F 
ATOM     79  C   UNL A   1      39.417  35.559  39.032  1.00  0.00     0.200 A 
ATOM     80  F   UNL A   1      37.956  33.978  40.002  1.00  0.00    -0.200 F 
ATOM     81  F   UNL A   1      39.315  36.342  40.114  1.00  0.00    -0.200 F 
ENDBRANCH  47  71
BRANCH  59  82
ATOM     82  C   UNL A   1      44.044  28.796  34.991  1.00  0.00     0.064 A 
ATOM     83  C   UNL A   1      43.923  27.677  35.828  1.00  0.00     0.173 A 
ATOM     84  C   UNL A   1      45.327  29.325  34.785  1.00  0.00     0.173 A 
ATOM     85  F   UNL A   1      42.716  27.143  36.071  1.00  0.00    -0.203 F 
ATOM     86  C   UNL A   1      45.038  27.127  36.455  1.00  0.00     0.198 A 
ATOM     87  C   UNL A   1      46.445  28.752  35.385  1.00  0.00     0.198 A 
ATOM     88  F   UNL A   1      45.500  30.390  33.988  1.00  0.00    -0.203 F 
ATOM     89  F   UNL A   1      44.892  26.090  37.290  1.00  0.00    -0.200 F 
ATOM     90  C   UNL A   1      46.298  27.659  36.226  1.00  0.00     0.200 A 
ATOM     91  F   UNL A   1      47.663  29.257  35.150  1.00  0.00    -0.200 F 
ATOM     92  F   UNL A   1      47.372  27.123  36.822  1.00  0.00    -0.200 F 
ENDBRANCH  59  82
ENDBRANCH  33  34
ENDBRANCH  25  28
ENDBRANCH  23  24
ENDBRANCH  22  23
ENDBRANCH   1  22
TORSDOF 14
ENDMDL
