MODEL 1
REMARK VINA RESULT:     -14.0      0.000      0.000
REMARK SMILES Cc1ccc(-c2c(C)sc(NC(=O)[C@H]3CC=CC[C@H]3C(=O)NCCCCCCNC(=O)c3ccc(-c4c5nc(c(-c6c(F)c(F)c(F)c(F)c6F)c6ccc([nH]6)c(-c6c(F)c(F)c(F)c(F)c6F)c6nc(c(-c7c(F)c(F)c(F)c(F)c7F)c7ccc4[nH]7)C=C6)C=C5)cc3)c2C(N)=O)cc1
REMARK SMILES IDX 25 1 24 2 23 3 22 4 20 5 21 6 19 8 14 9 15 10 16 11 18 12
REMARK SMILES IDX 17 13 12 14 11 15 13 17 10 18 6 19 7 20 95 21 8 22 9 23 5 24
REMARK SMILES IDX 1 25 2 26 3 27 100 28 4 29 99 30 96 31 97 32 98 33 26 36
REMARK SMILES IDX 27 37 28 38 29 39 30 40 31 42 32 43 33 44 94 45 34 46 93 47
REMARK SMILES IDX 35 48 36 49 37 50 87 51 38 52 92 53 86 54 88 55 39 56 91 57
REMARK SMILES IDX 85 58 84 59 40 61 72 62 52 63 71 64 53 65 56 66 70 67 89 68
REMARK SMILES IDX 54 69 55 70 69 72 90 73 57 74 41 75 42 76 50 77 43 78 44 79
REMARK SMILES IDX 48 80 51 81 45 82 46 83 49 84 47 85 73 86 74 87 82 88 75 89
REMARK SMILES IDX 76 90 80 91 83 92 77 93 78 94 81 95 79 96 58 97 59 98 67 99
REMARK SMILES IDX 60 100 61 101 65 102 68 103 62 104 63 105 66 106 64 107
REMARK H PARENT 22 7 11 16 97 34 97 35 29 41 88 60 56 71
REMARK Flexibility Score: inf
ROOT
ATOM      1  C   UNL A   1      30.253  31.631  24.945  1.00  0.00     0.002 C 
ENDROOT
BRANCH   1   2
ATOM      2  C   UNL A   1      29.330  30.955  23.924  1.00  0.00     0.021 C 
BRANCH   2   3
ATOM      3  C   UNL A   1      29.957  29.740  23.242  1.00  0.00     0.116 C 
BRANCH   3   4
ATOM      4  N   UNL A   1      29.332  28.543  23.721  1.00  0.00    -0.356 N 
ATOM      5  C   UNL A   1      29.739  27.262  23.615  1.00  0.00     0.224 C 
ATOM      6  O   UNL A   1      28.899  26.395  23.875  1.00  0.00    -0.275 OA
ATOM      7  H   UNL A   1      28.481  28.675  24.197  1.00  0.00     0.163 HD
BRANCH   5   8
ATOM      8  C   UNL A   1      31.169  26.871  23.287  1.00  0.00     0.095 C 
ATOM      9  C   UNL A   1      32.348  27.324  24.171  1.00  0.00     0.095 C 
ATOM     10  C   UNL A   1      33.606  27.370  23.278  1.00  0.00     0.041 C 
ATOM     11  C   UNL A   1      33.654  26.287  22.215  1.00  0.00    -0.030 C 
ATOM     12  C   UNL A   1      31.344  25.467  22.719  1.00  0.00     0.041 C 
ATOM     13  C   UNL A   1      32.664  25.400  22.002  1.00  0.00    -0.030 C 
BRANCH   9  14
ATOM     14  C   UNL A   1      32.538  26.788  25.622  1.00  0.00     0.229 C 
ATOM     15  N   UNL A   1      32.779  25.526  26.086  1.00  0.00    -0.317 N 
ATOM     16  H   UNL A   1      32.540  25.409  27.033  1.00  0.00     0.170 HD
ATOM     17  O   UNL A   1      32.339  27.599  26.546  1.00  0.00    -0.274 OA
BRANCH  15  18
ATOM     18  C   UNL A   1      33.287  24.381  25.510  1.00  0.00     0.109 A 
ATOM     19  C   UNL A   1      33.773  22.241  24.699  1.00  0.00     0.010 A 
ATOM     20  C   UNL A   1      34.824  23.013  24.224  1.00  0.00     0.012 A 
ATOM     21  C   UNL A   1      32.831  23.057  25.482  1.00  0.00     0.082 A 
ATOM     22  C   UNL A   1      35.859  22.763  23.178  1.00  0.00     0.057 C 
ATOM     23  S   UNL A   1      34.954  24.388  25.207  1.00  0.00    -0.122 S 
BRANCH  19  24
ATOM     24  C   UNL A   1      33.787  20.801  24.446  1.00  0.00    -0.016 A 
ATOM     25  C   UNL A   1      33.585  16.573  23.596  1.00  0.00     0.044 C 
ATOM     26  C   UNL A   1      33.644  18.038  23.916  1.00  0.00    -0.051 A 
ATOM     27  C   UNL A   1      34.727  18.577  24.628  1.00  0.00     0.004 A 
ATOM     28  C   UNL A   1      32.635  18.890  23.468  1.00  0.00     0.004 A 
ATOM     29  C   UNL A   1      34.795  19.950  24.902  1.00  0.00     0.009 A 
ATOM     30  C   UNL A   1      32.717  20.256  23.717  1.00  0.00     0.009 A 
ENDBRANCH  19  24
BRANCH  21  31
ATOM     31  C   UNL A   1      31.620  22.518  26.116  1.00  0.00     0.252 C 
ATOM     32  N   UNL A   1      31.577  22.474  27.486  1.00  0.00    -0.365 N 
ATOM     33  O   UNL A   1      30.648  22.108  25.508  1.00  0.00    -0.269 OA
ATOM     34  H   UNL A   1      32.343  22.796  28.013  1.00  0.00     0.159 HD
ATOM     35  H   UNL A   1      30.779  22.121  27.942  1.00  0.00     0.159 HD
ENDBRANCH  21  31
ENDBRANCH  15  18
ENDBRANCH   9  14
ENDBRANCH   5   8
ENDBRANCH   3   4
ENDBRANCH   2   3
ENDBRANCH   1   2
BRANCH   1  36
ATOM     36  C   UNL A   1      31.337  30.725  25.545  1.00  0.00     0.002 C 
BRANCH  36  37
ATOM     37  C   UNL A   1      31.923  31.199  26.875  1.00  0.00     0.021 C 
BRANCH  37  38
ATOM     38  C   UNL A   1      33.345  30.727  27.106  1.00  0.00     0.116 C 
BRANCH  38  39
ATOM     39  N   UNL A   1      34.153  31.706  27.805  1.00  0.00    -0.352 N 
ATOM     40  C   UNL A   1      35.223  31.527  28.656  1.00  0.00     0.251 C 
ATOM     41  H   UNL A   1      33.899  32.644  27.650  1.00  0.00     0.163 HD
ATOM     42  O   UNL A   1      35.586  32.456  29.370  1.00  0.00    -0.269 OA
BRANCH  40  43
ATOM     43  C   UNL A   1      36.065  30.309  28.542  1.00  0.00     0.039 A 
ATOM     44  C   UNL A   1      36.311  29.622  29.742  1.00  0.00     0.014 A 
ATOM     45  C   UNL A   1      36.859  30.074  27.427  1.00  0.00     0.014 A 
ATOM     46  C   UNL A   1      37.515  28.956  29.909  1.00  0.00     0.010 A 
ATOM     47  C   UNL A   1      38.104  29.543  27.624  1.00  0.00     0.010 A 
ATOM     48  C   UNL A   1      38.444  29.050  28.883  1.00  0.00    -0.014 A 
BRANCH  48  49
ATOM     49  C   UNL A   1      39.821  28.634  28.991  1.00  0.00     0.031 A 
ATOM     50  C   UNL A   1      40.136  27.253  28.612  1.00  0.00     0.074 A 
ATOM     51  C   UNL A   1      40.748  29.587  29.219  1.00  0.00     0.049 A 
ATOM     52  N   UNL A   1      41.167  26.606  29.016  1.00  0.00    -0.248 NA
ATOM     53  C   UNL A   1      39.253  26.460  27.764  1.00  0.00     0.031 C 
ATOM     54  C   UNL A   1      42.191  29.511  29.036  1.00  0.00     0.029 A 
ATOM     55  N   UNL A   1      40.544  30.834  29.836  1.00  0.00    -0.354 N 
ATOM     56  C   UNL A   1      41.267  25.476  28.232  1.00  0.00     0.074 A 
ATOM     57  C   UNL A   1      39.988  25.361  27.579  1.00  0.00     0.031 C 
ATOM     58  C   UNL A   1      42.772  30.472  29.779  1.00  0.00     0.029 A 
ATOM     59  C   UNL A   1      41.721  31.086  30.575  1.00  0.00     0.049 A 
ATOM     60  H   UNL A   1      39.748  31.409  29.768  1.00  0.00     0.167 HD
ATOM     61  C   UNL A   1      42.495  24.897  28.101  1.00  0.00     0.037 A 
ATOM     62  C   UNL A   1      41.681  31.092  31.943  1.00  0.00     0.037 A 
ATOM     63  C   UNL A   1      43.460  25.606  28.946  1.00  0.00     0.049 A 
ATOM     64  C   UNL A   1      42.506  29.981  32.548  1.00  0.00     0.074 A 
ATOM     65  C   UNL A   1      44.371  26.611  28.658  1.00  0.00     0.029 A 
ATOM     66  N   UNL A   1      43.299  25.601  30.327  1.00  0.00    -0.354 N 
ATOM     67  N   UNL A   1      42.782  28.865  31.930  1.00  0.00    -0.248 NA
ATOM     68  C   UNL A   1      43.089  30.045  33.883  1.00  0.00     0.031 C 
ATOM     69  C   UNL A   1      44.706  27.256  29.875  1.00  0.00     0.029 A 
ATOM     70  C   UNL A   1      44.018  26.632  30.903  1.00  0.00     0.049 A 
ATOM     71  H   UNL A   1      42.749  24.954  30.825  1.00  0.00     0.167 HD
ATOM     72  C   UNL A   1      43.560  28.079  32.738  1.00  0.00     0.074 A 
ATOM     73  C   UNL A   1      43.728  28.864  33.947  1.00  0.00     0.031 C 
ATOM     74  C   UNL A   1      44.004  26.847  32.343  1.00  0.00     0.037 A 
BRANCH  61  75
ATOM     75  C   UNL A   1      42.910  23.943  26.998  1.00  0.00     0.064 A 
ATOM     76  C   UNL A   1      42.588  22.568  27.095  1.00  0.00     0.173 A 
ATOM     77  C   UNL A   1      43.664  24.278  25.856  1.00  0.00     0.173 A 
ATOM     78  F   UNL A   1      41.797  22.101  28.070  1.00  0.00    -0.203 F 
ATOM     79  C   UNL A   1      43.059  21.611  26.191  1.00  0.00     0.198 A 
ATOM     80  C   UNL A   1      44.163  23.317  24.968  1.00  0.00     0.198 A 
ATOM     81  F   UNL A   1      43.903  25.545  25.513  1.00  0.00    -0.203 F 
ATOM     82  F   UNL A   1      42.728  20.323  26.355  1.00  0.00    -0.200 F 
ATOM     83  C   UNL A   1      43.869  21.983  25.140  1.00  0.00     0.200 A 
ATOM     84  F   UNL A   1      44.929  23.703  23.937  1.00  0.00    -0.200 F 
ATOM     85  F   UNL A   1      44.339  21.066  24.284  1.00  0.00    -0.200 F 
ENDBRANCH  61  75
BRANCH  62  86
ATOM     86  C   UNL A   1      40.365  31.573  32.459  1.00  0.00     0.064 A 
ATOM     87  C   UNL A   1      40.005  32.908  32.176  1.00  0.00     0.173 A 
ATOM     88  C   UNL A   1      39.332  30.681  32.775  1.00  0.00     0.173 A 
ATOM     89  F   UNL A   1      40.957  33.810  31.885  1.00  0.00    -0.203 F 
ATOM     90  C   UNL A   1      38.671  33.285  32.037  1.00  0.00     0.198 A 
ATOM     91  C   UNL A   1      37.995  31.073  32.666  1.00  0.00     0.198 A 
ATOM     92  F   UNL A   1      39.605  29.400  33.064  1.00  0.00    -0.203 F 
ATOM     93  F   UNL A   1      38.366  34.518  31.608  1.00  0.00    -0.200 F 
ATOM     94  C   UNL A   1      37.668  32.356  32.247  1.00  0.00     0.200 A 
ATOM     95  F   UNL A   1      37.019  30.175  32.869  1.00  0.00    -0.200 F 
ATOM     96  F   UNL A   1      36.391  32.683  32.008  1.00  0.00    -0.200 F 
ENDBRANCH  62  86
BRANCH  74  97
ATOM     97  C   UNL A   1      44.575  25.778  33.247  1.00  0.00     0.064 A 
ATOM     98  C   UNL A   1      45.921  25.378  33.235  1.00  0.00     0.173 A 
ATOM     99  C   UNL A   1      43.789  25.213  34.284  1.00  0.00     0.173 A 
ATOM    100  F   UNL A   1      46.813  25.941  32.410  1.00  0.00    -0.203 F 
ATOM    101  C   UNL A   1      46.419  24.421  34.123  1.00  0.00     0.198 A 
ATOM    102  C   UNL A   1      44.308  24.319  35.217  1.00  0.00     0.198 A 
ATOM    103  F   UNL A   1      42.497  25.534  34.449  1.00  0.00    -0.203 F 
ATOM    104  F   UNL A   1      47.696  24.028  34.024  1.00  0.00    -0.200 F 
ATOM    105  C   UNL A   1      45.617  23.900  35.120  1.00  0.00     0.200 A 
ATOM    106  F   UNL A   1      43.534  23.882  36.221  1.00  0.00    -0.200 F 
ATOM    107  F   UNL A   1      46.110  23.017  35.997  1.00  0.00    -0.200 F 
ENDBRANCH  74  97
ENDBRANCH  48  49
ENDBRANCH  40  43
ENDBRANCH  38  39
ENDBRANCH  37  38
ENDBRANCH  36  37
ENDBRANCH   1  36
TORSDOF 17
ENDMDL
MODEL 2
REMARK VINA RESULT:     -13.9      1.444      2.230
REMARK SMILES Cc1ccc(-c2c(C)sc(NC(=O)[C@H]3CC=CC[C@H]3C(=O)NCCCCCCNC(=O)c3ccc(-c4c5nc(c(-c6c(F)c(F)c(F)c(F)c6F)c6ccc([nH]6)c(-c6c(F)c(F)c(F)c(F)c6F)c6nc(c(-c7c(F)c(F)c(F)c(F)c7F)c7ccc4[nH]7)C=C6)C=C5)cc3)c2C(N)=O)cc1
REMARK SMILES IDX 25 1 24 2 23 3 22 4 20 5 21 6 19 8 14 9 15 10 16 11 18 12
REMARK SMILES IDX 17 13 12 14 11 15 13 17 10 18 6 19 7 20 95 21 8 22 9 23 5 24
REMARK SMILES IDX 1 25 2 26 3 27 100 28 4 29 99 30 96 31 97 32 98 33 26 36
REMARK SMILES IDX 27 37 28 38 29 39 30 40 31 42 32 43 33 44 94 45 34 46 93 47
REMARK SMILES IDX 35 48 36 49 37 50 87 51 38 52 92 53 86 54 88 55 39 56 91 57
REMARK SMILES IDX 85 58 84 59 40 61 72 62 52 63 71 64 53 65 56 66 70 67 89 68
REMARK SMILES IDX 54 69 55 70 69 72 90 73 57 74 41 75 42 76 50 77 43 78 44 79
REMARK SMILES IDX 48 80 51 81 45 82 46 83 49 84 47 85 73 86 74 87 82 88 75 89
REMARK SMILES IDX 76 90 80 91 83 92 77 93 78 94 81 95 79 96 58 97 59 98 67 99
REMARK SMILES IDX 60 100 61 101 65 102 68 103 62 104 63 105 66 106 64 107
REMARK H PARENT 22 7 11 16 97 34 97 35 29 41 88 60 56 71
REMARK Flexibility Score: inf
ROOT
ATOM      1  C   UNL A   1      32.388  29.553  24.940  1.00  0.00     0.002 C 
ENDROOT
BRANCH   1   2
ATOM      2  C   UNL A   1      32.157  29.332  23.440  1.00  0.00     0.021 C 
BRANCH   2   3
ATOM      3  C   UNL A   1      33.438  29.046  22.658  1.00  0.00     0.116 C 
BRANCH   3   4
ATOM      4  N   UNL A   1      33.225  27.943  21.770  1.00  0.00    -0.356 N 
ATOM      5  C   UNL A   1      33.340  26.620  22.001  1.00  0.00     0.224 C 
ATOM      6  O   UNL A   1      33.361  25.887  21.007  1.00  0.00    -0.275 OA
ATOM      7  H   UNL A   1      32.955  28.187  20.855  1.00  0.00     0.163 HD
BRANCH   5   8
ATOM      8  C   UNL A   1      33.351  26.021  23.397  1.00  0.00     0.095 C 
ATOM      9  C   UNL A   1      32.058  25.895  24.227  1.00  0.00     0.095 C 
ATOM     10  C   UNL A   1      32.460  25.910  25.716  1.00  0.00     0.041 C 
ATOM     11  C   UNL A   1      33.779  25.219  26.011  1.00  0.00    -0.030 C 
ATOM     12  C   UNL A   1      34.312  24.854  23.594  1.00  0.00     0.041 C 
ATOM     13  C   UNL A   1      34.581  24.697  25.065  1.00  0.00    -0.030 C 
BRANCH   9  14
ATOM     14  C   UNL A   1      30.915  24.916  23.819  1.00  0.00     0.229 C 
ATOM     15  N   UNL A   1      30.880  23.552  23.766  1.00  0.00    -0.317 N 
ATOM     16  H   UNL A   1      30.167  23.205  23.183  1.00  0.00     0.170 HD
ATOM     17  O   UNL A   1      29.877  25.432  23.360  1.00  0.00    -0.274 OA
BRANCH  15  18
ATOM     18  C   UNL A   1      31.631  22.557  24.355  1.00  0.00     0.109 A 
ATOM     19  C   UNL A   1      32.901  20.682  24.939  1.00  0.00     0.010 A 
ATOM     20  C   UNL A   1      32.855  21.419  26.114  1.00  0.00     0.012 A 
ATOM     21  C   UNL A   1      32.162  21.359  23.861  1.00  0.00     0.082 A 
ATOM     22  C   UNL A   1      33.645  21.342  27.378  1.00  0.00     0.057 C 
ATOM     23  S   UNL A   1      31.505  22.442  26.041  1.00  0.00    -0.122 S 
BRANCH  19  24
ATOM     24  C   UNL A   1      33.562  19.377  24.953  1.00  0.00    -0.016 A 
ATOM     25  C   UNL A   1      35.293  15.426  25.109  1.00  0.00     0.044 C 
ATOM     26  C   UNL A   1      34.702  16.804  25.080  1.00  0.00    -0.051 A 
ATOM     27  C   UNL A   1      35.459  17.904  24.646  1.00  0.00     0.004 A 
ATOM     28  C   UNL A   1      33.371  16.999  25.447  1.00  0.00     0.004 A 
ATOM     29  C   UNL A   1      34.896  19.188  24.592  1.00  0.00     0.009 A 
ATOM     30  C   UNL A   1      32.806  18.267  25.367  1.00  0.00     0.009 A 
ENDBRANCH  19  24
BRANCH  21  31
ATOM     31  C   UNL A   1      32.031  20.819  22.500  1.00  0.00     0.252 C 
ATOM     32  N   UNL A   1      31.805  19.475  22.362  1.00  0.00    -0.365 N 
ATOM     33  O   UNL A   1      32.108  21.486  21.485  1.00  0.00    -0.269 OA
ATOM     34  H   UNL A   1      31.736  18.902  23.160  1.00  0.00     0.159 HD
ATOM     35  H   UNL A   1      31.709  19.082  21.465  1.00  0.00     0.159 HD
ENDBRANCH  21  31
ENDBRANCH  15  18
ENDBRANCH   9  14
ENDBRANCH   5   8
ENDBRANCH   3   4
ENDBRANCH   2   3
ENDBRANCH   1   2
BRANCH   1  36
ATOM     36  C   UNL A   1      33.775  29.140  25.454  1.00  0.00     0.002 C 
BRANCH  36  37
ATOM     37  C   UNL A   1      33.922  29.094  26.975  1.00  0.00     0.021 C 
BRANCH  37  38
ATOM     38  C   UNL A   1      33.208  30.229  27.681  1.00  0.00     0.116 C 
BRANCH  38  39
ATOM     39  N   UNL A   1      34.086  31.341  27.984  1.00  0.00    -0.352 N 
ATOM     40  C   UNL A   1      35.329  31.352  28.580  1.00  0.00     0.251 C 
ATOM     41  H   UNL A   1      33.742  32.226  27.724  1.00  0.00     0.163 HD
ATOM     42  O   UNL A   1      35.780  32.409  29.010  1.00  0.00    -0.269 OA
BRANCH  40  43
ATOM     43  C   UNL A   1      36.202  30.155  28.496  1.00  0.00     0.039 A 
ATOM     44  C   UNL A   1      36.458  29.499  29.711  1.00  0.00     0.014 A 
ATOM     45  C   UNL A   1      37.010  29.919  27.391  1.00  0.00     0.014 A 
ATOM     46  C   UNL A   1      37.677  28.867  29.898  1.00  0.00     0.010 A 
ATOM     47  C   UNL A   1      38.267  29.424  27.606  1.00  0.00     0.010 A 
ATOM     48  C   UNL A   1      38.611  28.965  28.878  1.00  0.00    -0.014 A 
BRANCH  48  49
ATOM     49  C   UNL A   1      39.997  28.587  29.002  1.00  0.00     0.031 A 
ATOM     50  C   UNL A   1      40.351  27.209  28.649  1.00  0.00     0.074 A 
ATOM     51  C   UNL A   1      40.898  29.567  29.221  1.00  0.00     0.049 A 
ATOM     52  N   UNL A   1      41.396  26.596  29.072  1.00  0.00    -0.248 NA
ATOM     53  C   UNL A   1      39.495  26.378  27.809  1.00  0.00     0.031 C 
ATOM     54  C   UNL A   1      42.343  29.526  29.049  1.00  0.00     0.029 A 
ATOM     55  N   UNL A   1      40.656  30.819  29.815  1.00  0.00    -0.354 N 
ATOM     56  C   UNL A   1      41.531  25.455  28.309  1.00  0.00     0.074 A 
ATOM     57  C   UNL A   1      40.260  25.296  27.648  1.00  0.00     0.031 C 
ATOM     58  C   UNL A   1      42.893  30.514  29.780  1.00  0.00     0.029 A 
ATOM     59  C   UNL A   1      41.821  31.114  30.558  1.00  0.00     0.049 A 
ATOM     60  H   UNL A   1      39.846  31.371  29.731  1.00  0.00     0.167 HD
ATOM     61  C   UNL A   1      42.774  24.906  28.196  1.00  0.00     0.037 A 
ATOM     62  C   UNL A   1      41.770  31.142  31.925  1.00  0.00     0.037 A 
ATOM     63  C   UNL A   1      43.714  25.654  29.035  1.00  0.00     0.049 A 
ATOM     64  C   UNL A   1      42.618  30.063  32.554  1.00  0.00     0.074 A 
ATOM     65  C   UNL A   1      44.601  26.678  28.737  1.00  0.00     0.029 A 
ATOM     66  N   UNL A   1      43.543  25.669  30.415  1.00  0.00    -0.354 N 
ATOM     67  N   UNL A   1      42.928  28.945  31.958  1.00  0.00    -0.248 NA
ATOM     68  C   UNL A   1      43.190  30.166  33.893  1.00  0.00     0.031 C 
ATOM     69  C   UNL A   1      44.909  27.351  29.946  1.00  0.00     0.029 A 
ATOM     70  C   UNL A   1      44.230  26.728  30.979  1.00  0.00     0.049 A 
ATOM     71  H   UNL A   1      43.006  25.016  30.921  1.00  0.00     0.167 HD
ATOM     72  C   UNL A   1      43.721  28.193  32.785  1.00  0.00     0.074 A 
ATOM     73  C   UNL A   1      43.858  29.003  33.982  1.00  0.00     0.031 C 
ATOM     74  C   UNL A   1      44.200  26.967  32.415  1.00  0.00     0.037 A 
BRANCH  61  75
ATOM     75  C   UNL A   1      43.223  23.944  27.113  1.00  0.00     0.064 A 
ATOM     76  C   UNL A   1      42.868  22.577  27.192  1.00  0.00     0.173 A 
ATOM     77  C   UNL A   1      44.037  24.265  26.009  1.00  0.00     0.173 A 
ATOM     78  F   UNL A   1      42.022  22.125  28.127  1.00  0.00    -0.203 F 
ATOM     79  C   UNL A   1      43.363  21.611  26.310  1.00  0.00     0.198 A 
ATOM     80  C   UNL A   1      44.559  23.295  25.144  1.00  0.00     0.198 A 
ATOM     81  F   UNL A   1      44.317  25.528  25.680  1.00  0.00    -0.203 F 
ATOM     82  F   UNL A   1      42.998  20.330  26.456  1.00  0.00    -0.200 F 
ATOM     83  C   UNL A   1      44.230  21.967  25.300  1.00  0.00     0.200 A 
ATOM     84  F   UNL A   1      45.381  23.666  24.152  1.00  0.00    -0.200 F 
ATOM     85  F   UNL A   1      44.721  21.041  24.466  1.00  0.00    -0.200 F 
ENDBRANCH  61  75
BRANCH  62  86
ATOM     86  C   UNL A   1      40.438  31.598  32.423  1.00  0.00     0.064 A 
ATOM     87  C   UNL A   1      40.041  32.914  32.104  1.00  0.00     0.173 A 
ATOM     88  C   UNL A   1      39.430  30.684  32.757  1.00  0.00     0.173 A 
ATOM     89  F   UNL A   1      40.967  33.835  31.794  1.00  0.00    -0.203 F 
ATOM     90  C   UNL A   1      38.697  33.247  31.950  1.00  0.00     0.198 A 
ATOM     91  C   UNL A   1      38.083  31.034  32.633  1.00  0.00     0.198 A 
ATOM     92  F   UNL A   1      39.739  29.420  33.081  1.00  0.00    -0.203 F 
ATOM     93  F   UNL A   1      38.358  34.460  31.488  1.00  0.00    -0.200 F 
ATOM     94  C   UNL A   1      37.720  32.295  32.180  1.00  0.00     0.200 A 
ATOM     95  F   UNL A   1      37.132  30.113  32.855  1.00  0.00    -0.200 F 
ATOM     96  F   UNL A   1      36.435  32.579  31.927  1.00  0.00    -0.200 F 
ENDBRANCH  62  86
BRANCH  74  97
ATOM     97  C   UNL A   1      44.791  25.929  33.342  1.00  0.00     0.064 A 
ATOM     98  C   UNL A   1      44.036  25.167  34.248  1.00  0.00     0.173 A 
ATOM     99  C   UNL A   1      46.156  25.558  33.235  1.00  0.00     0.173 A 
ATOM    100  F   UNL A   1      42.708  25.304  34.345  1.00  0.00    -0.203 F 
ATOM    101  C   UNL A   1      44.616  24.182  35.051  1.00  0.00     0.198 A 
ATOM    102  C   UNL A   1      46.713  24.522  33.980  1.00  0.00     0.198 A 
ATOM    103  F   UNL A   1      46.991  26.166  32.379  1.00  0.00    -0.203 F 
ATOM    104  F   UNL A   1      43.861  23.531  35.947  1.00  0.00    -0.200 F 
ATOM    105  C   UNL A   1      45.950  23.852  34.910  1.00  0.00     0.200 A 
ATOM    106  F   UNL A   1      47.990  24.167  33.775  1.00  0.00    -0.200 F 
ATOM    107  F   UNL A   1      46.490  22.875  35.650  1.00  0.00    -0.200 F 
ENDBRANCH  74  97
ENDBRANCH  48  49
ENDBRANCH  40  43
ENDBRANCH  38  39
ENDBRANCH  37  38
ENDBRANCH  36  37
ENDBRANCH   1  36
TORSDOF 17
ENDMDL
MODEL 3
REMARK VINA RESULT:     -13.5      2.290      4.951
REMARK SMILES Cc1ccc(-c2c(C)sc(NC(=O)[C@H]3CC=CC[C@H]3C(=O)NCCCCCCNC(=O)c3ccc(-c4c5nc(c(-c6c(F)c(F)c(F)c(F)c6F)c6ccc([nH]6)c(-c6c(F)c(F)c(F)c(F)c6F)c6nc(c(-c7c(F)c(F)c(F)c(F)c7F)c7ccc4[nH]7)C=C6)C=C5)cc3)c2C(N)=O)cc1
REMARK SMILES IDX 25 1 24 2 23 3 22 4 20 5 21 6 19 8 14 9 15 10 16 11 18 12
REMARK SMILES IDX 17 13 12 14 11 15 13 17 10 18 6 19 7 20 95 21 8 22 9 23 5 24
REMARK SMILES IDX 1 25 2 26 3 27 100 28 4 29 99 30 96 31 97 32 98 33 26 36
REMARK SMILES IDX 27 37 28 38 29 39 30 40 31 42 32 43 33 44 94 45 34 46 93 47
REMARK SMILES IDX 35 48 36 49 37 50 87 51 38 52 92 53 86 54 88 55 39 56 91 57
REMARK SMILES IDX 85 58 84 59 40 61 72 62 52 63 71 64 53 65 56 66 70 67 89 68
REMARK SMILES IDX 54 69 55 70 69 72 90 73 57 74 41 75 42 76 50 77 43 78 44 79
REMARK SMILES IDX 48 80 51 81 45 82 46 83 49 84 47 85 73 86 74 87 82 88 75 89
REMARK SMILES IDX 76 90 80 91 83 92 77 93 78 94 81 95 79 96 58 97 59 98 67 99
REMARK SMILES IDX 60 100 61 101 65 102 68 103 62 104 63 105 66 106 64 107
REMARK H PARENT 22 7 11 16 97 34 97 35 29 41 88 60 56 71
REMARK Flexibility Score: inf
ROOT
ATOM      1  C   UNL A   1      34.223  28.927  26.154  1.00  0.00     0.002 C 
ENDROOT
BRANCH   1   2
ATOM      2  C   UNL A   1      33.362  27.659  26.121  1.00  0.00     0.021 C 
BRANCH   2   3
ATOM      3  C   UNL A   1      34.163  26.381  25.874  1.00  0.00     0.116 C 
BRANCH   3   4
ATOM      4  N   UNL A   1      34.020  25.978  24.508  1.00  0.00    -0.356 N 
ATOM      5  C   UNL A   1      34.489  24.879  23.884  1.00  0.00     0.224 C 
ATOM      6  O   UNL A   1      34.459  24.891  22.650  1.00  0.00    -0.275 OA
ATOM      7  H   UNL A   1      33.503  26.594  23.940  1.00  0.00     0.163 HD
BRANCH   5   8
ATOM      8  C   UNL A   1      34.952  23.638  24.628  1.00  0.00     0.095 C 
ATOM      9  C   UNL A   1      34.145  23.064  25.810  1.00  0.00     0.095 C 
ATOM     10  C   UNL A   1      35.134  22.307  26.721  1.00  0.00     0.041 C 
ATOM     11  C   UNL A   1      36.249  21.597  25.974  1.00  0.00    -0.030 C 
ATOM     12  C   UNL A   1      35.600  22.565  23.761  1.00  0.00     0.041 C 
ATOM     13  C   UNL A   1      36.424  21.667  24.642  1.00  0.00    -0.030 C 
BRANCH   9  14
ATOM     14  C   UNL A   1      32.742  22.416  25.607  1.00  0.00     0.229 C 
ATOM     15  N   UNL A   1      31.556  22.959  25.203  1.00  0.00    -0.317 N 
ATOM     16  H   UNL A   1      30.774  22.419  25.463  1.00  0.00     0.170 HD
ATOM     17  O   UNL A   1      32.620  21.228  25.962  1.00  0.00    -0.274 OA
BRANCH  15  18
ATOM     18  C   UNL A   1      31.218  24.101  24.508  1.00  0.00     0.109 A 
ATOM     19  C   UNL A   1      30.482  26.179  23.729  1.00  0.00     0.010 A 
ATOM     20  C   UNL A   1      31.079  25.610  22.613  1.00  0.00     0.012 A 
ATOM     21  C   UNL A   1      30.557  25.275  24.888  1.00  0.00     0.082 A 
ATOM     22  C   UNL A   1      31.523  26.186  21.309  1.00  0.00     0.057 C 
ATOM     23  S   UNL A   1      31.098  23.928  22.826  1.00  0.00    -0.122 S 
BRANCH  19  24
ATOM     24  C   UNL A   1      29.825  27.479  23.590  1.00  0.00    -0.016 A 
ATOM     25  C   UNL A   1      28.105  31.427  23.285  1.00  0.00     0.044 C 
ATOM     26  C   UNL A   1      28.692  30.053  23.416  1.00  0.00    -0.051 A 
ATOM     27  C   UNL A   1      27.938  28.913  23.096  1.00  0.00     0.004 A 
ATOM     28  C   UNL A   1      30.018  29.897  23.820  1.00  0.00     0.004 A 
ATOM     29  C   UNL A   1      28.497  27.630  23.192  1.00  0.00     0.009 A 
ATOM     30  C   UNL A   1      30.580  28.627  23.889  1.00  0.00     0.009 A 
ENDBRANCH  19  24
BRANCH  21  31
ATOM     31  C   UNL A   1      30.007  25.600  26.211  1.00  0.00     0.252 C 
ATOM     32  N   UNL A   1      29.040  24.776  26.725  1.00  0.00    -0.365 N 
ATOM     33  O   UNL A   1      30.353  26.552  26.886  1.00  0.00    -0.269 OA
ATOM     34  H   UNL A   1      28.733  23.995  26.210  1.00  0.00     0.159 HD
ATOM     35  H   UNL A   1      28.652  24.964  27.610  1.00  0.00     0.159 HD
ENDBRANCH  21  31
ENDBRANCH  15  18
ENDBRANCH   9  14
ENDBRANCH   5   8
ENDBRANCH   3   4
ENDBRANCH   2   3
ENDBRANCH   1   2
BRANCH   1  36
ATOM     36  C   UNL A   1      35.259  28.983  27.286  1.00  0.00     0.002 C 
BRANCH  36  37
ATOM     37  C   UNL A   1      35.106  30.154  28.256  1.00  0.00     0.021 C 
BRANCH  37  38
ATOM     38  C   UNL A   1      35.370  31.502  27.616  1.00  0.00     0.116 C 
BRANCH  38  39
ATOM     39  N   UNL A   1      34.579  32.565  28.202  1.00  0.00    -0.352 N 
ATOM     40  C   UNL A   1      34.697  33.184  29.429  1.00  0.00     0.251 C 
ATOM     41  H   UNL A   1      33.844  32.897  27.638  1.00  0.00     0.163 HD
ATOM     42  O   UNL A   1      33.761  33.853  29.857  1.00  0.00    -0.269 OA
BRANCH  40  43
ATOM     43  C   UNL A   1      36.013  33.230  30.113  1.00  0.00     0.039 A 
ATOM     44  C   UNL A   1      37.052  33.847  29.398  1.00  0.00     0.014 A 
ATOM     45  C   UNL A   1      36.301  32.407  31.194  1.00  0.00     0.014 A 
ATOM     46  C   UNL A   1      38.353  33.397  29.567  1.00  0.00     0.010 A 
ATOM     47  C   UNL A   1      37.551  31.857  31.270  1.00  0.00     0.010 A 
ATOM     48  C   UNL A   1      38.549  32.311  30.407  1.00  0.00    -0.014 A 
BRANCH  48  49
ATOM     49  C   UNL A   1      39.781  31.567  30.504  1.00  0.00     0.031 A 
ATOM     50  C   UNL A   1      39.833  30.265  29.834  1.00  0.00     0.074 A 
ATOM     51  C   UNL A   1      40.858  32.202  31.010  1.00  0.00     0.049 A 
ATOM     52  N   UNL A   1      40.645  29.321  30.141  1.00  0.00    -0.248 NA
ATOM     53  C   UNL A   1      38.905  29.902  28.767  1.00  0.00     0.031 C 
ATOM     54  C   UNL A   1      42.262  31.827  30.909  1.00  0.00     0.029 A 
ATOM     55  N   UNL A   1      40.856  33.301  31.887  1.00  0.00    -0.354 N 
ATOM     56  C   UNL A   1      40.591  28.393  29.123  1.00  0.00     0.074 A 
ATOM     57  C   UNL A   1      39.402  28.727  28.379  1.00  0.00     0.031 C 
ATOM     58  C   UNL A   1      42.944  32.442  31.893  1.00  0.00     0.029 A 
ATOM     59  C   UNL A   1      41.965  33.103  32.741  1.00  0.00     0.049 A 
ATOM     60  H   UNL A   1      40.217  34.049  31.904  1.00  0.00     0.167 HD
ATOM     61  C   UNL A   1      41.671  27.581  28.940  1.00  0.00     0.037 A 
ATOM     62  C   UNL A   1      41.766  32.827  34.066  1.00  0.00     0.037 A 
ATOM     63  C   UNL A   1      42.661  27.845  29.989  1.00  0.00     0.049 A 
ATOM     64  C   UNL A   1      42.254  31.450  34.446  1.00  0.00     0.074 A 
ATOM     65  C   UNL A   1      43.794  28.643  30.006  1.00  0.00     0.029 A 
ATOM     66  N   UNL A   1      42.341  27.584  31.317  1.00  0.00    -0.354 N 
ATOM     67  N   UNL A   1      42.354  30.458  33.603  1.00  0.00    -0.248 NA
ATOM     68  C   UNL A   1      42.677  31.088  35.794  1.00  0.00     0.031 C 
ATOM     69  C   UNL A   1      44.114  28.915  31.359  1.00  0.00     0.029 A 
ATOM     70  C   UNL A   1      43.192  28.268  32.164  1.00  0.00     0.049 A 
ATOM     71  H   UNL A   1      41.609  26.995  31.613  1.00  0.00     0.167 HD
ATOM     72  C   UNL A   1      42.844  29.356  34.254  1.00  0.00     0.074 A 
ATOM     73  C   UNL A   1      43.034  29.803  35.622  1.00  0.00     0.031 C 
ATOM     74  C   UNL A   1      43.056  28.168  33.611  1.00  0.00     0.037 A 
BRANCH  61  75
ATOM     75  C   UNL A   1      41.998  26.813  27.673  1.00  0.00     0.064 A 
ATOM     76  C   UNL A   1      41.487  25.507  27.489  1.00  0.00     0.173 A 
ATOM     77  C   UNL A   1      42.836  27.256  26.632  1.00  0.00     0.173 A 
ATOM     78  F   UNL A   1      40.601  24.973  28.340  1.00  0.00    -0.203 F 
ATOM     79  C   UNL A   1      41.861  24.689  26.418  1.00  0.00     0.198 A 
ATOM     80  C   UNL A   1      43.237  26.428  25.576  1.00  0.00     0.198 A 
ATOM     81  F   UNL A   1      43.259  28.520  26.554  1.00  0.00    -0.203 F 
ATOM     82  F   UNL A   1      41.351  23.454  26.316  1.00  0.00    -0.200 F 
ATOM     83  C   UNL A   1      42.757  25.142  25.474  1.00  0.00     0.200 A 
ATOM     84  F   UNL A   1      44.090  26.897  24.654  1.00  0.00    -0.200 F 
ATOM     85  F   UNL A   1      43.132  24.354  24.457  1.00  0.00    -0.200 F 
ENDBRANCH  61  75
BRANCH  62  86
ATOM     86  C   UNL A   1      40.533  33.485  34.593  1.00  0.00     0.064 A 
ATOM     87  C   UNL A   1      39.385  32.680  34.753  1.00  0.00     0.173 A 
ATOM     88  C   UNL A   1      40.598  34.671  35.337  1.00  0.00     0.173 A 
ATOM     89  F   UNL A   1      39.264  31.542  34.051  1.00  0.00    -0.203 F 
ATOM     90  C   UNL A   1      38.441  32.955  35.739  1.00  0.00     0.198 A 
ATOM     91  C   UNL A   1      39.629  34.958  36.302  1.00  0.00     0.198 A 
ATOM     92  F   UNL A   1      41.656  35.487  35.224  1.00  0.00    -0.203 F 
ATOM     93  F   UNL A   1      37.449  32.084  35.976  1.00  0.00    -0.200 F 
ATOM     94  C   UNL A   1      38.584  34.076  36.537  1.00  0.00     0.200 A 
ATOM     95  F   UNL A   1      39.764  36.045  37.078  1.00  0.00    -0.200 F 
ATOM     96  F   UNL A   1      37.739  34.285  37.557  1.00  0.00    -0.200 F 
ENDBRANCH  62  86
BRANCH  74  97
ATOM     97  C   UNL A   1      43.272  26.827  34.275  1.00  0.00     0.064 A 
ATOM     98  C   UNL A   1      42.235  26.028  34.784  1.00  0.00     0.173 A 
ATOM     99  C   UNL A   1      44.555  26.224  34.285  1.00  0.00     0.173 A 
ATOM    100  F   UNL A   1      40.953  26.406  34.701  1.00  0.00    -0.203 F 
ATOM    101  C   UNL A   1      42.474  24.771  35.345  1.00  0.00     0.198 A 
ATOM    102  C   UNL A   1      44.777  24.938  34.773  1.00  0.00     0.198 A 
ATOM    103  F   UNL A   1      45.636  26.847  33.792  1.00  0.00    -0.203 F 
ATOM    104  F   UNL A   1      41.456  24.080  35.876  1.00  0.00    -0.200 F 
ATOM    105  C   UNL A   1      43.741  24.222  35.330  1.00  0.00     0.200 A 
ATOM    106  F   UNL A   1      46.000  24.394  34.681  1.00  0.00    -0.200 F 
ATOM    107  F   UNL A   1      43.957  22.998  35.828  1.00  0.00    -0.200 F 
ENDBRANCH  74  97
ENDBRANCH  48  49
ENDBRANCH  40  43
ENDBRANCH  38  39
ENDBRANCH  37  38
ENDBRANCH  36  37
ENDBRANCH   1  36
TORSDOF 17
ENDMDL
