MODEL 1
REMARK VINA RESULT:     -12.1      0.000      0.000
REMARK SMILES Cc1cc(C(=O)Nc2ccn(C)n2)sc1/C=C/C(=O)NCCCCCCNC(=O)c1ccc(-c2c3nc(c(-c4c(F)c(F)c(F)c(F)c4F)c4ccc([nH]4)c(-c4c(F)c(F)c(F)c(F)c4F)c4nc(c(-c5c(F)c(F)c(F)c(F)c5F)c5ccc2[nH]5)C=C4)C=C3)cc1
REMARK SMILES IDX 23 1 22 2 21 3 20 4 18 5 19 6 17 8 16 9 15 10 1 11 2 12 3 13
REMARK SMILES IDX 4 14 14 15 5 16 6 17 7 18 8 20 9 21 13 22 10 23 11 24 12 25
REMARK SMILES IDX 24 26 25 27 26 28 27 29 28 30 29 32 30 33 31 34 92 35 32 36
REMARK SMILES IDX 91 37 33 38 34 39 35 40 85 41 36 42 90 43 84 44 86 45 37 46
REMARK SMILES IDX 89 47 83 48 82 49 38 51 70 52 50 53 69 54 51 55 54 56 68 57
REMARK SMILES IDX 87 58 52 59 53 60 67 62 88 63 55 64 39 65 40 66 48 67 41 68
REMARK SMILES IDX 42 69 46 70 49 71 43 72 44 73 47 74 45 75 71 76 72 77 80 78
REMARK SMILES IDX 73 79 74 80 78 81 81 82 75 83 76 84 79 85 77 86 56 87 57 88
REMARK SMILES IDX 65 89 58 90 59 91 63 92 66 93 60 94 61 95 64 96 62 97
REMARK H PARENT 20 7 7 19 27 31 86 50 54 61
REMARK Flexibility Score: inf
ROOT
ATOM      1  C   UNL A   1      33.687  21.404  26.739  1.00  0.00     0.002 C 
ENDROOT
BRANCH   1   2
ATOM      2  C   UNL A   1      32.977  20.857  25.496  1.00  0.00     0.021 C 
BRANCH   2   3
ATOM      3  C   UNL A   1      31.818  21.745  25.042  1.00  0.00     0.116 C 
BRANCH   3   4
ATOM      4  N   UNL A   1      30.908  21.971  26.148  1.00  0.00    -0.353 N 
ATOM      5  C   UNL A   1      30.440  23.124  26.689  1.00  0.00     0.244 C 
ATOM      6  O   UNL A   1      29.630  23.082  27.612  1.00  0.00    -0.270 OA
ATOM      7  H   UNL A   1      30.574  21.150  26.578  1.00  0.00     0.163 HD
BRANCH   5   8
ATOM      8  C   UNL A   1      30.816  24.431  26.112  1.00  0.00     0.072 C 
ATOM      9  C   UNL A   1      31.883  25.146  26.498  1.00  0.00     0.025 C 
BRANCH   9  10
ATOM     10  C   UNL A   1      32.228  26.420  25.958  1.00  0.00     0.031 A 
ATOM     11  C   UNL A   1      31.447  28.030  27.810  1.00  0.00     0.046 C 
ATOM     12  C   UNL A   1      31.928  27.693  26.436  1.00  0.00    -0.032 A 
ATOM     13  C   UNL A   1      32.080  28.671  25.389  1.00  0.00     0.029 A 
ATOM     14  C   UNL A   1      32.577  28.135  24.214  1.00  0.00     0.093 A 
ATOM     15  S   UNL A   1      33.219  26.591  24.568  1.00  0.00    -0.130 S 
BRANCH  14  16
ATOM     16  C   UNL A   1      32.777  28.816  22.936  1.00  0.00     0.266 C 
ATOM     17  O   UNL A   1      33.914  29.041  22.510  1.00  0.00    -0.268 OA
ATOM     18  N   UNL A   1      31.721  29.156  22.119  1.00  0.00    -0.304 N 
ATOM     19  H   UNL A   1      31.955  29.297  21.173  1.00  0.00     0.171 HD
BRANCH  18  20
ATOM     20  C   UNL A   1      30.394  29.327  22.418  1.00  0.00     0.154 A 
ATOM     21  C   UNL A   1      29.407  28.367  22.750  1.00  0.00     0.068 A 
ATOM     22  N   UNL A   1      29.880  30.559  22.411  1.00  0.00    -0.155 NA
ATOM     23  C   UNL A   1      28.219  29.061  22.755  1.00  0.00     0.110 A 
ATOM     24  N   UNL A   1      28.551  30.350  22.464  1.00  0.00    -0.274 N 
ATOM     25  C   UNL A   1      27.650  31.421  22.116  1.00  0.00     0.173 C 
ENDBRANCH  18  20
ENDBRANCH  14  16
ENDBRANCH   9  10
ENDBRANCH   5   8
ENDBRANCH   3   4
ENDBRANCH   2   3
ENDBRANCH   1   2
BRANCH   1  26
ATOM     26  C   UNL A   1      35.141  21.833  26.501  1.00  0.00     0.002 C 
BRANCH  26  27
ATOM     27  C   UNL A   1      35.317  23.301  26.103  1.00  0.00     0.021 C 
BRANCH  27  28
ATOM     28  C   UNL A   1      36.676  23.616  25.487  1.00  0.00     0.116 C 
BRANCH  28  29
ATOM     29  N   UNL A   1      37.675  22.631  25.871  1.00  0.00    -0.352 N 
ATOM     30  C   UNL A   1      38.925  22.824  26.400  1.00  0.00     0.251 C 
ATOM     31  H   UNL A   1      37.415  21.692  25.732  1.00  0.00     0.163 HD
ATOM     32  O   UNL A   1      39.732  21.902  26.435  1.00  0.00    -0.269 OA
BRANCH  30  33
ATOM     33  C   UNL A   1      39.300  24.153  26.923  1.00  0.00     0.039 A 
ATOM     34  C   UNL A   1      38.950  24.488  28.233  1.00  0.00     0.014 A 
ATOM     35  C   UNL A   1      39.978  25.071  26.116  1.00  0.00     0.014 A 
ATOM     36  C   UNL A   1      39.326  25.729  28.751  1.00  0.00     0.010 A 
ATOM     37  C   UNL A   1      40.417  26.275  26.657  1.00  0.00     0.010 A 
ATOM     38  C   UNL A   1      40.087  26.619  27.976  1.00  0.00    -0.014 A 
BRANCH  38  39
ATOM     39  C   UNL A   1      40.544  27.919  28.528  1.00  0.00     0.031 A 
ATOM     40  C   UNL A   1      41.991  28.121  28.881  1.00  0.00     0.074 A 
ATOM     41  C   UNL A   1      39.644  28.891  28.769  1.00  0.00     0.049 A 
ATOM     42  N   UNL A   1      42.573  29.159  29.429  1.00  0.00    -0.248 NA
ATOM     43  C   UNL A   1      42.901  26.999  28.607  1.00  0.00     0.031 C 
ATOM     44  C   UNL A   1      38.207  28.795  28.512  1.00  0.00     0.029 A 
ATOM     45  N   UNL A   1      39.805  30.149  29.293  1.00  0.00    -0.354 N 
ATOM     46  C   UNL A   1      43.908  28.808  29.576  1.00  0.00     0.074 A 
ATOM     47  C   UNL A   1      44.041  27.443  29.115  1.00  0.00     0.031 C 
ATOM     48  C   UNL A   1      37.621  29.953  28.855  1.00  0.00     0.029 A 
ATOM     49  C   UNL A   1      38.632  30.857  29.394  1.00  0.00     0.049 A 
ATOM     50  H   UNL A   1      40.678  30.510  29.571  1.00  0.00     0.167 HD
ATOM     51  C   UNL A   1      44.935  29.565  30.033  1.00  0.00     0.037 A 
ATOM     52  C   UNL A   1      38.400  32.093  29.874  1.00  0.00     0.037 A 
ATOM     53  C   UNL A   1      44.798  30.930  30.472  1.00  0.00     0.049 A 
ATOM     54  C   UNL A   1      39.555  32.908  30.387  1.00  0.00     0.074 A 
ATOM     55  C   UNL A   1      45.785  31.802  30.894  1.00  0.00     0.029 A 
ATOM     56  N   UNL A   1      43.595  31.617  30.551  1.00  0.00    -0.354 N 
ATOM     57  N   UNL A   1      40.826  32.594  30.454  1.00  0.00    -0.248 NA
ATOM     58  C   UNL A   1      39.243  34.254  30.887  1.00  0.00     0.031 C 
ATOM     59  C   UNL A   1      45.173  32.999  31.280  1.00  0.00     0.029 A 
ATOM     60  C   UNL A   1      43.811  32.894  31.043  1.00  0.00     0.049 A 
ATOM     61  H   UNL A   1      42.718  31.250  30.296  1.00  0.00     0.167 HD
ATOM     62  C   UNL A   1      41.469  33.708  30.976  1.00  0.00     0.074 A 
ATOM     63  C   UNL A   1      40.448  34.713  31.192  1.00  0.00     0.031 C 
ATOM     64  C   UNL A   1      42.785  33.884  31.250  1.00  0.00     0.037 A 
BRANCH  51  65
ATOM     65  C   UNL A   1      46.296  28.932  30.081  1.00  0.00     0.064 A 
ATOM     66  C   UNL A   1      47.160  28.952  28.973  1.00  0.00     0.173 A 
ATOM     67  C   UNL A   1      46.755  28.318  31.255  1.00  0.00     0.173 A 
ATOM     68  F   UNL A   1      46.767  29.516  27.821  1.00  0.00    -0.203 F 
ATOM     69  C   UNL A   1      48.415  28.351  29.031  1.00  0.00     0.198 A 
ATOM     70  C   UNL A   1      48.024  27.748  31.320  1.00  0.00     0.198 A 
ATOM     71  F   UNL A   1      45.974  28.274  32.345  1.00  0.00    -0.203 F 
ATOM     72  F   UNL A   1      49.198  28.335  27.943  1.00  0.00    -0.200 F 
ATOM     73  C   UNL A   1      48.849  27.757  30.206  1.00  0.00     0.200 A 
ATOM     74  F   UNL A   1      48.448  27.186  32.461  1.00  0.00    -0.200 F 
ATOM     75  F   UNL A   1      50.059  27.183  30.261  1.00  0.00    -0.200 F 
ENDBRANCH  51  65
BRANCH  52  76
ATOM     76  C   UNL A   1      37.019  32.643  29.866  1.00  0.00     0.064 A 
ATOM     77  C   UNL A   1      36.525  33.329  28.749  1.00  0.00     0.173 A 
ATOM     78  C   UNL A   1      36.166  32.491  30.968  1.00  0.00     0.173 A 
ATOM     79  F   UNL A   1      37.309  33.515  27.677  1.00  0.00    -0.203 F 
ATOM     80  C   UNL A   1      35.237  33.861  28.741  1.00  0.00     0.198 A 
ATOM     81  C   UNL A   1      34.867  32.997  30.949  1.00  0.00     0.198 A 
ATOM     82  F   UNL A   1      36.588  31.837  32.060  1.00  0.00    -0.203 F 
ATOM     83  F   UNL A   1      34.806  34.551  27.676  1.00  0.00    -0.200 F 
ATOM     84  C   UNL A   1      34.407  33.689  29.839  1.00  0.00     0.200 A 
ATOM     85  F   UNL A   1      34.064  32.814  32.005  1.00  0.00    -0.200 F 
ATOM     86  F   UNL A   1      33.166  34.196  29.830  1.00  0.00    -0.200 F 
ENDBRANCH  52  76
BRANCH  64  87
ATOM     87  C   UNL A   1      43.203  35.225  31.783  1.00  0.00     0.064 A 
ATOM     88  C   UNL A   1      43.648  36.250  30.936  1.00  0.00     0.173 A 
ATOM     89  C   UNL A   1      43.120  35.498  33.157  1.00  0.00     0.173 A 
ATOM     90  F   UNL A   1      43.759  36.034  29.616  1.00  0.00    -0.203 F 
ATOM     91  C   UNL A   1      44.021  37.490  31.446  1.00  0.00     0.198 A 
ATOM     92  C   UNL A   1      43.462  36.749  33.661  1.00  0.00     0.198 A 
ATOM     93  F   UNL A   1      42.695  34.556  34.011  1.00  0.00    -0.203 F 
ATOM     94  F   UNL A   1      44.492  38.438  30.624  1.00  0.00    -0.200 F 
ATOM     95  C   UNL A   1      43.920  37.742  32.807  1.00  0.00     0.200 A 
ATOM     96  F   UNL A   1      43.350  36.996  34.974  1.00  0.00    -0.200 F 
ATOM     97  F   UNL A   1      44.273  38.939  33.296  1.00  0.00    -0.200 F 
ENDBRANCH  64  87
ENDBRANCH  38  39
ENDBRANCH  30  33
ENDBRANCH  28  29
ENDBRANCH  27  28
ENDBRANCH  26  27
ENDBRANCH   1  26
TORSDOF 16
ENDMDL
MODEL 2
REMARK VINA RESULT:     -11.8      3.683      6.428
REMARK SMILES Cc1cc(C(=O)Nc2ccn(C)n2)sc1/C=C/C(=O)NCCCCCCNC(=O)c1ccc(-c2c3nc(c(-c4c(F)c(F)c(F)c(F)c4F)c4ccc([nH]4)c(-c4c(F)c(F)c(F)c(F)c4F)c4nc(c(-c5c(F)c(F)c(F)c(F)c5F)c5ccc2[nH]5)C=C4)C=C3)cc1
REMARK SMILES IDX 23 1 22 2 21 3 20 4 18 5 19 6 17 8 16 9 15 10 1 11 2 12 3 13
REMARK SMILES IDX 4 14 14 15 5 16 6 17 7 18 8 20 9 21 13 22 10 23 11 24 12 25
REMARK SMILES IDX 24 26 25 27 26 28 27 29 28 30 29 32 30 33 31 34 92 35 32 36
REMARK SMILES IDX 91 37 33 38 34 39 35 40 85 41 36 42 90 43 84 44 86 45 37 46
REMARK SMILES IDX 89 47 83 48 82 49 38 51 70 52 50 53 69 54 51 55 54 56 68 57
REMARK SMILES IDX 87 58 52 59 53 60 67 62 88 63 55 64 39 65 40 66 48 67 41 68
REMARK SMILES IDX 42 69 46 70 49 71 43 72 44 73 47 74 45 75 71 76 72 77 80 78
REMARK SMILES IDX 73 79 74 80 78 81 81 82 75 83 76 84 79 85 77 86 56 87 57 88
REMARK SMILES IDX 65 89 58 90 59 91 63 92 66 93 60 94 61 95 64 96 62 97
REMARK H PARENT 20 7 7 19 27 31 86 50 54 61
REMARK Flexibility Score: inf
ROOT
ATOM      1  C   UNL A   1      41.069  22.417  26.338  1.00  0.00     0.002 C 
ENDROOT
BRANCH   1   2
ATOM      2  C   UNL A   1      39.848  23.062  27.002  1.00  0.00     0.021 C 
BRANCH   2   3
ATOM      3  C   UNL A   1      38.584  22.945  26.149  1.00  0.00     0.116 C 
BRANCH   3   4
ATOM      4  N   UNL A   1      38.583  21.680  25.440  1.00  0.00    -0.353 N 
ATOM      5  C   UNL A   1      37.570  20.823  25.158  1.00  0.00     0.244 C 
ATOM      6  O   UNL A   1      37.790  19.810  24.498  1.00  0.00    -0.270 OA
ATOM      7  H   UNL A   1      39.466  21.397  25.106  1.00  0.00     0.163 HD
BRANCH   5   8
ATOM      8  C   UNL A   1      36.183  21.145  25.552  1.00  0.00     0.072 C 
ATOM      9  C   UNL A   1      35.093  20.704  24.906  1.00  0.00     0.025 C 
BRANCH   9  10
ATOM     10  C   UNL A   1      33.757  21.040  25.273  1.00  0.00     0.031 A 
ATOM     11  C   UNL A   1      32.372  19.815  23.481  1.00  0.00     0.046 C 
ATOM     12  C   UNL A   1      32.566  20.787  24.599  1.00  0.00    -0.032 A 
ATOM     13  C   UNL A   1      31.522  21.654  25.082  1.00  0.00     0.029 A 
ATOM     14  C   UNL A   1      31.920  22.440  26.150  1.00  0.00     0.093 A 
ATOM     15  S   UNL A   1      33.376  21.792  26.767  1.00  0.00    -0.130 S 
BRANCH  14  16
ATOM     16  C   UNL A   1      31.150  23.481  26.828  1.00  0.00     0.266 C 
ATOM     17  O   UNL A   1      30.218  23.188  27.584  1.00  0.00    -0.268 OA
ATOM     18  N   UNL A   1      31.481  24.815  26.726  1.00  0.00    -0.304 N 
ATOM     19  H   UNL A   1      31.136  25.386  27.450  1.00  0.00     0.171 HD
BRANCH  18  20
ATOM     20  C   UNL A   1      32.216  25.470  25.772  1.00  0.00     0.154 A 
ATOM     21  C   UNL A   1      33.521  26.016  25.850  1.00  0.00     0.068 A 
ATOM     22  N   UNL A   1      31.686  25.666  24.563  1.00  0.00    -0.155 NA
ATOM     23  C   UNL A   1      33.681  26.727  24.682  1.00  0.00     0.110 A 
ATOM     24  N   UNL A   1      32.522  26.550  23.988  1.00  0.00    -0.274 N 
ATOM     25  C   UNL A   1      32.092  27.275  22.817  1.00  0.00     0.173 C 
ENDBRANCH  18  20
ENDBRANCH  14  16
ENDBRANCH   9  10
ENDBRANCH   5   8
ENDBRANCH   3   4
ENDBRANCH   2   3
ENDBRANCH   1   2
BRANCH   1  26
ATOM     26  C   UNL A   1      41.588  21.160  27.050  1.00  0.00     0.002 C 
BRANCH  26  27
ATOM     27  C   UNL A   1      41.750  19.935  26.147  1.00  0.00     0.021 C 
BRANCH  27  28
ATOM     28  C   UNL A   1      43.027  19.142  26.403  1.00  0.00     0.116 C 
BRANCH  28  29
ATOM     29  N   UNL A   1      43.742  18.870  25.166  1.00  0.00    -0.352 N 
ATOM     30  C   UNL A   1      44.376  19.743  24.320  1.00  0.00     0.251 C 
ATOM     31  H   UNL A   1      43.776  17.923  24.899  1.00  0.00     0.163 HD
ATOM     32  O   UNL A   1      44.714  19.383  23.198  1.00  0.00    -0.269 OA
BRANCH  30  33
ATOM     33  C   UNL A   1      44.645  21.125  24.764  1.00  0.00     0.039 A 
ATOM     34  C   UNL A   1      44.228  22.188  23.959  1.00  0.00     0.014 A 
ATOM     35  C   UNL A   1      45.323  21.370  25.962  1.00  0.00     0.014 A 
ATOM     36  C   UNL A   1      44.447  23.500  24.382  1.00  0.00     0.010 A 
ATOM     37  C   UNL A   1      45.473  22.676  26.417  1.00  0.00     0.010 A 
ATOM     38  C   UNL A   1      45.045  23.753  25.628  1.00  0.00    -0.014 A 
BRANCH  38  39
ATOM     39  C   UNL A   1      45.235  25.141  26.119  1.00  0.00     0.031 A 
ATOM     40  C   UNL A   1      46.596  25.777  26.077  1.00  0.00     0.074 A 
ATOM     41  C   UNL A   1      44.194  25.801  26.660  1.00  0.00     0.049 A 
ATOM     42  N   UNL A   1      46.975  26.951  26.512  1.00  0.00    -0.248 NA
ATOM     43  C   UNL A   1      47.681  24.975  25.491  1.00  0.00     0.031 C 
ATOM     44  C   UNL A   1      42.837  25.271  26.799  1.00  0.00     0.029 A 
ATOM     45  N   UNL A   1      44.117  27.059  27.202  1.00  0.00    -0.354 N 
ATOM     46  C   UNL A   1      48.340  27.022  26.266  1.00  0.00     0.074 A 
ATOM     47  C   UNL A   1      48.735  25.752  25.696  1.00  0.00     0.031 C 
ATOM     48  C   UNL A   1      42.057  26.205  27.365  1.00  0.00     0.029 A 
ATOM     49  C   UNL A   1      42.865  27.383  27.666  1.00  0.00     0.049 A 
ATOM     50  H   UNL A   1      44.886  27.672  27.255  1.00  0.00     0.167 HD
ATOM     51  C   UNL A   1      49.183  28.062  26.474  1.00  0.00     0.037 A 
ATOM     52  C   UNL A   1      42.423  28.500  28.272  1.00  0.00     0.037 A 
ATOM     53  C   UNL A   1      48.779  29.331  27.023  1.00  0.00     0.049 A 
ATOM     54  C   UNL A   1      43.382  29.636  28.504  1.00  0.00     0.074 A 
ATOM     55  C   UNL A   1      49.542  30.468  27.216  1.00  0.00     0.029 A 
ATOM     56  N   UNL A   1      47.500  29.625  27.472  1.00  0.00    -0.354 N 
ATOM     57  N   UNL A   1      44.655  29.721  28.200  1.00  0.00    -0.248 NA
ATOM     58  C   UNL A   1      42.841  30.835  29.158  1.00  0.00     0.031 C 
ATOM     59  C   UNL A   1      48.739  31.433  27.833  1.00  0.00     0.029 A 
ATOM     60  C   UNL A   1      47.459  30.918  27.970  1.00  0.00     0.049 A 
ATOM     61  H   UNL A   1      46.735  29.006  27.443  1.00  0.00     0.167 HD
ATOM     62  C   UNL A   1      45.060  30.987  28.599  1.00  0.00     0.074 A 
ATOM     63  C   UNL A   1      43.892  31.642  29.151  1.00  0.00     0.031 C 
ATOM     64  C   UNL A   1      46.287  31.557  28.515  1.00  0.00     0.037 A 
BRANCH  51  65
ATOM     65  C   UNL A   1      50.627  27.870  26.106  1.00  0.00     0.064 A 
ATOM     66  C   UNL A   1      51.595  27.528  27.065  1.00  0.00     0.173 A 
ATOM     67  C   UNL A   1      51.047  28.004  24.775  1.00  0.00     0.173 A 
ATOM     68  F   UNL A   1      51.249  27.399  28.355  1.00  0.00    -0.203 F 
ATOM     69  C   UNL A   1      52.930  27.363  26.710  1.00  0.00     0.198 A 
ATOM     70  C   UNL A   1      52.378  27.805  24.417  1.00  0.00     0.198 A 
ATOM     71  F   UNL A   1      50.164  28.324  23.816  1.00  0.00    -0.203 F 
ATOM     72  F   UNL A   1      53.844  27.094  27.653  1.00  0.00    -0.200 F 
ATOM     73  C   UNL A   1      53.320  27.494  25.386  1.00  0.00     0.200 A 
ATOM     74  F   UNL A   1      52.750  27.918  23.134  1.00  0.00    -0.200 F 
ATOM     75  F   UNL A   1      54.606  27.331  25.045  1.00  0.00    -0.200 F 
ENDBRANCH  51  65
BRANCH  52  76
ATOM     76  C   UNL A   1      40.998  28.609  28.678  1.00  0.00     0.064 A 
ATOM     77  C   UNL A   1      40.590  28.266  29.974  1.00  0.00     0.173 A 
ATOM     78  C   UNL A   1      40.016  29.059  27.783  1.00  0.00     0.173 A 
ATOM     79  F   UNL A   1      41.490  27.813  30.860  1.00  0.00    -0.203 F 
ATOM     80  C   UNL A   1      39.253  28.350  30.356  1.00  0.00     0.198 A 
ATOM     81  C   UNL A   1      38.683  29.172  28.174  1.00  0.00     0.198 A 
ATOM     82  F   UNL A   1      40.354  29.406  26.533  1.00  0.00    -0.203 F 
ATOM     83  F   UNL A   1      38.885  27.974  31.588  1.00  0.00    -0.200 F 
ATOM     84  C   UNL A   1      38.301  28.809  29.457  1.00  0.00     0.200 A 
ATOM     85  F   UNL A   1      37.770  29.631  27.308  1.00  0.00    -0.200 F 
ATOM     86  F   UNL A   1      37.015  28.895  29.825  1.00  0.00    -0.200 F 
ENDBRANCH  52  76
BRANCH  64  87
ATOM     87  C   UNL A   1      46.424  32.972  29.001  1.00  0.00     0.064 A 
ATOM     88  C   UNL A   1      46.790  33.265  30.322  1.00  0.00     0.173 A 
ATOM     89  C   UNL A   1      46.224  34.046  28.120  1.00  0.00     0.173 A 
ATOM     90  F   UNL A   1      46.979  32.275  31.206  1.00  0.00    -0.203 F 
ATOM     91  C   UNL A   1      46.923  34.583  30.752  1.00  0.00     0.198 A 
ATOM     92  C   UNL A   1      46.390  35.361  28.544  1.00  0.00     0.198 A 
ATOM     93  F   UNL A   1      45.879  33.820  26.844  1.00  0.00    -0.203 F 
ATOM     94  F   UNL A   1      47.223  34.842  32.032  1.00  0.00    -0.200 F 
ATOM     95  C   UNL A   1      46.732  35.629  29.861  1.00  0.00     0.200 A 
ATOM     96  F   UNL A   1      46.219  36.370  27.678  1.00  0.00    -0.200 F 
ATOM     97  F   UNL A   1      46.868  36.897  30.275  1.00  0.00    -0.200 F 
ENDBRANCH  64  87
ENDBRANCH  38  39
ENDBRANCH  30  33
ENDBRANCH  28  29
ENDBRANCH  27  28
ENDBRANCH  26  27
ENDBRANCH   1  26
TORSDOF 16
ENDMDL
MODEL 3
REMARK VINA RESULT:     -11.6      4.550      9.481
REMARK SMILES Cc1cc(C(=O)Nc2ccn(C)n2)sc1/C=C/C(=O)NCCCCCCNC(=O)c1ccc(-c2c3nc(c(-c4c(F)c(F)c(F)c(F)c4F)c4ccc([nH]4)c(-c4c(F)c(F)c(F)c(F)c4F)c4nc(c(-c5c(F)c(F)c(F)c(F)c5F)c5ccc2[nH]5)C=C4)C=C3)cc1
REMARK SMILES IDX 23 1 22 2 21 3 20 4 18 5 19 6 17 8 16 9 15 10 1 11 2 12 3 13
REMARK SMILES IDX 4 14 14 15 5 16 6 17 7 18 8 20 9 21 13 22 10 23 11 24 12 25
REMARK SMILES IDX 24 26 25 27 26 28 27 29 28 30 29 32 30 33 31 34 92 35 32 36
REMARK SMILES IDX 91 37 33 38 34 39 35 40 85 41 36 42 90 43 84 44 86 45 37 46
REMARK SMILES IDX 89 47 83 48 82 49 38 51 70 52 50 53 69 54 51 55 54 56 68 57
REMARK SMILES IDX 87 58 52 59 53 60 67 62 88 63 55 64 39 65 40 66 48 67 41 68
REMARK SMILES IDX 42 69 46 70 49 71 43 72 44 73 47 74 45 75 71 76 72 77 80 78
REMARK SMILES IDX 73 79 74 80 78 81 81 82 75 83 76 84 79 85 77 86 56 87 57 88
REMARK SMILES IDX 65 89 58 90 59 91 63 92 66 93 60 94 61 95 64 96 62 97
REMARK H PARENT 20 7 7 19 27 31 86 50 54 61
REMARK Flexibility Score: inf
ROOT
ATOM      1  C   UNL A   1      33.306  34.326  28.693  1.00  0.00     0.002 C 
ENDROOT
BRANCH   1   2
ATOM      2  C   UNL A   1      34.191  33.089  28.877  1.00  0.00     0.021 C 
BRANCH   2   3
ATOM      3  C   UNL A   1      33.735  31.907  28.022  1.00  0.00     0.116 C 
BRANCH   3   4
ATOM      4  N   UNL A   1      34.730  30.853  28.068  1.00  0.00    -0.353 N 
ATOM      5  C   UNL A   1      34.841  29.707  27.349  1.00  0.00     0.244 C 
ATOM      6  O   UNL A   1      35.804  28.964  27.526  1.00  0.00    -0.270 OA
ATOM      7  H   UNL A   1      35.445  30.992  28.731  1.00  0.00     0.163 HD
BRANCH   5   8
ATOM      8  C   UNL A   1      33.868  29.393  26.282  1.00  0.00     0.072 C 
ATOM      9  C   UNL A   1      33.556  28.149  25.889  1.00  0.00     0.025 C 
BRANCH   9  10
ATOM     10  C   UNL A   1      32.636  27.851  24.841  1.00  0.00     0.031 A 
ATOM     11  C   UNL A   1      33.884  28.706  22.757  1.00  0.00     0.046 C 
ATOM     12  C   UNL A   1      32.686  28.204  23.495  1.00  0.00    -0.032 A 
ATOM     13  C   UNL A   1      31.382  28.084  22.896  1.00  0.00     0.029 A 
ATOM     14  C   UNL A   1      30.435  27.558  23.758  1.00  0.00     0.093 A 
ATOM     15  S   UNL A   1      31.258  26.858  25.082  1.00  0.00    -0.130 S 
BRANCH  14  16
ATOM     16  C   UNL A   1      29.006  27.376  23.511  1.00  0.00     0.266 C 
ATOM     17  O   UNL A   1      28.485  26.260  23.599  1.00  0.00    -0.268 OA
ATOM     18  N   UNL A   1      28.169  28.441  23.258  1.00  0.00    -0.304 N 
ATOM     19  H   UNL A   1      27.215  28.272  23.431  1.00  0.00     0.171 HD
BRANCH  18  20
ATOM     20  C   UNL A   1      28.460  29.701  22.801  1.00  0.00     0.154 A 
ATOM     21  C   UNL A   1      28.853  30.857  23.517  1.00  0.00     0.068 A 
ATOM     22  N   UNL A   1      28.375  29.954  21.492  1.00  0.00    -0.155 NA
ATOM     23  C   UNL A   1      28.816  31.879  22.597  1.00  0.00     0.110 A 
ATOM     24  N   UNL A   1      28.444  31.297  21.422  1.00  0.00    -0.274 N 
ATOM     25  C   UNL A   1      28.030  31.966  20.213  1.00  0.00     0.173 C 
ENDBRANCH  18  20
ENDBRANCH  14  16
ENDBRANCH   9  10
ENDBRANCH   5   8
ENDBRANCH   3   4
ENDBRANCH   2   3
ENDBRANCH   1   2
BRANCH   1  26
ATOM     26  C   UNL A   1      34.080  35.644  28.555  1.00  0.00     0.002 C 
BRANCH  26  27
ATOM     27  C   UNL A   1      33.323  36.884  29.038  1.00  0.00     0.021 C 
BRANCH  27  28
ATOM     28  C   UNL A   1      33.577  37.234  30.500  1.00  0.00     0.116 C 
BRANCH  28  29
ATOM     29  N   UNL A   1      32.508  36.745  31.357  1.00  0.00    -0.352 N 
ATOM     30  C   UNL A   1      32.465  35.615  32.132  1.00  0.00     0.251 C 
ATOM     31  H   UNL A   1      31.700  37.308  31.385  1.00  0.00     0.163 HD
ATOM     32  O   UNL A   1      31.401  35.223  32.597  1.00  0.00    -0.269 OA
BRANCH  30  33
ATOM     33  C   UNL A   1      33.708  34.865  32.399  1.00  0.00     0.039 A 
ATOM     34  C   UNL A   1      34.937  35.505  32.221  1.00  0.00     0.014 A 
ATOM     35  C   UNL A   1      33.661  33.528  32.804  1.00  0.00     0.014 A 
ATOM     36  C   UNL A   1      36.119  34.818  32.500  1.00  0.00     0.010 A 
ATOM     37  C   UNL A   1      34.835  32.869  33.153  1.00  0.00     0.010 A 
ATOM     38  C   UNL A   1      36.076  33.504  32.996  1.00  0.00    -0.014 A 
BRANCH  38  39
ATOM     39  C   UNL A   1      37.320  32.778  33.352  1.00  0.00     0.031 A 
ATOM     40  C   UNL A   1      38.030  33.084  34.641  1.00  0.00     0.074 A 
ATOM     41  C   UNL A   1      37.841  31.889  32.485  1.00  0.00     0.049 A 
ATOM     42  N   UNL A   1      39.158  32.602  35.100  1.00  0.00    -0.248 NA
ATOM     43  C   UNL A   1      37.404  34.085  35.518  1.00  0.00     0.031 C 
ATOM     44  C   UNL A   1      37.267  31.542  31.184  1.00  0.00     0.029 A 
ATOM     45  N   UNL A   1      38.975  31.121  32.564  1.00  0.00    -0.354 N 
ATOM     46  C   UNL A   1      39.380  33.250  36.308  1.00  0.00     0.074 A 
ATOM     47  C   UNL A   1      38.303  34.201  36.484  1.00  0.00     0.031 C 
ATOM     48  C   UNL A   1      38.039  30.613  30.598  1.00  0.00     0.029 A 
ATOM     49  C   UNL A   1      39.181  30.329  31.461  1.00  0.00     0.049 A 
ATOM     50  H   UNL A   1      39.584  31.136  33.337  1.00  0.00     0.167 HD
ATOM     51  C   UNL A   1      40.379  33.052  37.201  1.00  0.00     0.037 A 
ATOM     52  C   UNL A   1      40.183  29.476  31.177  1.00  0.00     0.037 A 
ATOM     53  C   UNL A   1      41.437  32.090  37.029  1.00  0.00     0.049 A 
ATOM     54  C   UNL A   1      41.287  29.284  32.179  1.00  0.00     0.074 A 
ATOM     55  C   UNL A   1      42.462  31.770  37.901  1.00  0.00     0.029 A 
ATOM     56  N   UNL A   1      41.608  31.298  35.902  1.00  0.00    -0.354 N 
ATOM     57  N   UNL A   1      41.450  29.847  33.352  1.00  0.00    -0.248 NA
ATOM     58  C   UNL A   1      42.347  28.331  31.820  1.00  0.00     0.031 C 
ATOM     59  C   UNL A   1      43.284  30.823  37.280  1.00  0.00     0.029 A 
ATOM     60  C   UNL A   1      42.739  30.510  36.044  1.00  0.00     0.049 A 
ATOM     61  H   UNL A   1      41.013  31.298  35.117  1.00  0.00     0.167 HD
ATOM     62  C   UNL A   1      42.610  29.300  33.882  1.00  0.00     0.074 A 
ATOM     63  C   UNL A   1      43.102  28.346  32.909  1.00  0.00     0.031 C 
ATOM     64  C   UNL A   1      43.214  29.563  35.067  1.00  0.00     0.037 A 
BRANCH  51  65
ATOM     65  C   UNL A   1      40.376  33.895  38.445  1.00  0.00     0.064 A 
ATOM     66  C   UNL A   1      39.648  33.523  39.587  1.00  0.00     0.173 A 
ATOM     67  C   UNL A   1      41.128  35.077  38.506  1.00  0.00     0.173 A 
ATOM     68  F   UNL A   1      38.903  32.407  39.579  1.00  0.00    -0.203 F 
ATOM     69  C   UNL A   1      39.647  34.320  40.729  1.00  0.00     0.198 A 
ATOM     70  C   UNL A   1      41.152  35.854  39.661  1.00  0.00     0.198 A 
ATOM     71  F   UNL A   1      41.846  35.478  37.446  1.00  0.00    -0.203 F 
ATOM     72  F   UNL A   1      38.899  33.972  41.785  1.00  0.00    -0.200 F 
ATOM     73  C   UNL A   1      40.404  35.481  40.768  1.00  0.00     0.200 A 
ATOM     74  F   UNL A   1      41.896  36.969  39.703  1.00  0.00    -0.200 F 
ATOM     75  F   UNL A   1      40.406  36.244  41.869  1.00  0.00    -0.200 F 
ENDBRANCH  51  65
BRANCH  52  76
ATOM     76  C   UNL A   1      40.170  28.719  29.898  1.00  0.00     0.064 A 
ATOM     77  C   UNL A   1      39.563  27.459  29.813  1.00  0.00     0.173 A 
ATOM     78  C   UNL A   1      40.759  29.239  28.735  1.00  0.00     0.173 A 
ATOM     79  F   UNL A   1      39.003  26.912  30.902  1.00  0.00    -0.203 F 
ATOM     80  C   UNL A   1      39.563  26.738  28.621  1.00  0.00     0.198 A 
ATOM     81  C   UNL A   1      40.731  28.531  27.536  1.00  0.00     0.198 A 
ATOM     82  F   UNL A   1      41.347  30.444  28.761  1.00  0.00    -0.203 F 
ATOM     83  F   UNL A   1      39.014  25.516  28.580  1.00  0.00    -0.200 F 
ATOM     84  C   UNL A   1      40.141  27.277  27.482  1.00  0.00     0.200 A 
ATOM     85  F   UNL A   1      41.276  29.063  26.434  1.00  0.00    -0.200 F 
ATOM     86  F   UNL A   1      40.136  26.586  26.333  1.00  0.00    -0.200 F 
ENDBRANCH  52  76
BRANCH  64  87
ATOM     87  C   UNL A   1      44.456  28.784  35.395  1.00  0.00     0.064 A 
ATOM     88  C   UNL A   1      45.732  29.255  35.059  1.00  0.00     0.173 A 
ATOM     89  C   UNL A   1      44.366  27.568  36.090  1.00  0.00     0.173 A 
ATOM     90  F   UNL A   1      45.871  30.405  34.382  1.00  0.00    -0.203 F 
ATOM     91  C   UNL A   1      46.873  28.525  35.380  1.00  0.00     0.198 A 
ATOM     92  C   UNL A   1      45.510  26.856  36.439  1.00  0.00     0.198 A 
ATOM     93  F   UNL A   1      43.170  27.074  36.441  1.00  0.00    -0.203 F 
ATOM     94  F   UNL A   1      48.080  28.969  35.003  1.00  0.00    -0.200 F 
ATOM     95  C   UNL A   1      46.762  27.330  36.078  1.00  0.00     0.200 A 
ATOM     96  F   UNL A   1      45.401  25.710  37.126  1.00  0.00    -0.200 F 
ATOM     97  F   UNL A   1      47.862  26.633  36.393  1.00  0.00    -0.200 F 
ENDBRANCH  64  87
ENDBRANCH  38  39
ENDBRANCH  30  33
ENDBRANCH  28  29
ENDBRANCH  27  28
ENDBRANCH  26  27
ENDBRANCH   1  26
TORSDOF 16
ENDMDL
