MODEL 1
REMARK VINA RESULT:     -11.7      0.000      0.000
REMARK SMILES Cc1cc(C)c2c(OCCCC(=O)NCCCCCCNC(=O)c3ccc(-c4c5nc(c(-c6c(F)c(F)c(F)c(F)c6F)c6ccc([nH]6)c(-c6c(F)c(F)c(F)c(F)c6F)c6nc(c(-c7c(F)c(F)c(F)c(F)c7F)c7ccc4[nH]7)C=C6)C=C5)cc3)nsc2n1
REMARK SMILES IDX 16 1 15 2 14 3 12 4 13 5 11 7 10 8 9 9 8 10 7 11 1 12 2 13
REMARK SMILES IDX 3 14 90 15 4 16 89 17 5 18 6 19 88 20 87 21 17 22 18 23
REMARK SMILES IDX 19 24 20 25 21 26 22 27 23 29 24 30 25 31 86 32 26 33 85 34
REMARK SMILES IDX 27 35 28 36 29 37 79 38 30 39 84 40 78 41 80 42 31 43 83 44
REMARK SMILES IDX 77 45 76 46 32 48 64 49 44 50 63 51 45 52 48 53 62 54 81 55
REMARK SMILES IDX 46 56 47 57 61 59 82 60 49 61 33 62 34 63 42 64 35 65 36 66
REMARK SMILES IDX 40 67 43 68 37 69 38 70 41 71 39 72 65 73 66 74 74 75 67 76
REMARK SMILES IDX 68 77 72 78 75 79 69 80 70 81 73 82 71 83 50 84 51 85 59 86
REMARK SMILES IDX 52 87 53 88 57 89 60 90 54 91 55 92 58 93 56 94
REMARK H PARENT 14 6 21 28 80 47 48 58
REMARK Flexibility Score: inf
ROOT
ATOM      1  C   UNL A   1      39.905  22.281  26.252  1.00  0.00     0.021 C 
ENDROOT
BRANCH   1   2
ATOM      2  C   UNL A   1      38.620  23.183  26.277  1.00  0.00     0.116 C 
BRANCH   2   3
ATOM      3  N   UNL A   1      37.779  23.175  24.974  1.00  0.00    -0.356 N 
ATOM      4  C   UNL A   1      36.610  23.358  24.280  1.00  0.00     0.220 C 
ATOM      5  O   UNL A   1      36.851  23.203  23.059  1.00  0.00    -0.275 OA
ATOM      6  H   UNL A   1      38.419  22.887  24.285  1.00  0.00     0.163 HD
BRANCH   4   7
ATOM      7  C   UNL A   1      35.087  23.889  24.585  1.00  0.00     0.103 C 
BRANCH   7   8
ATOM      8  C   UNL A   1      34.171  25.165  24.205  1.00  0.00     0.051 C 
BRANCH   8   9
ATOM      9  C   UNL A   1      33.342  25.581  22.908  1.00  0.00     0.232 C 
BRANCH   9  10
ATOM     10  O   UNL A   1      31.913  25.703  22.834  1.00  0.00    -0.477 OA
BRANCH  10  11
ATOM     11  C   UNL A   1      31.236  26.836  23.156  1.00  0.00     0.235 A 
ATOM     12  C   UNL A   1      32.537  30.369  27.111  1.00  0.00     0.067 C 
ATOM     13  C   UNL A   1      31.827  29.399  26.201  1.00  0.00     0.039 A 
ATOM     14  C   UNL A   1      31.717  28.066  26.588  1.00  0.00     0.027 A 
ATOM     15  N   UNL A   1      31.326  29.861  25.037  1.00  0.00    -0.240 NA
ATOM     16  C   UNL A   1      31.217  27.089  25.703  1.00  0.00    -0.034 A 
ATOM     17  C   UNL A   1      31.028  28.873  24.168  1.00  0.00     0.147 A 
ATOM     18  C   UNL A   1      30.825  25.684  25.959  1.00  0.00     0.045 C 
ATOM     19  C   UNL A   1      31.133  27.511  24.393  1.00  0.00     0.078 A 
ATOM     20  S   UNL A   1      30.415  29.064  22.593  1.00  0.00    -0.012 S 
ATOM     21  N   UNL A   1      30.720  27.485  22.112  1.00  0.00    -0.153 NA
ENDBRANCH  10  11
ENDBRANCH   9  10
ENDBRANCH   8   9
ENDBRANCH   7   8
ENDBRANCH   4   7
ENDBRANCH   2   3
ENDBRANCH   1   2
BRANCH   1  22
ATOM     22  C   UNL A   1      40.393  21.760  27.616  1.00  0.00     0.002 C 
BRANCH  22  23
ATOM     23  C   UNL A   1      41.877  21.363  27.756  1.00  0.00     0.002 C 
BRANCH  23  24
ATOM     24  C   UNL A   1      42.328  19.975  27.258  1.00  0.00     0.021 C 
BRANCH  24  25
ATOM     25  C   UNL A   1      42.264  19.750  25.750  1.00  0.00     0.116 C 
BRANCH  25  26
ATOM     26  N   UNL A   1      43.571  19.531  25.131  1.00  0.00    -0.352 N 
ATOM     27  C   UNL A   1      44.487  20.473  24.715  1.00  0.00     0.251 C 
ATOM     28  H   UNL A   1      43.830  18.591  24.993  1.00  0.00     0.163 HD
ATOM     29  O   UNL A   1      45.400  20.173  23.940  1.00  0.00    -0.269 OA
BRANCH  27  30
ATOM     30  C   UNL A   1      44.372  21.851  25.211  1.00  0.00     0.039 A 
ATOM     31  C   UNL A   1      43.424  22.734  24.685  1.00  0.00     0.014 A 
ATOM     32  C   UNL A   1      45.228  22.249  26.235  1.00  0.00     0.014 A 
ATOM     33  C   UNL A   1      43.291  23.994  25.260  1.00  0.00     0.010 A 
ATOM     34  C   UNL A   1      45.007  23.435  26.888  1.00  0.00     0.010 A 
ATOM     35  C   UNL A   1      44.073  24.328  26.379  1.00  0.00    -0.014 A 
BRANCH  35  36
ATOM     36  C   UNL A   1      43.828  25.565  27.109  1.00  0.00     0.031 A 
ATOM     37  C   UNL A   1      44.773  26.668  26.779  1.00  0.00     0.074 A 
ATOM     38  C   UNL A   1      42.727  25.767  27.863  1.00  0.00     0.049 A 
ATOM     39  N   UNL A   1      45.629  27.228  27.569  1.00  0.00    -0.248 NA
ATOM     40  C   UNL A   1      44.875  27.118  25.380  1.00  0.00     0.031 C 
ATOM     41  C   UNL A   1      41.569  24.884  28.049  1.00  0.00     0.029 A 
ATOM     42  N   UNL A   1      42.365  26.875  28.564  1.00  0.00    -0.354 N 
ATOM     43  C   UNL A   1      46.253  28.224  26.824  1.00  0.00     0.074 A 
ATOM     44  C   UNL A   1      45.869  28.007  25.454  1.00  0.00     0.031 C 
ATOM     45  C   UNL A   1      40.552  25.579  28.608  1.00  0.00     0.029 A 
ATOM     46  C   UNL A   1      41.037  26.896  28.974  1.00  0.00     0.049 A 
ATOM     47  H   UNL A   1      42.994  27.605  28.764  1.00  0.00     0.167 HD
ATOM     48  C   UNL A   1      46.848  29.284  27.440  1.00  0.00     0.037 A 
ATOM     49  C   UNL A   1      40.386  27.936  29.552  1.00  0.00     0.037 A 
ATOM     50  C   UNL A   1      47.086  29.005  28.833  1.00  0.00     0.049 A 
ATOM     51  C   UNL A   1      41.426  28.829  30.122  1.00  0.00     0.074 A 
ATOM     52  C   UNL A   1      47.820  28.054  29.516  1.00  0.00     0.029 A 
ATOM     53  N   UNL A   1      46.207  29.525  29.751  1.00  0.00    -0.354 N 
ATOM     54  N   UNL A   1      42.191  28.497  31.125  1.00  0.00    -0.248 NA
ATOM     55  C   UNL A   1      41.928  29.899  29.275  1.00  0.00     0.031 C 
ATOM     56  C   UNL A   1      47.011  27.704  30.637  1.00  0.00     0.029 A 
ATOM     57  C   UNL A   1      45.875  28.515  30.616  1.00  0.00     0.049 A 
ATOM     58  H   UNL A   1      45.875  30.451  29.781  1.00  0.00     0.167 HD
ATOM     59  C   UNL A   1      43.441  28.990  30.786  1.00  0.00     0.074 A 
ATOM     60  C   UNL A   1      43.203  29.911  29.676  1.00  0.00     0.031 C 
ATOM     61  C   UNL A   1      44.579  28.387  31.236  1.00  0.00     0.037 A 
BRANCH  48  62
ATOM     62  C   UNL A   1      46.861  30.691  26.897  1.00  0.00     0.064 A 
ATOM     63  C   UNL A   1      48.061  31.431  26.941  1.00  0.00     0.173 A 
ATOM     64  C   UNL A   1      45.694  31.439  26.638  1.00  0.00     0.173 A 
ATOM     65  F   UNL A   1      49.230  30.825  27.201  1.00  0.00    -0.203 F 
ATOM     66  C   UNL A   1      48.075  32.823  26.821  1.00  0.00     0.198 A 
ATOM     67  C   UNL A   1      45.718  32.823  26.464  1.00  0.00     0.198 A 
ATOM     68  F   UNL A   1      44.475  30.890  26.661  1.00  0.00    -0.203 F 
ATOM     69  F   UNL A   1      49.218  33.495  27.005  1.00  0.00    -0.200 F 
ATOM     70  C   UNL A   1      46.902  33.518  26.589  1.00  0.00     0.200 A 
ATOM     71  F   UNL A   1      44.568  33.480  26.265  1.00  0.00    -0.200 F 
ATOM     72  F   UNL A   1      46.902  34.857  26.540  1.00  0.00    -0.200 F 
ENDBRANCH  48  62
BRANCH  49  73
ATOM     73  C   UNL A   1      38.982  28.379  29.365  1.00  0.00     0.064 A 
ATOM     74  C   UNL A   1      38.139  28.584  30.471  1.00  0.00     0.173 A 
ATOM     75  C   UNL A   1      38.535  28.903  28.136  1.00  0.00     0.173 A 
ATOM     76  F   UNL A   1      38.505  28.148  31.686  1.00  0.00    -0.203 F 
ATOM     77  C   UNL A   1      36.947  29.309  30.366  1.00  0.00     0.198 A 
ATOM     78  C   UNL A   1      37.343  29.623  28.031  1.00  0.00     0.198 A 
ATOM     79  F   UNL A   1      39.294  28.817  27.034  1.00  0.00    -0.203 F 
ATOM     80  F   UNL A   1      36.210  29.547  31.459  1.00  0.00    -0.200 F 
ATOM     81  C   UNL A   1      36.558  29.841  29.148  1.00  0.00     0.200 A 
ATOM     82  F   UNL A   1      36.995  30.164  26.854  1.00  0.00    -0.200 F 
ATOM     83  F   UNL A   1      35.456  30.599  29.060  1.00  0.00    -0.200 F 
ENDBRANCH  49  73
BRANCH  61  84
ATOM     84  C   UNL A   1      44.454  27.339  32.306  1.00  0.00     0.064 A 
ATOM     85  C   UNL A   1      44.315  25.963  32.051  1.00  0.00     0.173 A 
ATOM     86  C   UNL A   1      44.677  27.728  33.632  1.00  0.00     0.173 A 
ATOM     87  F   UNL A   1      44.185  25.500  30.802  1.00  0.00    -0.203 F 
ATOM     88  C   UNL A   1      44.378  25.027  33.082  1.00  0.00     0.198 A 
ATOM     89  C   UNL A   1      44.775  26.790  34.655  1.00  0.00     0.198 A 
ATOM     90  F   UNL A   1      44.866  29.025  33.927  1.00  0.00    -0.203 F 
ATOM     91  F   UNL A   1      44.248  23.718  32.814  1.00  0.00    -0.200 F 
ATOM     92  C   UNL A   1      44.621  25.441  34.382  1.00  0.00     0.200 A 
ATOM     93  F   UNL A   1      45.057  27.193  35.902  1.00  0.00    -0.200 F 
ATOM     94  F   UNL A   1      44.738  24.539  35.366  1.00  0.00    -0.200 F 
ENDBRANCH  61  84
ENDBRANCH  35  36
ENDBRANCH  27  30
ENDBRANCH  25  26
ENDBRANCH  24  25
ENDBRANCH  23  24
ENDBRANCH  22  23
ENDBRANCH   1  22
TORSDOF 17
ENDMDL
MODEL 2
REMARK VINA RESULT:     -11.2      2.971      8.828
REMARK SMILES Cc1cc(C)c2c(OCCCC(=O)NCCCCCCNC(=O)c3ccc(-c4c5nc(c(-c6c(F)c(F)c(F)c(F)c6F)c6ccc([nH]6)c(-c6c(F)c(F)c(F)c(F)c6F)c6nc(c(-c7c(F)c(F)c(F)c(F)c7F)c7ccc4[nH]7)C=C6)C=C5)cc3)nsc2n1
REMARK SMILES IDX 16 1 15 2 14 3 12 4 13 5 11 7 10 8 9 9 8 10 7 11 1 12 2 13
REMARK SMILES IDX 3 14 90 15 4 16 89 17 5 18 6 19 88 20 87 21 17 22 18 23
REMARK SMILES IDX 19 24 20 25 21 26 22 27 23 29 24 30 25 31 86 32 26 33 85 34
REMARK SMILES IDX 27 35 28 36 29 37 79 38 30 39 84 40 78 41 80 42 31 43 83 44
REMARK SMILES IDX 77 45 76 46 32 48 64 49 44 50 63 51 45 52 48 53 62 54 81 55
REMARK SMILES IDX 46 56 47 57 61 59 82 60 49 61 33 62 34 63 42 64 35 65 36 66
REMARK SMILES IDX 40 67 43 68 37 69 38 70 41 71 39 72 65 73 66 74 74 75 67 76
REMARK SMILES IDX 68 77 72 78 75 79 69 80 70 81 73 82 71 83 50 84 51 85 59 86
REMARK SMILES IDX 52 87 53 88 57 89 60 90 54 91 55 92 58 93 56 94
REMARK H PARENT 14 6 21 28 80 47 48 58
REMARK Flexibility Score: inf
ROOT
ATOM      1  C   UNL A   1      31.094  27.800  25.574  1.00  0.00     0.021 C 
ENDROOT
BRANCH   1   2
ATOM      2  C   UNL A   1      30.259  26.599  25.003  1.00  0.00     0.116 C 
BRANCH   2   3
ATOM      3  N   UNL A   1      30.233  25.329  25.890  1.00  0.00    -0.356 N 
ATOM      4  C   UNL A   1      30.841  24.278  26.529  1.00  0.00     0.220 C 
ATOM      5  O   UNL A   1      29.977  23.682  27.215  1.00  0.00    -0.275 OA
ATOM      6  H   UNL A   1      29.280  25.218  26.110  1.00  0.00     0.163 HD
BRANCH   4   7
ATOM      7  C   UNL A   1      32.368  23.728  26.777  1.00  0.00     0.103 C 
BRANCH   7   8
ATOM      8  C   UNL A   1      33.078  22.464  27.491  1.00  0.00     0.051 C 
BRANCH   8   9
ATOM      9  C   UNL A   1      34.413  21.641  27.204  1.00  0.00     0.232 C 
BRANCH   9  10
ATOM     10  O   UNL A   1      34.716  20.938  25.989  1.00  0.00    -0.477 OA
BRANCH  10  11
ATOM     11  C   UNL A   1      35.052  21.556  24.826  1.00  0.00     0.235 A 
ATOM     12  C   UNL A   1      32.324  25.625  22.415  1.00  0.00     0.067 C 
ATOM     13  C   UNL A   1      33.043  24.337  22.723  1.00  0.00     0.039 A 
ATOM     14  C   UNL A   1      32.296  23.203  23.033  1.00  0.00     0.027 A 
ATOM     15  N   UNL A   1      34.391  24.332  22.691  1.00  0.00    -0.240 NA
ATOM     16  C   UNL A   1      32.918  22.024  23.493  1.00  0.00    -0.034 A 
ATOM     17  C   UNL A   1      34.925  23.254  23.303  1.00  0.00     0.147 A 
ATOM     18  C   UNL A   1      32.361  20.664  23.681  1.00  0.00     0.045 C 
ATOM     19  C   UNL A   1      34.234  22.195  23.867  1.00  0.00     0.078 A 
ATOM     20  S   UNL A   1      36.581  22.919  23.498  1.00  0.00    -0.012 S 
ATOM     21  N   UNL A   1      36.364  21.713  24.644  1.00  0.00    -0.153 NA
ENDBRANCH  10  11
ENDBRANCH   9  10
ENDBRANCH   8   9
ENDBRANCH   7   8
ENDBRANCH   4   7
ENDBRANCH   2   3
ENDBRANCH   1   2
BRANCH   1  22
ATOM     22  C   UNL A   1      32.440  27.440  26.227  1.00  0.00     0.002 C 
BRANCH  22  23
ATOM     23  C   UNL A   1      33.032  28.418  27.263  1.00  0.00     0.002 C 
BRANCH  23  24
ATOM     24  C   UNL A   1      33.266  29.886  26.854  1.00  0.00     0.021 C 
BRANCH  24  25
ATOM     25  C   UNL A   1      34.599  30.497  27.277  1.00  0.00     0.116 C 
BRANCH  25  26
ATOM     26  N   UNL A   1      34.465  31.640  28.180  1.00  0.00    -0.352 N 
ATOM     27  C   UNL A   1      35.131  31.877  29.361  1.00  0.00     0.251 C 
ATOM     28  H   UNL A   1      33.815  32.328  27.909  1.00  0.00     0.163 HD
ATOM     29  O   UNL A   1      34.713  32.709  30.172  1.00  0.00    -0.269 OA
BRANCH  27  30
ATOM     30  C   UNL A   1      36.362  31.129  29.652  1.00  0.00     0.039 A 
ATOM     31  C   UNL A   1      36.323  29.774  29.995  1.00  0.00     0.014 A 
ATOM     32  C   UNL A   1      37.575  31.807  29.561  1.00  0.00     0.014 A 
ATOM     33  C   UNL A   1      37.523  29.090  30.161  1.00  0.00     0.010 A 
ATOM     34  C   UNL A   1      38.754  31.106  29.590  1.00  0.00     0.010 A 
ATOM     35  C   UNL A   1      38.736  29.760  29.933  1.00  0.00    -0.014 A 
BRANCH  35  36
ATOM     36  C   UNL A   1      39.996  29.027  29.923  1.00  0.00     0.031 A 
ATOM     37  C   UNL A   1      40.601  28.830  31.269  1.00  0.00     0.074 A 
ATOM     38  C   UNL A   1      40.472  28.404  28.825  1.00  0.00     0.049 A 
ATOM     39  N   UNL A   1      41.723  29.305  31.700  1.00  0.00    -0.248 NA
ATOM     40  C   UNL A   1      39.815  28.135  32.303  1.00  0.00     0.031 C 
ATOM     41  C   UNL A   1      39.846  28.264  27.505  1.00  0.00     0.029 A 
ATOM     42  N   UNL A   1      41.607  27.665  28.689  1.00  0.00    -0.354 N 
ATOM     43  C   UNL A   1      41.878  28.822  32.996  1.00  0.00     0.074 A 
ATOM     44  C   UNL A   1      40.613  28.246  33.369  1.00  0.00     0.031 C 
ATOM     45  C   UNL A   1      40.487  27.308  26.795  1.00  0.00     0.029 A 
ATOM     46  C   UNL A   1      41.663  26.893  27.534  1.00  0.00     0.049 A 
ATOM     47  H   UNL A   1      42.331  27.678  29.356  1.00  0.00     0.167 HD
ATOM     48  C   UNL A   1      43.114  28.734  33.562  1.00  0.00     0.037 A 
ATOM     49  C   UNL A   1      42.604  25.963  27.230  1.00  0.00     0.037 A 
ATOM     50  C   UNL A   1      44.068  29.545  32.849  1.00  0.00     0.049 A 
ATOM     51  C   UNL A   1      43.795  26.270  28.060  1.00  0.00     0.074 A 
ATOM     52  C   UNL A   1      44.171  30.894  32.569  1.00  0.00     0.029 A 
ATOM     53  N   UNL A   1      44.909  28.917  31.963  1.00  0.00    -0.354 N 
ATOM     54  N   UNL A   1      44.524  27.341  27.908  1.00  0.00    -0.248 NA
ATOM     55  C   UNL A   1      43.891  25.622  29.359  1.00  0.00     0.031 C 
ATOM     56  C   UNL A   1      44.657  30.953  31.230  1.00  0.00     0.029 A 
ATOM     57  C   UNL A   1      44.897  29.646  30.803  1.00  0.00     0.049 A 
ATOM     58  H   UNL A   1      45.423  28.094  32.130  1.00  0.00     0.167 HD
ATOM     59  C   UNL A   1      44.816  27.747  29.200  1.00  0.00     0.074 A 
ATOM     60  C   UNL A   1      44.468  26.610  30.050  1.00  0.00     0.031 C 
ATOM     61  C   UNL A   1      45.033  29.063  29.490  1.00  0.00     0.037 A 
BRANCH  48  62
ATOM     62  C   UNL A   1      43.548  27.637  34.501  1.00  0.00     0.064 A 
ATOM     63  C   UNL A   1      43.746  26.337  33.992  1.00  0.00     0.173 A 
ATOM     64  C   UNL A   1      43.465  27.733  35.906  1.00  0.00     0.173 A 
ATOM     65  F   UNL A   1      43.818  26.124  32.669  1.00  0.00    -0.203 F 
ATOM     66  C   UNL A   1      43.772  25.214  34.822  1.00  0.00     0.198 A 
ATOM     67  C   UNL A   1      43.546  26.616  36.737  1.00  0.00     0.198 A 
ATOM     68  F   UNL A   1      43.184  28.884  36.527  1.00  0.00    -0.203 F 
ATOM     69  F   UNL A   1      43.825  23.989  34.284  1.00  0.00    -0.200 F 
ATOM     70  C   UNL A   1      43.665  25.354  36.194  1.00  0.00     0.200 A 
ATOM     71  F   UNL A   1      43.416  26.771  38.061  1.00  0.00    -0.200 F 
ATOM     72  F   UNL A   1      43.621  24.276  36.988  1.00  0.00    -0.200 F 
ENDBRANCH  48  62
BRANCH  49  73
ATOM     73  C   UNL A   1      42.438  24.662  26.537  1.00  0.00     0.064 A 
ATOM     74  C   UNL A   1      43.213  24.345  25.407  1.00  0.00     0.173 A 
ATOM     75  C   UNL A   1      41.751  23.590  27.140  1.00  0.00     0.173 A 
ATOM     76  F   UNL A   1      43.928  25.299  24.792  1.00  0.00    -0.203 F 
ATOM     77  C   UNL A   1      43.332  23.032  24.938  1.00  0.00     0.198 A 
ATOM     78  C   UNL A   1      41.868  22.281  26.669  1.00  0.00     0.198 A 
ATOM     79  F   UNL A   1      41.037  23.774  28.259  1.00  0.00    -0.203 F 
ATOM     80  F   UNL A   1      44.141  22.761  23.905  1.00  0.00    -0.200 F 
ATOM     81  C   UNL A   1      42.672  21.999  25.580  1.00  0.00     0.200 A 
ATOM     82  F   UNL A   1      41.252  21.283  27.321  1.00  0.00    -0.200 F 
ATOM     83  F   UNL A   1      42.844  20.732  25.180  1.00  0.00    -0.200 F 
ENDBRANCH  49  73
BRANCH  61  84
ATOM     84  C   UNL A   1      45.198  30.026  28.348  1.00  0.00     0.064 A 
ATOM     85  C   UNL A   1      44.142  30.743  27.760  1.00  0.00     0.173 A 
ATOM     86  C   UNL A   1      46.501  30.374  27.970  1.00  0.00     0.173 A 
ATOM     87  F   UNL A   1      42.873  30.532  28.129  1.00  0.00    -0.203 F 
ATOM     88  C   UNL A   1      44.383  31.747  26.823  1.00  0.00     0.198 A 
ATOM     89  C   UNL A   1      46.741  31.399  27.062  1.00  0.00     0.198 A 
ATOM     90  F   UNL A   1      47.550  29.756  28.536  1.00  0.00    -0.203 F 
ATOM     91  F   UNL A   1      43.358  32.421  26.279  1.00  0.00    -0.200 F 
ATOM     92  C   UNL A   1      45.683  32.083  26.485  1.00  0.00     0.200 A 
ATOM     93  F   UNL A   1      48.002  31.751  26.774  1.00  0.00    -0.200 F 
ATOM     94  F   UNL A   1      45.919  33.085  25.626  1.00  0.00    -0.200 F 
ENDBRANCH  61  84
ENDBRANCH  35  36
ENDBRANCH  27  30
ENDBRANCH  25  26
ENDBRANCH  24  25
ENDBRANCH  23  24
ENDBRANCH  22  23
ENDBRANCH   1  22
TORSDOF 17
ENDMDL
MODEL 3
REMARK VINA RESULT:     -10.9      3.106      4.121
REMARK SMILES Cc1cc(C)c2c(OCCCC(=O)NCCCCCCNC(=O)c3ccc(-c4c5nc(c(-c6c(F)c(F)c(F)c(F)c6F)c6ccc([nH]6)c(-c6c(F)c(F)c(F)c(F)c6F)c6nc(c(-c7c(F)c(F)c(F)c(F)c7F)c7ccc4[nH]7)C=C6)C=C5)cc3)nsc2n1
REMARK SMILES IDX 16 1 15 2 14 3 12 4 13 5 11 7 10 8 9 9 8 10 7 11 1 12 2 13
REMARK SMILES IDX 3 14 90 15 4 16 89 17 5 18 6 19 88 20 87 21 17 22 18 23
REMARK SMILES IDX 19 24 20 25 21 26 22 27 23 29 24 30 25 31 86 32 26 33 85 34
REMARK SMILES IDX 27 35 28 36 29 37 79 38 30 39 84 40 78 41 80 42 31 43 83 44
REMARK SMILES IDX 77 45 76 46 32 48 64 49 44 50 63 51 45 52 48 53 62 54 81 55
REMARK SMILES IDX 46 56 47 57 61 59 82 60 49 61 33 62 34 63 42 64 35 65 36 66
REMARK SMILES IDX 40 67 43 68 37 69 38 70 41 71 39 72 65 73 66 74 74 75 67 76
REMARK SMILES IDX 68 77 72 78 75 79 69 80 70 81 73 82 71 83 50 84 51 85 59 86
REMARK SMILES IDX 52 87 53 88 57 89 60 90 54 91 55 92 58 93 56 94
REMARK H PARENT 14 6 21 28 80 47 48 58
REMARK Flexibility Score: inf
ROOT
ATOM      1  C   UNL A   1      34.856  22.239  26.413  1.00  0.00     0.021 C 
ENDROOT
BRANCH   1   2
ATOM      2  C   UNL A   1      33.839  21.430  27.294  1.00  0.00     0.116 C 
BRANCH   2   3
ATOM      3  N   UNL A   1      33.207  20.191  26.608  1.00  0.00    -0.356 N 
ATOM      4  C   UNL A   1      32.680  19.538  25.524  1.00  0.00     0.220 C 
ATOM      5  O   UNL A   1      32.464  18.346  25.849  1.00  0.00    -0.275 OA
ATOM      6  H   UNL A   1      33.160  19.524  27.330  1.00  0.00     0.163 HD
BRANCH   4   7
ATOM      7  C   UNL A   1      32.442  19.834  23.926  1.00  0.00     0.103 C 
BRANCH   7   8
ATOM      8  C   UNL A   1      32.911  20.930  22.835  1.00  0.00     0.051 C 
BRANCH   8   9
ATOM      9  C   UNL A   1      32.464  22.426  22.511  1.00  0.00     0.232 C 
BRANCH   9  10
ATOM     10  O   UNL A   1      31.491  23.184  23.248  1.00  0.00    -0.477 OA
BRANCH  10  11
ATOM     11  C   UNL A   1      31.595  23.453  24.576  1.00  0.00     0.235 A 
ATOM     12  C   UNL A   1      31.885  28.402  26.864  1.00  0.00     0.067 C 
ATOM     13  C   UNL A   1      32.131  26.975  26.447  1.00  0.00     0.039 A 
ATOM     14  C   UNL A   1      33.057  26.714  25.440  1.00  0.00     0.027 A 
ATOM     15  N   UNL A   1      31.437  25.998  27.066  1.00  0.00    -0.240 NA
ATOM     16  C   UNL A   1      33.199  25.421  24.898  1.00  0.00    -0.034 A 
ATOM     17  C   UNL A   1      31.476  24.826  26.398  1.00  0.00     0.147 A 
ATOM     18  C   UNL A   1      34.236  24.878  23.990  1.00  0.00     0.045 C 
ATOM     19  C   UNL A   1      32.180  24.557  25.237  1.00  0.00     0.078 A 
ATOM     20  S   UNL A   1      30.694  23.383  26.844  1.00  0.00    -0.012 S 
ATOM     21  N   UNL A   1      30.905  22.624  25.361  1.00  0.00    -0.153 NA
ENDBRANCH  10  11
ENDBRANCH   9  10
ENDBRANCH   8   9
ENDBRANCH   7   8
ENDBRANCH   4   7
ENDBRANCH   2   3
ENDBRANCH   1   2
BRANCH   1  22
ATOM     22  C   UNL A   1      35.605  21.437  25.333  1.00  0.00     0.002 C 
BRANCH  22  23
ATOM     23  C   UNL A   1      37.147  21.440  25.360  1.00  0.00     0.002 C 
BRANCH  23  24
ATOM     24  C   UNL A   1      37.889  22.790  25.423  1.00  0.00     0.021 C 
BRANCH  24  25
ATOM     25  C   UNL A   1      38.852  22.974  26.592  1.00  0.00     0.116 C 
BRANCH  25  26
ATOM     26  N   UNL A   1      40.184  22.421  26.352  1.00  0.00    -0.352 N 
ATOM     27  C   UNL A   1      41.381  23.094  26.243  1.00  0.00     0.251 C 
ATOM     28  H   UNL A   1      40.233  21.442  26.256  1.00  0.00     0.163 HD
ATOM     29  O   UNL A   1      42.372  22.554  25.741  1.00  0.00    -0.269 OA
BRANCH  27  30
ATOM     30  C   UNL A   1      41.475  24.473  26.739  1.00  0.00     0.039 A 
ATOM     31  C   UNL A   1      40.979  25.548  25.993  1.00  0.00     0.014 A 
ATOM     32  C   UNL A   1      42.060  24.680  27.986  1.00  0.00     0.014 A 
ATOM     33  C   UNL A   1      41.002  26.820  26.555  1.00  0.00     0.010 A 
ATOM     34  C   UNL A   1      41.961  25.906  28.593  1.00  0.00     0.010 A 
ATOM     35  C   UNL A   1      41.475  26.986  27.867  1.00  0.00    -0.014 A 
BRANCH  35  36
ATOM     36  C   UNL A   1      41.344  28.271  28.543  1.00  0.00     0.031 A 
ATOM     37  C   UNL A   1      42.412  29.253  28.204  1.00  0.00     0.074 A 
ATOM     38  C   UNL A   1      40.249  28.619  29.251  1.00  0.00     0.049 A 
ATOM     39  N   UNL A   1      43.300  29.749  29.002  1.00  0.00    -0.248 NA
ATOM     40  C   UNL A   1      42.603  29.633  26.794  1.00  0.00     0.031 C 
ATOM     41  C   UNL A   1      38.998  27.874  29.430  1.00  0.00     0.029 A 
ATOM     42  N   UNL A   1      39.988  29.787  29.898  1.00  0.00    -0.354 N 
ATOM     43  C   UNL A   1      44.049  30.643  28.242  1.00  0.00     0.074 A 
ATOM     44  C   UNL A   1      43.684  30.413  26.869  1.00  0.00     0.031 C 
ATOM     45  C   UNL A   1      38.046  28.694  29.929  1.00  0.00     0.029 A 
ATOM     46  C   UNL A   1      38.658  29.966  30.262  1.00  0.00     0.049 A 
ATOM     47  H   UNL A   1      40.686  30.454  30.092  1.00  0.00     0.167 HD
ATOM     48  C   UNL A   1      44.736  31.657  28.839  1.00  0.00     0.037 A 
ATOM     49  C   UNL A   1      38.107  31.092  30.779  1.00  0.00     0.037 A 
ATOM     50  C   UNL A   1      44.902  31.410  30.248  1.00  0.00     0.049 A 
ATOM     51  C   UNL A   1      39.220  31.891  31.351  1.00  0.00     0.074 A 
ATOM     52  C   UNL A   1      45.508  30.415  30.991  1.00  0.00     0.029 A 
ATOM     53  N   UNL A   1      44.057  32.057  31.116  1.00  0.00    -0.354 N 
ATOM     54  N   UNL A   1      39.914  31.519  32.391  1.00  0.00    -0.248 NA
ATOM     55  C   UNL A   1      39.860  32.867  30.483  1.00  0.00     0.031 C 
ATOM     56  C   UNL A   1      44.633  30.198  32.095  1.00  0.00     0.029 A 
ATOM     57  C   UNL A   1      43.592  31.124  32.006  1.00  0.00     0.049 A 
ATOM     58  H   UNL A   1      43.826  33.014  31.101  1.00  0.00     0.167 HD
ATOM     59  C   UNL A   1      41.220  31.862  32.076  1.00  0.00     0.074 A 
ATOM     60  C   UNL A   1      41.115  32.758  30.926  1.00  0.00     0.031 C 
ATOM     61  C   UNL A   1      42.272  31.160  32.587  1.00  0.00     0.037 A 
BRANCH  48  62
ATOM     62  C   UNL A   1      44.918  33.031  28.245  1.00  0.00     0.064 A 
ATOM     63  C   UNL A   1      46.222  33.497  27.981  1.00  0.00     0.173 A 
ATOM     64  C   UNL A   1      43.906  34.014  28.227  1.00  0.00     0.173 A 
ATOM     65  F   UNL A   1      47.266  32.654  27.994  1.00  0.00    -0.203 F 
ATOM     66  C   UNL A   1      46.499  34.854  27.799  1.00  0.00     0.198 A 
ATOM     67  C   UNL A   1      44.178  35.361  27.991  1.00  0.00     0.198 A 
ATOM     68  F   UNL A   1      42.638  33.739  28.553  1.00  0.00    -0.203 F 
ATOM     69  F   UNL A   1      47.769  35.265  27.687  1.00  0.00    -0.200 F 
ATOM     70  C   UNL A   1      45.478  35.786  27.811  1.00  0.00     0.200 A 
ATOM     71  F   UNL A   1      43.177  36.251  28.031  1.00  0.00    -0.200 F 
ATOM     72  F   UNL A   1      45.746  37.094  27.704  1.00  0.00    -0.200 F 
ENDBRANCH  48  62
BRANCH  49  73
ATOM     73  C   UNL A   1      36.765  31.674  30.528  1.00  0.00     0.064 A 
ATOM     74  C   UNL A   1      35.898  31.967  31.596  1.00  0.00     0.173 A 
ATOM     75  C   UNL A   1      36.430  32.237  29.281  1.00  0.00     0.173 A 
ATOM     76  F   UNL A   1      36.161  31.500  32.825  1.00  0.00    -0.203 F 
ATOM     77  C   UNL A   1      34.791  32.808  31.437  1.00  0.00     0.198 A 
ATOM     78  C   UNL A   1      35.323  33.073  29.123  1.00  0.00     0.198 A 
ATOM     79  F   UNL A   1      37.226  32.071  28.215  1.00  0.00    -0.203 F 
ATOM     80  F   UNL A   1      34.032  33.123  32.496  1.00  0.00    -0.200 F 
ATOM     81  C   UNL A   1      34.514  33.373  30.204  1.00  0.00     0.200 A 
ATOM     82  F   UNL A   1      35.086  33.644  27.932  1.00  0.00    -0.200 F 
ATOM     83  F   UNL A   1      33.500  34.239  30.066  1.00  0.00    -0.200 F 
ENDBRANCH  49  73
BRANCH  61  84
ATOM     84  C   UNL A   1      42.003  30.175  33.689  1.00  0.00     0.064 A 
ATOM     85  C   UNL A   1      41.652  28.830  33.478  1.00  0.00     0.173 A 
ATOM     86  C   UNL A   1      42.302  30.564  35.001  1.00  0.00     0.173 A 
ATOM     87  F   UNL A   1      41.435  28.357  32.246  1.00  0.00    -0.203 F 
ATOM     88  C   UNL A   1      41.585  27.926  34.537  1.00  0.00     0.198 A 
ATOM     89  C   UNL A   1      42.269  29.652  36.051  1.00  0.00     0.198 A 
ATOM     90  F   UNL A   1      42.691  31.824  35.254  1.00  0.00    -0.203 F 
ATOM     91  F   UNL A   1      41.253  26.646  34.311  1.00  0.00    -0.200 F 
ATOM     92  C   UNL A   1      41.907  28.335  35.821  1.00  0.00     0.200 A 
ATOM     93  F   UNL A   1      42.627  30.043  37.282  1.00  0.00    -0.200 F 
ATOM     94  F   UNL A   1      41.898  27.455  36.832  1.00  0.00    -0.200 F 
ENDBRANCH  61  84
ENDBRANCH  35  36
ENDBRANCH  27  30
ENDBRANCH  25  26
ENDBRANCH  24  25
ENDBRANCH  23  24
ENDBRANCH  22  23
ENDBRANCH   1  22
TORSDOF 17
ENDMDL
