MODEL 1
REMARK VINA RESULT:     -11.4      0.000      0.000
REMARK SMILES O=C(NCCCCCCNC(=O)[C@H]1CC(=O)N(c2cccc(OC(F)(F)F)c2)C1)c1ccc(-c2c3nc(c(-c4c(F)c(F)c(F)c(F)c4F)c4ccc([nH]4)c(-c4c(F)c(F)c(F)c(F)c4F)c4nc(c(-c5c(F)c(F)c(F)c(F)c5F)c5ccc2[nH]5)C=C4)C=C3)cc1
REMARK SMILES IDX 7 1 6 2 5 3 4 4 3 5 1 6 2 7 30 9 31 10 92 11 32 12 91 13
REMARK SMILES IDX 33 14 34 15 35 16 85 17 36 18 90 19 84 20 86 21 37 22 89 23
REMARK SMILES IDX 83 24 82 25 38 27 70 28 50 29 69 30 51 31 54 32 68 33 87 34
REMARK SMILES IDX 52 35 53 36 67 38 88 39 55 40 39 41 40 42 48 43 41 44 42 45
REMARK SMILES IDX 46 46 49 47 43 48 44 49 47 50 45 51 71 52 72 53 80 54 73 55
REMARK SMILES IDX 74 56 78 57 81 58 75 59 76 60 79 61 77 62 56 63 57 64 65 65
REMARK SMILES IDX 58 66 59 67 63 68 66 69 60 70 61 71 64 72 62 73 8 74 9 75
REMARK SMILES IDX 10 76 11 77 12 79 13 80 14 81 29 82 15 83 17 84 16 85 18 86
REMARK SMILES IDX 19 87 28 88 20 89 22 90 21 91 23 92 24 93 25 94 26 95 27 96
REMARK H PARENT 3 8 86 26 54 37 10 78
REMARK Flexibility Score: inf
ROOT
ATOM      1  C   UNL A   1      35.063  33.156  29.153  1.00  0.00     0.002 C 
ENDROOT
BRANCH   1   2
ATOM      2  C   UNL A   1      35.316  34.611  28.741  1.00  0.00     0.002 C 
BRANCH   2   3
ATOM      3  C   UNL A   1      34.101  35.529  28.847  1.00  0.00     0.021 C 
BRANCH   3   4
ATOM      4  C   UNL A   1      32.962  34.956  29.673  1.00  0.00     0.116 C 
BRANCH   4   5
ATOM      5  N   UNL A   1      32.484  35.884  30.686  1.00  0.00    -0.352 N 
ATOM      6  O   UNL A   1      32.259  36.716  32.777  1.00  0.00    -0.269 OA
ATOM      7  C   UNL A   1      32.872  35.993  32.000  1.00  0.00     0.251 C 
ATOM      8  H   UNL A   1      31.792  36.518  30.390  1.00  0.00     0.163 HD
BRANCH   7   9
ATOM      9  C   UNL A   1      34.029  35.204  32.470  1.00  0.00     0.039 A 
ATOM     10  C   UNL A   1      35.315  35.736  32.378  1.00  0.00     0.014 A 
ATOM     11  C   UNL A   1      33.832  33.915  32.972  1.00  0.00     0.014 A 
ATOM     12  C   UNL A   1      36.411  34.923  32.620  1.00  0.00     0.010 A 
ATOM     13  C   UNL A   1      34.938  33.139  33.336  1.00  0.00     0.010 A 
ATOM     14  C   UNL A   1      36.238  33.630  33.140  1.00  0.00    -0.014 A 
BRANCH  14  15
ATOM     15  C   UNL A   1      37.446  32.875  33.560  1.00  0.00     0.031 A 
ATOM     16  C   UNL A   1      38.112  31.874  32.661  1.00  0.00     0.074 A 
ATOM     17  C   UNL A   1      37.974  33.164  34.767  1.00  0.00     0.049 A 
ATOM     18  N   UNL A   1      39.206  31.182  32.871  1.00  0.00    -0.248 NA
ATOM     19  C   UNL A   1      37.475  31.605  31.364  1.00  0.00     0.031 C 
ATOM     20  C   UNL A   1      37.396  34.105  35.733  1.00  0.00     0.029 A 
ATOM     21  N   UNL A   1      39.120  32.728  35.380  1.00  0.00    -0.354 N 
ATOM     22  C   UNL A   1      39.384  30.395  31.742  1.00  0.00     0.074 A 
ATOM     23  C   UNL A   1      38.268  30.666  30.861  1.00  0.00     0.031 C 
ATOM     24  C   UNL A   1      38.220  34.226  36.780  1.00  0.00     0.029 A 
ATOM     25  C   UNL A   1      39.337  33.309  36.606  1.00  0.00     0.049 A 
ATOM     26  H   UNL A   1      39.728  32.066  34.980  1.00  0.00     0.167 HD
ATOM     27  C   UNL A   1      40.395  29.535  31.468  1.00  0.00     0.037 A 
ATOM     28  C   UNL A   1      40.314  33.106  37.508  1.00  0.00     0.037 A 
ATOM     29  C   UNL A   1      41.503  29.273  32.354  1.00  0.00     0.049 A 
ATOM     30  C   UNL A   1      41.397  32.119  37.184  1.00  0.00     0.074 A 
ATOM     31  C   UNL A   1      42.582  28.428  32.162  1.00  0.00     0.029 A 
ATOM     32  N   UNL A   1      41.670  29.849  33.607  1.00  0.00    -0.354 N 
ATOM     33  N   UNL A   1      41.570  31.407  36.098  1.00  0.00    -0.248 NA
ATOM     34  C   UNL A   1      42.420  31.907  38.214  1.00  0.00     0.031 C 
ATOM     35  C   UNL A   1      43.373  28.452  33.316  1.00  0.00     0.029 A 
ATOM     36  C   UNL A   1      42.823  29.360  34.204  1.00  0.00     0.049 A 
ATOM     37  H   UNL A   1      41.060  30.507  34.011  1.00  0.00     0.167 HD
ATOM     38  C   UNL A   1      42.729  30.674  36.306  1.00  0.00     0.074 A 
ATOM     39  C   UNL A   1      43.237  31.060  37.606  1.00  0.00     0.031 C 
ATOM     40  C   UNL A   1      43.313  29.752  35.501  1.00  0.00     0.037 A 
BRANCH  27  41
ATOM     41  C   UNL A   1      40.362  28.801  30.155  1.00  0.00     0.064 A 
ATOM     42  C   UNL A   1      39.667  27.592  30.007  1.00  0.00     0.173 A 
ATOM     43  C   UNL A   1      40.961  29.356  29.013  1.00  0.00     0.173 A 
ATOM     44  F   UNL A   1      39.084  27.013  31.067  1.00  0.00    -0.203 F 
ATOM     45  C   UNL A   1      39.585  26.958  28.768  1.00  0.00     0.198 A 
ATOM     46  C   UNL A   1      40.851  28.735  27.771  1.00  0.00     0.198 A 
ATOM     47  F   UNL A   1      41.633  30.514  29.096  1.00  0.00    -0.203 F 
ATOM     48  F   UNL A   1      38.941  25.788  28.658  1.00  0.00    -0.200 F 
ATOM     49  C   UNL A   1      40.167  27.536  27.649  1.00  0.00     0.200 A 
ATOM     50  F   UNL A   1      41.402  29.303  26.688  1.00  0.00    -0.200 F 
ATOM     51  F   UNL A   1      40.069  26.935  26.456  1.00  0.00    -0.200 F 
ENDBRANCH  27  41
BRANCH  28  52
ATOM     52  C   UNL A   1      40.288  33.824  38.809  1.00  0.00     0.064 A 
ATOM     53  C   UNL A   1      39.516  33.361  39.882  1.00  0.00     0.173 A 
ATOM     54  C   UNL A   1      41.020  35.007  38.997  1.00  0.00     0.173 A 
ATOM     55  F   UNL A   1      38.786  32.242  39.749  1.00  0.00    -0.203 F 
ATOM     56  C   UNL A   1      39.448  34.070  41.080  1.00  0.00     0.198 A 
ATOM     57  C   UNL A   1      40.985  35.692  40.209  1.00  0.00     0.198 A 
ATOM     58  F   UNL A   1      41.785  35.490  38.007  1.00  0.00    -0.203 F 
ATOM     59  F   UNL A   1      38.648  33.640  42.065  1.00  0.00    -0.200 F 
ATOM     60  C   UNL A   1      40.186  35.232  41.243  1.00  0.00     0.200 A 
ATOM     61  F   UNL A   1      41.721  36.801  40.370  1.00  0.00    -0.200 F 
ATOM     62  F   UNL A   1      40.120  35.914  42.394  1.00  0.00    -0.200 F 
ENDBRANCH  28  52
BRANCH  40  63
ATOM     63  C   UNL A   1      44.583  29.128  36.002  1.00  0.00     0.064 A 
ATOM     64  C   UNL A   1      44.576  27.934  36.741  1.00  0.00     0.173 A 
ATOM     65  C   UNL A   1      45.823  29.735  35.749  1.00  0.00     0.173 A 
ATOM     66  F   UNL A   1      43.416  27.324  37.027  1.00  0.00    -0.203 F 
ATOM     67  C   UNL A   1      45.758  27.398  37.247  1.00  0.00     0.198 A 
ATOM     68  C   UNL A   1      47.005  29.174  36.223  1.00  0.00     0.198 A 
ATOM     69  F   UNL A   1      45.887  30.873  35.042  1.00  0.00    -0.203 F 
ATOM     70  F   UNL A   1      45.717  26.300  38.015  1.00  0.00    -0.200 F 
ATOM     71  C   UNL A   1      46.970  28.016  36.984  1.00  0.00     0.200 A 
ATOM     72  F   UNL A   1      48.178  29.764  35.955  1.00  0.00    -0.200 F 
ATOM     73  F   UNL A   1      48.106  27.502  37.475  1.00  0.00    -0.200 F 
ENDBRANCH  40  63
ENDBRANCH  14  15
ENDBRANCH   7   9
ENDBRANCH   4   5
ENDBRANCH   3   4
ENDBRANCH   2   3
ENDBRANCH   1   2
BRANCH   1  74
ATOM     74  C   UNL A   1      35.268  32.124  28.040  1.00  0.00     0.021 C 
BRANCH  74  75
ATOM     75  C   UNL A   1      34.021  31.310  27.721  1.00  0.00     0.116 C 
BRANCH  75  76
ATOM     76  N   UNL A   1      34.327  29.892  27.680  1.00  0.00    -0.356 N 
ATOM     77  C   UNL A   1      33.921  28.965  26.764  1.00  0.00     0.225 C 
ATOM     78  H   UNL A   1      34.900  29.555  28.405  1.00  0.00     0.163 HD
ATOM     79  O   UNL A   1      34.153  27.777  26.966  1.00  0.00    -0.275 OA
BRANCH  77  80
ATOM     80  C   UNL A   1      33.238  29.475  25.522  1.00  0.00     0.107 C 
ATOM     81  C   UNL A   1      33.661  28.631  24.320  1.00  0.00     0.116 C 
ATOM     82  C   UNL A   1      31.729  29.321  25.554  1.00  0.00     0.139 C 
ATOM     83  C   UNL A   1      32.467  28.680  23.418  1.00  0.00     0.227 C 
ATOM     84  N   UNL A   1      31.386  29.138  24.166  1.00  0.00    -0.311 N 
ATOM     85  O   UNL A   1      32.502  28.369  22.236  1.00  0.00    -0.274 OA
BRANCH  84  86
ATOM     86  C   UNL A   1      30.059  29.174  23.705  1.00  0.00     0.047 A 
ATOM     87  C   UNL A   1      29.321  28.000  23.552  1.00  0.00     0.026 A 
ATOM     88  C   UNL A   1      29.474  30.407  23.391  1.00  0.00     0.073 A 
ATOM     89  C   UNL A   1      27.993  28.066  23.130  1.00  0.00     0.006 A 
ATOM     90  C   UNL A   1      28.172  30.475  22.901  1.00  0.00     0.131 A 
ATOM     91  C   UNL A   1      27.425  29.299  22.802  1.00  0.00     0.047 A 
BRANCH  90  92
ATOM     92  O   UNL A   1      27.533  31.611  22.492  1.00  0.00    -0.406 OA
BRANCH  92  93
ATOM     93  C   UNL A   1      28.195  32.410  21.521  1.00  0.00     0.573 C 
ATOM     94  F   UNL A   1      27.335  33.254  20.914  1.00  0.00    -0.132 F 
ATOM     95  F   UNL A   1      29.211  33.114  22.068  1.00  0.00    -0.132 F 
ATOM     96  F   UNL A   1      28.718  31.596  20.577  1.00  0.00    -0.132 F 
ENDBRANCH  92  93
ENDBRANCH  90  92
ENDBRANCH  84  86
ENDBRANCH  77  80
ENDBRANCH  75  76
ENDBRANCH  74  75
ENDBRANCH   1  74
TORSDOF 16
ENDMDL
MODEL 2
REMARK VINA RESULT:     -11.4      4.160      9.154
REMARK SMILES O=C(NCCCCCCNC(=O)[C@H]1CC(=O)N(c2cccc(OC(F)(F)F)c2)C1)c1ccc(-c2c3nc(c(-c4c(F)c(F)c(F)c(F)c4F)c4ccc([nH]4)c(-c4c(F)c(F)c(F)c(F)c4F)c4nc(c(-c5c(F)c(F)c(F)c(F)c5F)c5ccc2[nH]5)C=C4)C=C3)cc1
REMARK SMILES IDX 7 1 6 2 5 3 4 4 3 5 1 6 2 7 30 9 31 10 92 11 32 12 91 13
REMARK SMILES IDX 33 14 34 15 35 16 85 17 36 18 90 19 84 20 86 21 37 22 89 23
REMARK SMILES IDX 83 24 82 25 38 27 70 28 50 29 69 30 51 31 54 32 68 33 87 34
REMARK SMILES IDX 52 35 53 36 67 38 88 39 55 40 39 41 40 42 48 43 41 44 42 45
REMARK SMILES IDX 46 46 49 47 43 48 44 49 47 50 45 51 71 52 72 53 80 54 73 55
REMARK SMILES IDX 74 56 78 57 81 58 75 59 76 60 79 61 77 62 56 63 57 64 65 65
REMARK SMILES IDX 58 66 59 67 63 68 66 69 60 70 61 71 64 72 62 73 8 74 9 75
REMARK SMILES IDX 10 76 11 77 12 79 13 80 14 81 29 82 15 83 17 84 16 85 18 86
REMARK SMILES IDX 19 87 28 88 20 89 22 90 21 91 23 92 24 93 25 94 26 95 27 96
REMARK H PARENT 3 8 86 26 54 37 10 78
REMARK Flexibility Score: inf
ROOT
ATOM      1  C   UNL A   1      32.187  29.388  26.643  1.00  0.00     0.002 C 
ENDROOT
BRANCH   1   2
ATOM      2  C   UNL A   1      31.452  30.425  25.786  1.00  0.00     0.002 C 
BRANCH   2   3
ATOM      3  C   UNL A   1      31.231  31.776  26.463  1.00  0.00     0.021 C 
BRANCH   3   4
ATOM      4  C   UNL A   1      32.510  32.469  26.897  1.00  0.00     0.116 C 
BRANCH   4   5
ATOM      5  N   UNL A   1      32.279  33.827  27.365  1.00  0.00    -0.352 N 
ATOM      6  O   UNL A   1      32.526  35.602  28.744  1.00  0.00    -0.269 OA
ATOM      7  C   UNL A   1      32.944  34.521  28.348  1.00  0.00     0.251 C 
ATOM      8  H   UNL A   1      31.550  34.313  26.916  1.00  0.00     0.163 HD
BRANCH   7   9
ATOM      9  C   UNL A   1      34.161  33.928  28.938  1.00  0.00     0.039 A 
ATOM     10  C   UNL A   1      34.055  32.825  29.786  1.00  0.00     0.014 A 
ATOM     11  C   UNL A   1      35.409  34.497  28.673  1.00  0.00     0.014 A 
ATOM     12  C   UNL A   1      35.164  32.403  30.502  1.00  0.00     0.010 A 
ATOM     13  C   UNL A   1      36.550  33.985  29.301  1.00  0.00     0.010 A 
ATOM     14  C   UNL A   1      36.431  32.949  30.240  1.00  0.00    -0.014 A 
BRANCH  14  15
ATOM     15  C   UNL A   1      37.611  32.328  30.895  1.00  0.00     0.031 A 
ATOM     16  C   UNL A   1      38.033  32.696  32.288  1.00  0.00     0.074 A 
ATOM     17  C   UNL A   1      38.267  31.364  30.216  1.00  0.00     0.049 A 
ATOM     18  N   UNL A   1      39.008  32.196  33.009  1.00  0.00    -0.248 NA
ATOM     19  C   UNL A   1      37.277  33.761  32.962  1.00  0.00     0.031 C 
ATOM     20  C   UNL A   1      37.956  30.943  28.846  1.00  0.00     0.029 A 
ATOM     21  N   UNL A   1      39.303  30.546  30.584  1.00  0.00    -0.354 N 
ATOM     22  C   UNL A   1      38.986  32.886  34.214  1.00  0.00     0.074 A 
ATOM     23  C   UNL A   1      37.924  33.865  34.117  1.00  0.00     0.031 C 
ATOM     24  C   UNL A   1      38.733  29.905  28.515  1.00  0.00     0.029 A 
ATOM     25  C   UNL A   1      39.657  29.643  29.610  1.00  0.00     0.049 A 
ATOM     26  H   UNL A   1      39.748  30.598  31.460  1.00  0.00     0.167 HD
ATOM     27  C   UNL A   1      39.775  32.705  35.300  1.00  0.00     0.037 A 
ATOM     28  C   UNL A   1      40.637  28.723  29.586  1.00  0.00     0.037 A 
ATOM     29  C   UNL A   1      40.831  31.725  35.385  1.00  0.00     0.049 A 
ATOM     30  C   UNL A   1      41.515  28.577  30.795  1.00  0.00     0.074 A 
ATOM     31  C   UNL A   1      41.678  31.457  36.446  1.00  0.00     0.029 A 
ATOM     32  N   UNL A   1      41.188  30.855  34.363  1.00  0.00    -0.354 N 
ATOM     33  N   UNL A   1      41.460  29.213  31.939  1.00  0.00    -0.248 NA
ATOM     34  C   UNL A   1      42.591  27.584  30.708  1.00  0.00     0.031 C 
ATOM     35  C   UNL A   1      42.580  30.464  36.051  1.00  0.00     0.029 A 
ATOM     36  C   UNL A   1      42.257  30.066  34.765  1.00  0.00     0.049 A 
ATOM     37  H   UNL A   1      40.749  30.805  33.484  1.00  0.00     0.167 HD
ATOM     38  C   UNL A   1      42.483  28.689  32.714  1.00  0.00     0.074 A 
ATOM     39  C   UNL A   1      43.115  27.654  31.922  1.00  0.00     0.031 C 
ATOM     40  C   UNL A   1      42.877  29.041  33.963  1.00  0.00     0.037 A 
BRANCH  27  41
ATOM     41  C   UNL A   1      39.541  33.584  36.498  1.00  0.00     0.064 A 
ATOM     42  C   UNL A   1      38.708  33.183  37.553  1.00  0.00     0.173 A 
ATOM     43  C   UNL A   1      40.221  34.805  36.630  1.00  0.00     0.173 A 
ATOM     44  F   UNL A   1      38.026  32.030  37.475  1.00  0.00    -0.203 F 
ATOM     45  C   UNL A   1      38.555  33.976  38.689  1.00  0.00     0.198 A 
ATOM     46  C   UNL A   1      40.089  35.581  37.779  1.00  0.00     0.198 A 
ATOM     47  F   UNL A   1      41.036  35.235  35.654  1.00  0.00    -0.203 F 
ATOM     48  F   UNL A   1      37.731  33.585  39.670  1.00  0.00    -0.200 F 
ATOM     49  C   UNL A   1      39.254  35.168  38.806  1.00  0.00     0.200 A 
ATOM     50  F   UNL A   1      40.778  36.725  37.897  1.00  0.00    -0.200 F 
ATOM     51  F   UNL A   1      39.121  35.919  39.908  1.00  0.00    -0.200 F 
ENDBRANCH  27  41
BRANCH  28  52
ATOM     52  C   UNL A   1      40.858  27.901  28.368  1.00  0.00     0.064 A 
ATOM     53  C   UNL A   1      40.276  26.633  28.229  1.00  0.00     0.173 A 
ATOM     54  C   UNL A   1      41.678  28.358  27.326  1.00  0.00     0.173 A 
ATOM     55  F   UNL A   1      39.494  26.144  29.204  1.00  0.00    -0.203 F 
ATOM     56  C   UNL A   1      40.535  25.841  27.112  1.00  0.00     0.198 A 
ATOM     57  C   UNL A   1      41.903  27.583  26.191  1.00  0.00     0.198 A 
ATOM     58  F   UNL A   1      42.252  29.568  27.402  1.00  0.00    -0.203 F 
ATOM     59  F   UNL A   1      40.020  24.607  27.037  1.00  0.00    -0.200 F 
ATOM     60  C   UNL A   1      41.344  26.319  26.092  1.00  0.00     0.200 A 
ATOM     61  F   UNL A   1      42.665  28.060  25.197  1.00  0.00    -0.200 F 
ATOM     62  F   UNL A   1      41.593  25.557  25.019  1.00  0.00    -0.200 F 
ENDBRANCH  28  52
BRANCH  40  63
ATOM     63  C   UNL A   1      44.025  28.273  34.550  1.00  0.00     0.064 A 
ATOM     64  C   UNL A   1      45.352  28.714  34.415  1.00  0.00     0.173 A 
ATOM     65  C   UNL A   1      43.799  27.077  35.249  1.00  0.00     0.173 A 
ATOM     66  F   UNL A   1      45.624  29.841  33.741  1.00  0.00    -0.203 F 
ATOM     67  C   UNL A   1      46.411  27.960  34.916  1.00  0.00     0.198 A 
ATOM     68  C   UNL A   1      44.858  26.348  35.782  1.00  0.00     0.198 A 
ATOM     69  F   UNL A   1      42.551  26.615  35.412  1.00  0.00    -0.203 F 
ATOM     70  F   UNL A   1      47.672  28.362  34.708  1.00  0.00    -0.200 F 
ATOM     71  C   UNL A   1      46.162  26.782  35.603  1.00  0.00     0.200 A 
ATOM     72  F   UNL A   1      44.615  25.217  36.458  1.00  0.00    -0.200 F 
ATOM     73  F   UNL A   1      47.182  26.056  36.081  1.00  0.00    -0.200 F 
ENDBRANCH  40  63
ENDBRANCH  14  15
ENDBRANCH   7   9
ENDBRANCH   4   5
ENDBRANCH   3   4
ENDBRANCH   2   3
ENDBRANCH   1   2
BRANCH   1  74
ATOM     74  C   UNL A   1      33.360  28.689  25.948  1.00  0.00     0.021 C 
BRANCH  74  75
ATOM     75  C   UNL A   1      33.354  27.174  26.109  1.00  0.00     0.116 C 
BRANCH  75  76
ATOM     76  N   UNL A   1      32.028  26.696  26.453  1.00  0.00    -0.356 N 
ATOM     77  C   UNL A   1      31.513  25.442  26.296  1.00  0.00     0.225 C 
ATOM     78  H   UNL A   1      31.421  27.362  26.850  1.00  0.00     0.163 HD
ATOM     79  O   UNL A   1      30.319  25.250  26.506  1.00  0.00    -0.275 OA
BRANCH  77  80
ATOM     80  C   UNL A   1      32.472  24.346  25.909  1.00  0.00     0.107 C 
ATOM     81  C   UNL A   1      32.752  23.458  27.120  1.00  0.00     0.116 C 
ATOM     82  C   UNL A   1      31.908  23.384  24.881  1.00  0.00     0.139 C 
ATOM     83  C   UNL A   1      33.017  22.113  26.516  1.00  0.00     0.227 C 
ATOM     84  N   UNL A   1      32.559  22.139  25.201  1.00  0.00    -0.311 N 
ATOM     85  O   UNL A   1      33.555  21.196  27.120  1.00  0.00    -0.274 OA
BRANCH  84  86
ATOM     86  C   UNL A   1      32.497  21.015  24.359  1.00  0.00     0.047 A 
ATOM     87  C   UNL A   1      32.096  21.138  23.029  1.00  0.00     0.026 A 
ATOM     88  C   UNL A   1      32.838  19.756  24.867  1.00  0.00     0.073 A 
ATOM     89  C   UNL A   1      32.080  20.014  22.203  1.00  0.00     0.006 A 
ATOM     90  C   UNL A   1      32.755  18.618  24.069  1.00  0.00     0.131 A 
ATOM     91  C   UNL A   1      32.404  18.760  22.724  1.00  0.00     0.047 A 
BRANCH  90  92
ATOM     92  O   UNL A   1      32.989  17.337  24.481  1.00  0.00    -0.406 OA
BRANCH  92  93
ATOM     93  C   UNL A   1      34.258  16.779  24.166  1.00  0.00     0.573 C 
ATOM     94  F   UNL A   1      34.245  16.192  22.952  1.00  0.00    -0.132 F 
ATOM     95  F   UNL A   1      35.233  17.714  24.206  1.00  0.00    -0.132 F 
ATOM     96  F   UNL A   1      34.553  15.833  25.085  1.00  0.00    -0.132 F 
ENDBRANCH  92  93
ENDBRANCH  90  92
ENDBRANCH  84  86
ENDBRANCH  77  80
ENDBRANCH  75  76
ENDBRANCH  74  75
ENDBRANCH   1  74
TORSDOF 16
ENDMDL
MODEL 3
REMARK VINA RESULT:     -11.3      6.248     10.746
REMARK SMILES O=C(NCCCCCCNC(=O)[C@H]1CC(=O)N(c2cccc(OC(F)(F)F)c2)C1)c1ccc(-c2c3nc(c(-c4c(F)c(F)c(F)c(F)c4F)c4ccc([nH]4)c(-c4c(F)c(F)c(F)c(F)c4F)c4nc(c(-c5c(F)c(F)c(F)c(F)c5F)c5ccc2[nH]5)C=C4)C=C3)cc1
REMARK SMILES IDX 7 1 6 2 5 3 4 4 3 5 1 6 2 7 30 9 31 10 92 11 32 12 91 13
REMARK SMILES IDX 33 14 34 15 35 16 85 17 36 18 90 19 84 20 86 21 37 22 89 23
REMARK SMILES IDX 83 24 82 25 38 27 70 28 50 29 69 30 51 31 54 32 68 33 87 34
REMARK SMILES IDX 52 35 53 36 67 38 88 39 55 40 39 41 40 42 48 43 41 44 42 45
REMARK SMILES IDX 46 46 49 47 43 48 44 49 47 50 45 51 71 52 72 53 80 54 73 55
REMARK SMILES IDX 74 56 78 57 81 58 75 59 76 60 79 61 77 62 56 63 57 64 65 65
REMARK SMILES IDX 58 66 59 67 63 68 66 69 60 70 61 71 64 72 62 73 8 74 9 75
REMARK SMILES IDX 10 76 11 77 12 79 13 80 14 81 29 82 15 83 17 84 16 85 18 86
REMARK SMILES IDX 19 87 28 88 20 89 22 90 21 91 23 92 24 93 25 94 26 95 27 96
REMARK H PARENT 3 8 86 26 54 37 10 78
REMARK Flexibility Score: inf
ROOT
ATOM      1  C   UNL A   1      35.599  20.172  25.011  1.00  0.00     0.002 C 
ENDROOT
BRANCH   1   2
ATOM      2  C   UNL A   1      37.018  20.714  24.795  1.00  0.00     0.002 C 
BRANCH   2   3
ATOM      3  C   UNL A   1      38.126  19.670  24.905  1.00  0.00     0.021 C 
BRANCH   3   4
ATOM      4  C   UNL A   1      39.186  19.998  25.942  1.00  0.00     0.116 C 
BRANCH   4   5
ATOM      5  N   UNL A   1      40.312  19.079  25.900  1.00  0.00    -0.352 N 
ATOM      6  O   UNL A   1      42.497  18.498  25.823  1.00  0.00    -0.269 OA
ATOM      7  C   UNL A   1      41.651  19.355  26.048  1.00  0.00     0.251 C 
ATOM      8  H   UNL A   1      40.085  18.133  25.745  1.00  0.00     0.163 HD
BRANCH   7   9
ATOM      9  C   UNL A   1      42.056  20.714  26.463  1.00  0.00     0.039 A 
ATOM     10  C   UNL A   1      42.256  21.702  25.498  1.00  0.00     0.014 A 
ATOM     11  C   UNL A   1      42.271  20.993  27.815  1.00  0.00     0.014 A 
ATOM     12  C   UNL A   1      42.835  22.907  25.863  1.00  0.00     0.010 A 
ATOM     13  C   UNL A   1      42.736  22.256  28.194  1.00  0.00     0.010 A 
ATOM     14  C   UNL A   1      43.045  23.215  27.218  1.00  0.00    -0.014 A 
BRANCH  14  15
ATOM     15  C   UNL A   1      43.487  24.591  27.564  1.00  0.00     0.031 A 
ATOM     16  C   UNL A   1      44.899  25.051  27.343  1.00  0.00     0.074 A 
ATOM     17  C   UNL A   1      42.556  25.447  28.030  1.00  0.00     0.049 A 
ATOM     18  N   UNL A   1      45.415  26.240  27.544  1.00  0.00    -0.248 NA
ATOM     19  C   UNL A   1      45.861  24.060  26.840  1.00  0.00     0.031 C 
ATOM     20  C   UNL A   1      41.157  25.099  28.304  1.00  0.00     0.029 A 
ATOM     21  N   UNL A   1      42.625  26.783  28.329  1.00  0.00    -0.354 N 
ATOM     22  C   UNL A   1      46.756  26.139  27.200  1.00  0.00     0.074 A 
ATOM     23  C   UNL A   1      46.986  24.763  26.810  1.00  0.00     0.031 C 
ATOM     24  C   UNL A   1      40.489  26.202  28.663  1.00  0.00     0.029 A 
ATOM     25  C   UNL A   1      41.424  27.315  28.733  1.00  0.00     0.049 A 
ATOM     26  H   UNL A   1      43.454  27.309  28.260  1.00  0.00     0.167 HD
ATOM     27  C   UNL A   1      47.700  27.111  27.201  1.00  0.00     0.037 A 
ATOM     28  C   UNL A   1      41.113  28.557  29.143  1.00  0.00     0.037 A 
ATOM     29  C   UNL A   1      47.458  28.479  27.593  1.00  0.00     0.049 A 
ATOM     30  C   UNL A   1      42.194  29.598  29.166  1.00  0.00     0.074 A 
ATOM     31  C   UNL A   1      48.346  29.540  27.618  1.00  0.00     0.029 A 
ATOM     32  N   UNL A   1      46.238  28.973  28.036  1.00  0.00    -0.354 N 
ATOM     33  N   UNL A   1      43.449  29.496  28.805  1.00  0.00    -0.248 NA
ATOM     34  C   UNL A   1      41.813  30.928  29.654  1.00  0.00     0.031 C 
ATOM     35  C   UNL A   1      47.680  30.662  28.123  1.00  0.00     0.029 A 
ATOM     36  C   UNL A   1      46.360  30.318  28.355  1.00  0.00     0.049 A 
ATOM     37  H   UNL A   1      45.410  28.447  28.112  1.00  0.00     0.167 HD
ATOM     38  C   UNL A   1      44.006  30.750  29.008  1.00  0.00     0.074 A 
ATOM     39  C   UNL A   1      42.938  31.605  29.484  1.00  0.00     0.031 C 
ATOM     40  C   UNL A   1      45.287  31.155  28.831  1.00  0.00     0.037 A 
BRANCH  27  41
ATOM     41  C   UNL A   1      49.093  26.744  26.771  1.00  0.00     0.064 A 
ATOM     42  C   UNL A   1      49.502  26.854  25.433  1.00  0.00     0.173 A 
ATOM     43  C   UNL A   1      50.054  26.358  27.718  1.00  0.00     0.173 A 
ATOM     44  F   UNL A   1      48.623  27.209  24.485  1.00  0.00    -0.203 F 
ATOM     45  C   UNL A   1      50.816  26.577  25.059  1.00  0.00     0.198 A 
ATOM     46  C   UNL A   1      51.373  26.111  27.345  1.00  0.00     0.198 A 
ATOM     47  F   UNL A   1      49.720  26.243  29.013  1.00  0.00    -0.203 F 
ATOM     48  F   UNL A   1      51.175  26.660  23.770  1.00  0.00    -0.200 F 
ATOM     49  C   UNL A   1      51.753  26.218  26.016  1.00  0.00     0.200 A 
ATOM     50  F   UNL A   1      52.280  25.779  28.275  1.00  0.00    -0.200 F 
ATOM     51  F   UNL A   1      53.020  25.973  25.657  1.00  0.00    -0.200 F 
ENDBRANCH  27  41
BRANCH  28  52
ATOM     52  C   UNL A   1      39.732  28.868  29.596  1.00  0.00     0.064 A 
ATOM     53  C   UNL A   1      38.787  29.424  28.724  1.00  0.00     0.173 A 
ATOM     54  C   UNL A   1      39.336  28.636  30.922  1.00  0.00     0.173 A 
ATOM     55  F   UNL A   1      39.119  29.678  27.448  1.00  0.00    -0.203 F 
ATOM     56  C   UNL A   1      37.512  29.770  29.169  1.00  0.00     0.198 A 
ATOM     57  C   UNL A   1      38.049  28.943  31.356  1.00  0.00     0.198 A 
ATOM     58  F   UNL A   1      40.198  28.096  31.797  1.00  0.00    -0.203 F 
ATOM     59  F   UNL A   1      36.651  30.363  28.331  1.00  0.00    -0.200 F 
ATOM     60  C   UNL A   1      37.143  29.524  30.483  1.00  0.00     0.200 A 
ATOM     61  F   UNL A   1      37.690  28.680  32.620  1.00  0.00    -0.200 F 
ATOM     62  F   UNL A   1      35.918  29.857  30.911  1.00  0.00    -0.200 F 
ENDBRANCH  28  52
BRANCH  40  63
ATOM     63  C   UNL A   1      45.586  32.596  29.128  1.00  0.00     0.064 A 
ATOM     64  C   UNL A   1      46.038  33.009  30.392  1.00  0.00     0.173 A 
ATOM     65  C   UNL A   1      45.410  33.578  28.142  1.00  0.00     0.173 A 
ATOM     66  F   UNL A   1      46.205  32.113  31.376  1.00  0.00    -0.203 F 
ATOM     67  C   UNL A   1      46.256  34.357  30.669  1.00  0.00     0.198 A 
ATOM     68  C   UNL A   1      45.667  34.919  28.411  1.00  0.00     0.198 A 
ATOM     69  F   UNL A   1      44.986  33.237  26.915  1.00  0.00    -0.203 F 
ATOM     70  F   UNL A   1      46.613  34.735  31.904  1.00  0.00    -0.200 F 
ATOM     71  C   UNL A   1      46.074  35.309  29.677  1.00  0.00     0.200 A 
ATOM     72  F   UNL A   1      45.505  35.837  27.448  1.00  0.00    -0.200 F 
ATOM     73  F   UNL A   1      46.281  36.606  29.947  1.00  0.00    -0.200 F 
ENDBRANCH  40  63
ENDBRANCH  14  15
ENDBRANCH   7   9
ENDBRANCH   4   5
ENDBRANCH   3   4
ENDBRANCH   2   3
ENDBRANCH   1   2
BRANCH   1  74
ATOM     74  C   UNL A   1      34.476  21.088  24.516  1.00  0.00     0.021 C 
BRANCH  74  75
ATOM     75  C   UNL A   1      33.117  20.782  25.135  1.00  0.00     0.116 C 
BRANCH  75  76
ATOM     76  N   UNL A   1      33.111  21.100  26.550  1.00  0.00    -0.356 N 
ATOM     77  C   UNL A   1      32.682  22.244  27.158  1.00  0.00     0.225 C 
ATOM     78  H   UNL A   1      33.462  20.402  27.149  1.00  0.00     0.163 HD
ATOM     79  O   UNL A   1      32.888  22.403  28.358  1.00  0.00    -0.275 OA
BRANCH  77  80
ATOM     80  C   UNL A   1      31.933  23.238  26.309  1.00  0.00     0.107 C 
ATOM     81  C   UNL A   1      30.505  23.387  26.832  1.00  0.00     0.116 C 
ATOM     82  C   UNL A   1      32.493  24.646  26.389  1.00  0.00     0.139 C 
ATOM     83  C   UNL A   1      30.151  24.801  26.489  1.00  0.00     0.227 C 
ATOM     84  N   UNL A   1      31.331  25.475  26.187  1.00  0.00    -0.311 N 
ATOM     85  O   UNL A   1      29.004  25.227  26.484  1.00  0.00    -0.274 OA
BRANCH  84  86
ATOM     86  C   UNL A   1      31.421  26.860  25.965  1.00  0.00     0.047 A 
ATOM     87  C   UNL A   1      31.687  27.739  27.016  1.00  0.00     0.026 A 
ATOM     88  C   UNL A   1      31.235  27.362  24.671  1.00  0.00     0.073 A 
ATOM     89  C   UNL A   1      31.810  29.105  26.763  1.00  0.00     0.006 A 
ATOM     90  C   UNL A   1      31.285  28.731  24.423  1.00  0.00     0.131 A 
ATOM     91  C   UNL A   1      31.605  29.597  25.472  1.00  0.00     0.047 A 
BRANCH  90  92
ATOM     92  O   UNL A   1      31.043  29.333  23.220  1.00  0.00    -0.406 OA
BRANCH  92  93
ATOM     93  C   UNL A   1      29.697  29.689  22.937  1.00  0.00     0.573 C 
ATOM     94  F   UNL A   1      29.203  30.517  23.880  1.00  0.00    -0.132 F 
ATOM     95  F   UNL A   1      29.583  30.268  21.721  1.00  0.00    -0.132 F 
ATOM     96  F   UNL A   1      28.945  28.565  22.932  1.00  0.00    -0.132 F 
ENDBRANCH  92  93
ENDBRANCH  90  92
ENDBRANCH  84  86
ENDBRANCH  77  80
ENDBRANCH  75  76
ENDBRANCH  74  75
ENDBRANCH   1  74
TORSDOF 16
ENDMDL
