MODEL 1
REMARK VINA RESULT:     -12.5      0.000      0.000
REMARK SMILES CCCCc1cc(S(F)(F)(F)(F)F)cc2c1O[C@@H](C(F)(F)F)C(C(=O)NCCCCCCNC(=O)c1ccc(-c3c4nc(c(-c5c(F)c(F)c(F)c(F)c5F)c5ccc([nH]5)c(-c5c(F)c(F)c(F)c(F)c5F)c5nc(c(-c6c(F)c(F)c(F)c(F)c6F)c6ccc3[nH]6)C=C5)C=C4)cc1)=C2
REMARK SMILES IDX 29 1 28 2 27 3 26 4 24 5 25 6 23 8 5 9 6 10 16 11 7 12 15 13
REMARK SMILES IDX 17 14 14 15 99 16 18 17 4 18 3 19 2 20 1 21 8 22 9 23 10 24
REMARK SMILES IDX 11 25 12 26 13 27 19 28 20 29 21 30 22 31 30 32 31 33 32 34
REMARK SMILES IDX 33 35 34 36 35 38 36 39 37 40 98 41 38 42 97 43 39 44 40 45
REMARK SMILES IDX 41 46 91 47 42 48 96 49 90 50 92 51 43 52 95 53 89 54 88 55
REMARK SMILES IDX 44 57 76 58 56 59 75 60 57 61 60 62 74 63 93 64 58 65 59 66
REMARK SMILES IDX 73 68 94 69 61 70 45 71 46 72 54 73 47 74 48 75 52 76 55 77
REMARK SMILES IDX 49 78 50 79 53 80 51 81 77 82 78 83 86 84 79 85 80 86 84 87
REMARK SMILES IDX 87 88 81 89 82 90 85 91 83 92 62 93 63 94 71 95 64 96 65 97
REMARK SMILES IDX 69 98 72 99 66 100 67 101 70 102 68 103
REMARK H PARENT 26 7 33 37 92 56 60 67
REMARK Flexibility Score: inf
ROOT
ATOM      1  C   UNL A   1      32.952  20.980  24.684  1.00  0.00     0.002 C 
ENDROOT
BRANCH   1   2
ATOM      2  C   UNL A   1      31.824  21.858  25.201  1.00  0.00     0.021 C 
BRANCH   2   3
ATOM      3  C   UNL A   1      31.418  22.848  24.122  1.00  0.00     0.116 C 
BRANCH   3   4
ATOM      4  N   UNL A   1      32.241  22.630  22.922  1.00  0.00    -0.352 N 
ATOM      5  C   UNL A   1      32.825  23.778  22.214  1.00  0.00     0.251 C 
ATOM      6  O   UNL A   1      33.536  23.590  21.178  1.00  0.00    -0.270 OA
ATOM      7  H   UNL A   1      32.400  21.716  22.595  1.00  0.00     0.163 HD
BRANCH   5   8
ATOM      8  C   UNL A   1      32.579  25.190  22.721  1.00  0.00     0.067 C 
ATOM      9  C   UNL A   1      31.776  28.853  24.561  1.00  0.00    -0.004 A 
ATOM     10  C   UNL A   1      30.702  29.616  24.140  1.00  0.00     0.032 A 
ATOM     11  C   UNL A   1      31.985  27.629  23.974  1.00  0.00     0.131 A 
ATOM     12  C   UNL A   1      29.858  29.163  23.161  1.00  0.00     0.108 A 
ATOM     13  C   UNL A   1      31.164  27.147  22.971  1.00  0.00     0.019 A 
ATOM     14  O   UNL A   1      32.986  26.834  24.481  1.00  0.00    -0.475 OA
ATOM     15  C   UNL A   1      30.092  27.937  22.574  1.00  0.00     0.036 A 
ATOM     16  C   UNL A   1      31.447  25.823  22.442  1.00  0.00     0.025 C 
ATOM     17  C   UNL A   1      33.628  25.908  23.560  1.00  0.00     0.314 C 
BRANCH   9  18
ATOM     18  C   UNL A   1      32.706  29.360  25.651  1.00  0.00     0.039 C 
BRANCH  18  19
ATOM     19  C   UNL A   1      31.883  29.878  26.818  1.00  0.00     0.005 C 
BRANCH  19  20
ATOM     20  C   UNL A   1      32.320  31.293  27.158  1.00  0.00    -0.003 C 
ATOM     21  C   UNL A   1      31.368  32.288  26.512  1.00  0.00     0.004 C 
ENDBRANCH  19  20
ENDBRANCH  18  19
ENDBRANCH   9  18
BRANCH  12  22
ATOM     22  S   UNL A   1      28.443  30.167  22.640  1.00  0.00     0.310 S 
ATOM     23  F   UNL A   1      28.547  31.092  23.924  1.00  0.00    -0.094 F 
ATOM     24  F   UNL A   1      27.499  29.226  23.479  1.00  0.00    -0.094 F 
ATOM     25  F   UNL A   1      27.230  31.030  22.191  1.00  0.00    -0.094 F 
ATOM     26  F   UNL A   1      29.420  31.179  21.920  1.00  0.00    -0.094 F 
ATOM     27  F   UNL A   1      29.695  29.366  23.180  1.00  0.00    -0.094 F 
ENDBRANCH  12  22
BRANCH  17  28
ATOM     28  C   UNL A   1      34.414  24.881  24.358  1.00  0.00     0.429 C 
ATOM     29  F   UNL A   1      35.402  25.488  25.010  1.00  0.00    -0.167 F 
ATOM     30  F   UNL A   1      33.608  24.284  25.229  1.00  0.00    -0.167 F 
ATOM     31  F   UNL A   1      34.923  23.973  23.530  1.00  0.00    -0.167 F 
ENDBRANCH  17  28
ENDBRANCH   5   8
ENDBRANCH   3   4
ENDBRANCH   2   3
ENDBRANCH   1   2
BRANCH   1  32
ATOM     32  C   UNL A   1      33.846  20.569  25.843  1.00  0.00     0.002 C 
BRANCH  32  33
ATOM     33  C   UNL A   1      34.181  21.791  26.682  1.00  0.00     0.021 C 
BRANCH  33  34
ATOM     34  C   UNL A   1      35.647  22.149  26.494  1.00  0.00     0.116 C 
BRANCH  34  35
ATOM     35  N   UNL A   1      36.344  21.033  25.838  1.00  0.00    -0.352 N 
ATOM     36  C   UNL A   1      37.794  21.104  25.610  1.00  0.00     0.251 C 
ATOM     37  H   UNL A   1      35.838  20.238  25.553  1.00  0.00     0.163 HD
ATOM     38  O   UNL A   1      38.396  20.139  25.044  1.00  0.00    -0.269 OA
BRANCH  36  39
ATOM     39  C   UNL A   1      38.573  22.331  26.051  1.00  0.00     0.039 A 
ATOM     40  C   UNL A   1      39.720  22.187  26.815  1.00  0.00     0.014 A 
ATOM     41  C   UNL A   1      38.137  23.531  25.685  1.00  0.00     0.014 A 
ATOM     42  C   UNL A   1      40.182  23.394  27.390  1.00  0.00     0.010 A 
ATOM     43  C   UNL A   1      38.722  24.670  26.182  1.00  0.00     0.010 A 
ATOM     44  C   UNL A   1      39.824  24.601  26.989  1.00  0.00    -0.014 A 
BRANCH  44  45
ATOM     45  C   UNL A   1      40.593  25.844  27.403  1.00  0.00     0.031 A 
ATOM     46  C   UNL A   1      41.954  25.905  27.103  1.00  0.00     0.074 A 
ATOM     47  C   UNL A   1      39.899  26.848  28.056  1.00  0.00     0.049 A 
ATOM     48  N   UNL A   1      42.798  26.910  27.346  1.00  0.00    -0.248 NA
ATOM     49  C   UNL A   1      42.701  24.825  26.440  1.00  0.00     0.031 C 
ATOM     50  C   UNL A   1      38.524  26.799  28.356  1.00  0.00     0.029 A 
ATOM     51  N   UNL A   1      40.389  28.047  28.526  1.00  0.00    -0.354 N 
ATOM     52  C   UNL A   1      44.017  26.607  26.895  1.00  0.00     0.074 A 
ATOM     53  C   UNL A   1      43.974  25.259  26.312  1.00  0.00     0.031 C 
ATOM     54  C   UNL A   1      38.192  27.945  29.006  1.00  0.00     0.029 A 
ATOM     55  C   UNL A   1      39.354  28.731  29.124  1.00  0.00     0.049 A 
ATOM     56  H   UNL A   1      41.319  28.361  28.447  1.00  0.00     0.167 HD
ATOM     57  C   UNL A   1      45.163  27.403  26.947  1.00  0.00     0.037 A 
ATOM     58  C   UNL A   1      39.401  29.970  29.744  1.00  0.00     0.037 A 
ATOM     59  C   UNL A   1      45.200  28.660  27.529  1.00  0.00     0.049 A 
ATOM     60  C   UNL A   1      40.561  30.741  29.848  1.00  0.00     0.074 A 
ATOM     61  C   UNL A   1      46.344  29.478  27.583  1.00  0.00     0.029 A 
ATOM     62  N   UNL A   1      44.170  29.333  28.148  1.00  0.00    -0.354 N 
ATOM     63  N   UNL A   1      41.770  30.455  29.363  1.00  0.00    -0.248 NA
ATOM     64  C   UNL A   1      40.630  32.039  30.531  1.00  0.00     0.031 C 
ATOM     65  C   UNL A   1      46.013  30.625  28.233  1.00  0.00     0.029 A 
ATOM     66  C   UNL A   1      44.655  30.541  28.598  1.00  0.00     0.049 A 
ATOM     67  H   UNL A   1      43.247  29.007  28.252  1.00  0.00     0.167 HD
ATOM     68  C   UNL A   1      42.623  31.443  29.643  1.00  0.00     0.074 A 
ATOM     69  C   UNL A   1      41.904  32.473  30.405  1.00  0.00     0.031 C 
ATOM     70  C   UNL A   1      43.971  31.529  29.291  1.00  0.00     0.037 A 
BRANCH  57  71
ATOM     71  C   UNL A   1      46.442  26.860  26.331  1.00  0.00     0.064 A 
ATOM     72  C   UNL A   1      47.280  26.064  27.093  1.00  0.00     0.173 A 
ATOM     73  C   UNL A   1      46.726  27.147  25.066  1.00  0.00     0.173 A 
ATOM     74  F   UNL A   1      46.922  25.546  28.265  1.00  0.00    -0.203 F 
ATOM     75  C   UNL A   1      48.553  25.851  26.513  1.00  0.00     0.198 A 
ATOM     76  C   UNL A   1      47.936  26.789  24.523  1.00  0.00     0.198 A 
ATOM     77  F   UNL A   1      45.831  27.785  24.318  1.00  0.00    -0.203 F 
ATOM     78  F   UNL A   1      49.530  25.419  27.305  1.00  0.00    -0.200 F 
ATOM     79  C   UNL A   1      48.838  26.053  25.239  1.00  0.00     0.200 A 
ATOM     80  F   UNL A   1      48.235  27.165  23.282  1.00  0.00    -0.200 F 
ATOM     81  F   UNL A   1      49.944  25.564  24.682  1.00  0.00    -0.200 F 
ENDBRANCH  57  71
BRANCH  58  82
ATOM     82  C   UNL A   1      38.118  30.519  30.346  1.00  0.00     0.064 A 
ATOM     83  C   UNL A   1      37.211  31.176  29.532  1.00  0.00     0.173 A 
ATOM     84  C   UNL A   1      37.895  30.371  31.647  1.00  0.00     0.173 A 
ATOM     85  F   UNL A   1      37.262  31.130  28.203  1.00  0.00    -0.203 F 
ATOM     86  C   UNL A   1      36.225  31.902  30.241  1.00  0.00     0.198 A 
ATOM     87  C   UNL A   1      36.833  31.001  32.249  1.00  0.00     0.198 A 
ATOM     88  F   UNL A   1      38.707  29.608  32.372  1.00  0.00    -0.203 F 
ATOM     89  F   UNL A   1      35.548  32.836  29.578  1.00  0.00    -0.200 F 
ATOM     90  C   UNL A   1      35.930  31.716  31.514  1.00  0.00     0.200 A 
ATOM     91  F   UNL A   1      36.681  30.912  33.568  1.00  0.00    -0.200 F 
ATOM     92  F   UNL A   1      34.813  32.200  32.053  1.00  0.00    -0.200 F 
ENDBRANCH  58  82
BRANCH  70  93
ATOM     93  C   UNL A   1      44.735  32.780  29.690  1.00  0.00     0.064 A 
ATOM     94  C   UNL A   1      45.425  32.819  30.891  1.00  0.00     0.173 A 
ATOM     95  C   UNL A   1      44.729  33.820  28.865  1.00  0.00     0.173 A 
ATOM     96  F   UNL A   1      45.670  31.736  31.621  1.00  0.00    -0.203 F 
ATOM     97  C   UNL A   1      45.846  34.116  31.268  1.00  0.00     0.198 A 
ATOM     98  C   UNL A   1      45.279  35.021  29.248  1.00  0.00     0.198 A 
ATOM     99  F   UNL A   1      44.185  33.701  27.657  1.00  0.00    -0.203 F 
ATOM    100  F   UNL A   1      46.185  34.311  32.540  1.00  0.00    -0.200 F 
ATOM    101  C   UNL A   1      45.926  35.147  30.446  1.00  0.00     0.200 A 
ATOM    102  F   UNL A   1      45.182  36.073  28.441  1.00  0.00    -0.200 F 
ATOM    103  F   UNL A   1      46.598  36.249  30.766  1.00  0.00    -0.200 F 
ENDBRANCH  70  93
ENDBRANCH  44  45
ENDBRANCH  36  39
ENDBRANCH  34  35
ENDBRANCH  33  34
ENDBRANCH  32  33
ENDBRANCH   1  32
TORSDOF 18
ENDMDL
MODEL 2
REMARK VINA RESULT:     -12.3      1.354      7.027
REMARK SMILES CCCCc1cc(S(F)(F)(F)(F)F)cc2c1O[C@@H](C(F)(F)F)C(C(=O)NCCCCCCNC(=O)c1ccc(-c3c4nc(c(-c5c(F)c(F)c(F)c(F)c5F)c5ccc([nH]5)c(-c5c(F)c(F)c(F)c(F)c5F)c5nc(c(-c6c(F)c(F)c(F)c(F)c6F)c6ccc3[nH]6)C=C5)C=C4)cc1)=C2
REMARK SMILES IDX 29 1 28 2 27 3 26 4 24 5 25 6 23 8 5 9 6 10 16 11 7 12 15 13
REMARK SMILES IDX 17 14 14 15 99 16 18 17 4 18 3 19 2 20 1 21 8 22 9 23 10 24
REMARK SMILES IDX 11 25 12 26 13 27 19 28 20 29 21 30 22 31 30 32 31 33 32 34
REMARK SMILES IDX 33 35 34 36 35 38 36 39 37 40 98 41 38 42 97 43 39 44 40 45
REMARK SMILES IDX 41 46 91 47 42 48 96 49 90 50 92 51 43 52 95 53 89 54 88 55
REMARK SMILES IDX 44 57 76 58 56 59 75 60 57 61 60 62 74 63 93 64 58 65 59 66
REMARK SMILES IDX 73 68 94 69 61 70 45 71 46 72 54 73 47 74 48 75 52 76 55 77
REMARK SMILES IDX 49 78 50 79 53 80 51 81 77 82 78 83 86 84 79 85 80 86 84 87
REMARK SMILES IDX 87 88 81 89 82 90 85 91 83 92 62 93 63 94 71 95 64 96 65 97
REMARK SMILES IDX 69 98 72 99 66 100 67 101 70 102 68 103
REMARK H PARENT 26 7 33 37 92 56 60 67
REMARK Flexibility Score: inf
ROOT
ATOM      1  C   UNL A   1      34.820  24.000  23.100  1.00  0.00     0.002 C 
ENDROOT
BRANCH   1   2
ATOM      2  C   UNL A   1      34.128  22.657  22.929  1.00  0.00     0.021 C 
BRANCH   2   3
ATOM      3  C   UNL A   1      32.662  22.881  22.596  1.00  0.00     0.116 C 
BRANCH   3   4
ATOM      4  N   UNL A   1      31.824  22.222  23.609  1.00  0.00    -0.352 N 
ATOM      5  C   UNL A   1      31.079  23.030  24.585  1.00  0.00     0.251 C 
ATOM      6  O   UNL A   1      30.355  22.461  25.459  1.00  0.00    -0.270 OA
ATOM      7  H   UNL A   1      31.761  21.240  23.632  1.00  0.00     0.163 HD
BRANCH   5   8
ATOM      8  C   UNL A   1      31.176  24.547  24.547  1.00  0.00     0.067 C 
ATOM      9  C   UNL A   1      31.240  28.708  24.914  1.00  0.00    -0.004 A 
ATOM     10  C   UNL A   1      30.420  29.483  24.116  1.00  0.00     0.032 A 
ATOM     11  C   UNL A   1      31.159  27.340  24.810  1.00  0.00     0.131 A 
ATOM     12  C   UNL A   1      29.540  28.906  23.239  1.00  0.00     0.108 A 
ATOM     13  C   UNL A   1      30.297  26.722  23.924  1.00  0.00     0.019 A 
ATOM     14  O   UNL A   1      31.896  26.583  25.689  1.00  0.00    -0.475 OA
ATOM     15  C   UNL A   1      29.484  27.531  23.138  1.00  0.00     0.036 A 
ATOM     16  C   UNL A   1      30.259  25.270  23.917  1.00  0.00     0.025 C 
ATOM     17  C   UNL A   1      32.328  25.270  25.233  1.00  0.00     0.314 C 
BRANCH   9  18
ATOM     18  C   UNL A   1      32.210  29.355  25.889  1.00  0.00     0.039 C 
BRANCH  18  19
ATOM     19  C   UNL A   1      33.635  29.009  25.490  1.00  0.00     0.005 C 
BRANCH  19  20
ATOM     20  C   UNL A   1      34.392  28.499  26.705  1.00  0.00    -0.003 C 
ATOM     21  C   UNL A   1      35.296  29.599  27.237  1.00  0.00     0.004 C 
ENDBRANCH  19  20
ENDBRANCH  18  19
ENDBRANCH   9  18
BRANCH  12  22
ATOM     22  S   UNL A   1      28.458  29.939  22.219  1.00  0.00     0.310 S 
ATOM     23  F   UNL A   1      28.740  31.222  23.108  1.00  0.00    -0.094 F 
ATOM     24  F   UNL A   1      27.266  29.609  23.194  1.00  0.00    -0.094 F 
ATOM     25  F   UNL A   1      27.531  30.826  21.340  1.00  0.00    -0.094 F 
ATOM     26  F   UNL A   1      29.694  30.369  21.334  1.00  0.00    -0.094 F 
ATOM     27  F   UNL A   1      29.434  29.133  23.165  1.00  0.00    -0.094 F 
ENDBRANCH  12  22
BRANCH  17  28
ATOM     28  C   UNL A   1      32.783  24.454  26.431  1.00  0.00     0.429 C 
ATOM     29  F   UNL A   1      33.818  25.056  27.010  1.00  0.00    -0.167 F 
ATOM     30  F   UNL A   1      31.786  24.351  27.303  1.00  0.00    -0.167 F 
ATOM     31  F   UNL A   1      33.146  23.240  26.028  1.00  0.00    -0.167 F 
ENDBRANCH  17  28
ENDBRANCH   5   8
ENDBRANCH   3   4
ENDBRANCH   2   3
ENDBRANCH   1   2
BRANCH   1  32
ATOM     32  C   UNL A   1      35.793  23.924  24.265  1.00  0.00     0.002 C 
BRANCH  32  33
ATOM     33  C   UNL A   1      36.225  22.481  24.470  1.00  0.00     0.021 C 
BRANCH  33  34
ATOM     34  C   UNL A   1      36.946  22.352  25.803  1.00  0.00     0.116 C 
BRANCH  34  35
ATOM     35  N   UNL A   1      37.752  21.123  25.807  1.00  0.00    -0.352 N 
ATOM     36  C   UNL A   1      39.170  21.176  26.191  1.00  0.00     0.251 C 
ATOM     37  H   UNL A   1      37.342  20.265  25.554  1.00  0.00     0.163 HD
ATOM     38  O   UNL A   1      39.866  20.113  26.196  1.00  0.00    -0.269 OA
BRANCH  36  39
ATOM     39  C   UNL A   1      39.803  22.501  26.583  1.00  0.00     0.039 A 
ATOM     40  C   UNL A   1      40.726  22.550  27.614  1.00  0.00     0.014 A 
ATOM     41  C   UNL A   1      39.458  23.595  25.914  1.00  0.00     0.014 A 
ATOM     42  C   UNL A   1      41.018  23.860  28.060  1.00  0.00     0.010 A 
ATOM     43  C   UNL A   1      39.890  24.832  26.327  1.00  0.00     0.010 A 
ATOM     44  C   UNL A   1      40.758  24.960  27.377  1.00  0.00    -0.014 A 
BRANCH  44  45
ATOM     45  C   UNL A   1      41.387  26.295  27.737  1.00  0.00     0.031 A 
ATOM     46  C   UNL A   1      40.591  27.246  28.377  1.00  0.00     0.074 A 
ATOM     47  C   UNL A   1      42.718  26.494  27.410  1.00  0.00     0.049 A 
ATOM     48  N   UNL A   1      40.953  28.456  28.806  1.00  0.00    -0.248 NA
ATOM     49  C   UNL A   1      39.168  27.050  28.694  1.00  0.00     0.031 C 
ATOM     50  C   UNL A   1      43.531  25.537  26.773  1.00  0.00     0.029 A 
ATOM     51  N   UNL A   1      43.484  27.617  27.632  1.00  0.00    -0.354 N 
ATOM     52  C   UNL A   1      39.919  29.068  29.387  1.00  0.00     0.074 A 
ATOM     53  C   UNL A   1      38.754  28.176  29.318  1.00  0.00     0.031 C 
ATOM     54  C   UNL A   1      44.765  26.079  26.602  1.00  0.00     0.029 A 
ATOM     55  C   UNL A   1      44.745  27.384  27.130  1.00  0.00     0.049 A 
ATOM     56  H   UNL A   1      43.182  28.444  28.073  1.00  0.00     0.167 HD
ATOM     57  C   UNL A   1      39.902  30.335  29.972  1.00  0.00     0.037 A 
ATOM     58  C   UNL A   1      45.829  28.249  27.122  1.00  0.00     0.037 A 
ATOM     59  C   UNL A   1      40.998  31.182  30.003  1.00  0.00     0.049 A 
ATOM     60  C   UNL A   1      45.796  29.539  27.656  1.00  0.00     0.074 A 
ATOM     61  C   UNL A   1      41.000  32.459  30.596  1.00  0.00     0.029 A 
ATOM     62  N   UNL A   1      42.252  30.958  29.479  1.00  0.00    -0.354 N 
ATOM     63  N   UNL A   1      44.773  30.134  28.271  1.00  0.00    -0.248 NA
ATOM     64  C   UNL A   1      46.927  30.474  27.624  1.00  0.00     0.031 C 
ATOM     65  C   UNL A   1      42.235  33.002  30.425  1.00  0.00     0.029 A 
ATOM     66  C   UNL A   1      43.025  32.073  29.721  1.00  0.00     0.049 A 
ATOM     67  H   UNL A   1      42.546  30.142  29.013  1.00  0.00     0.167 HD
ATOM     68  C   UNL A   1      45.125  31.361  28.663  1.00  0.00     0.074 A 
ATOM     69  C   UNL A   1      46.513  31.600  28.246  1.00  0.00     0.031 C 
ATOM     70  C   UNL A   1      44.344  32.289  29.355  1.00  0.00     0.037 A 
BRANCH  57  71
ATOM     71  C   UNL A   1      38.609  30.812  30.612  1.00  0.00     0.064 A 
ATOM     72  C   UNL A   1      37.661  31.457  29.835  1.00  0.00     0.173 A 
ATOM     73  C   UNL A   1      38.403  30.590  31.905  1.00  0.00     0.173 A 
ATOM     74  F   UNL A   1      37.707  31.478  28.505  1.00  0.00    -0.203 F 
ATOM     75  C   UNL A   1      36.641  32.091  30.582  1.00  0.00     0.198 A 
ATOM     76  C   UNL A   1      37.311  31.127  32.542  1.00  0.00     0.198 A 
ATOM     77  F   UNL A   1      39.260  29.838  32.589  1.00  0.00    -0.203 F 
ATOM     78  F   UNL A   1      35.908  33.017  29.969  1.00  0.00    -0.200 F 
ATOM     79  C   UNL A   1      36.365  31.827  31.846  1.00  0.00     0.200 A 
ATOM     80  F   UNL A   1      37.173  30.966  33.855  1.00  0.00    -0.200 F 
ATOM     81  F   UNL A   1      35.226  32.220  32.412  1.00  0.00    -0.200 F 
ENDBRANCH  57  71
BRANCH  58  82
ATOM     82  C   UNL A   1      47.127  27.765  26.496  1.00  0.00     0.064 A 
ATOM     83  C   UNL A   1      47.318  27.903  25.132  1.00  0.00     0.173 A 
ATOM     84  C   UNL A   1      48.052  27.206  27.268  1.00  0.00     0.173 A 
ATOM     85  F   UNL A   1      46.549  28.671  24.365  1.00  0.00    -0.203 F 
ATOM     86  C   UNL A   1      48.405  27.152  24.626  1.00  0.00     0.198 A 
ATOM     87  C   UNL A   1      49.157  26.608  26.713  1.00  0.00     0.198 A 
ATOM     88  F   UNL A   1      47.906  27.224  28.589  1.00  0.00    -0.203 F 
ATOM     89  F   UNL A   1      48.449  26.931  23.315  1.00  0.00    -0.200 F 
ATOM     90  C   UNL A   1      49.379  26.654  25.365  1.00  0.00     0.200 A 
ATOM     91  F   UNL A   1      50.024  25.976  27.499  1.00  0.00    -0.200 F 
ATOM     92  F   UNL A   1      50.516  26.220  24.826  1.00  0.00    -0.200 F 
ENDBRANCH  58  82
BRANCH  70  93
ATOM     93  C   UNL A   1      44.980  33.618  29.730  1.00  0.00     0.064 A 
ATOM     94  C   UNL A   1      45.656  33.750  30.931  1.00  0.00     0.173 A 
ATOM     95  C   UNL A   1      44.877  34.635  28.882  1.00  0.00     0.173 A 
ATOM     96  F   UNL A   1      46.002  32.711  31.686  1.00  0.00    -0.203 F 
ATOM     97  C   UNL A   1      45.947  35.089  31.281  1.00  0.00     0.198 A 
ATOM     98  C   UNL A   1      45.305  35.891  29.240  1.00  0.00     0.198 A 
ATOM     99  F   UNL A   1      44.354  34.437  27.675  1.00  0.00    -0.203 F 
ATOM    100  F   UNL A   1      46.259  35.344  32.550  1.00  0.00    -0.200 F 
ATOM    101  C   UNL A   1      45.930  36.105  30.437  1.00  0.00     0.200 A 
ATOM    102  F   UNL A   1      45.110  36.911  28.410  1.00  0.00    -0.200 F 
ATOM    103  F   UNL A   1      46.490  37.274  30.736  1.00  0.00    -0.200 F 
ENDBRANCH  70  93
ENDBRANCH  44  45
ENDBRANCH  36  39
ENDBRANCH  34  35
ENDBRANCH  33  34
ENDBRANCH  32  33
ENDBRANCH   1  32
TORSDOF 18
ENDMDL
MODEL 3
REMARK VINA RESULT:     -12.2      1.311      2.117
REMARK SMILES CCCCc1cc(S(F)(F)(F)(F)F)cc2c1O[C@@H](C(F)(F)F)C(C(=O)NCCCCCCNC(=O)c1ccc(-c3c4nc(c(-c5c(F)c(F)c(F)c(F)c5F)c5ccc([nH]5)c(-c5c(F)c(F)c(F)c(F)c5F)c5nc(c(-c6c(F)c(F)c(F)c(F)c6F)c6ccc3[nH]6)C=C5)C=C4)cc1)=C2
REMARK SMILES IDX 29 1 28 2 27 3 26 4 24 5 25 6 23 8 5 9 6 10 16 11 7 12 15 13
REMARK SMILES IDX 17 14 14 15 99 16 18 17 4 18 3 19 2 20 1 21 8 22 9 23 10 24
REMARK SMILES IDX 11 25 12 26 13 27 19 28 20 29 21 30 22 31 30 32 31 33 32 34
REMARK SMILES IDX 33 35 34 36 35 38 36 39 37 40 98 41 38 42 97 43 39 44 40 45
REMARK SMILES IDX 41 46 91 47 42 48 96 49 90 50 92 51 43 52 95 53 89 54 88 55
REMARK SMILES IDX 44 57 76 58 56 59 75 60 57 61 60 62 74 63 93 64 58 65 59 66
REMARK SMILES IDX 73 68 94 69 61 70 45 71 46 72 54 73 47 74 48 75 52 76 55 77
REMARK SMILES IDX 49 78 50 79 53 80 51 81 77 82 78 83 86 84 79 85 80 86 84 87
REMARK SMILES IDX 87 88 81 89 82 90 85 91 83 92 62 93 63 94 71 95 64 96 65 97
REMARK SMILES IDX 69 98 72 99 66 100 67 101 70 102 68 103
REMARK H PARENT 26 7 33 37 92 56 60 67
REMARK Flexibility Score: inf
ROOT
ATOM      1  C   UNL A   1      34.513  23.370  22.784  1.00  0.00     0.002 C 
ENDROOT
BRANCH   1   2
ATOM      2  C   UNL A   1      33.633  22.185  23.146  1.00  0.00     0.021 C 
BRANCH   2   3
ATOM      3  C   UNL A   1      32.172  22.577  23.005  1.00  0.00     0.116 C 
BRANCH   3   4
ATOM      4  N   UNL A   1      31.440  22.188  24.220  1.00  0.00    -0.352 N 
ATOM      5  C   UNL A   1      30.910  23.221  25.122  1.00  0.00     0.251 C 
ATOM      6  O   UNL A   1      30.278  22.885  26.171  1.00  0.00    -0.270 OA
ATOM      7  H   UNL A   1      31.305  21.236  24.429  1.00  0.00     0.163 HD
BRANCH   5   8
ATOM      8  C   UNL A   1      31.118  24.692  24.798  1.00  0.00     0.067 C 
ATOM      9  C   UNL A   1      31.614  28.821  24.406  1.00  0.00    -0.004 A 
ATOM     10  C   UNL A   1      30.686  29.564  23.700  1.00  0.00     0.032 A 
ATOM     11  C   UNL A   1      31.398  27.474  24.564  1.00  0.00     0.131 A 
ATOM     12  C   UNL A   1      29.569  28.974  23.170  1.00  0.00     0.108 A 
ATOM     13  C   UNL A   1      30.292  26.841  24.028  1.00  0.00     0.019 A 
ATOM     14  O   UNL A   1      32.268  26.771  25.363  1.00  0.00    -0.475 OA
ATOM     15  C   UNL A   1      29.376  27.617  23.327  1.00  0.00     0.036 A 
ATOM     16  C   UNL A   1      30.134  25.419  24.284  1.00  0.00     0.025 C 
ATOM     17  C   UNL A   1      32.462  25.362  25.056  1.00  0.00     0.314 C 
BRANCH   9  18
ATOM     18  C   UNL A   1      32.849  29.483  24.996  1.00  0.00     0.039 C 
BRANCH  18  19
ATOM     19  C   UNL A   1      32.535  29.982  26.397  1.00  0.00     0.005 C 
BRANCH  19  20
ATOM     20  C   UNL A   1      33.654  29.575  27.341  1.00  0.00    -0.003 C 
ATOM     21  C   UNL A   1      34.569  30.763  27.588  1.00  0.00     0.004 C 
ENDBRANCH  19  20
ENDBRANCH  18  19
ENDBRANCH   9  18
BRANCH  12  22
ATOM     22  S   UNL A   1      28.353  29.968  22.268  1.00  0.00     0.310 S 
ATOM     23  F   UNL A   1      28.866  31.313  22.934  1.00  0.00    -0.094 F 
ATOM     24  F   UNL A   1      27.366  29.821  23.488  1.00  0.00    -0.094 F 
ATOM     25  F   UNL A   1      27.310  30.821  21.492  1.00  0.00    -0.094 F 
ATOM     26  F   UNL A   1      29.405  30.221  21.117  1.00  0.00    -0.094 F 
ATOM     27  F   UNL A   1      29.461  29.198  23.092  1.00  0.00    -0.094 F 
ENDBRANCH  12  22
BRANCH  17  28
ATOM     28  C   UNL A   1      33.136  24.685  26.237  1.00  0.00     0.429 C 
ATOM     29  F   UNL A   1      34.271  25.317  26.522  1.00  0.00    -0.167 F 
ATOM     30  F   UNL A   1      32.329  24.725  27.292  1.00  0.00    -0.167 F 
ATOM     31  F   UNL A   1      33.400  23.418  25.929  1.00  0.00    -0.167 F 
ENDBRANCH  17  28
ENDBRANCH   5   8
ENDBRANCH   3   4
ENDBRANCH   2   3
ENDBRANCH   1   2
BRANCH   1  32
ATOM     32  C   UNL A   1      35.742  23.381  23.679  1.00  0.00     0.002 C 
BRANCH  32  33
ATOM     33  C   UNL A   1      35.957  21.993  24.260  1.00  0.00     0.021 C 
BRANCH  33  34
ATOM     34  C   UNL A   1      36.957  22.071  25.402  1.00  0.00     0.116 C 
BRANCH  34  35
ATOM     35  N   UNL A   1      37.708  20.809  25.484  1.00  0.00    -0.352 N 
ATOM     36  C   UNL A   1      39.114  20.817  25.912  1.00  0.00     0.251 C 
ATOM     37  H   UNL A   1      37.267  19.960  25.253  1.00  0.00     0.163 HD
ATOM     38  O   UNL A   1      39.761  19.726  25.984  1.00  0.00    -0.269 OA
BRANCH  36  39
ATOM     39  C   UNL A   1      39.792  22.128  26.270  1.00  0.00     0.039 A 
ATOM     40  C   UNL A   1      41.132  22.143  26.621  1.00  0.00     0.014 A 
ATOM     41  C   UNL A   1      39.079  23.248  26.229  1.00  0.00     0.014 A 
ATOM     42  C   UNL A   1      41.561  23.361  27.198  1.00  0.00     0.010 A 
ATOM     43  C   UNL A   1      39.608  24.431  26.685  1.00  0.00     0.010 A 
ATOM     44  C   UNL A   1      40.908  24.506  27.103  1.00  0.00    -0.014 A 
BRANCH  44  45
ATOM     45  C   UNL A   1      41.566  25.833  27.440  1.00  0.00     0.031 A 
ATOM     46  C   UNL A   1      42.885  26.036  27.032  1.00  0.00     0.074 A 
ATOM     47  C   UNL A   1      40.819  26.769  28.135  1.00  0.00     0.049 A 
ATOM     48  N   UNL A   1      43.628  27.132  27.195  1.00  0.00    -0.248 NA
ATOM     49  C   UNL A   1      43.692  25.031  26.324  1.00  0.00     0.031 C 
ATOM     50  C   UNL A   1      39.484  26.577  28.544  1.00  0.00     0.029 A 
ATOM     51  N   UNL A   1      41.209  28.023  28.550  1.00  0.00    -0.354 N 
ATOM     52  C   UNL A   1      44.835  26.954  26.652  1.00  0.00     0.074 A 
ATOM     53  C   UNL A   1      44.896  25.599  26.090  1.00  0.00     0.031 C 
ATOM     54  C   UNL A   1      39.080  27.693  29.205  1.00  0.00     0.029 A 
ATOM     55  C   UNL A   1      40.154  28.602  29.221  1.00  0.00     0.049 A 
ATOM     56  H   UNL A   1      42.089  28.435  28.394  1.00  0.00     0.167 HD
ATOM     57  C   UNL A   1      45.887  27.871  26.604  1.00  0.00     0.037 A 
ATOM     58  C   UNL A   1      40.113  29.851  29.822  1.00  0.00     0.037 A 
ATOM     59  C   UNL A   1      45.830  29.136  27.166  1.00  0.00     0.049 A 
ATOM     60  C   UNL A   1      41.185  30.746  29.824  1.00  0.00     0.074 A 
ATOM     61  C   UNL A   1      46.878  30.075  27.119  1.00  0.00     0.029 A 
ATOM     62  N   UNL A   1      44.784  29.705  27.858  1.00  0.00    -0.354 N 
ATOM     63  N   UNL A   1      42.377  30.584  29.247  1.00  0.00    -0.248 NA
ATOM     64  C   UNL A   1      41.164  32.058  30.484  1.00  0.00     0.031 C 
ATOM     65  C   UNL A   1      46.475  31.192  27.781  1.00  0.00     0.029 A 
ATOM     66  C   UNL A   1      45.167  30.968  28.254  1.00  0.00     0.049 A 
ATOM     67  H   UNL A   1      43.914  29.283  28.039  1.00  0.00     0.167 HD
ATOM     68  C   UNL A   1      43.136  31.664  29.447  1.00  0.00     0.074 A 
ATOM     69  C   UNL A   1      42.369  32.625  30.252  1.00  0.00     0.031 C 
ATOM     70  C   UNL A   1      44.434  31.889  28.988  1.00  0.00     0.037 A 
BRANCH  57  71
ATOM     71  C   UNL A   1      47.166  27.458  25.894  1.00  0.00     0.064 A 
ATOM     72  C   UNL A   1      47.313  27.731  24.544  1.00  0.00     0.173 A 
ATOM     73  C   UNL A   1      48.127  26.856  26.583  1.00  0.00     0.173 A 
ATOM     74  F   UNL A   1      46.501  28.545  23.875  1.00  0.00    -0.203 F 
ATOM     75  C   UNL A   1      48.405  27.064  23.940  1.00  0.00     0.198 A 
ATOM     76  C   UNL A   1      49.232  26.349  25.946  1.00  0.00     0.198 A 
ATOM     77  F   UNL A   1      48.019  26.745  27.904  1.00  0.00    -0.203 F 
ATOM     78  F   UNL A   1      48.417  26.971  22.613  1.00  0.00    -0.200 F 
ATOM     79  C   UNL A   1      49.414  26.528  24.603  1.00  0.00     0.200 A 
ATOM     80  F   UNL A   1      50.139  25.670  26.645  1.00  0.00    -0.200 F 
ATOM     81  F   UNL A   1      50.547  26.183  23.996  1.00  0.00    -0.200 F 
ENDBRANCH  57  71
BRANCH  58  82
ATOM     82  C   UNL A   1      38.829  30.270  30.518  1.00  0.00     0.064 A 
ATOM     83  C   UNL A   1      37.842  30.918  29.793  1.00  0.00     0.173 A 
ATOM     84  C   UNL A   1      38.680  30.018  31.813  1.00  0.00     0.173 A 
ATOM     85  F   UNL A   1      37.831  30.967  28.464  1.00  0.00    -0.203 F 
ATOM     86  C   UNL A   1      36.847  31.525  30.596  1.00  0.00     0.198 A 
ATOM     87  C   UNL A   1      37.609  30.532  32.506  1.00  0.00     0.198 A 
ATOM     88  F   UNL A   1      39.573  29.264  32.445  1.00  0.00    -0.203 F 
ATOM     89  F   UNL A   1      36.079  32.454  30.032  1.00  0.00    -0.200 F 
ATOM     90  C   UNL A   1      36.627  31.233  31.864  1.00  0.00     0.200 A 
ATOM     91  F   UNL A   1      37.528  30.342  33.820  1.00  0.00    -0.200 F 
ATOM     92  F   UNL A   1      35.509  31.602  32.485  1.00  0.00    -0.200 F 
ENDBRANCH  58  82
BRANCH  70  93
ATOM     93  C   UNL A   1      45.085  33.224  29.311  1.00  0.00     0.064 A 
ATOM     94  C   UNL A   1      44.945  34.293  28.442  1.00  0.00     0.173 A 
ATOM     95  C   UNL A   1      45.777  33.338  30.439  1.00  0.00     0.173 A 
ATOM     96  F   UNL A   1      44.067  34.306  27.445  1.00  0.00    -0.203 F 
ATOM     97  C   UNL A   1      45.822  35.370  28.714  1.00  0.00     0.198 A 
ATOM     98  C   UNL A   1      46.504  34.475  30.702  1.00  0.00     0.198 A 
ATOM     99  F   UNL A   1      45.768  32.343  31.322  1.00  0.00    -0.203 F 
ATOM    100  F   UNL A   1      46.018  36.266  27.750  1.00  0.00    -0.200 F 
ATOM    101  C   UNL A   1      46.458  35.548  29.857  1.00  0.00     0.200 A 
ATOM    102  F   UNL A   1      47.260  34.531  31.794  1.00  0.00    -0.200 F 
ATOM    103  F   UNL A   1      47.025  36.711  30.170  1.00  0.00    -0.200 F 
ENDBRANCH  70  93
ENDBRANCH  44  45
ENDBRANCH  36  39
ENDBRANCH  34  35
ENDBRANCH  33  34
ENDBRANCH  32  33
ENDBRANCH   1  32
TORSDOF 18
ENDMDL
