MODEL 1
REMARK VINA RESULT:     -12.8      0.000      0.000
REMARK SMILES COc1cc(C)cc2c1O[C@H](C(F)(F)F)C(C(=O)NCCCCCCNC(=O)c1ccc(-c3c4nc(c(-c5c(F)c(F)c(F)c(F)c5F)c5ccc([nH]5)c(-c5c(F)c(F)c(F)c(F)c5F)c5nc(c(-c6c(F)c(F)c(F)c(F)c6F)c6ccc3[nH]6)C=C5)C=C4)cc1)=C2
REMARK SMILES IDX 23 1 22 2 21 3 20 4 19 5 17 6 18 7 16 9 3 10 4 11 9 12 5 13
REMARK SMILES IDX 8 14 10 15 6 16 7 17 92 18 11 19 2 20 1 21 12 22 13 23 14 24
REMARK SMILES IDX 15 25 24 26 25 27 26 28 27 29 28 31 29 32 30 33 91 34 31 35
REMARK SMILES IDX 90 36 32 37 33 38 34 39 84 40 35 41 89 42 83 43 85 44 36 45
REMARK SMILES IDX 88 46 82 47 81 48 37 50 69 51 49 52 68 53 50 54 53 55 67 56
REMARK SMILES IDX 86 57 51 58 52 59 66 61 87 62 54 63 38 64 39 65 47 66 40 67
REMARK SMILES IDX 41 68 45 69 48 70 42 71 43 72 46 73 44 74 70 75 71 76 79 77
REMARK SMILES IDX 72 78 73 79 77 80 80 81 74 82 75 83 78 84 76 85 55 86 56 87
REMARK SMILES IDX 64 88 57 89 58 90 62 91 65 92 59 93 60 94 63 95 61 96
REMARK H PARENT 19 8 26 30 85 49 53 60
REMARK Flexibility Score: inf
ROOT
ATOM      1  C   UNL A   1      30.937  29.575  24.510  1.00  0.00     0.002 C 
ENDROOT
BRANCH   1   2
ATOM      2  C   UNL A   1      30.946  28.946  23.109  1.00  0.00     0.002 C 
BRANCH   2   3
ATOM      3  C   UNL A   1      29.983  27.773  22.899  1.00  0.00     0.021 C 
BRANCH   3   4
ATOM      4  C   UNL A   1      30.648  26.400  22.928  1.00  0.00     0.116 C 
BRANCH   4   5
ATOM      5  N   UNL A   1      31.553  26.209  21.809  1.00  0.00    -0.352 N 
ATOM      6  C   UNL A   1      32.621  25.431  21.519  1.00  0.00     0.251 C 
ATOM      7  O   UNL A   1      33.086  25.587  20.385  1.00  0.00    -0.270 OA
ATOM      8  H   UNL A   1      31.328  26.807  21.060  1.00  0.00     0.163 HD
BRANCH   6   9
ATOM      9  C   UNL A   1      33.252  24.439  22.442  1.00  0.00     0.067 C 
ATOM     10  C   UNL A   1      34.934  21.462  24.892  1.00  0.00     0.161 A 
ATOM     11  C   UNL A   1      34.289  20.232  25.032  1.00  0.00     0.054 A 
ATOM     12  C   UNL A   1      34.397  22.438  24.046  1.00  0.00     0.169 A 
ATOM     13  C   UNL A   1      33.127  19.958  24.300  1.00  0.00    -0.047 A 
ATOM     14  C   UNL A   1      33.235  22.184  23.317  1.00  0.00     0.021 A 
ATOM     15  O   UNL A   1      35.091  23.607  23.920  1.00  0.00    -0.471 OA
ATOM     16  C   UNL A   1      32.419  18.644  24.445  1.00  0.00     0.044 C 
ATOM     17  C   UNL A   1      32.604  20.941  23.445  1.00  0.00     0.015 A 
ATOM     18  C   UNL A   1      32.711  23.206  22.420  1.00  0.00     0.025 C 
ATOM     19  C   UNL A   1      34.381  24.749  23.385  1.00  0.00     0.314 C 
BRANCH  10  20
ATOM     20  O   UNL A   1      36.042  21.803  25.625  1.00  0.00    -0.493 OA
ATOM     21  C   UNL A   1      37.223  21.119  25.222  1.00  0.00     0.278 C 
ENDBRANCH  10  20
BRANCH  19  22
ATOM     22  C   UNL A   1      33.966  25.664  24.548  1.00  0.00     0.429 C 
ATOM     23  F   UNL A   1      33.940  26.961  24.148  1.00  0.00    -0.167 F 
ATOM     24  F   UNL A   1      32.721  25.390  25.007  1.00  0.00    -0.167 F 
ATOM     25  F   UNL A   1      34.802  25.578  25.606  1.00  0.00    -0.167 F 
ENDBRANCH  19  22
ENDBRANCH   6   9
ENDBRANCH   4   5
ENDBRANCH   3   4
ENDBRANCH   2   3
ENDBRANCH   1   2
BRANCH   1  26
ATOM     26  C   UNL A   1      31.708  28.812  25.589  1.00  0.00     0.021 C 
BRANCH  26  27
ATOM     27  C   UNL A   1      32.919  29.542  26.154  1.00  0.00     0.116 C 
BRANCH  27  28
ATOM     28  N   UNL A   1      32.639  30.928  26.491  1.00  0.00    -0.352 N 
ATOM     29  C   UNL A   1      33.354  31.788  27.289  1.00  0.00     0.251 C 
ATOM     30  H   UNL A   1      31.821  31.304  26.091  1.00  0.00     0.163 HD
ATOM     31  O   UNL A   1      32.902  32.893  27.575  1.00  0.00    -0.269 OA
BRANCH  29  32
ATOM     32  C   UNL A   1      34.660  31.363  27.837  1.00  0.00     0.039 A 
ATOM     33  C   UNL A   1      34.866  30.045  28.248  1.00  0.00     0.014 A 
ATOM     34  C   UNL A   1      35.686  32.305  27.963  1.00  0.00     0.014 A 
ATOM     35  C   UNL A   1      36.027  29.712  28.934  1.00  0.00     0.010 A 
ATOM     36  C   UNL A   1      36.888  31.945  28.577  1.00  0.00     0.010 A 
ATOM     37  C   UNL A   1      37.049  30.660  29.115  1.00  0.00    -0.014 A 
BRANCH  37  38
ATOM     38  C   UNL A   1      38.268  30.270  29.868  1.00  0.00     0.031 A 
ATOM     39  C   UNL A   1      38.478  30.718  31.287  1.00  0.00     0.074 A 
ATOM     40  C   UNL A   1      39.161  29.448  29.283  1.00  0.00     0.049 A 
ATOM     41  N   UNL A   1      39.440  30.399  32.118  1.00  0.00    -0.248 NA
ATOM     42  C   UNL A   1      37.491  31.652  31.849  1.00  0.00     0.031 C 
ATOM     43  C   UNL A   1      39.071  28.959  27.907  1.00  0.00     0.029 A 
ATOM     44  N   UNL A   1      40.294  28.852  29.776  1.00  0.00    -0.354 N 
ATOM     45  C   UNL A   1      39.185  31.107  33.285  1.00  0.00     0.074 A 
ATOM     46  C   UNL A   1      37.996  31.896  33.050  1.00  0.00     0.031 C 
ATOM     47  C   UNL A   1      40.068  28.092  27.683  1.00  0.00     0.029 A 
ATOM     48  C   UNL A   1      40.896  28.002  28.883  1.00  0.00     0.049 A 
ATOM     49  H   UNL A   1      40.640  29.017  30.682  1.00  0.00     0.167 HD
ATOM     50  C   UNL A   1      39.875  31.087  34.451  1.00  0.00     0.037 A 
ATOM     51  C   UNL A   1      41.995  27.233  29.010  1.00  0.00     0.037 A 
ATOM     52  C   UNL A   1      41.034  30.269  34.693  1.00  0.00     0.049 A 
ATOM     53  C   UNL A   1      42.745  27.232  30.309  1.00  0.00     0.074 A 
ATOM     54  C   UNL A   1      41.754  30.123  35.866  1.00  0.00     0.029 A 
ATOM     55  N   UNL A   1      41.647  29.463  33.745  1.00  0.00    -0.354 N 
ATOM     56  N   UNL A   1      42.463  27.865  31.421  1.00  0.00    -0.248 NA
ATOM     57  C   UNL A   1      43.968  26.420  30.371  1.00  0.00     0.031 C 
ATOM     58  C   UNL A   1      42.830  29.268  35.614  1.00  0.00     0.029 A 
ATOM     59  C   UNL A   1      42.757  28.845  34.297  1.00  0.00     0.049 A 
ATOM     60  H   UNL A   1      41.338  29.348  32.817  1.00  0.00     0.167 HD
ATOM     61  C   UNL A   1      43.471  27.533  32.315  1.00  0.00     0.074 A 
ATOM     62  C   UNL A   1      44.360  26.622  31.623  1.00  0.00     0.031 C 
ATOM     63  C   UNL A   1      43.642  27.952  33.592  1.00  0.00     0.037 A 
BRANCH  50  64
ATOM     64  C   UNL A   1      39.404  31.983  35.559  1.00  0.00     0.064 A 
ATOM     65  C   UNL A   1      38.496  31.539  36.532  1.00  0.00     0.173 A 
ATOM     66  C   UNL A   1      39.914  33.284  35.681  1.00  0.00     0.173 A 
ATOM     67  F   UNL A   1      37.973  30.307  36.455  1.00  0.00    -0.203 F 
ATOM     68  C   UNL A   1      38.100  32.374  37.575  1.00  0.00     0.198 A 
ATOM     69  C   UNL A   1      39.536  34.107  36.739  1.00  0.00     0.198 A 
ATOM     70  F   UNL A   1      40.793  33.754  34.782  1.00  0.00    -0.203 F 
ATOM     71  F   UNL A   1      37.203  31.943  38.472  1.00  0.00    -0.200 F 
ATOM     72  C   UNL A   1      38.626  33.653  37.681  1.00  0.00     0.200 A 
ATOM     73  F   UNL A   1      40.054  35.339  36.847  1.00  0.00    -0.200 F 
ATOM     74  F   UNL A   1      38.250  34.451  38.691  1.00  0.00    -0.200 F 
ENDBRANCH  50  64
BRANCH  51  75
ATOM     75  C   UNL A   1      42.419  26.394  27.862  1.00  0.00     0.064 A 
ATOM     76  C   UNL A   1      41.851  25.132  27.644  1.00  0.00     0.173 A 
ATOM     77  C   UNL A   1      43.337  26.871  26.914  1.00  0.00     0.173 A 
ATOM     78  F   UNL A   1      40.980  24.628  28.531  1.00  0.00    -0.203 F 
ATOM     79  C   UNL A   1      42.175  24.384  26.514  1.00  0.00     0.198 A 
ATOM     80  C   UNL A   1      43.642  26.135  25.773  1.00  0.00     0.198 A 
ATOM     81  F   UNL A   1      43.901  28.077  27.076  1.00  0.00    -0.203 F 
ATOM     82  F   UNL A   1      41.624  23.177  26.331  1.00  0.00    -0.200 F 
ATOM     83  C   UNL A   1      43.061  24.892  25.574  1.00  0.00     0.200 A 
ATOM     84  F   UNL A   1      44.481  26.636  24.858  1.00  0.00    -0.200 F 
ATOM     85  F   UNL A   1      43.350  24.184  24.473  1.00  0.00    -0.200 F 
ENDBRANCH  51  75
BRANCH  63  86
ATOM     86  C   UNL A   1      44.843  27.449  34.334  1.00  0.00     0.064 A 
ATOM     87  C   UNL A   1      44.805  26.237  35.037  1.00  0.00     0.173 A 
ATOM     88  C   UNL A   1      46.066  28.131  34.259  1.00  0.00     0.173 A 
ATOM     89  F   UNL A   1      43.654  25.557  35.148  1.00  0.00    -0.203 F 
ATOM     90  C   UNL A   1      45.951  25.724  35.639  1.00  0.00     0.198 A 
ATOM     91  C   UNL A   1      47.215  27.605  34.841  1.00  0.00     0.198 A 
ATOM     92  F   UNL A   1      46.153  29.292  33.591  1.00  0.00    -0.203 F 
ATOM     93  F   UNL A   1      45.890  24.573  36.320  1.00  0.00    -0.200 F 
ATOM     94  C   UNL A   1      47.157  26.402  35.530  1.00  0.00     0.200 A 
ATOM     95  F   UNL A   1      48.382  28.254  34.724  1.00  0.00    -0.200 F 
ATOM     96  F   UNL A   1      48.264  25.895  36.090  1.00  0.00    -0.200 F 
ENDBRANCH  63  86
ENDBRANCH  37  38
ENDBRANCH  29  32
ENDBRANCH  27  28
ENDBRANCH  26  27
ENDBRANCH   1  26
TORSDOF 15
ENDMDL
MODEL 2
REMARK VINA RESULT:     -12.7      4.203      9.650
REMARK SMILES COc1cc(C)cc2c1O[C@H](C(F)(F)F)C(C(=O)NCCCCCCNC(=O)c1ccc(-c3c4nc(c(-c5c(F)c(F)c(F)c(F)c5F)c5ccc([nH]5)c(-c5c(F)c(F)c(F)c(F)c5F)c5nc(c(-c6c(F)c(F)c(F)c(F)c6F)c6ccc3[nH]6)C=C5)C=C4)cc1)=C2
REMARK SMILES IDX 23 1 22 2 21 3 20 4 19 5 17 6 18 7 16 9 3 10 4 11 9 12 5 13
REMARK SMILES IDX 8 14 10 15 6 16 7 17 92 18 11 19 2 20 1 21 12 22 13 23 14 24
REMARK SMILES IDX 15 25 24 26 25 27 26 28 27 29 28 31 29 32 30 33 91 34 31 35
REMARK SMILES IDX 90 36 32 37 33 38 34 39 84 40 35 41 89 42 83 43 85 44 36 45
REMARK SMILES IDX 88 46 82 47 81 48 37 50 69 51 49 52 68 53 50 54 53 55 67 56
REMARK SMILES IDX 86 57 51 58 52 59 66 61 87 62 54 63 38 64 39 65 47 66 40 67
REMARK SMILES IDX 41 68 45 69 48 70 42 71 43 72 46 73 44 74 70 75 71 76 79 77
REMARK SMILES IDX 72 78 73 79 77 80 80 81 74 82 75 83 78 84 76 85 55 86 56 87
REMARK SMILES IDX 64 88 57 89 58 90 62 91 65 92 59 93 60 94 63 95 61 96
REMARK H PARENT 19 8 26 30 85 49 53 60
REMARK Flexibility Score: inf
ROOT
ATOM      1  C   UNL A   1      35.120  20.535  24.941  1.00  0.00     0.002 C 
ENDROOT
BRANCH   1   2
ATOM      2  C   UNL A   1      33.799  20.614  25.719  1.00  0.00     0.002 C 
BRANCH   2   3
ATOM      3  C   UNL A   1      32.523  20.531  24.875  1.00  0.00     0.021 C 
BRANCH   3   4
ATOM      4  C   UNL A   1      31.780  21.856  24.727  1.00  0.00     0.116 C 
BRANCH   4   5
ATOM      5  N   UNL A   1      31.012  22.185  25.914  1.00  0.00    -0.352 N 
ATOM      6  C   UNL A   1      30.612  23.307  26.557  1.00  0.00     0.251 C 
ATOM      7  O   UNL A   1      29.916  23.111  27.560  1.00  0.00    -0.270 OA
ATOM      8  H   UNL A   1      30.697  21.374  26.375  1.00  0.00     0.163 HD
BRANCH   6   9
ATOM      9  C   UNL A   1      30.943  24.707  26.154  1.00  0.00     0.067 C 
ATOM     10  C   UNL A   1      31.631  28.683  24.967  1.00  0.00     0.161 A 
ATOM     11  C   UNL A   1      30.843  29.255  23.967  1.00  0.00     0.054 A 
ATOM     12  C   UNL A   1      31.377  27.374  25.391  1.00  0.00     0.169 A 
ATOM     13  C   UNL A   1      29.776  28.536  23.413  1.00  0.00    -0.047 A 
ATOM     14  C   UNL A   1      30.324  26.643  24.843  1.00  0.00     0.021 A 
ATOM     15  O   UNL A   1      32.156  26.882  26.398  1.00  0.00    -0.471 OA
ATOM     16  C   UNL A   1      28.924  29.135  22.333  1.00  0.00     0.044 C 
ATOM     17  C   UNL A   1      29.523  27.228  23.856  1.00  0.00     0.015 A 
ATOM     18  C   UNL A   1      30.061  25.291  25.322  1.00  0.00     0.025 C 
ATOM     19  C   UNL A   1      32.182  25.446  26.578  1.00  0.00     0.314 C 
BRANCH  10  20
ATOM     20  O   UNL A   1      32.721  29.320  25.503  1.00  0.00    -0.493 OA
ATOM     21  C   UNL A   1      32.381  30.395  26.372  1.00  0.00     0.278 C 
ENDBRANCH  10  20
BRANCH  19  22
ATOM     22  C   UNL A   1      33.467  24.889  25.942  1.00  0.00     0.429 C 
ATOM     23  F   UNL A   1      33.249  24.552  24.645  1.00  0.00    -0.167 F 
ATOM     24  F   UNL A   1      34.475  25.795  25.927  1.00  0.00    -0.167 F 
ATOM     25  F   UNL A   1      33.933  23.792  26.577  1.00  0.00    -0.167 F 
ENDBRANCH  19  22
ENDBRANCH   6   9
ENDBRANCH   4   5
ENDBRANCH   3   4
ENDBRANCH   2   3
ENDBRANCH   1   2
BRANCH   1  26
ATOM     26  C   UNL A   1      35.687  21.868  24.449  1.00  0.00     0.021 C 
BRANCH  26  27
ATOM     27  C   UNL A   1      36.978  22.310  25.125  1.00  0.00     0.116 C 
BRANCH  27  28
ATOM     28  N   UNL A   1      37.868  21.200  25.425  1.00  0.00    -0.352 N 
ATOM     29  C   UNL A   1      39.100  21.218  26.033  1.00  0.00     0.251 C 
ATOM     30  H   UNL A   1      37.543  20.311  25.154  1.00  0.00     0.163 HD
ATOM     31  O   UNL A   1      39.781  20.197  26.090  1.00  0.00    -0.269 OA
BRANCH  29  32
ATOM     32  C   UNL A   1      39.625  22.484  26.589  1.00  0.00     0.039 A 
ATOM     33  C   UNL A   1      39.152  23.714  26.129  1.00  0.00     0.014 A 
ATOM     34  C   UNL A   1      40.623  22.437  27.568  1.00  0.00     0.014 A 
ATOM     35  C   UNL A   1      39.788  24.885  26.520  1.00  0.00     0.010 A 
ATOM     36  C   UNL A   1      41.203  23.624  28.024  1.00  0.00     0.010 A 
ATOM     37  C   UNL A   1      40.827  24.854  27.466  1.00  0.00    -0.014 A 
BRANCH  37  38
ATOM     38  C   UNL A   1      41.493  26.126  27.846  1.00  0.00     0.031 A 
ATOM     39  C   UNL A   1      42.871  26.458  27.345  1.00  0.00     0.074 A 
ATOM     40  C   UNL A   1      40.818  27.017  28.598  1.00  0.00     0.049 A 
ATOM     41  N   UNL A   1      43.564  27.559  27.507  1.00  0.00    -0.248 NA
ATOM     42  C   UNL A   1      43.571  25.423  26.570  1.00  0.00     0.031 C 
ATOM     43  C   UNL A   1      39.482  26.799  29.154  1.00  0.00     0.029 A 
ATOM     44  N   UNL A   1      41.141  28.289  28.994  1.00  0.00    -0.354 N 
ATOM     45  C   UNL A   1      44.780  27.339  26.877  1.00  0.00     0.074 A 
ATOM     46  C   UNL A   1      44.748  25.992  26.352  1.00  0.00     0.031 C 
ATOM     47  C   UNL A   1      39.074  27.919  29.766  1.00  0.00     0.029 A 
ATOM     48  C   UNL A   1      40.139  28.916  29.690  1.00  0.00     0.049 A 
ATOM     49  H   UNL A   1      42.009  28.712  28.798  1.00  0.00     0.167 HD
ATOM     50  C   UNL A   1      45.823  28.193  26.737  1.00  0.00     0.037 A 
ATOM     51  C   UNL A   1      40.078  30.156  30.213  1.00  0.00     0.037 A 
ATOM     52  C   UNL A   1      45.835  29.547  27.225  1.00  0.00     0.049 A 
ATOM     53  C   UNL A   1      41.248  31.081  30.049  1.00  0.00     0.074 A 
ATOM     54  C   UNL A   1      46.814  30.511  27.064  1.00  0.00     0.029 A 
ATOM     55  N   UNL A   1      44.821  30.126  27.974  1.00  0.00    -0.354 N 
ATOM     56  N   UNL A   1      42.371  30.879  29.406  1.00  0.00    -0.248 NA
ATOM     57  C   UNL A   1      41.149  32.399  30.690  1.00  0.00     0.031 C 
ATOM     58  C   UNL A   1      46.416  31.658  27.757  1.00  0.00     0.029 A 
ATOM     59  C   UNL A   1      45.168  31.425  28.313  1.00  0.00     0.049 A 
ATOM     60  H   UNL A   1      43.980  29.681  28.226  1.00  0.00     0.167 HD
ATOM     61  C   UNL A   1      43.115  32.039  29.563  1.00  0.00     0.074 A 
ATOM     62  C   UNL A   1      42.305  32.952  30.345  1.00  0.00     0.031 C 
ATOM     63  C   UNL A   1      44.359  32.317  29.103  1.00  0.00     0.037 A 
BRANCH  50  64
ATOM     64  C   UNL A   1      47.051  27.690  26.034  1.00  0.00     0.064 A 
ATOM     65  C   UNL A   1      47.172  27.736  24.637  1.00  0.00     0.173 A 
ATOM     66  C   UNL A   1      48.142  27.210  26.773  1.00  0.00     0.173 A 
ATOM     67  F   UNL A   1      46.154  28.178  23.884  1.00  0.00    -0.203 F 
ATOM     68  C   UNL A   1      48.335  27.299  24.006  1.00  0.00     0.198 A 
ATOM     69  C   UNL A   1      49.313  26.799  26.140  1.00  0.00     0.198 A 
ATOM     70  F   UNL A   1      48.080  27.155  28.113  1.00  0.00    -0.203 F 
ATOM     71  F   UNL A   1      48.416  27.316  22.668  1.00  0.00    -0.200 F 
ATOM     72  C   UNL A   1      49.405  26.838  24.758  1.00  0.00     0.200 A 
ATOM     73  F   UNL A   1      50.351  26.365  26.869  1.00  0.00    -0.200 F 
ATOM     74  F   UNL A   1      50.527  26.428  24.148  1.00  0.00    -0.200 F 
ENDBRANCH  50  64
BRANCH  51  75
ATOM     75  C   UNL A   1      38.843  30.575  30.921  1.00  0.00     0.064 A 
ATOM     76  C   UNL A   1      38.738  30.459  32.313  1.00  0.00     0.173 A 
ATOM     77  C   UNL A   1      37.780  31.177  30.232  1.00  0.00     0.173 A 
ATOM     78  F   UNL A   1      39.723  29.877  33.014  1.00  0.00    -0.203 F 
ATOM     79  C   UNL A   1      37.620  30.941  32.992  1.00  0.00     0.198 A 
ATOM     80  C   UNL A   1      36.675  31.681  30.911  1.00  0.00     0.198 A 
ATOM     81  F   UNL A   1      37.840  31.317  28.900  1.00  0.00    -0.203 F 
ATOM     82  F   UNL A   1      37.538  30.812  34.322  1.00  0.00    -0.200 F 
ATOM     83  C   UNL A   1      36.596  31.563  32.291  1.00  0.00     0.200 A 
ATOM     84  F   UNL A   1      35.698  32.298  30.235  1.00  0.00    -0.200 F 
ATOM     85  F   UNL A   1      35.534  32.052  32.947  1.00  0.00    -0.200 F 
ENDBRANCH  51  75
BRANCH  63  86
ATOM     86  C   UNL A   1      44.943  33.655  29.441  1.00  0.00     0.064 A 
ATOM     87  C   UNL A   1      45.761  33.826  30.565  1.00  0.00     0.173 A 
ATOM     88  C   UNL A   1      44.766  34.749  28.581  1.00  0.00     0.173 A 
ATOM     89  F   UNL A   1      45.948  32.812  31.424  1.00  0.00    -0.203 F 
ATOM     90  C   UNL A   1      46.384  35.044  30.817  1.00  0.00     0.198 A 
ATOM     91  C   UNL A   1      45.408  35.960  28.823  1.00  0.00     0.198 A 
ATOM     92  F   UNL A   1      43.997  34.632  27.487  1.00  0.00    -0.203 F 
ATOM     93  F   UNL A   1      47.149  35.191  31.907  1.00  0.00    -0.200 F 
ATOM     94  C   UNL A   1      46.217  36.107  29.940  1.00  0.00     0.200 A 
ATOM     95  F   UNL A   1      45.256  36.980  27.967  1.00  0.00    -0.200 F 
ATOM     96  F   UNL A   1      46.836  37.272  30.172  1.00  0.00    -0.200 F 
ENDBRANCH  63  86
ENDBRANCH  37  38
ENDBRANCH  29  32
ENDBRANCH  27  28
ENDBRANCH  26  27
ENDBRANCH   1  26
TORSDOF 15
ENDMDL
MODEL 3
REMARK VINA RESULT:     -12.7      2.866      8.452
REMARK SMILES COc1cc(C)cc2c1O[C@H](C(F)(F)F)C(C(=O)NCCCCCCNC(=O)c1ccc(-c3c4nc(c(-c5c(F)c(F)c(F)c(F)c5F)c5ccc([nH]5)c(-c5c(F)c(F)c(F)c(F)c5F)c5nc(c(-c6c(F)c(F)c(F)c(F)c6F)c6ccc3[nH]6)C=C5)C=C4)cc1)=C2
REMARK SMILES IDX 23 1 22 2 21 3 20 4 19 5 17 6 18 7 16 9 3 10 4 11 9 12 5 13
REMARK SMILES IDX 8 14 10 15 6 16 7 17 92 18 11 19 2 20 1 21 12 22 13 23 14 24
REMARK SMILES IDX 15 25 24 26 25 27 26 28 27 29 28 31 29 32 30 33 91 34 31 35
REMARK SMILES IDX 90 36 32 37 33 38 34 39 84 40 35 41 89 42 83 43 85 44 36 45
REMARK SMILES IDX 88 46 82 47 81 48 37 50 69 51 49 52 68 53 50 54 53 55 67 56
REMARK SMILES IDX 86 57 51 58 52 59 66 61 87 62 54 63 38 64 39 65 47 66 40 67
REMARK SMILES IDX 41 68 45 69 48 70 42 71 43 72 46 73 44 74 70 75 71 76 79 77
REMARK SMILES IDX 72 78 73 79 77 80 80 81 74 82 75 83 78 84 76 85 55 86 56 87
REMARK SMILES IDX 64 88 57 89 58 90 62 91 65 92 59 93 60 94 63 95 61 96
REMARK H PARENT 19 8 26 30 85 49 53 60
REMARK Flexibility Score: inf
ROOT
ATOM      1  C   UNL A   1      34.533  33.351  28.467  1.00  0.00     0.002 C 
ENDROOT
BRANCH   1   2
ATOM      2  C   UNL A   1      34.455  31.863  28.837  1.00  0.00     0.002 C 
BRANCH   2   3
ATOM      3  C   UNL A   1      34.682  30.879  27.685  1.00  0.00     0.021 C 
BRANCH   3   4
ATOM      4  C   UNL A   1      33.402  30.283  27.105  1.00  0.00     0.116 C 
BRANCH   4   5
ATOM      5  N   UNL A   1      33.556  29.911  25.711  1.00  0.00    -0.352 N 
ATOM      6  C   UNL A   1      33.390  28.800  24.956  1.00  0.00     0.251 C 
ATOM      7  O   UNL A   1      33.619  28.951  23.751  1.00  0.00    -0.270 OA
ATOM      8  H   UNL A   1      33.863  30.673  25.168  1.00  0.00     0.163 HD
BRANCH   6   9
ATOM      9  C   UNL A   1      32.970  27.459  25.462  1.00  0.00     0.067 C 
ATOM     10  C   UNL A   1      32.029  23.636  26.944  1.00  0.00     0.161 A 
ATOM     11  C   UNL A   1      32.955  22.598  26.825  1.00  0.00     0.054 A 
ATOM     12  C   UNL A   1      32.356  24.918  26.488  1.00  0.00     0.169 A 
ATOM     13  C   UNL A   1      34.224  22.844  26.284  1.00  0.00    -0.047 A 
ATOM     14  C   UNL A   1      33.612  25.176  25.940  1.00  0.00     0.021 A 
ATOM     15  O   UNL A   1      31.425  25.900  26.665  1.00  0.00    -0.471 OA
ATOM     16  C   UNL A   1      35.227  21.738  26.145  1.00  0.00     0.044 C 
ATOM     17  C   UNL A   1      34.545  24.137  25.842  1.00  0.00     0.015 A 
ATOM     18  C   UNL A   1      33.940  26.526  25.499  1.00  0.00     0.025 C 
ATOM     19  C   UNL A   1      31.568  27.102  25.872  1.00  0.00     0.314 C 
BRANCH  10  20
ATOM     20  O   UNL A   1      30.755  23.438  27.412  1.00  0.00    -0.493 OA
ATOM     21  C   UNL A   1      29.970  22.588  26.584  1.00  0.00     0.278 C 
ENDBRANCH  10  20
BRANCH  19  22
ATOM     22  C   UNL A   1      30.589  27.034  24.688  1.00  0.00     0.429 C 
ATOM     23  F   UNL A   1      29.468  26.351  25.035  1.00  0.00    -0.167 F 
ATOM     24  F   UNL A   1      30.170  28.259  24.288  1.00  0.00    -0.167 F 
ATOM     25  F   UNL A   1      31.120  26.427  23.604  1.00  0.00    -0.167 F 
ENDBRANCH  19  22
ENDBRANCH   6   9
ENDBRANCH   4   5
ENDBRANCH   3   4
ENDBRANCH   2   3
ENDBRANCH   1   2
BRANCH   1  26
ATOM     26  C   UNL A   1      33.286  34.182  28.773  1.00  0.00     0.021 C 
BRANCH  26  27
ATOM     27  C   UNL A   1      33.557  35.591  29.285  1.00  0.00     0.116 C 
BRANCH  27  28
ATOM     28  N   UNL A   1      32.594  36.025  30.283  1.00  0.00    -0.352 N 
ATOM     29  C   UNL A   1      32.581  35.790  31.637  1.00  0.00     0.251 C 
ATOM     30  H   UNL A   1      31.843  36.564  29.940  1.00  0.00     0.163 HD
ATOM     31  O   UNL A   1      31.615  36.123  32.317  1.00  0.00    -0.269 OA
BRANCH  29  32
ATOM     32  C   UNL A   1      33.725  35.099  32.270  1.00  0.00     0.039 A 
ATOM     33  C   UNL A   1      34.970  35.723  32.365  1.00  0.00     0.014 A 
ATOM     34  C   UNL A   1      33.553  33.798  32.753  1.00  0.00     0.014 A 
ATOM     35  C   UNL A   1      36.075  34.992  32.785  1.00  0.00     0.010 A 
ATOM     36  C   UNL A   1      34.650  33.093  33.255  1.00  0.00     0.010 A 
ATOM     37  C   UNL A   1      35.930  33.666  33.227  1.00  0.00    -0.014 A 
BRANCH  37  38
ATOM     38  C   UNL A   1      37.137  32.913  33.653  1.00  0.00     0.031 A 
ATOM     39  C   UNL A   1      37.795  31.921  32.734  1.00  0.00     0.074 A 
ATOM     40  C   UNL A   1      37.681  33.178  34.856  1.00  0.00     0.049 A 
ATOM     41  N   UNL A   1      38.902  31.242  32.911  1.00  0.00    -0.248 NA
ATOM     42  C   UNL A   1      37.124  31.643  31.456  1.00  0.00     0.031 C 
ATOM     43  C   UNL A   1      37.124  34.109  35.838  1.00  0.00     0.029 A 
ATOM     44  N   UNL A   1      38.833  32.722  35.444  1.00  0.00    -0.354 N 
ATOM     45  C   UNL A   1      39.045  30.447  31.783  1.00  0.00     0.074 A 
ATOM     46  C   UNL A   1      37.900  30.702  30.937  1.00  0.00     0.031 C 
ATOM     47  C   UNL A   1      37.964  34.203  36.878  1.00  0.00     0.029 A 
ATOM     48  C   UNL A   1      39.092  33.302  36.661  1.00  0.00     0.049 A 
ATOM     49  H   UNL A   1      39.418  32.045  35.033  1.00  0.00     0.167 HD
ATOM     50  C   UNL A   1      40.051  29.593  31.476  1.00  0.00     0.037 A 
ATOM     51  C   UNL A   1      40.122  33.129  37.512  1.00  0.00     0.037 A 
ATOM     52  C   UNL A   1      41.209  29.373  32.301  1.00  0.00     0.049 A 
ATOM     53  C   UNL A   1      41.221  32.174  37.152  1.00  0.00     0.074 A 
ATOM     54  C   UNL A   1      42.317  28.586  32.038  1.00  0.00     0.029 A 
ATOM     55  N   UNL A   1      41.407  29.937  33.553  1.00  0.00    -0.354 N 
ATOM     56  N   UNL A   1      41.370  31.467  36.058  1.00  0.00    -0.248 NA
ATOM     57  C   UNL A   1      42.287  31.982  38.143  1.00  0.00     0.031 C 
ATOM     58  C   UNL A   1      43.162  28.635  33.151  1.00  0.00     0.029 A 
ATOM     59  C   UNL A   1      42.603  29.487  34.090  1.00  0.00     0.049 A 
ATOM     60  H   UNL A   1      40.790  30.564  33.994  1.00  0.00     0.167 HD
ATOM     61  C   UNL A   1      42.543  30.747  36.227  1.00  0.00     0.074 A 
ATOM     62  C   UNL A   1      43.080  31.117  37.521  1.00  0.00     0.031 C 
ATOM     63  C   UNL A   1      43.118  29.854  35.385  1.00  0.00     0.037 A 
BRANCH  50  64
ATOM     64  C   UNL A   1      39.946  28.818  30.194  1.00  0.00     0.064 A 
ATOM     65  C   UNL A   1      40.456  29.317  28.986  1.00  0.00     0.173 A 
ATOM     66  C   UNL A   1      39.379  27.535  30.188  1.00  0.00     0.173 A 
ATOM     67  F   UNL A   1      41.001  30.541  28.937  1.00  0.00    -0.203 F 
ATOM     68  C   UNL A   1      40.382  28.566  27.815  1.00  0.00     0.198 A 
ATOM     69  C   UNL A   1      39.330  26.777  29.020  1.00  0.00     0.198 A 
ATOM     70  F   UNL A   1      38.884  27.008  31.319  1.00  0.00    -0.203 F 
ATOM     71  F   UNL A   1      40.842  29.077  26.664  1.00  0.00    -0.200 F 
ATOM     72  C   UNL A   1      39.827  27.296  27.835  1.00  0.00     0.200 A 
ATOM     73  F   UNL A   1      38.804  25.545  29.044  1.00  0.00    -0.200 F 
ATOM     74  F   UNL A   1      39.766  26.572  26.708  1.00  0.00    -0.200 F 
ENDBRANCH  50  64
BRANCH  51  75
ATOM     75  C   UNL A   1      40.145  33.907  38.775  1.00  0.00     0.064 A 
ATOM     76  C   UNL A   1      40.810  35.137  38.850  1.00  0.00     0.173 A 
ATOM     77  C   UNL A   1      39.433  33.478  39.906  1.00  0.00     0.173 A 
ATOM     78  F   UNL A   1      41.516  35.582  37.799  1.00  0.00    -0.203 F 
ATOM     79  C   UNL A   1      40.752  35.916  40.004  1.00  0.00     0.198 A 
ATOM     80  C   UNL A   1      39.355  34.266  41.049  1.00  0.00     0.198 A 
ATOM     81  F   UNL A   1      38.775  32.310  39.878  1.00  0.00    -0.203 F 
ATOM     82  F   UNL A   1      41.402  37.086  40.054  1.00  0.00    -0.200 F 
ATOM     83  C   UNL A   1      40.014  35.485  41.098  1.00  0.00     0.200 A 
ATOM     84  F   UNL A   1      38.626  33.857  42.096  1.00  0.00    -0.200 F 
ATOM     85  F   UNL A   1      39.935  36.249  42.197  1.00  0.00    -0.200 F 
ENDBRANCH  51  75
BRANCH  63  86
ATOM     86  C   UNL A   1      44.388  29.194  35.830  1.00  0.00     0.064 A 
ATOM     87  C   UNL A   1      45.635  29.785  35.585  1.00  0.00     0.173 A 
ATOM     88  C   UNL A   1      44.352  28.019  36.593  1.00  0.00     0.173 A 
ATOM     89  F   UNL A   1      45.719  30.903  34.848  1.00  0.00    -0.203 F 
ATOM     90  C   UNL A   1      46.803  29.222  36.089  1.00  0.00     0.198 A 
ATOM     91  C   UNL A   1      45.520  27.470  37.115  1.00  0.00     0.198 A 
ATOM     92  F   UNL A   1      43.181  27.421  36.860  1.00  0.00    -0.203 F 
ATOM     93  F   UNL A   1      47.987  29.792  35.829  1.00  0.00    -0.200 F 
ATOM     94  C   UNL A   1      46.744  28.072  36.864  1.00  0.00     0.200 A 
ATOM     95  F   UNL A   1      45.459  26.367  37.875  1.00  0.00    -0.200 F 
ATOM     96  F   UNL A   1      47.868  27.544  37.368  1.00  0.00    -0.200 F 
ENDBRANCH  63  86
ENDBRANCH  37  38
ENDBRANCH  29  32
ENDBRANCH  27  28
ENDBRANCH  26  27
ENDBRANCH   1  26
TORSDOF 15
ENDMDL
