MODEL 1
REMARK VINA RESULT:     -12.3      0.000      0.000
REMARK SMILES O=C(NCCCCCCNC(=O)c1cccnc1Nc1cccc(C(F)(F)F)c1)c1ccc(-c2c3nc(c(-c4c(F)c(F)c(F)c(F)c4F)c4ccc([nH]4)c(-c4c(F)c(F)c(F)c(F)c4F)c4nc(c(-c5c(F)c(F)c(F)c(F)c5F)c5ccc2[nH]5)C=C4)C=C3)cc1
REMARK SMILES IDX 7 1 6 2 5 3 4 4 3 5 1 6 2 7 30 9 31 10 92 11 32 12 91 13
REMARK SMILES IDX 33 14 34 15 35 16 85 17 36 18 90 19 84 20 86 21 37 22 89 23
REMARK SMILES IDX 83 24 82 25 38 27 70 28 50 29 69 30 51 31 54 32 68 33 87 34
REMARK SMILES IDX 52 35 53 36 67 38 88 39 55 40 39 41 40 42 48 43 41 44 42 45
REMARK SMILES IDX 46 46 49 47 43 48 44 49 47 50 45 51 71 52 72 53 80 54 73 55
REMARK SMILES IDX 74 56 78 57 81 58 75 59 76 60 79 61 77 62 56 63 57 64 65 65
REMARK SMILES IDX 58 66 59 67 63 68 66 69 60 70 61 71 64 72 62 73 8 74 9 75
REMARK SMILES IDX 10 76 11 77 12 79 13 80 14 81 18 82 15 83 17 84 16 85 19 86
REMARK SMILES IDX 20 88 21 89 29 90 22 91 24 92 23 93 25 94 26 95 27 96 28 97
REMARK H PARENT 3 8 86 26 54 37 10 78 19 87
REMARK Flexibility Score: inf
ROOT
ATOM      1  C   UNL A   1      32.339  29.999  26.540  1.00  0.00     0.002 C 
ENDROOT
BRANCH   1   2
ATOM      2  C   UNL A   1      31.320  30.920  25.862  1.00  0.00     0.002 C 
BRANCH   2   3
ATOM      3  C   UNL A   1      31.184  32.312  26.477  1.00  0.00     0.021 C 
BRANCH   3   4
ATOM      4  C   UNL A   1      32.438  32.837  27.161  1.00  0.00     0.116 C 
BRANCH   4   5
ATOM      5  N   UNL A   1      32.302  34.216  27.596  1.00  0.00    -0.352 N 
ATOM      6  O   UNL A   1      32.646  36.012  28.920  1.00  0.00    -0.269 OA
ATOM      7  C   UNL A   1      32.997  34.891  28.569  1.00  0.00     0.251 C 
ATOM      8  H   UNL A   1      31.613  34.742  27.127  1.00  0.00     0.163 HD
BRANCH   7   9
ATOM      9  C   UNL A   1      34.162  34.248  29.214  1.00  0.00     0.039 A 
ATOM     10  C   UNL A   1      35.464  34.573  28.823  1.00  0.00     0.014 A 
ATOM     11  C   UNL A   1      33.948  33.314  30.232  1.00  0.00     0.014 A 
ATOM     12  C   UNL A   1      36.540  33.872  29.353  1.00  0.00     0.010 A 
ATOM     13  C   UNL A   1      35.037  32.672  30.826  1.00  0.00     0.010 A 
ATOM     14  C   UNL A   1      36.341  32.926  30.374  1.00  0.00    -0.014 A 
BRANCH  14  15
ATOM     15  C   UNL A   1      37.518  32.277  31.002  1.00  0.00     0.031 A 
ATOM     16  C   UNL A   1      37.974  32.657  32.382  1.00  0.00     0.074 A 
ATOM     17  C   UNL A   1      38.166  31.317  30.314  1.00  0.00     0.049 A 
ATOM     18  N   UNL A   1      38.976  32.181  33.079  1.00  0.00    -0.248 NA
ATOM     19  C   UNL A   1      37.215  33.712  33.069  1.00  0.00     0.031 C 
ATOM     20  C   UNL A   1      37.819  30.877  28.961  1.00  0.00     0.029 A 
ATOM     21  N   UNL A   1      39.235  30.531  30.656  1.00  0.00    -0.354 N 
ATOM     22  C   UNL A   1      38.978  32.884  34.276  1.00  0.00     0.074 A 
ATOM     23  C   UNL A   1      37.892  33.841  34.202  1.00  0.00     0.031 C 
ATOM     24  C   UNL A   1      38.631  29.873  28.604  1.00  0.00     0.029 A 
ATOM     25  C   UNL A   1      39.595  29.641  29.674  1.00  0.00     0.049 A 
ATOM     26  H   UNL A   1      39.701  30.598  31.520  1.00  0.00     0.167 HD
ATOM     27  C   UNL A   1      39.804  32.737  35.340  1.00  0.00     0.037 A 
ATOM     28  C   UNL A   1      40.602  28.750  29.630  1.00  0.00     0.037 A 
ATOM     29  C   UNL A   1      40.876  31.775  35.408  1.00  0.00     0.049 A 
ATOM     30  C   UNL A   1      41.520  28.630  30.812  1.00  0.00     0.074 A 
ATOM     31  C   UNL A   1      41.748  31.526  36.454  1.00  0.00     0.029 A 
ATOM     32  N   UNL A   1      41.229  30.909  34.381  1.00  0.00    -0.354 N 
ATOM     33  N   UNL A   1      41.486  29.274  31.953  1.00  0.00    -0.248 NA
ATOM     34  C   UNL A   1      42.617  27.662  30.699  1.00  0.00     0.031 C 
ATOM     35  C   UNL A   1      42.656  30.543  36.045  1.00  0.00     0.029 A 
ATOM     36  C   UNL A   1      42.320  30.142  34.763  1.00  0.00     0.049 A 
ATOM     37  H   UNL A   1      40.772  30.849  33.512  1.00  0.00     0.167 HD
ATOM     38  C   UNL A   1      42.543  28.779  32.701  1.00  0.00     0.074 A 
ATOM     39  C   UNL A   1      43.187  27.765  31.891  1.00  0.00     0.031 C 
ATOM     40  C   UNL A   1      42.948  29.136  33.944  1.00  0.00     0.037 A 
BRANCH  27  41
ATOM     41  C   UNL A   1      39.597  33.645  36.518  1.00  0.00     0.064 A 
ATOM     42  C   UNL A   1      38.813  33.262  37.616  1.00  0.00     0.173 A 
ATOM     43  C   UNL A   1      40.236  34.894  36.574  1.00  0.00     0.173 A 
ATOM     44  F   UNL A   1      38.173  32.082  37.610  1.00  0.00    -0.203 F 
ATOM     45  C   UNL A   1      38.657  34.103  38.716  1.00  0.00     0.198 A 
ATOM     46  C   UNL A   1      40.100  35.721  37.686  1.00  0.00     0.198 A 
ATOM     47  F   UNL A   1      41.003  35.307  35.555  1.00  0.00    -0.203 F 
ATOM     48  F   UNL A   1      37.869  33.732  39.734  1.00  0.00    -0.200 F 
ATOM     49  C   UNL A   1      39.305  35.328  38.753  1.00  0.00     0.200 A 
ATOM     50  F   UNL A   1      40.738  36.898  37.726  1.00  0.00    -0.200 F 
ATOM     51  F   UNL A   1      39.162  36.132  39.816  1.00  0.00    -0.200 F 
ENDBRANCH  27  41
BRANCH  28  52
ATOM     52  C   UNL A   1      40.788  27.909  28.420  1.00  0.00     0.064 A 
ATOM     53  C   UNL A   1      41.555  28.362  27.338  1.00  0.00     0.173 A 
ATOM     54  C   UNL A   1      40.213  26.632  28.326  1.00  0.00     0.173 A 
ATOM     55  F   UNL A   1      42.109  29.583  27.374  1.00  0.00    -0.203 F 
ATOM     56  C   UNL A   1      41.729  27.573  26.203  1.00  0.00     0.198 A 
ATOM     57  C   UNL A   1      40.414  25.834  27.204  1.00  0.00     0.198 A 
ATOM     58  F   UNL A   1      39.475  26.152  29.338  1.00  0.00    -0.203 F 
ATOM     59  F   UNL A   1      42.434  28.045  25.165  1.00  0.00    -0.200 F 
ATOM     60  C   UNL A   1      41.165  26.308  26.139  1.00  0.00     0.200 A 
ATOM     61  F   UNL A   1      39.883  24.604  27.156  1.00  0.00    -0.200 F 
ATOM     62  F   UNL A   1      41.341  25.547  25.051  1.00  0.00    -0.200 F 
ENDBRANCH  28  52
BRANCH  40  63
ATOM     63  C   UNL A   1      44.126  28.401  34.512  1.00  0.00     0.064 A 
ATOM     64  C   UNL A   1      45.435  28.884  34.366  1.00  0.00     0.173 A 
ATOM     65  C   UNL A   1      43.940  27.212  35.234  1.00  0.00     0.173 A 
ATOM     66  F   UNL A   1      45.666  30.007  33.669  1.00  0.00    -0.203 F 
ATOM     67  C   UNL A   1      46.518  28.186  34.896  1.00  0.00     0.198 A 
ATOM     68  C   UNL A   1      45.022  26.534  35.788  1.00  0.00     0.198 A 
ATOM     69  F   UNL A   1      42.708  26.711  35.407  1.00  0.00    -0.203 F 
ATOM     70  F   UNL A   1      47.764  28.638  34.698  1.00  0.00    -0.200 F 
ATOM     71  C   UNL A   1      46.309  27.016  35.610  1.00  0.00     0.200 A 
ATOM     72  F   UNL A   1      44.818  25.410  36.488  1.00  0.00    -0.200 F 
ATOM     73  F   UNL A   1      47.353  26.349  36.123  1.00  0.00    -0.200 F 
ENDBRANCH  40  63
ENDBRANCH  14  15
ENDBRANCH   7   9
ENDBRANCH   4   5
ENDBRANCH   3   4
ENDBRANCH   2   3
ENDBRANCH   1   2
BRANCH   1  74
ATOM     74  C   UNL A   1      31.757  28.758  27.227  1.00  0.00     0.021 C 
BRANCH  74  75
ATOM     75  C   UNL A   1      32.227  27.423  26.655  1.00  0.00     0.116 C 
BRANCH  75  76
ATOM     76  N   UNL A   1      31.345  26.337  27.042  1.00  0.00    -0.352 N 
ATOM     77  C   UNL A   1      31.130  25.144  26.401  1.00  0.00     0.255 C 
ATOM     78  H   UNL A   1      30.835  26.475  27.872  1.00  0.00     0.163 HD
ATOM     79  O   UNL A   1      30.147  24.462  26.680  1.00  0.00    -0.269 OA
BRANCH  77  80
ATOM     80  C   UNL A   1      32.068  24.679  25.364  1.00  0.00     0.082 A 
ATOM     81  C   UNL A   1      33.253  24.029  25.735  1.00  0.00     0.019 A 
ATOM     82  C   UNL A   1      31.748  24.813  24.009  1.00  0.00     0.143 A 
ATOM     83  C   UNL A   1      34.135  23.604  24.752  1.00  0.00     0.021 A 
ATOM     84  N   UNL A   1      32.626  24.408  23.055  1.00  0.00    -0.238 NA
ATOM     85  C   UNL A   1      33.784  23.824  23.435  1.00  0.00     0.113 A 
BRANCH  82  86
ATOM     86  N   UNL A   1      30.562  25.460  23.600  1.00  0.00    -0.340 N 
ATOM     87  H   UNL A   1      29.747  24.910  23.546  1.00  0.00     0.168 HD
BRANCH  86  88
ATOM     88  C   UNL A   1      30.437  26.821  23.265  1.00  0.00     0.040 A 
ATOM     89  C   UNL A   1      31.578  27.585  23.015  1.00  0.00     0.026 A 
ATOM     90  C   UNL A   1      29.189  27.457  23.282  1.00  0.00     0.039 A 
ATOM     91  C   UNL A   1      31.468  28.942  22.703  1.00  0.00     0.003 A 
ATOM     92  C   UNL A   1      29.061  28.823  22.991  1.00  0.00     0.058 A 
ATOM     93  C   UNL A   1      30.216  29.557  22.686  1.00  0.00     0.013 A 
BRANCH  92  94
ATOM     94  C   UNL A   1      27.709  29.483  22.991  1.00  0.00     0.416 C 
ATOM     95  F   UNL A   1      27.649  30.545  23.845  1.00  0.00    -0.166 F 
ATOM     96  F   UNL A   1      27.366  29.973  21.768  1.00  0.00    -0.166 F 
ATOM     97  F   UNL A   1      26.690  28.658  23.361  1.00  0.00    -0.166 F 
ENDBRANCH  92  94
ENDBRANCH  86  88
ENDBRANCH  82  86
ENDBRANCH  77  80
ENDBRANCH  75  76
ENDBRANCH  74  75
ENDBRANCH   1  74
TORSDOF 16
ENDMDL
MODEL 2
REMARK VINA RESULT:     -12.2      0.565      7.407
REMARK SMILES O=C(NCCCCCCNC(=O)c1cccnc1Nc1cccc(C(F)(F)F)c1)c1ccc(-c2c3nc(c(-c4c(F)c(F)c(F)c(F)c4F)c4ccc([nH]4)c(-c4c(F)c(F)c(F)c(F)c4F)c4nc(c(-c5c(F)c(F)c(F)c(F)c5F)c5ccc2[nH]5)C=C4)C=C3)cc1
REMARK SMILES IDX 7 1 6 2 5 3 4 4 3 5 1 6 2 7 30 9 31 10 92 11 32 12 91 13
REMARK SMILES IDX 33 14 34 15 35 16 85 17 36 18 90 19 84 20 86 21 37 22 89 23
REMARK SMILES IDX 83 24 82 25 38 27 70 28 50 29 69 30 51 31 54 32 68 33 87 34
REMARK SMILES IDX 52 35 53 36 67 38 88 39 55 40 39 41 40 42 48 43 41 44 42 45
REMARK SMILES IDX 46 46 49 47 43 48 44 49 47 50 45 51 71 52 72 53 80 54 73 55
REMARK SMILES IDX 74 56 78 57 81 58 75 59 76 60 79 61 77 62 56 63 57 64 65 65
REMARK SMILES IDX 58 66 59 67 63 68 66 69 60 70 61 71 64 72 62 73 8 74 9 75
REMARK SMILES IDX 10 76 11 77 12 79 13 80 14 81 18 82 15 83 17 84 16 85 19 86
REMARK SMILES IDX 20 88 21 89 29 90 22 91 24 92 23 93 25 94 26 95 27 96 28 97
REMARK H PARENT 3 8 86 26 54 37 10 78 19 87
REMARK Flexibility Score: inf
ROOT
ATOM      1  C   UNL A   1      32.466  29.868  26.369  1.00  0.00     0.002 C 
ENDROOT
BRANCH   1   2
ATOM      2  C   UNL A   1      31.385  30.797  25.809  1.00  0.00     0.002 C 
BRANCH   2   3
ATOM      3  C   UNL A   1      31.259  32.151  26.506  1.00  0.00     0.021 C 
BRANCH   3   4
ATOM      4  C   UNL A   1      32.537  32.658  27.159  1.00  0.00     0.116 C 
BRANCH   4   5
ATOM      5  N   UNL A   1      32.440  34.048  27.572  1.00  0.00    -0.352 N 
ATOM      6  O   UNL A   1      32.817  35.849  28.880  1.00  0.00    -0.269 OA
ATOM      7  C   UNL A   1      33.136  34.710  28.553  1.00  0.00     0.251 C 
ATOM      8  H   UNL A   1      31.782  34.591  27.080  1.00  0.00     0.163 HD
BRANCH   7   9
ATOM      9  C   UNL A   1      34.262  34.036  29.234  1.00  0.00     0.039 A 
ATOM     10  C   UNL A   1      34.027  33.093  30.239  1.00  0.00     0.014 A 
ATOM     11  C   UNL A   1      35.571  34.344  28.853  1.00  0.00     0.014 A 
ATOM     12  C   UNL A   1      35.095  32.561  30.950  1.00  0.00     0.010 A 
ATOM     13  C   UNL A   1      36.646  33.742  29.512  1.00  0.00     0.010 A 
ATOM     14  C   UNL A   1      36.418  32.865  30.583  1.00  0.00    -0.014 A 
BRANCH  14  15
ATOM     15  C   UNL A   1      37.539  32.192  31.285  1.00  0.00     0.031 A 
ATOM     16  C   UNL A   1      38.298  31.067  30.642  1.00  0.00     0.074 A 
ATOM     17  C   UNL A   1      37.881  32.626  32.513  1.00  0.00     0.049 A 
ATOM     18  N   UNL A   1      39.309  30.379  31.113  1.00  0.00    -0.248 NA
ATOM     19  C   UNL A   1      37.867  30.652  29.299  1.00  0.00     0.031 C 
ATOM     20  C   UNL A   1      37.204  33.703  33.240  1.00  0.00     0.029 A 
ATOM     21  N   UNL A   1      38.883  32.232  33.360  1.00  0.00    -0.354 N 
ATOM     22  C   UNL A   1      39.624  29.444  30.137  1.00  0.00     0.074 A 
ATOM     23  C   UNL A   1      38.680  29.633  29.055  1.00  0.00     0.031 C 
ATOM     24  C   UNL A   1      37.834  33.911  34.404  1.00  0.00     0.029 A 
ATOM     25  C   UNL A   1      38.917  32.943  34.534  1.00  0.00     0.049 A 
ATOM     26  H   UNL A   1      39.515  31.508  33.149  1.00  0.00     0.167 HD
ATOM     27  C   UNL A   1      40.616  28.521  30.143  1.00  0.00     0.037 A 
ATOM     28  C   UNL A   1      39.720  32.818  35.607  1.00  0.00     0.037 A 
ATOM     29  C   UNL A   1      41.557  28.347  31.221  1.00  0.00     0.049 A 
ATOM     30  C   UNL A   1      40.790  31.766  35.597  1.00  0.00     0.074 A 
ATOM     31  C   UNL A   1      42.619  27.461  31.307  1.00  0.00     0.029 A 
ATOM     32  N   UNL A   1      41.543  29.068  32.408  1.00  0.00    -0.354 N 
ATOM     33  N   UNL A   1      41.102  30.915  34.651  1.00  0.00    -0.248 NA
ATOM     34  C   UNL A   1      41.618  31.656  36.804  1.00  0.00     0.031 C 
ATOM     35  C   UNL A   1      43.217  27.614  32.563  1.00  0.00     0.029 A 
ATOM     36  C   UNL A   1      42.563  28.630  33.240  1.00  0.00     0.049 A 
ATOM     37  H   UNL A   1      40.904  29.784  32.625  1.00  0.00     0.167 HD
ATOM     38  C   UNL A   1      42.172  30.179  35.138  1.00  0.00     0.074 A 
ATOM     39  C   UNL A   1      42.469  30.701  36.457  1.00  0.00     0.031 C 
ATOM     40  C   UNL A   1      42.845  29.160  34.550  1.00  0.00     0.037 A 
BRANCH  27  41
ATOM     41  C   UNL A   1      40.732  27.612  28.953  1.00  0.00     0.064 A 
ATOM     42  C   UNL A   1      41.669  27.844  27.935  1.00  0.00     0.173 A 
ATOM     43  C   UNL A   1      39.933  26.461  28.856  1.00  0.00     0.173 A 
ATOM     44  F   UNL A   1      42.452  28.933  27.974  1.00  0.00    -0.203 F 
ATOM     45  C   UNL A   1      41.786  26.973  26.854  1.00  0.00     0.198 A 
ATOM     46  C   UNL A   1      40.071  25.578  27.789  1.00  0.00     0.198 A 
ATOM     47  F   UNL A   1      39.026  26.187  29.805  1.00  0.00    -0.203 F 
ATOM     48  F   UNL A   1      42.660  27.239  25.873  1.00  0.00    -0.200 F 
ATOM     49  C   UNL A   1      40.992  25.838  26.785  1.00  0.00     0.200 A 
ATOM     50  F   UNL A   1      39.313  24.475  27.731  1.00  0.00    -0.200 F 
ATOM     51  F   UNL A   1      41.112  24.996  25.750  1.00  0.00    -0.200 F 
ENDBRANCH  27  41
BRANCH  28  52
ATOM     52  C   UNL A   1      39.530  33.715  36.776  1.00  0.00     0.064 A 
ATOM     53  C   UNL A   1      38.749  33.319  37.869  1.00  0.00     0.173 A 
ATOM     54  C   UNL A   1      40.137  34.980  36.828  1.00  0.00     0.173 A 
ATOM     55  F   UNL A   1      38.134  32.127  37.858  1.00  0.00    -0.203 F 
ATOM     56  C   UNL A   1      38.571  34.160  38.965  1.00  0.00     0.198 A 
ATOM     57  C   UNL A   1      39.982  35.806  37.937  1.00  0.00     0.198 A 
ATOM     58  F   UNL A   1      40.899  35.401  35.808  1.00  0.00    -0.203 F 
ATOM     59  F   UNL A   1      37.786  33.775  39.981  1.00  0.00    -0.200 F 
ATOM     60  C   UNL A   1      39.193  35.399  39.002  1.00  0.00     0.200 A 
ATOM     61  F   UNL A   1      40.602  36.994  37.977  1.00  0.00    -0.200 F 
ATOM     62  F   UNL A   1      39.028  36.204  40.061  1.00  0.00    -0.200 F 
ENDBRANCH  28  52
BRANCH  40  63
ATOM     63  C   UNL A   1      43.986  28.565  35.319  1.00  0.00     0.064 A 
ATOM     64  C   UNL A   1      43.801  27.476  36.184  1.00  0.00     0.173 A 
ATOM     65  C   UNL A   1      45.285  29.075  35.172  1.00  0.00     0.173 A 
ATOM     66  F   UNL A   1      42.576  26.964  36.373  1.00  0.00    -0.203 F 
ATOM     67  C   UNL A   1      44.872  26.938  36.895  1.00  0.00     0.198 A 
ATOM     68  C   UNL A   1      46.357  28.515  35.861  1.00  0.00     0.198 A 
ATOM     69  F   UNL A   1      45.516  30.112  34.354  1.00  0.00    -0.203 F 
ATOM     70  F   UNL A   1      44.663  25.931  37.756  1.00  0.00    -0.200 F 
ATOM     71  C   UNL A   1      46.148  27.454  36.728  1.00  0.00     0.200 A 
ATOM     72  F   UNL A   1      47.591  29.007  35.690  1.00  0.00    -0.200 F 
ATOM     73  F   UNL A   1      47.177  26.932  37.411  1.00  0.00    -0.200 F 
ENDBRANCH  40  63
ENDBRANCH  14  15
ENDBRANCH   7   9
ENDBRANCH   4   5
ENDBRANCH   3   4
ENDBRANCH   2   3
ENDBRANCH   1   2
BRANCH   1  74
ATOM     74  C   UNL A   1      31.955  28.619  27.096  1.00  0.00     0.021 C 
BRANCH  74  75
ATOM     75  C   UNL A   1      32.250  27.296  26.392  1.00  0.00     0.116 C 
BRANCH  75  76
ATOM     76  N   UNL A   1      31.392  26.231  26.878  1.00  0.00    -0.352 N 
ATOM     77  C   UNL A   1      31.061  25.053  26.260  1.00  0.00     0.255 C 
ATOM     78  H   UNL A   1      30.994  26.373  27.768  1.00  0.00     0.163 HD
ATOM     79  O   UNL A   1      30.101  24.397  26.655  1.00  0.00    -0.269 OA
BRANCH  77  80
ATOM     80  C   UNL A   1      31.846  24.575  25.109  1.00  0.00     0.082 A 
ATOM     81  C   UNL A   1      33.006  23.816  25.321  1.00  0.00     0.019 A 
ATOM     82  C   UNL A   1      31.401  24.805  23.803  1.00  0.00     0.143 A 
ATOM     83  C   UNL A   1      33.744  23.379  24.230  1.00  0.00     0.021 A 
ATOM     84  N   UNL A   1      32.140  24.386  22.743  1.00  0.00    -0.238 NA
ATOM     85  C   UNL A   1      33.278  23.696  22.969  1.00  0.00     0.113 A 
BRANCH  82  86
ATOM     86  N   UNL A   1      30.236  25.563  23.553  1.00  0.00    -0.340 N 
ATOM     87  H   UNL A   1      29.372  25.098  23.638  1.00  0.00     0.168 HD
BRANCH  86  88
ATOM     88  C   UNL A   1      30.197  26.923  23.196  1.00  0.00     0.040 A 
ATOM     89  C   UNL A   1      31.381  27.602  22.902  1.00  0.00     0.026 A 
ATOM     90  C   UNL A   1      28.997  27.645  23.232  1.00  0.00     0.039 A 
ATOM     91  C   UNL A   1      31.357  28.958  22.568  1.00  0.00     0.003 A 
ATOM     92  C   UNL A   1      28.956  29.011  22.918  1.00  0.00     0.058 A 
ATOM     93  C   UNL A   1      30.150  29.658  22.570  1.00  0.00     0.013 A 
BRANCH  92  94
ATOM     94  C   UNL A   1      27.652  29.764  22.939  1.00  0.00     0.416 C 
ATOM     95  F   UNL A   1      27.380  30.365  21.746  1.00  0.00    -0.166 F 
ATOM     96  F   UNL A   1      26.586  28.957  23.199  1.00  0.00    -0.166 F 
ATOM     97  F   UNL A   1      27.602  30.757  23.870  1.00  0.00    -0.166 F 
ENDBRANCH  92  94
ENDBRANCH  86  88
ENDBRANCH  82  86
ENDBRANCH  77  80
ENDBRANCH  75  76
ENDBRANCH  74  75
ENDBRANCH   1  74
TORSDOF 16
ENDMDL
MODEL 3
REMARK VINA RESULT:     -12.1      1.228      2.244
REMARK SMILES O=C(NCCCCCCNC(=O)c1cccnc1Nc1cccc(C(F)(F)F)c1)c1ccc(-c2c3nc(c(-c4c(F)c(F)c(F)c(F)c4F)c4ccc([nH]4)c(-c4c(F)c(F)c(F)c(F)c4F)c4nc(c(-c5c(F)c(F)c(F)c(F)c5F)c5ccc2[nH]5)C=C4)C=C3)cc1
REMARK SMILES IDX 7 1 6 2 5 3 4 4 3 5 1 6 2 7 30 9 31 10 92 11 32 12 91 13
REMARK SMILES IDX 33 14 34 15 35 16 85 17 36 18 90 19 84 20 86 21 37 22 89 23
REMARK SMILES IDX 83 24 82 25 38 27 70 28 50 29 69 30 51 31 54 32 68 33 87 34
REMARK SMILES IDX 52 35 53 36 67 38 88 39 55 40 39 41 40 42 48 43 41 44 42 45
REMARK SMILES IDX 46 46 49 47 43 48 44 49 47 50 45 51 71 52 72 53 80 54 73 55
REMARK SMILES IDX 74 56 78 57 81 58 75 59 76 60 79 61 77 62 56 63 57 64 65 65
REMARK SMILES IDX 58 66 59 67 63 68 66 69 60 70 61 71 64 72 62 73 8 74 9 75
REMARK SMILES IDX 10 76 11 77 12 79 13 80 14 81 18 82 15 83 17 84 16 85 19 86
REMARK SMILES IDX 20 88 21 89 29 90 22 91 24 92 23 93 25 94 26 95 27 96 28 97
REMARK H PARENT 3 8 86 26 54 37 10 78 19 87
REMARK Flexibility Score: inf
ROOT
ATOM      1  C   UNL A   1      32.376  30.022  27.123  1.00  0.00     0.002 C 
ENDROOT
BRANCH   1   2
ATOM      2  C   UNL A   1      31.376  30.791  26.254  1.00  0.00     0.002 C 
BRANCH   2   3
ATOM      3  C   UNL A   1      31.321  32.299  26.495  1.00  0.00     0.021 C 
BRANCH   3   4
ATOM      4  C   UNL A   1      32.613  32.913  27.017  1.00  0.00     0.116 C 
BRANCH   4   5
ATOM      5  N   UNL A   1      32.408  34.219  27.618  1.00  0.00    -0.352 N 
ATOM      6  O   UNL A   1      32.636  35.841  29.172  1.00  0.00    -0.269 OA
ATOM      7  C   UNL A   1      33.043  34.786  28.696  1.00  0.00     0.251 C 
ATOM      8  H   UNL A   1      31.716  34.777  27.193  1.00  0.00     0.163 HD
BRANCH   7   9
ATOM      9  C   UNL A   1      34.210  34.107  29.298  1.00  0.00     0.039 A 
ATOM     10  C   UNL A   1      34.036  33.109  30.260  1.00  0.00     0.014 A 
ATOM     11  C   UNL A   1      35.496  34.468  28.886  1.00  0.00     0.014 A 
ATOM     12  C   UNL A   1      35.143  32.568  30.903  1.00  0.00     0.010 A 
ATOM     13  C   UNL A   1      36.609  33.860  29.472  1.00  0.00     0.010 A 
ATOM     14  C   UNL A   1      36.443  32.924  30.503  1.00  0.00    -0.014 A 
BRANCH  14  15
ATOM     15  C   UNL A   1      37.606  32.245  31.127  1.00  0.00     0.031 A 
ATOM     16  C   UNL A   1      38.056  32.588  32.518  1.00  0.00     0.074 A 
ATOM     17  C   UNL A   1      38.245  31.291  30.423  1.00  0.00     0.049 A 
ATOM     18  N   UNL A   1      39.045  32.083  33.212  1.00  0.00    -0.248 NA
ATOM     19  C   UNL A   1      37.305  33.638  33.222  1.00  0.00     0.031 C 
ATOM     20  C   UNL A   1      37.903  30.885  29.058  1.00  0.00     0.029 A 
ATOM     21  N   UNL A   1      39.301  30.482  30.755  1.00  0.00    -0.354 N 
ATOM     22  C   UNL A   1      39.048  32.760  34.424  1.00  0.00     0.074 A 
ATOM     23  C   UNL A   1      37.976  33.732  34.362  1.00  0.00     0.031 C 
ATOM     24  C   UNL A   1      38.704  29.878  28.685  1.00  0.00     0.029 A 
ATOM     25  C   UNL A   1      39.655  29.609  29.757  1.00  0.00     0.049 A 
ATOM     26  H   UNL A   1      39.760  30.524  31.625  1.00  0.00     0.167 HD
ATOM     27  C   UNL A   1      39.864  32.577  35.491  1.00  0.00     0.037 A 
ATOM     28  C   UNL A   1      40.650  28.705  29.701  1.00  0.00     0.037 A 
ATOM     29  C   UNL A   1      40.921  31.599  35.545  1.00  0.00     0.049 A 
ATOM     30  C   UNL A   1      41.557  28.547  30.887  1.00  0.00     0.074 A 
ATOM     31  C   UNL A   1      41.781  31.315  36.593  1.00  0.00     0.029 A 
ATOM     32  N   UNL A   1      41.270  30.751  34.503  1.00  0.00    -0.354 N 
ATOM     33  N   UNL A   1      41.523  29.166  32.041  1.00  0.00    -0.248 NA
ATOM     34  C   UNL A   1      42.642  27.566  30.761  1.00  0.00     0.031 C 
ATOM     35  C   UNL A   1      42.679  30.328  36.169  1.00  0.00     0.029 A 
ATOM     36  C   UNL A   1      42.347  29.960  34.876  1.00  0.00     0.049 A 
ATOM     37  H   UNL A   1      40.819  30.716  33.629  1.00  0.00     0.167 HD
ATOM     38  C   UNL A   1      42.568  28.640  32.786  1.00  0.00     0.074 A 
ATOM     39  C   UNL A   1      43.203  27.634  31.959  1.00  0.00     0.031 C 
ATOM     40  C   UNL A   1      42.968  28.963  34.040  1.00  0.00     0.037 A 
BRANCH  27  41
ATOM     41  C   UNL A   1      39.660  33.462  36.686  1.00  0.00     0.064 A 
ATOM     42  C   UNL A   1      40.280  34.716  36.791  1.00  0.00     0.173 A 
ATOM     43  C   UNL A   1      38.788  33.075  37.717  1.00  0.00     0.173 A 
ATOM     44  F   UNL A   1      41.129  35.130  35.839  1.00  0.00    -0.203 F 
ATOM     45  C   UNL A   1      40.054  35.539  37.893  1.00  0.00     0.198 A 
ATOM     46  C   UNL A   1      38.544  33.912  38.804  1.00  0.00     0.198 A 
ATOM     47  F   UNL A   1      38.163  31.890  37.664  1.00  0.00    -0.203 F 
ATOM     48  F   UNL A   1      40.691  36.714  37.990  1.00  0.00    -0.200 F 
ATOM     49  C   UNL A   1      39.182  35.140  38.894  1.00  0.00     0.200 A 
ATOM     50  F   UNL A   1      37.690  33.530  39.763  1.00  0.00    -0.200 F 
ATOM     51  F   UNL A   1      38.959  35.936  39.948  1.00  0.00    -0.200 F 
ENDBRANCH  27  41
BRANCH  28  52
ATOM     52  C   UNL A   1      40.834  27.888  28.474  1.00  0.00     0.064 A 
ATOM     53  C   UNL A   1      40.193  26.651  28.328  1.00  0.00     0.173 A 
ATOM     54  C   UNL A   1      41.644  28.334  27.418  1.00  0.00     0.173 A 
ATOM     55  F   UNL A   1      39.423  26.174  29.318  1.00  0.00    -0.203 F 
ATOM     56  C   UNL A   1      40.365  25.885  27.178  1.00  0.00     0.198 A 
ATOM     57  C   UNL A   1      41.790  27.581  26.257  1.00  0.00     0.198 A 
ATOM     58  F   UNL A   1      42.274  29.515  27.508  1.00  0.00    -0.203 F 
ATOM     59  F   UNL A   1      39.773  24.687  27.080  1.00  0.00    -0.200 F 
ATOM     60  C   UNL A   1      41.157  26.353  26.140  1.00  0.00     0.200 A 
ATOM     61  F   UNL A   1      42.541  28.048  25.249  1.00  0.00    -0.200 F 
ATOM     62  F   UNL A   1      41.315  25.620  25.030  1.00  0.00    -0.200 F 
ENDBRANCH  28  52
BRANCH  40  63
ATOM     63  C   UNL A   1      44.130  28.200  34.601  1.00  0.00     0.064 A 
ATOM     64  C   UNL A   1      45.445  28.675  34.489  1.00  0.00     0.173 A 
ATOM     65  C   UNL A   1      43.924  26.990  35.281  1.00  0.00     0.173 A 
ATOM     66  F   UNL A   1      45.697  29.818  33.832  1.00  0.00    -0.203 F 
ATOM     67  C   UNL A   1      46.515  27.951  35.011  1.00  0.00     0.198 A 
ATOM     68  C   UNL A   1      44.992  26.284  35.828  1.00  0.00     0.198 A 
ATOM     69  F   UNL A   1      42.685  26.495  35.420  1.00  0.00    -0.203 F 
ATOM     70  F   UNL A   1      47.768  28.397  34.846  1.00  0.00    -0.200 F 
ATOM     71  C   UNL A   1      46.286  26.760  35.685  1.00  0.00     0.200 A 
ATOM     72  F   UNL A   1      44.768  25.141  36.489  1.00  0.00    -0.200 F 
ATOM     73  F   UNL A   1      47.315  26.067  36.190  1.00  0.00    -0.200 F 
ENDBRANCH  40  63
ENDBRANCH  14  15
ENDBRANCH   7   9
ENDBRANCH   4   5
ENDBRANCH   3   4
ENDBRANCH   2   3
ENDBRANCH   1   2
BRANCH   1  74
ATOM     74  C   UNL A   1      32.476  28.519  26.846  1.00  0.00     0.021 C 
BRANCH  74  75
ATOM     75  C   UNL A   1      33.742  28.079  26.114  1.00  0.00     0.116 C 
BRANCH  75  76
ATOM     76  N   UNL A   1      33.911  28.797  24.864  1.00  0.00    -0.352 N 
ATOM     77  C   UNL A   1      33.903  28.298  23.586  1.00  0.00     0.255 C 
ATOM     78  H   UNL A   1      34.049  29.768  24.942  1.00  0.00     0.163 HD
ATOM     79  O   UNL A   1      34.351  28.967  22.660  1.00  0.00    -0.269 OA
BRANCH  77  80
ATOM     80  C   UNL A   1      33.370  26.950  23.320  1.00  0.00     0.082 A 
ATOM     81  C   UNL A   1      34.002  25.828  23.873  1.00  0.00     0.019 A 
ATOM     82  C   UNL A   1      32.191  26.787  22.585  1.00  0.00     0.143 A 
ATOM     83  C   UNL A   1      33.498  24.562  23.609  1.00  0.00     0.021 A 
ATOM     84  N   UNL A   1      31.716  25.543  22.319  1.00  0.00    -0.238 NA
ATOM     85  C   UNL A   1      32.366  24.472  22.823  1.00  0.00     0.113 A 
BRANCH  82  86
ATOM     86  N   UNL A   1      31.527  27.896  22.016  1.00  0.00    -0.340 N 
ATOM     87  H   UNL A   1      31.975  28.350  21.265  1.00  0.00     0.168 HD
BRANCH  86  88
ATOM     88  C   UNL A   1      30.283  28.411  22.423  1.00  0.00     0.040 A 
ATOM     89  C   UNL A   1      29.383  27.597  23.112  1.00  0.00     0.026 A 
ATOM     90  C   UNL A   1      29.880  29.701  22.055  1.00  0.00     0.039 A 
ATOM     91  C   UNL A   1      28.135  28.090  23.502  1.00  0.00     0.003 A 
ATOM     92  C   UNL A   1      28.625  30.207  22.420  1.00  0.00     0.058 A 
ATOM     93  C   UNL A   1      27.760  29.390  23.163  1.00  0.00     0.013 A 
BRANCH  92  94
ATOM     94  C   UNL A   1      28.219  31.605  22.036  1.00  0.00     0.416 C 
ATOM     95  F   UNL A   1      29.280  32.462  21.998  1.00  0.00    -0.166 F 
ATOM     96  F   UNL A   1      27.652  31.664  20.799  1.00  0.00    -0.166 F 
ATOM     97  F   UNL A   1      27.320  32.173  22.886  1.00  0.00    -0.166 F 
ENDBRANCH  92  94
ENDBRANCH  86  88
ENDBRANCH  82  86
ENDBRANCH  77  80
ENDBRANCH  75  76
ENDBRANCH  74  75
ENDBRANCH   1  74
TORSDOF 16
ENDMDL
