MODEL 1
REMARK VINA RESULT:     -12.4      0.000      0.000
REMARK SMILES O=C(NCCCCCCNC(=O)[C@H]1CC[C@H]2CCCC[C@@H]2N1C(=O)c1ccn[nH]1)c1ccc(-c2c3nc(c(-c4c(F)c(F)c(F)c(F)c4F)c4ccc([nH]4)c(-c4c(F)c(F)c(F)c(F)c4F)c4nc(c(-c5c(F)c(F)c(F)c(F)c5F)c5ccc2[nH]5)C=C4)C=C3)cc1
REMARK SMILES IDX 6 1 5 2 4 3 3 4 1 5 2 6 30 8 31 9 92 10 32 11 91 12 33 13
REMARK SMILES IDX 34 14 35 15 85 16 36 17 90 18 84 19 86 20 37 21 89 22 83 23
REMARK SMILES IDX 82 24 38 26 70 27 50 28 69 29 51 30 54 31 68 32 87 33 52 34
REMARK SMILES IDX 53 35 67 37 88 38 55 39 39 40 40 41 48 42 41 43 42 44 46 45
REMARK SMILES IDX 49 46 43 47 44 48 47 49 45 50 71 51 72 52 80 53 73 54 74 55
REMARK SMILES IDX 78 56 81 57 75 58 76 59 79 60 77 61 56 62 57 63 65 64 58 65
REMARK SMILES IDX 59 66 63 67 66 68 60 69 61 70 64 71 62 72 7 73 8 74 9 75
REMARK SMILES IDX 10 76 11 77 12 79 13 80 14 81 22 82 15 83 21 84 16 85 20 86
REMARK SMILES IDX 17 87 19 88 18 89 23 90 24 91 25 92 26 93 29 94 27 95 28 96
REMARK H PARENT 3 7 86 25 54 36 10 78 29 97
REMARK Flexibility Score: inf
ROOT
ATOM      1  C   UNL A   1      36.785  20.548  24.875  1.00  0.00     0.002 C 
ENDROOT
BRANCH   1   2
ATOM      2  C   UNL A   1      37.999  19.617  24.955  1.00  0.00     0.021 C 
BRANCH   2   3
ATOM      3  C   UNL A   1      39.102  20.038  25.924  1.00  0.00     0.116 C 
BRANCH   3   4
ATOM      4  N   UNL A   1      40.259  19.165  25.885  1.00  0.00    -0.352 N 
ATOM      5  O   UNL A   1      42.443  18.613  25.890  1.00  0.00    -0.269 OA
ATOM      6  C   UNL A   1      41.585  19.473  26.064  1.00  0.00     0.251 C 
ATOM      7  H   UNL A   1      40.067  18.217  25.703  1.00  0.00     0.163 HD
BRANCH   6   8
ATOM      8  C   UNL A   1      41.998  20.848  26.436  1.00  0.00     0.039 A 
ATOM      9  C   UNL A   1      42.267  21.201  27.761  1.00  0.00     0.014 A 
ATOM     10  C   UNL A   1      42.173  21.788  25.414  1.00  0.00     0.014 A 
ATOM     11  C   UNL A   1      42.632  22.514  28.072  1.00  0.00     0.010 A 
ATOM     12  C   UNL A   1      42.569  23.093  25.722  1.00  0.00     0.010 A 
ATOM     13  C   UNL A   1      42.782  23.469  27.055  1.00  0.00    -0.014 A 
BRANCH  13  14
ATOM     14  C   UNL A   1      43.206  24.849  27.391  1.00  0.00     0.031 A 
ATOM     15  C   UNL A   1      44.605  25.314  27.110  1.00  0.00     0.074 A 
ATOM     16  C   UNL A   1      42.319  25.691  27.953  1.00  0.00     0.049 A 
ATOM     17  N   UNL A   1      45.137  26.494  27.314  1.00  0.00    -0.248 NA
ATOM     18  C   UNL A   1      45.527  24.328  26.530  1.00  0.00     0.031 C 
ATOM     19  C   UNL A   1      40.939  25.353  28.297  1.00  0.00     0.029 A 
ATOM     20  N   UNL A   1      42.447  27.005  28.326  1.00  0.00    -0.354 N 
ATOM     21  C   UNL A   1      46.458  26.389  26.900  1.00  0.00     0.074 A 
ATOM     22  C   UNL A   1      46.651  25.029  26.442  1.00  0.00     0.031 C 
ATOM     23  C   UNL A   1      40.337  26.439  28.809  1.00  0.00     0.029 A 
ATOM     24  C   UNL A   1      41.295  27.541  28.843  1.00  0.00     0.049 A 
ATOM     25  H   UNL A   1      43.284  27.514  28.230  1.00  0.00     0.167 HD
ATOM     26  C   UNL A   1      47.419  27.342  26.900  1.00  0.00     0.037 A 
ATOM     27  C   UNL A   1      41.038  28.784  29.289  1.00  0.00     0.037 A 
ATOM     28  C   UNL A   1      47.233  28.701  27.333  1.00  0.00     0.049 A 
ATOM     29  C   UNL A   1      42.116  29.826  29.259  1.00  0.00     0.074 A 
ATOM     30  C   UNL A   1      48.142  29.746  27.322  1.00  0.00     0.029 A 
ATOM     31  N   UNL A   1      46.052  29.205  27.858  1.00  0.00    -0.354 N 
ATOM     32  N   UNL A   1      43.349  29.723  28.832  1.00  0.00    -0.248 NA
ATOM     33  C   UNL A   1      41.765  31.156  29.776  1.00  0.00     0.031 C 
ATOM     34  C   UNL A   1      47.516  30.879  27.856  1.00  0.00     0.029 A 
ATOM     35  C   UNL A   1      46.214  30.541  28.186  1.00  0.00     0.049 A 
ATOM     36  H   UNL A   1      45.223  28.688  27.981  1.00  0.00     0.167 HD
ATOM     37  C   UNL A   1      43.924  30.970  29.029  1.00  0.00     0.074 A 
ATOM     38  C   UNL A   1      42.900  31.821  29.601  1.00  0.00     0.031 C 
ATOM     39  C   UNL A   1      45.189  31.370  28.762  1.00  0.00     0.037 A 
BRANCH  26  40
ATOM     40  C   UNL A   1      48.777  26.947  26.413  1.00  0.00     0.064 A 
ATOM     41  C   UNL A   1      49.726  26.393  27.282  1.00  0.00     0.173 A 
ATOM     42  C   UNL A   1      49.112  27.077  25.058  1.00  0.00     0.173 A 
ATOM     43  F   UNL A   1      49.449  26.263  28.588  1.00  0.00    -0.203 F 
ATOM     44  C   UNL A   1      50.971  25.987  26.811  1.00  0.00     0.198 A 
ATOM     45  C   UNL A   1      50.355  26.661  24.588  1.00  0.00     0.198 A 
ATOM     46  F   UNL A   1      48.234  27.603  24.192  1.00  0.00    -0.203 F 
ATOM     47  F   UNL A   1      51.873  25.476  27.660  1.00  0.00    -0.200 F 
ATOM     48  C   UNL A   1      51.283  26.117  25.465  1.00  0.00     0.200 A 
ATOM     49  F   UNL A   1      50.656  26.787  23.288  1.00  0.00    -0.200 F 
ATOM     50  F   UNL A   1      52.482  25.724  25.013  1.00  0.00    -0.200 F 
ENDBRANCH  26  40
BRANCH  27  51
ATOM     51  C   UNL A   1      39.681  29.109  29.782  1.00  0.00     0.064 A 
ATOM     52  C   UNL A   1      38.687  29.547  28.899  1.00  0.00     0.173 A 
ATOM     53  C   UNL A   1      39.346  28.958  31.134  1.00  0.00     0.173 A 
ATOM     54  F   UNL A   1      38.974  29.722  27.601  1.00  0.00    -0.203 F 
ATOM     55  C   UNL A   1      37.400  29.824  29.353  1.00  0.00     0.198 A 
ATOM     56  C   UNL A   1      38.056  29.224  31.584  1.00  0.00     0.198 A 
ATOM     57  F   UNL A   1      40.271  28.542  32.012  1.00  0.00    -0.203 F 
ATOM     58  F   UNL A   1      36.467  30.256  28.494  1.00  0.00    -0.200 F 
ATOM     59  C   UNL A   1      37.084  29.657  30.694  1.00  0.00     0.200 A 
ATOM     60  F   UNL A   1      37.753  29.061  32.880  1.00  0.00    -0.200 F 
ATOM     61  F   UNL A   1      35.845  29.919  31.129  1.00  0.00    -0.200 F 
ENDBRANCH  27  51
BRANCH  39  62
ATOM     62  C   UNL A   1      45.537  32.786  29.093  1.00  0.00     0.064 A 
ATOM     63  C   UNL A   1      46.084  33.119  30.340  1.00  0.00     0.173 A 
ATOM     64  C   UNL A   1      45.352  33.808  28.153  1.00  0.00     0.173 A 
ATOM     65  F   UNL A   1      46.264  32.172  31.272  1.00  0.00    -0.203 F 
ATOM     66  C   UNL A   1      46.427  34.435  30.638  1.00  0.00     0.198 A 
ATOM     67  C   UNL A   1      45.704  35.121  28.452  1.00  0.00     0.198 A 
ATOM     68  F   UNL A   1      44.828  33.532  26.950  1.00  0.00    -0.203 F 
ATOM     69  F   UNL A   1      46.928  34.739  31.843  1.00  0.00    -0.200 F 
ATOM     70  C   UNL A   1      46.239  35.433  29.694  1.00  0.00     0.200 A 
ATOM     71  F   UNL A   1      45.521  36.087  27.540  1.00  0.00    -0.200 F 
ATOM     72  F   UNL A   1      46.566  36.701  29.983  1.00  0.00    -0.200 F 
ENDBRANCH  39  62
ENDBRANCH  13  14
ENDBRANCH   6   8
ENDBRANCH   3   4
ENDBRANCH   2   3
ENDBRANCH   1   2
BRANCH   1  73
ATOM     73  C   UNL A   1      37.036  21.939  24.284  1.00  0.00     0.002 C 
BRANCH  73  74
ATOM     74  C   UNL A   1      36.160  23.075  24.825  1.00  0.00     0.021 C 
BRANCH  74  75
ATOM     75  C   UNL A   1      34.655  22.814  24.787  1.00  0.00     0.116 C 
BRANCH  75  76
ATOM     76  N   UNL A   1      34.149  22.742  23.434  1.00  0.00    -0.354 N 
ATOM     77  C   UNL A   1      33.613  23.714  22.638  1.00  0.00     0.242 C 
ATOM     78  H   UNL A   1      34.201  21.850  23.021  1.00  0.00     0.163 HD
ATOM     79  O   UNL A   1      33.461  23.429  21.446  1.00  0.00    -0.273 OA
BRANCH  77  80
ATOM     80  C   UNL A   1      33.448  25.167  23.157  1.00  0.00     0.175 C 
ATOM     81  C   UNL A   1      33.193  26.173  22.016  1.00  0.00     0.036 C 
ATOM     82  N   UNL A   1      32.513  25.444  24.266  1.00  0.00    -0.322 N 
ATOM     83  C   UNL A   1      32.969  27.609  22.532  1.00  0.00     0.008 C 
ATOM     84  C   UNL A   1      32.681  26.773  24.897  1.00  0.00     0.089 C 
ATOM     85  C   UNL A   1      33.457  27.754  23.977  1.00  0.00     0.012 C 
ATOM     86  C   UNL A   1      33.376  26.749  26.262  1.00  0.00     0.025 C 
ATOM     87  C   UNL A   1      33.340  29.173  24.538  1.00  0.00     0.006 C 
ATOM     88  C   UNL A   1      33.340  28.152  26.882  1.00  0.00     0.002 C 
ATOM     89  C   UNL A   1      33.918  29.227  25.957  1.00  0.00     0.000 C 
BRANCH  82  90
ATOM     90  C   UNL A   1      31.224  24.886  24.155  1.00  0.00     0.272 C 
ATOM     91  O   UNL A   1      30.537  25.035  23.149  1.00  0.00    -0.267 OA
BRANCH  90  92
ATOM     92  C   UNL A   1      30.746  24.104  25.267  1.00  0.00     0.123 A 
ATOM     93  C   UNL A   1      30.988  22.784  25.591  1.00  0.00     0.055 A 
ATOM     94  N   UNL A   1      30.006  24.593  26.305  1.00  0.00    -0.273 N 
ATOM     95  C   UNL A   1      30.284  22.567  26.790  1.00  0.00     0.135 A 
ATOM     96  N   UNL A   1      29.668  23.671  27.220  1.00  0.00    -0.183 NA
ATOM     97  H   UNL A   1      29.743  25.539  26.376  1.00  0.00     0.190 HD
ENDBRANCH  90  92
ENDBRANCH  82  90
ENDBRANCH  77  80
ENDBRANCH  75  76
ENDBRANCH  74  75
ENDBRANCH  73  74
ENDBRANCH   1  73
TORSDOF 15
ENDMDL
MODEL 2
REMARK VINA RESULT:     -12.4      2.827      4.351
REMARK SMILES O=C(NCCCCCCNC(=O)[C@H]1CC[C@H]2CCCC[C@@H]2N1C(=O)c1ccn[nH]1)c1ccc(-c2c3nc(c(-c4c(F)c(F)c(F)c(F)c4F)c4ccc([nH]4)c(-c4c(F)c(F)c(F)c(F)c4F)c4nc(c(-c5c(F)c(F)c(F)c(F)c5F)c5ccc2[nH]5)C=C4)C=C3)cc1
REMARK SMILES IDX 6 1 5 2 4 3 3 4 1 5 2 6 30 8 31 9 92 10 32 11 91 12 33 13
REMARK SMILES IDX 34 14 35 15 85 16 36 17 90 18 84 19 86 20 37 21 89 22 83 23
REMARK SMILES IDX 82 24 38 26 70 27 50 28 69 29 51 30 54 31 68 32 87 33 52 34
REMARK SMILES IDX 53 35 67 37 88 38 55 39 39 40 40 41 48 42 41 43 42 44 46 45
REMARK SMILES IDX 49 46 43 47 44 48 47 49 45 50 71 51 72 52 80 53 73 54 74 55
REMARK SMILES IDX 78 56 81 57 75 58 76 59 79 60 77 61 56 62 57 63 65 64 58 65
REMARK SMILES IDX 59 66 63 67 66 68 60 69 61 70 64 71 62 72 7 73 8 74 9 75
REMARK SMILES IDX 10 76 11 77 12 79 13 80 14 81 22 82 15 83 21 84 16 85 20 86
REMARK SMILES IDX 17 87 19 88 18 89 23 90 24 91 25 92 26 93 29 94 27 95 28 96
REMARK H PARENT 3 7 86 25 54 36 10 78 29 97
REMARK Flexibility Score: inf
ROOT
ATOM      1  C   UNL A   1      34.856  21.988  24.957  1.00  0.00     0.002 C 
ENDROOT
BRANCH   1   2
ATOM      2  C   UNL A   1      35.178  22.988  26.071  1.00  0.00     0.021 C 
BRANCH   2   3
ATOM      3  C   UNL A   1      36.555  23.644  26.005  1.00  0.00     0.116 C 
BRANCH   3   4
ATOM      4  N   UNL A   1      37.644  22.686  26.001  1.00  0.00    -0.352 N 
ATOM      5  O   UNL A   1      39.768  21.959  26.183  1.00  0.00    -0.269 OA
ATOM      6  C   UNL A   1      38.959  22.867  26.351  1.00  0.00     0.251 C 
ATOM      7  H   UNL A   1      37.406  21.778  25.706  1.00  0.00     0.163 HD
BRANCH   6   8
ATOM      8  C   UNL A   1      39.425  24.163  26.900  1.00  0.00     0.039 A 
ATOM      9  C   UNL A   1      40.042  25.124  26.095  1.00  0.00     0.014 A 
ATOM     10  C   UNL A   1      39.181  24.438  28.251  1.00  0.00     0.014 A 
ATOM     11  C   UNL A   1      40.486  26.323  26.657  1.00  0.00     0.010 A 
ATOM     12  C   UNL A   1      39.597  25.651  28.806  1.00  0.00     0.010 A 
ATOM     13  C   UNL A   1      40.270  26.593  28.017  1.00  0.00    -0.014 A 
BRANCH  13  14
ATOM     14  C   UNL A   1      40.711  27.885  28.596  1.00  0.00     0.031 A 
ATOM     15  C   UNL A   1      42.160  28.140  28.892  1.00  0.00     0.074 A 
ATOM     16  C   UNL A   1      39.796  28.837  28.853  1.00  0.00     0.049 A 
ATOM     17  N   UNL A   1      42.726  29.220  29.372  1.00  0.00    -0.248 NA
ATOM     18  C   UNL A   1      43.096  27.040  28.619  1.00  0.00     0.031 C 
ATOM     19  C   UNL A   1      38.357  28.703  28.633  1.00  0.00     0.029 A 
ATOM     20  N   UNL A   1      39.944  30.107  29.350  1.00  0.00    -0.354 N 
ATOM     21  C   UNL A   1      44.079  28.927  29.471  1.00  0.00     0.074 A 
ATOM     22  C   UNL A   1      44.251  27.565  29.011  1.00  0.00     0.031 C 
ATOM     23  C   UNL A   1      37.754  29.855  28.969  1.00  0.00     0.029 A 
ATOM     24  C   UNL A   1      38.763  30.798  29.444  1.00  0.00     0.049 A 
ATOM     25  H   UNL A   1      40.814  30.486  29.613  1.00  0.00     0.167 HD
ATOM     26  C   UNL A   1      45.084  29.724  29.903  1.00  0.00     0.037 A 
ATOM     27  C   UNL A   1      38.521  32.055  29.860  1.00  0.00     0.037 A 
ATOM     28  C   UNL A   1      44.926  31.084  30.343  1.00  0.00     0.049 A 
ATOM     29  C   UNL A   1      39.656  32.922  30.316  1.00  0.00     0.074 A 
ATOM     30  C   UNL A   1      45.901  31.980  30.753  1.00  0.00     0.029 A 
ATOM     31  N   UNL A   1      43.712  31.747  30.431  1.00  0.00    -0.354 N 
ATOM     32  N   UNL A   1      40.934  32.644  30.370  1.00  0.00    -0.248 NA
ATOM     33  C   UNL A   1      39.313  34.277  30.770  1.00  0.00     0.031 C 
ATOM     34  C   UNL A   1      45.273  33.181  31.105  1.00  0.00     0.029 A 
ATOM     35  C   UNL A   1      43.911  33.035  30.901  1.00  0.00     0.049 A 
ATOM     36  H   UNL A   1      42.839  31.359  30.196  1.00  0.00     0.167 HD
ATOM     37  C   UNL A   1      41.550  33.785  30.865  1.00  0.00     0.074 A 
ATOM     38  C   UNL A   1      40.506  34.766  31.081  1.00  0.00     0.031 C 
ATOM     39  C   UNL A   1      42.862  33.995  31.119  1.00  0.00     0.037 A 
BRANCH  26  40
ATOM     40  C   UNL A   1      46.460  29.140  29.925  1.00  0.00     0.064 A 
ATOM     41  C   UNL A   1      46.955  28.491  31.064  1.00  0.00     0.173 A 
ATOM     42  C   UNL A   1      47.270  29.185  28.782  1.00  0.00     0.173 A 
ATOM     43  F   UNL A   1      46.217  28.436  32.182  1.00  0.00    -0.203 F 
ATOM     44  C   UNL A   1      48.220  27.912  31.060  1.00  0.00     0.198 A 
ATOM     45  C   UNL A   1      48.532  28.596  28.778  1.00  0.00     0.198 A 
ATOM     46  F   UNL A   1      46.837  29.796  27.670  1.00  0.00    -0.203 F 
ATOM     47  F   UNL A   1      48.684  27.312  32.165  1.00  0.00    -0.200 F 
ATOM     48  C   UNL A   1      49.006  27.961  29.917  1.00  0.00     0.200 A 
ATOM     49  F   UNL A   1      49.291  28.644  27.674  1.00  0.00    -0.200 F 
ATOM     50  F   UNL A   1      50.224  27.401  29.915  1.00  0.00    -0.200 F 
ENDBRANCH  26  40
BRANCH  27  51
ATOM     51  C   UNL A   1      37.133  32.569  29.839  1.00  0.00     0.064 A 
ATOM     52  C   UNL A   1      36.287  32.381  30.939  1.00  0.00     0.173 A 
ATOM     53  C   UNL A   1      36.640  33.279  28.737  1.00  0.00     0.173 A 
ATOM     54  F   UNL A   1      36.716  31.690  32.005  1.00  0.00    -0.203 F 
ATOM     55  C   UNL A   1      34.991  32.890  30.937  1.00  0.00     0.198 A 
ATOM     56  C   UNL A   1      35.348  33.797  28.742  1.00  0.00     0.198 A 
ATOM     57  F   UNL A   1      37.419  33.478  27.664  1.00  0.00    -0.203 F 
ATOM     58  F   UNL A   1      34.192  32.687  31.993  1.00  0.00    -0.200 F 
ATOM     59  C   UNL A   1      34.524  33.602  29.840  1.00  0.00     0.200 A 
ATOM     60  F   UNL A   1      34.900  34.485  27.683  1.00  0.00    -0.200 F 
ATOM     61  F   UNL A   1      33.279  34.094  29.842  1.00  0.00    -0.200 F 
ENDBRANCH  27  51
BRANCH  39  62
ATOM     62  C   UNL A   1      43.240  35.334  31.667  1.00  0.00     0.064 A 
ATOM     63  C   UNL A   1      43.671  36.363  30.818  1.00  0.00     0.173 A 
ATOM     64  C   UNL A   1      43.144  35.600  33.039  1.00  0.00     0.173 A 
ATOM     65  F   UNL A   1      43.789  36.145  29.501  1.00  0.00    -0.203 F 
ATOM     66  C   UNL A   1      44.001  37.615  31.329  1.00  0.00     0.198 A 
ATOM     67  C   UNL A   1      43.468  36.856  33.545  1.00  0.00     0.198 A 
ATOM     68  F   UNL A   1      42.740  34.642  33.886  1.00  0.00    -0.203 F 
ATOM     69  F   UNL A   1      44.432  38.580  30.506  1.00  0.00    -0.200 F 
ATOM     70  C   UNL A   1      43.897  37.861  32.690  1.00  0.00     0.200 A 
ATOM     71  F   UNL A   1      43.369  37.092  34.861  1.00  0.00    -0.200 F 
ATOM     72  F   UNL A   1      44.220  39.066  33.181  1.00  0.00    -0.200 F 
ENDBRANCH  39  62
ENDBRANCH  13  14
ENDBRANCH   6   8
ENDBRANCH   3   4
ENDBRANCH   2   3
ENDBRANCH   1   2
BRANCH   1  73
ATOM     73  C   UNL A   1      33.899  22.475  23.864  1.00  0.00     0.002 C 
BRANCH  73  74
ATOM     74  C   UNL A   1      34.398  23.635  22.994  1.00  0.00     0.021 C 
BRANCH  74  75
ATOM     75  C   UNL A   1      33.693  24.972  23.220  1.00  0.00     0.116 C 
BRANCH  75  76
ATOM     76  N   UNL A   1      32.632  25.196  22.263  1.00  0.00    -0.354 N 
ATOM     77  C   UNL A   1      31.693  26.187  22.199  1.00  0.00     0.242 C 
ATOM     78  H   UNL A   1      32.578  24.528  21.542  1.00  0.00     0.163 HD
ATOM     79  O   UNL A   1      31.040  26.261  21.154  1.00  0.00    -0.273 OA
BRANCH  77  80
ATOM     80  C   UNL A   1      31.639  27.302  23.277  1.00  0.00     0.175 C 
ATOM     81  C   UNL A   1      30.743  28.484  22.854  1.00  0.00     0.036 C 
ATOM     82  N   UNL A   1      31.345  26.948  24.680  1.00  0.00    -0.322 N 
ATOM     83  C   UNL A   1      30.638  29.568  23.947  1.00  0.00     0.008 C 
ATOM     84  C   UNL A   1      31.647  28.014  25.662  1.00  0.00     0.089 C 
ATOM     85  C   UNL A   1      31.752  29.407  24.986  1.00  0.00     0.012 C 
ATOM     86  C   UNL A   1      32.920  27.785  26.482  1.00  0.00     0.025 C 
ATOM     87  C   UNL A   1      31.764  30.493  26.064  1.00  0.00     0.006 C 
ATOM     88  C   UNL A   1      33.033  28.862  27.569  1.00  0.00     0.002 C 
ATOM     89  C   UNL A   1      32.954  30.285  27.008  1.00  0.00     0.000 C 
BRANCH  82  90
ATOM     90  C   UNL A   1      30.241  26.098  24.895  1.00  0.00     0.272 C 
ATOM     91  O   UNL A   1      29.155  26.297  24.359  1.00  0.00    -0.267 OA
BRANCH  90  92
ATOM     92  C   UNL A   1      30.443  24.961  25.756  1.00  0.00     0.123 A 
ATOM     93  C   UNL A   1      31.585  24.224  25.999  1.00  0.00     0.055 A 
ATOM     94  N   UNL A   1      29.504  24.446  26.605  1.00  0.00    -0.273 N 
ATOM     95  C   UNL A   1      31.200  23.252  26.940  1.00  0.00     0.135 A 
ATOM     96  N   UNL A   1      29.920  23.377  27.301  1.00  0.00    -0.183 NA
ATOM     97  H   UNL A   1      28.601  24.828  26.697  1.00  0.00     0.190 HD
ENDBRANCH  90  92
ENDBRANCH  82  90
ENDBRANCH  77  80
ENDBRANCH  75  76
ENDBRANCH  74  75
ENDBRANCH  73  74
ENDBRANCH   1  73
TORSDOF 15
ENDMDL
MODEL 3
REMARK VINA RESULT:     -12.4      0.755      2.143
REMARK SMILES O=C(NCCCCCCNC(=O)[C@H]1CC[C@H]2CCCC[C@@H]2N1C(=O)c1ccn[nH]1)c1ccc(-c2c3nc(c(-c4c(F)c(F)c(F)c(F)c4F)c4ccc([nH]4)c(-c4c(F)c(F)c(F)c(F)c4F)c4nc(c(-c5c(F)c(F)c(F)c(F)c5F)c5ccc2[nH]5)C=C4)C=C3)cc1
REMARK SMILES IDX 6 1 5 2 4 3 3 4 1 5 2 6 30 8 31 9 92 10 32 11 91 12 33 13
REMARK SMILES IDX 34 14 35 15 85 16 36 17 90 18 84 19 86 20 37 21 89 22 83 23
REMARK SMILES IDX 82 24 38 26 70 27 50 28 69 29 51 30 54 31 68 32 87 33 52 34
REMARK SMILES IDX 53 35 67 37 88 38 55 39 39 40 40 41 48 42 41 43 42 44 46 45
REMARK SMILES IDX 49 46 43 47 44 48 47 49 45 50 71 51 72 52 80 53 73 54 74 55
REMARK SMILES IDX 78 56 81 57 75 58 76 59 79 60 77 61 56 62 57 63 65 64 58 65
REMARK SMILES IDX 59 66 63 67 66 68 60 69 61 70 64 71 62 72 7 73 8 74 9 75
REMARK SMILES IDX 10 76 11 77 12 79 13 80 14 81 22 82 15 83 21 84 16 85 20 86
REMARK SMILES IDX 17 87 19 88 18 89 23 90 24 91 25 92 26 93 29 94 27 95 28 96
REMARK H PARENT 3 7 86 25 54 36 10 78 29 97
REMARK Flexibility Score: inf
ROOT
ATOM      1  C   UNL A   1      37.412  20.868  24.775  1.00  0.00     0.002 C 
ENDROOT
BRANCH   1   2
ATOM      2  C   UNL A   1      38.321  19.646  24.943  1.00  0.00     0.021 C 
BRANCH   2   3
ATOM      3  C   UNL A   1      39.271  19.679  26.138  1.00  0.00     0.116 C 
BRANCH   3   4
ATOM      4  N   UNL A   1      40.451  18.856  25.951  1.00  0.00    -0.352 N 
ATOM      5  O   UNL A   1      42.642  18.396  25.705  1.00  0.00    -0.269 OA
ATOM      6  C   UNL A   1      41.775  19.215  25.993  1.00  0.00     0.251 C 
ATOM      7  H   UNL A   1      40.277  17.905  25.769  1.00  0.00     0.163 HD
BRANCH   6   8
ATOM      8  C   UNL A   1      42.172  20.599  26.350  1.00  0.00     0.039 A 
ATOM      9  C   UNL A   1      42.381  21.579  25.376  1.00  0.00     0.014 A 
ATOM     10  C   UNL A   1      42.282  20.929  27.706  1.00  0.00     0.014 A 
ATOM     11  C   UNL A   1      42.777  22.864  25.753  1.00  0.00     0.010 A 
ATOM     12  C   UNL A   1      42.646  22.224  28.085  1.00  0.00     0.010 A 
ATOM     13  C   UNL A   1      42.915  23.195  27.111  1.00  0.00    -0.014 A 
BRANCH  13  14
ATOM     14  C   UNL A   1      43.298  24.572  27.503  1.00  0.00     0.031 A 
ATOM     15  C   UNL A   1      44.736  25.002  27.494  1.00  0.00     0.074 A 
ATOM     16  C   UNL A   1      42.339  25.443  27.866  1.00  0.00     0.049 A 
ATOM     17  N   UNL A   1      45.247  26.174  27.780  1.00  0.00    -0.248 NA
ATOM     18  C   UNL A   1      45.730  23.986  27.121  1.00  0.00     0.031 C 
ATOM     19  C   UNL A   1      40.911  25.140  27.939  1.00  0.00     0.029 A 
ATOM     20  N   UNL A   1      42.424  26.761  28.237  1.00  0.00    -0.354 N 
ATOM     21  C   UNL A   1      46.620  26.034  27.635  1.00  0.00     0.074 A 
ATOM     22  C   UNL A   1      46.866  24.661  27.245  1.00  0.00     0.031 C 
ATOM     23  C   UNL A   1      40.247  26.249  28.305  1.00  0.00     0.029 A 
ATOM     24  C   UNL A   1      41.206  27.331  28.510  1.00  0.00     0.049 A 
ATOM     25  H   UNL A   1      43.276  27.250  28.300  1.00  0.00     0.167 HD
ATOM     26  C   UNL A   1      47.586  26.967  27.808  1.00  0.00     0.037 A 
ATOM     27  C   UNL A   1      40.897  28.588  28.878  1.00  0.00     0.037 A 
ATOM     28  C   UNL A   1      47.351  28.338  28.176  1.00  0.00     0.049 A 
ATOM     29  C   UNL A   1      41.985  29.606  29.044  1.00  0.00     0.074 A 
ATOM     30  C   UNL A   1      48.270  29.363  28.327  1.00  0.00     0.029 A 
ATOM     31  N   UNL A   1      46.103  28.876  28.452  1.00  0.00    -0.354 N 
ATOM     32  N   UNL A   1      43.275  29.469  28.869  1.00  0.00    -0.248 NA
ATOM     33  C   UNL A   1      41.572  30.954  29.462  1.00  0.00     0.031 C 
ATOM     34  C   UNL A   1      47.579  30.519  28.711  1.00  0.00     0.029 A 
ATOM     35  C   UNL A   1      46.230  30.215  28.784  1.00  0.00     0.049 A 
ATOM     36  H   UNL A   1      45.254  28.379  28.418  1.00  0.00     0.167 HD
ATOM     37  C   UNL A   1      43.830  30.708  29.156  1.00  0.00     0.074 A 
ATOM     38  C   UNL A   1      42.735  31.590  29.502  1.00  0.00     0.031 C 
ATOM     39  C   UNL A   1      45.132  31.076  29.135  1.00  0.00     0.037 A 
BRANCH  26  40
ATOM     40  C   UNL A   1      49.002  26.534  27.603  1.00  0.00     0.064 A 
ATOM     41  C   UNL A   1      49.549  26.430  26.317  1.00  0.00     0.173 A 
ATOM     42  C   UNL A   1      49.832  26.271  28.701  1.00  0.00     0.173 A 
ATOM     43  F   UNL A   1      48.785  26.662  25.239  1.00  0.00    -0.203 F 
ATOM     44  C   UNL A   1      50.881  26.069  26.137  1.00  0.00     0.198 A 
ATOM     45  C   UNL A   1      51.167  25.919  28.517  1.00  0.00     0.198 A 
ATOM     46  F   UNL A   1      49.349  26.357  29.949  1.00  0.00    -0.203 F 
ATOM     47  F   UNL A   1      51.382  25.957  24.899  1.00  0.00    -0.200 F 
ATOM     48  C   UNL A   1      51.689  25.818  27.237  1.00  0.00     0.200 A 
ATOM     49  F   UNL A   1      51.947  25.676  29.580  1.00  0.00    -0.200 F 
ATOM     50  F   UNL A   1      52.973  25.473  27.060  1.00  0.00    -0.200 F 
ENDBRANCH  26  40
BRANCH  27  51
ATOM     51  C   UNL A   1      39.478  28.950  29.091  1.00  0.00     0.064 A 
ATOM     52  C   UNL A   1      38.893  28.826  30.357  1.00  0.00     0.173 A 
ATOM     53  C   UNL A   1      38.694  29.453  28.045  1.00  0.00     0.173 A 
ATOM     54  F   UNL A   1      39.605  28.331  31.379  1.00  0.00    -0.203 F 
ATOM     55  C   UNL A   1      37.567  29.195  30.570  1.00  0.00     0.198 A 
ATOM     56  C   UNL A   1      37.372  29.833  28.262  1.00  0.00     0.198 A 
ATOM     57  F   UNL A   1      39.217  29.585  26.817  1.00  0.00    -0.203 F 
ATOM     58  F   UNL A   1      37.022  29.055  31.786  1.00  0.00    -0.200 F 
ATOM     59  C   UNL A   1      36.810  29.703  29.524  1.00  0.00     0.200 A 
ATOM     60  F   UNL A   1      36.643  30.324  27.251  1.00  0.00    -0.200 F 
ATOM     61  F   UNL A   1      35.536  30.062  29.731  1.00  0.00    -0.200 F 
ENDBRANCH  27  51
BRANCH  39  62
ATOM     62  C   UNL A   1      45.443  32.490  29.507  1.00  0.00     0.064 A 
ATOM     63  C   UNL A   1      45.537  33.488  28.526  1.00  0.00     0.173 A 
ATOM     64  C   UNL A   1      45.616  32.858  30.848  1.00  0.00     0.173 A 
ATOM     65  F   UNL A   1      45.391  33.174  27.230  1.00  0.00    -0.203 F 
ATOM     66  C   UNL A   1      45.805  34.807  28.876  1.00  0.00     0.198 A 
ATOM     67  C   UNL A   1      45.875  34.181  31.195  1.00  0.00     0.198 A 
ATOM     68  F   UNL A   1      45.537  31.935  31.817  1.00  0.00    -0.203 F 
ATOM     69  F   UNL A   1      45.914  35.743  27.923  1.00  0.00    -0.200 F 
ATOM     70  C   UNL A   1      45.971  35.154  30.209  1.00  0.00     0.200 A 
ATOM     71  F   UNL A   1      46.038  34.515  32.483  1.00  0.00    -0.200 F 
ATOM     72  F   UNL A   1      46.232  36.425  30.545  1.00  0.00    -0.200 F 
ENDBRANCH  39  62
ENDBRANCH  13  14
ENDBRANCH   6   8
ENDBRANCH   3   4
ENDBRANCH   2   3
ENDBRANCH   1   2
BRANCH   1  73
ATOM     73  C   UNL A   1      35.915  20.634  25.000  1.00  0.00     0.002 C 
BRANCH  73  74
ATOM     74  C   UNL A   1      35.205  21.625  25.929  1.00  0.00     0.021 C 
BRANCH  74  75
ATOM     75  C   UNL A   1      34.807  22.953  25.287  1.00  0.00     0.116 C 
BRANCH  75  76
ATOM     76  N   UNL A   1      34.352  22.783  23.925  1.00  0.00    -0.354 N 
ATOM     77  C   UNL A   1      33.809  23.686  23.055  1.00  0.00     0.242 C 
ATOM     78  H   UNL A   1      34.451  21.872  23.567  1.00  0.00     0.163 HD
ATOM     79  O   UNL A   1      33.710  23.327  21.878  1.00  0.00    -0.273 OA
BRANCH  77  80
ATOM     80  C   UNL A   1      33.574  25.160  23.482  1.00  0.00     0.175 C 
ATOM     81  C   UNL A   1      33.408  26.102  22.272  1.00  0.00     0.036 C 
ATOM     82  N   UNL A   1      32.537  25.472  24.485  1.00  0.00    -0.322 N 
ATOM     83  C   UNL A   1      33.114  27.557  22.690  1.00  0.00     0.008 C 
ATOM     84  C   UNL A   1      32.624  26.834  25.060  1.00  0.00     0.089 C 
ATOM     85  C   UNL A   1      33.465  27.784  24.164  1.00  0.00     0.012 C 
ATOM     86  C   UNL A   1      33.192  26.893  26.481  1.00  0.00     0.025 C 
ATOM     87  C   UNL A   1      33.274  29.227  24.638  1.00  0.00     0.006 C 
ATOM     88  C   UNL A   1      33.076  28.325  27.022  1.00  0.00     0.002 C 
ATOM     89  C   UNL A   1      33.719  29.364  26.099  1.00  0.00     0.000 C 
BRANCH  82  90
ATOM     90  C   UNL A   1      31.273  24.882  24.286  1.00  0.00     0.272 C 
ATOM     91  O   UNL A   1      30.660  25.001  23.230  1.00  0.00    -0.267 OA
BRANCH  90  92
ATOM     92  C   UNL A   1      30.730  24.105  25.372  1.00  0.00     0.123 A 
ATOM     93  C   UNL A   1      30.968  22.793  25.727  1.00  0.00     0.055 A 
ATOM     94  N   UNL A   1      29.912  24.593  26.351  1.00  0.00    -0.273 N 
ATOM     95  C   UNL A   1      30.186  22.578  26.877  1.00  0.00     0.135 A 
ATOM     96  N   UNL A   1      29.526  23.676  27.251  1.00  0.00    -0.183 NA
ATOM     97  H   UNL A   1      29.631  25.536  26.392  1.00  0.00     0.190 HD
ENDBRANCH  90  92
ENDBRANCH  82  90
ENDBRANCH  77  80
ENDBRANCH  75  76
ENDBRANCH  74  75
ENDBRANCH  73  74
ENDBRANCH   1  73
TORSDOF 15
ENDMDL
