MODEL 1
REMARK VINA RESULT:     -12.8      0.000      0.000
REMARK SMILES COc1cc2c(CC(=O)NCCCCCCNC(=O)c3ccc(-c4c5nc(c(-c6c(F)c(F)c(F)c(F)c6F)c6ccc([nH]6)c(-c6c(F)c(F)c(F)c(F)c6F)c6nc(c(-c7c(F)c(F)c(F)c(F)c7F)c7ccc4[nH]7)C=C6)C=C5)cc3)c(C)n(C(=O)c3ccc(Cl)cc3)c2cc1Cl
REMARK SMILES IDX 13 1 12 2 11 3 10 4 8 5 9 6 7 8 6 9 3 10 4 11 97 12 5 13
REMARK SMILES IDX 96 14 98 15 95 16 83 17 85 18 84 19 2 20 1 21 86 22 87 23
REMARK SMILES IDX 88 24 89 25 94 26 90 27 93 28 91 29 92 30 14 31 15 32 16 33
REMARK SMILES IDX 17 34 18 35 19 37 20 38 21 39 82 40 22 41 81 42 23 43 24 44
REMARK SMILES IDX 25 45 75 46 26 47 80 48 74 49 76 50 27 51 79 52 73 53 72 54
REMARK SMILES IDX 28 56 60 57 40 58 59 59 41 60 44 61 58 62 77 63 42 64 43 65
REMARK SMILES IDX 57 67 78 68 45 69 29 70 30 71 38 72 31 73 32 74 36 75 39 76
REMARK SMILES IDX 33 77 34 78 37 79 35 80 61 81 62 82 70 83 63 84 64 85 68 86
REMARK SMILES IDX 71 87 65 88 66 89 69 90 67 91 46 92 47 93 55 94 48 95 49 96
REMARK SMILES IDX 53 97 56 98 50 99 51 100 54 101 52 102
REMARK H PARENT 10 7 17 36 76 55 44 66
REMARK Flexibility Score: inf
ROOT
ATOM      1  C   UNL A   1      41.338  21.150  27.587  1.00  0.00     0.002 C 
ENDROOT
BRANCH   1   2
ATOM      2  C   UNL A   1      40.575  21.587  26.331  1.00  0.00     0.021 C 
BRANCH   2   3
ATOM      3  C   UNL A   1      39.215  22.222  26.628  1.00  0.00     0.116 C 
BRANCH   3   4
ATOM      4  N   UNL A   1      38.615  22.765  25.426  1.00  0.00    -0.356 N 
ATOM      5  C   UNL A   1      37.293  22.945  25.137  1.00  0.00     0.224 C 
ATOM      6  O   UNL A   1      36.990  23.363  24.017  1.00  0.00    -0.275 OA
ATOM      7  H   UNL A   1      39.246  23.042  24.722  1.00  0.00     0.163 HD
BRANCH   5   8
ATOM      8  C   UNL A   1      36.235  22.696  26.200  1.00  0.00     0.138 C 
BRANCH   8   9
ATOM      9  C   UNL A   1      34.855  22.459  25.649  1.00  0.00    -0.009 A 
ATOM     10  C   UNL A   1      34.195  18.940  24.282  1.00  0.00     0.138 A 
ATOM     11  C   UNL A   1      34.924  19.957  24.911  1.00  0.00     0.058 A 
ATOM     12  C   UNL A   1      32.908  19.198  23.824  1.00  0.00     0.085 A 
ATOM     13  C   UNL A   1      34.360  21.242  25.097  1.00  0.00     0.008 A 
ATOM     14  C   UNL A   1      32.352  20.474  23.958  1.00  0.00     0.051 A 
ATOM     15  Cl  UNL A   1      31.882  17.979  23.153  1.00  0.00    -0.080 Cl
ATOM     16  C   UNL A   1      33.055  21.480  24.654  1.00  0.00     0.058 A 
ATOM     17  C   UNL A   1      33.847  23.408  25.514  1.00  0.00     0.028 A 
ATOM     18  N   UNL A   1      32.681  22.761  25.088  1.00  0.00    -0.280 N 
ATOM     19  C   UNL A   1      33.922  24.874  25.810  1.00  0.00     0.065 C 
BRANCH  10  20
ATOM     20  O   UNL A   1      34.803  17.712  24.242  1.00  0.00    -0.495 OA
ATOM     21  C   UNL A   1      34.275  16.790  25.194  1.00  0.00     0.278 C 
ENDBRANCH  10  20
BRANCH  18  22
ATOM     22  C   UNL A   1      31.360  23.303  25.131  1.00  0.00     0.262 C 
ATOM     23  O   UNL A   1      30.501  22.735  25.787  1.00  0.00    -0.268 OA
BRANCH  22  24
ATOM     24  C   UNL A   1      30.930  24.514  24.406  1.00  0.00     0.040 A 
ATOM     25  C   UNL A   1      31.358  24.748  23.094  1.00  0.00     0.015 A 
ATOM     26  C   UNL A   1      30.134  25.445  25.081  1.00  0.00     0.015 A 
ATOM     27  C   UNL A   1      31.051  25.967  22.485  1.00  0.00     0.021 A 
ATOM     28  C   UNL A   1      29.825  26.657  24.462  1.00  0.00     0.021 A 
ATOM     29  C   UNL A   1      30.298  26.920  23.175  1.00  0.00     0.041 A 
ATOM     30  Cl  UNL A   1      29.973  28.442  22.444  1.00  0.00    -0.084 Cl
ENDBRANCH  22  24
ENDBRANCH  18  22
ENDBRANCH   8   9
ENDBRANCH   5   8
ENDBRANCH   3   4
ENDBRANCH   2   3
ENDBRANCH   1   2
BRANCH   1  31
ATOM     31  C   UNL A   1      41.922  19.734  27.530  1.00  0.00     0.002 C 
BRANCH  31  32
ATOM     32  C   UNL A   1      42.228  19.205  26.124  1.00  0.00     0.021 C 
BRANCH  32  33
ATOM     33  C   UNL A   1      43.620  18.589  25.965  1.00  0.00     0.116 C 
BRANCH  33  34
ATOM     34  N   UNL A   1      44.352  19.102  24.825  1.00  0.00    -0.352 N 
ATOM     35  C   UNL A   1      44.739  20.343  24.402  1.00  0.00     0.251 C 
ATOM     36  H   UNL A   1      44.639  18.389  24.210  1.00  0.00     0.163 HD
ATOM     37  O   UNL A   1      45.424  20.377  23.375  1.00  0.00    -0.269 OA
BRANCH  35  38
ATOM     38  C   UNL A   1      44.373  21.633  25.055  1.00  0.00     0.039 A 
ATOM     39  C   UNL A   1      43.501  22.587  24.535  1.00  0.00     0.014 A 
ATOM     40  C   UNL A   1      44.996  21.906  26.290  1.00  0.00     0.014 A 
ATOM     41  C   UNL A   1      43.314  23.803  25.185  1.00  0.00     0.010 A 
ATOM     42  C   UNL A   1      44.790  23.113  26.960  1.00  0.00     0.010 A 
ATOM     43  C   UNL A   1      43.972  24.080  26.387  1.00  0.00    -0.014 A 
BRANCH  43  44
ATOM     44  C   UNL A   1      43.696  25.374  27.012  1.00  0.00     0.031 A 
ATOM     45  C   UNL A   1      44.689  26.449  26.739  1.00  0.00     0.074 A 
ATOM     46  C   UNL A   1      42.604  25.653  27.752  1.00  0.00     0.049 A 
ATOM     47  N   UNL A   1      45.431  27.085  27.588  1.00  0.00    -0.248 NA
ATOM     48  C   UNL A   1      44.924  26.825  25.337  1.00  0.00     0.031 C 
ATOM     49  C   UNL A   1      41.386  24.852  27.882  1.00  0.00     0.029 A 
ATOM     50  N   UNL A   1      42.326  26.776  28.487  1.00  0.00    -0.354 N 
ATOM     51  C   UNL A   1      46.112  28.054  26.855  1.00  0.00     0.074 A 
ATOM     52  C   UNL A   1      45.842  27.786  25.466  1.00  0.00     0.031 C 
ATOM     53  C   UNL A   1      40.428  25.596  28.473  1.00  0.00     0.029 A 
ATOM     54  C   UNL A   1      41.007  26.861  28.899  1.00  0.00     0.049 A 
ATOM     55  H   UNL A   1      43.000  27.459  28.703  1.00  0.00     0.167 HD
ATOM     56  C   UNL A   1      46.670  29.137  27.462  1.00  0.00     0.037 A 
ATOM     57  C   UNL A   1      40.407  27.904  29.518  1.00  0.00     0.037 A 
ATOM     58  C   UNL A   1      46.816  28.939  28.878  1.00  0.00     0.049 A 
ATOM     59  C   UNL A   1      41.435  28.706  30.220  1.00  0.00     0.074 A 
ATOM     60  C   UNL A   1      47.702  28.316  29.727  1.00  0.00     0.029 A 
ATOM     61  N   UNL A   1      45.709  29.260  29.609  1.00  0.00    -0.354 N 
ATOM     62  N   UNL A   1      42.119  28.281  31.246  1.00  0.00    -0.248 NA
ATOM     63  C   UNL A   1      41.899  29.964  29.640  1.00  0.00     0.031 C 
ATOM     64  C   UNL A   1      47.011  28.123  30.960  1.00  0.00     0.029 A 
ATOM     65  C   UNL A   1      45.721  28.628  30.823  1.00  0.00     0.049 A 
ATOM     66  H   UNL A   1      44.994  29.864  29.303  1.00  0.00     0.167 HD
ATOM     67  C   UNL A   1      43.307  28.976  31.175  1.00  0.00     0.074 A 
ATOM     68  C   UNL A   1      43.043  30.115  30.310  1.00  0.00     0.031 C 
ATOM     69  C   UNL A   1      44.482  28.386  31.524  1.00  0.00     0.037 A 
BRANCH  56  70
ATOM     70  C   UNL A   1      46.684  30.538  26.888  1.00  0.00     0.064 A 
ATOM     71  C   UNL A   1      47.882  31.286  26.926  1.00  0.00     0.173 A 
ATOM     72  C   UNL A   1      45.514  31.283  26.630  1.00  0.00     0.173 A 
ATOM     73  F   UNL A   1      49.056  30.686  27.181  1.00  0.00    -0.203 F 
ATOM     74  C   UNL A   1      47.893  32.678  26.795  1.00  0.00     0.198 A 
ATOM     75  C   UNL A   1      45.536  32.668  26.449  1.00  0.00     0.198 A 
ATOM     76  F   UNL A   1      44.299  30.726  26.659  1.00  0.00    -0.203 F 
ATOM     77  F   UNL A   1      49.037  33.354  26.962  1.00  0.00    -0.200 F 
ATOM     78  C   UNL A   1      46.719  33.368  26.564  1.00  0.00     0.200 A 
ATOM     79  F   UNL A   1      44.384  33.323  26.247  1.00  0.00    -0.200 F 
ATOM     80  F   UNL A   1      46.715  34.706  26.499  1.00  0.00    -0.200 F 
ENDBRANCH  56  70
BRANCH  57  81
ATOM     81  C   UNL A   1      39.008  28.367  29.381  1.00  0.00     0.064 A 
ATOM     82  C   UNL A   1      38.188  28.536  30.508  1.00  0.00     0.173 A 
ATOM     83  C   UNL A   1      38.539  28.919  28.173  1.00  0.00     0.173 A 
ATOM     84  F   UNL A   1      38.578  28.072  31.704  1.00  0.00    -0.203 F 
ATOM     85  C   UNL A   1      36.991  29.255  30.440  1.00  0.00     0.198 A 
ATOM     86  C   UNL A   1      37.338  29.624  28.104  1.00  0.00     0.198 A 
ATOM     87  F   UNL A   1      39.284  28.871  27.059  1.00  0.00    -0.203 F 
ATOM     88  F   UNL A   1      36.274  29.463  31.553  1.00  0.00    -0.200 F 
ATOM     89  C   UNL A   1      36.574  29.808  29.241  1.00  0.00     0.200 A 
ATOM     90  F   UNL A   1      36.962  30.182  26.944  1.00  0.00    -0.200 F 
ATOM     91  F   UNL A   1      35.462  30.553  29.190  1.00  0.00    -0.200 F 
ENDBRANCH  57  81
BRANCH  69  92
ATOM     92  C   UNL A   1      44.427  27.269  32.514  1.00  0.00     0.064 A 
ATOM     93  C   UNL A   1      44.327  25.914  32.164  1.00  0.00     0.173 A 
ATOM     94  C   UNL A   1      44.545  27.587  33.874  1.00  0.00     0.173 A 
ATOM     95  F   UNL A   1      44.293  25.534  30.881  1.00  0.00    -0.203 F 
ATOM     96  C   UNL A   1      44.299  24.924  33.144  1.00  0.00     0.198 A 
ATOM     97  C   UNL A   1      44.554  26.594  34.847  1.00  0.00     0.198 A 
ATOM     98  F   UNL A   1      44.688  28.865  34.256  1.00  0.00    -0.203 F 
ATOM     99  F   UNL A   1      44.181  23.635  32.794  1.00  0.00    -0.200 F 
ATOM    100  C   UNL A   1      44.418  25.264  34.483  1.00  0.00     0.200 A 
ATOM    101  F   UNL A   1      44.712  26.925  36.136  1.00  0.00    -0.200 F 
ATOM    102  F   UNL A   1      44.425  24.308  35.423  1.00  0.00    -0.200 F 
ENDBRANCH  69  92
ENDBRANCH  43  44
ENDBRANCH  35  38
ENDBRANCH  33  34
ENDBRANCH  32  33
ENDBRANCH  31  32
ENDBRANCH   1  31
TORSDOF 17
ENDMDL
MODEL 2
REMARK VINA RESULT:     -12.7      1.052      3.263
REMARK SMILES COc1cc2c(CC(=O)NCCCCCCNC(=O)c3ccc(-c4c5nc(c(-c6c(F)c(F)c(F)c(F)c6F)c6ccc([nH]6)c(-c6c(F)c(F)c(F)c(F)c6F)c6nc(c(-c7c(F)c(F)c(F)c(F)c7F)c7ccc4[nH]7)C=C6)C=C5)cc3)c(C)n(C(=O)c3ccc(Cl)cc3)c2cc1Cl
REMARK SMILES IDX 13 1 12 2 11 3 10 4 8 5 9 6 7 8 6 9 3 10 4 11 97 12 5 13
REMARK SMILES IDX 96 14 98 15 95 16 83 17 85 18 84 19 2 20 1 21 86 22 87 23
REMARK SMILES IDX 88 24 89 25 94 26 90 27 93 28 91 29 92 30 14 31 15 32 16 33
REMARK SMILES IDX 17 34 18 35 19 37 20 38 21 39 82 40 22 41 81 42 23 43 24 44
REMARK SMILES IDX 25 45 75 46 26 47 80 48 74 49 76 50 27 51 79 52 73 53 72 54
REMARK SMILES IDX 28 56 60 57 40 58 59 59 41 60 44 61 58 62 77 63 42 64 43 65
REMARK SMILES IDX 57 67 78 68 45 69 29 70 30 71 38 72 31 73 32 74 36 75 39 76
REMARK SMILES IDX 33 77 34 78 37 79 35 80 61 81 62 82 70 83 63 84 64 85 68 86
REMARK SMILES IDX 71 87 65 88 66 89 69 90 67 91 46 92 47 93 55 94 48 95 49 96
REMARK SMILES IDX 53 97 56 98 50 99 51 100 54 101 52 102
REMARK H PARENT 10 7 17 36 76 55 44 66
REMARK Flexibility Score: inf
ROOT
ATOM      1  C   UNL A   1      40.731  21.563  27.502  1.00  0.00     0.002 C 
ENDROOT
BRANCH   1   2
ATOM      2  C   UNL A   1      39.639  21.437  26.433  1.00  0.00     0.021 C 
BRANCH   2   3
ATOM      3  C   UNL A   1      38.727  22.661  26.340  1.00  0.00     0.116 C 
BRANCH   3   4
ATOM      4  N   UNL A   1      38.216  22.834  24.994  1.00  0.00    -0.356 N 
ATOM      5  C   UNL A   1      37.067  23.449  24.589  1.00  0.00     0.224 C 
ATOM      6  O   UNL A   1      36.782  23.426  23.390  1.00  0.00    -0.275 OA
ATOM      7  H   UNL A   1      38.773  22.456  24.276  1.00  0.00     0.163 HD
BRANCH   5   8
ATOM      8  C   UNL A   1      36.204  24.199  25.592  1.00  0.00     0.138 C 
BRANCH   8   9
ATOM      9  C   UNL A   1      34.737  23.874  25.503  1.00  0.00    -0.009 A 
ATOM     10  C   UNL A   1      32.476  26.722  24.294  1.00  0.00     0.138 A 
ATOM     11  C   UNL A   1      33.685  26.088  24.610  1.00  0.00     0.058 A 
ATOM     12  C   UNL A   1      31.278  26.036  24.451  1.00  0.00     0.085 A 
ATOM     13  C   UNL A   1      33.699  24.751  25.074  1.00  0.00     0.008 A 
ATOM     14  C   UNL A   1      31.270  24.731  24.953  1.00  0.00     0.051 A 
ATOM     15  Cl  UNL A   1      29.749  26.683  23.970  1.00  0.00    -0.080 Cl
ATOM     16  C   UNL A   1      32.488  24.065  25.203  1.00  0.00     0.058 A 
ATOM     17  C   UNL A   1      34.131  22.685  25.896  1.00  0.00     0.028 A 
ATOM     18  N   UNL A   1      32.782  22.731  25.528  1.00  0.00    -0.280 N 
ATOM     19  C   UNL A   1      34.772  21.502  26.555  1.00  0.00     0.065 C 
BRANCH  10  20
ATOM     20  O   UNL A   1      32.589  27.981  23.763  1.00  0.00    -0.495 OA
ATOM     21  C   UNL A   1      33.793  28.176  23.024  1.00  0.00     0.278 C 
ENDBRANCH  10  20
BRANCH  18  22
ATOM     22  C   UNL A   1      31.894  21.614  25.462  1.00  0.00     0.262 C 
ATOM     23  O   UNL A   1      30.761  21.723  25.907  1.00  0.00    -0.268 OA
BRANCH  22  24
ATOM     24  C   UNL A   1      32.251  20.295  24.907  1.00  0.00     0.040 A 
ATOM     25  C   UNL A   1      32.587  19.233  25.754  1.00  0.00     0.015 A 
ATOM     26  C   UNL A   1      32.299  20.149  23.516  1.00  0.00     0.015 A 
ATOM     27  C   UNL A   1      33.057  18.041  25.199  1.00  0.00     0.021 A 
ATOM     28  C   UNL A   1      32.761  18.951  22.970  1.00  0.00     0.021 A 
ATOM     29  C   UNL A   1      33.154  17.909  23.812  1.00  0.00     0.041 A 
ATOM     30  Cl  UNL A   1      33.787  16.461  23.135  1.00  0.00    -0.084 Cl
ENDBRANCH  22  24
ENDBRANCH  18  22
ENDBRANCH   8   9
ENDBRANCH   5   8
ENDBRANCH   3   4
ENDBRANCH   2   3
ENDBRANCH   1   2
BRANCH   1  31
ATOM     31  C   UNL A   1      41.670  20.356  27.616  1.00  0.00     0.002 C 
BRANCH  31  32
ATOM     32  C   UNL A   1      41.763  19.476  26.364  1.00  0.00     0.021 C 
BRANCH  32  33
ATOM     33  C   UNL A   1      43.099  18.749  26.196  1.00  0.00     0.116 C 
BRANCH  33  34
ATOM     34  N   UNL A   1      43.882  19.230  25.076  1.00  0.00    -0.352 N 
ATOM     35  C   UNL A   1      44.324  20.455  24.660  1.00  0.00     0.251 C 
ATOM     36  H   UNL A   1      44.162  18.505  24.473  1.00  0.00     0.163 HD
ATOM     37  O   UNL A   1      45.039  20.461  23.654  1.00  0.00    -0.269 OA
BRANCH  35  38
ATOM     38  C   UNL A   1      43.984  21.760  25.297  1.00  0.00     0.039 A 
ATOM     39  C   UNL A   1      43.010  22.651  24.851  1.00  0.00     0.014 A 
ATOM     40  C   UNL A   1      44.743  22.119  26.429  1.00  0.00     0.014 A 
ATOM     41  C   UNL A   1      42.849  23.890  25.464  1.00  0.00     0.010 A 
ATOM     42  C   UNL A   1      44.567  23.348  27.065  1.00  0.00     0.010 A 
ATOM     43  C   UNL A   1      43.640  24.252  26.560  1.00  0.00    -0.014 A 
BRANCH  43  44
ATOM     44  C   UNL A   1      43.384  25.564  27.157  1.00  0.00     0.031 A 
ATOM     45  C   UNL A   1      44.386  26.621  26.847  1.00  0.00     0.074 A 
ATOM     46  C   UNL A   1      42.304  25.872  27.902  1.00  0.00     0.049 A 
ATOM     47  N   UNL A   1      45.144  27.269  27.673  1.00  0.00    -0.248 NA
ATOM     48  C   UNL A   1      44.608  26.962  25.434  1.00  0.00     0.031 C 
ATOM     49  C   UNL A   1      41.080  25.087  28.065  1.00  0.00     0.029 A 
ATOM     50  N   UNL A   1      42.047  27.015  28.614  1.00  0.00    -0.354 N 
ATOM     51  C   UNL A   1      45.826  28.213  26.908  1.00  0.00     0.074 A 
ATOM     52  C   UNL A   1      45.538  27.915  25.530  1.00  0.00     0.031 C 
ATOM     53  C   UNL A   1      40.136  25.856  28.649  1.00  0.00     0.029 A 
ATOM     54  C   UNL A   1      40.733  27.123  29.038  1.00  0.00     0.049 A 
ATOM     55  H   UNL A   1      42.731  27.695  28.805  1.00  0.00     0.167 HD
ATOM     56  C   UNL A   1      46.403  29.303  27.484  1.00  0.00     0.037 A 
ATOM     57  C   UNL A   1      40.152  28.187  29.639  1.00  0.00     0.037 A 
ATOM     58  C   UNL A   1      46.564  29.138  28.902  1.00  0.00     0.049 A 
ATOM     59  C   UNL A   1      41.196  28.995  30.310  1.00  0.00     0.074 A 
ATOM     60  C   UNL A   1      47.453  28.525  29.755  1.00  0.00     0.029 A 
ATOM     61  N   UNL A   1      45.468  29.487  29.638  1.00  0.00    -0.354 N 
ATOM     62  N   UNL A   1      41.888  28.586  31.338  1.00  0.00    -0.248 NA
ATOM     63  C   UNL A   1      41.666  30.233  29.696  1.00  0.00     0.031 C 
ATOM     64  C   UNL A   1      46.774  28.369  31.001  1.00  0.00     0.029 A 
ATOM     65  C   UNL A   1      45.488  28.884  30.866  1.00  0.00     0.049 A 
ATOM     66  H   UNL A   1      44.756  30.092  29.326  1.00  0.00     0.167 HD
ATOM     67  C   UNL A   1      43.082  29.267  31.237  1.00  0.00     0.074 A 
ATOM     68  C   UNL A   1      42.820  30.388  30.349  1.00  0.00     0.031 C 
ATOM     69  C   UNL A   1      44.255  28.672  31.587  1.00  0.00     0.037 A 
BRANCH  56  70
ATOM     70  C   UNL A   1      46.425  30.691  26.877  1.00  0.00     0.064 A 
ATOM     71  C   UNL A   1      47.635  31.421  26.873  1.00  0.00     0.173 A 
ATOM     72  C   UNL A   1      45.261  31.447  26.625  1.00  0.00     0.173 A 
ATOM     73  F   UNL A   1      48.804  30.810  27.118  1.00  0.00    -0.203 F 
ATOM     74  C   UNL A   1      47.662  32.810  26.709  1.00  0.00     0.198 A 
ATOM     75  C   UNL A   1      45.299  32.826  26.411  1.00  0.00     0.198 A 
ATOM     76  F   UNL A   1      44.039  30.908  26.691  1.00  0.00    -0.203 F 
ATOM     77  F   UNL A   1      48.819  33.473  26.836  1.00  0.00    -0.200 F 
ATOM     78  C   UNL A   1      46.493  33.512  26.485  1.00  0.00     0.200 A 
ATOM     79  F   UNL A   1      44.152  33.493  26.217  1.00  0.00    -0.200 F 
ATOM     80  F   UNL A   1      46.508  34.847  26.388  1.00  0.00    -0.200 F 
ENDBRANCH  56  70
BRANCH  57  81
ATOM     81  C   UNL A   1      38.757  28.662  29.507  1.00  0.00     0.064 A 
ATOM     82  C   UNL A   1      37.951  28.866  30.639  1.00  0.00     0.173 A 
ATOM     83  C   UNL A   1      38.279  29.190  28.292  1.00  0.00     0.173 A 
ATOM     84  F   UNL A   1      38.350  28.427  31.842  1.00  0.00    -0.203 F 
ATOM     85  C   UNL A   1      36.761  29.596  30.567  1.00  0.00     0.198 A 
ATOM     86  C   UNL A   1      37.085  29.906  28.220  1.00  0.00     0.198 A 
ATOM     87  F   UNL A   1      39.011  29.108  27.171  1.00  0.00    -0.203 F 
ATOM     88  F   UNL A   1      36.060  29.838  31.684  1.00  0.00    -0.200 F 
ATOM     89  C   UNL A   1      36.336  30.126  29.361  1.00  0.00     0.200 A 
ATOM     90  F   UNL A   1      36.701  30.441  27.052  1.00  0.00    -0.200 F 
ATOM     91  F   UNL A   1      35.232  30.882  29.304  1.00  0.00    -0.200 F 
ENDBRANCH  57  81
BRANCH  69  92
ATOM     92  C   UNL A   1      44.199  27.580  32.603  1.00  0.00     0.064 A 
ATOM     93  C   UNL A   1      44.160  26.214  32.287  1.00  0.00     0.173 A 
ATOM     94  C   UNL A   1      44.253  27.936  33.958  1.00  0.00     0.173 A 
ATOM     95  F   UNL A   1      44.191  25.800  31.013  1.00  0.00    -0.203 F 
ATOM     96  C   UNL A   1      44.128  25.248  33.291  1.00  0.00     0.198 A 
ATOM     97  C   UNL A   1      44.257  26.969  34.957  1.00  0.00     0.198 A 
ATOM     98  F   UNL A   1      44.336  29.228  34.311  1.00  0.00    -0.203 F 
ATOM     99  F   UNL A   1      44.069  23.947  32.971  1.00  0.00    -0.200 F 
ATOM    100  C   UNL A   1      44.182  25.626  34.624  1.00  0.00     0.200 A 
ATOM    101  F   UNL A   1      44.353  27.338  36.242  1.00  0.00    -0.200 F 
ATOM    102  F   UNL A   1      44.186  24.695  35.589  1.00  0.00    -0.200 F 
ENDBRANCH  69  92
ENDBRANCH  43  44
ENDBRANCH  35  38
ENDBRANCH  33  34
ENDBRANCH  32  33
ENDBRANCH  31  32
ENDBRANCH   1  31
TORSDOF 17
ENDMDL
MODEL 3
REMARK VINA RESULT:     -12.5      3.006      8.808
REMARK SMILES COc1cc2c(CC(=O)NCCCCCCNC(=O)c3ccc(-c4c5nc(c(-c6c(F)c(F)c(F)c(F)c6F)c6ccc([nH]6)c(-c6c(F)c(F)c(F)c(F)c6F)c6nc(c(-c7c(F)c(F)c(F)c(F)c7F)c7ccc4[nH]7)C=C6)C=C5)cc3)c(C)n(C(=O)c3ccc(Cl)cc3)c2cc1Cl
REMARK SMILES IDX 13 1 12 2 11 3 10 4 8 5 9 6 7 8 6 9 3 10 4 11 97 12 5 13
REMARK SMILES IDX 96 14 98 15 95 16 83 17 85 18 84 19 2 20 1 21 86 22 87 23
REMARK SMILES IDX 88 24 89 25 94 26 90 27 93 28 91 29 92 30 14 31 15 32 16 33
REMARK SMILES IDX 17 34 18 35 19 37 20 38 21 39 82 40 22 41 81 42 23 43 24 44
REMARK SMILES IDX 25 45 75 46 26 47 80 48 74 49 76 50 27 51 79 52 73 53 72 54
REMARK SMILES IDX 28 56 60 57 40 58 59 59 41 60 44 61 58 62 77 63 42 64 43 65
REMARK SMILES IDX 57 67 78 68 45 69 29 70 30 71 38 72 31 73 32 74 36 75 39 76
REMARK SMILES IDX 33 77 34 78 37 79 35 80 61 81 62 82 70 83 63 84 64 85 68 86
REMARK SMILES IDX 71 87 65 88 66 89 69 90 67 91 46 92 47 93 55 94 48 95 49 96
REMARK SMILES IDX 53 97 56 98 50 99 51 100 54 101 52 102
REMARK H PARENT 10 7 17 36 76 55 44 66
REMARK Flexibility Score: inf
ROOT
ATOM      1  C   UNL A   1      31.291  27.953  26.438  1.00  0.00     0.002 C 
ENDROOT
BRANCH   1   2
ATOM      2  C   UNL A   1      30.721  27.406  25.124  1.00  0.00     0.021 C 
BRANCH   2   3
ATOM      3  C   UNL A   1      29.903  26.125  25.296  1.00  0.00     0.116 C 
BRANCH   3   4
ATOM      4  N   UNL A   1      30.444  25.295  26.354  1.00  0.00    -0.356 N 
ATOM      5  C   UNL A   1      31.116  24.112  26.252  1.00  0.00     0.224 C 
ATOM      6  O   UNL A   1      31.434  23.527  27.290  1.00  0.00    -0.275 OA
ATOM      7  H   UNL A   1      30.309  25.630  27.270  1.00  0.00     0.163 HD
BRANCH   5   8
ATOM      8  C   UNL A   1      31.515  23.571  24.888  1.00  0.00     0.138 C 
BRANCH   8   9
ATOM      9  C   UNL A   1      32.884  22.947  24.850  1.00  0.00    -0.009 A 
ATOM     10  C   UNL A   1      32.958  19.120  24.644  1.00  0.00     0.138 A 
ATOM     11  C   UNL A   1      32.374  20.394  24.671  1.00  0.00     0.058 A 
ATOM     12  C   UNL A   1      34.340  18.995  24.724  1.00  0.00     0.085 A 
ATOM     13  C   UNL A   1      33.178  21.555  24.764  1.00  0.00     0.008 A 
ATOM     14  C   UNL A   1      35.146  20.129  24.863  1.00  0.00     0.051 A 
ATOM     15  Cl  UNL A   1      35.161  17.482  24.571  1.00  0.00    -0.080 Cl
ATOM     16  C   UNL A   1      34.568  21.415  24.817  1.00  0.00     0.058 A 
ATOM     17  C   UNL A   1      34.098  23.614  24.969  1.00  0.00     0.028 A 
ATOM     18  N   UNL A   1      35.133  22.698  24.750  1.00  0.00    -0.280 N 
ATOM     19  C   UNL A   1      34.321  25.072  25.232  1.00  0.00     0.065 C 
BRANCH  10  20
ATOM     20  O   UNL A   1      32.091  18.075  24.457  1.00  0.00    -0.495 OA
ATOM     21  C   UNL A   1      32.387  17.299  23.297  1.00  0.00     0.278 C 
ENDBRANCH  10  20
BRANCH  18  22
ATOM     22  C   UNL A   1      36.495  23.025  24.473  1.00  0.00     0.262 C 
ATOM     23  O   UNL A   1      36.804  23.406  23.354  1.00  0.00    -0.268 OA
BRANCH  22  24
ATOM     24  C   UNL A   1      37.596  22.914  25.449  1.00  0.00     0.040 A 
ATOM     25  C   UNL A   1      37.919  23.988  26.285  1.00  0.00     0.015 A 
ATOM     26  C   UNL A   1      38.342  21.730  25.477  1.00  0.00     0.015 A 
ATOM     27  C   UNL A   1      39.053  23.904  27.096  1.00  0.00     0.021 A 
ATOM     28  C   UNL A   1      39.468  21.651  26.297  1.00  0.00     0.021 A 
ATOM     29  C   UNL A   1      39.829  22.742  27.089  1.00  0.00     0.041 A 
ATOM     30  Cl  UNL A   1      41.256  22.665  28.045  1.00  0.00    -0.084 Cl
ENDBRANCH  22  24
ENDBRANCH  18  22
ENDBRANCH   8   9
ENDBRANCH   5   8
ENDBRANCH   3   4
ENDBRANCH   2   3
ENDBRANCH   1   2
BRANCH   1  31
ATOM     31  C   UNL A   1      32.814  27.845  26.579  1.00  0.00     0.002 C 
BRANCH  31  32
ATOM     32  C   UNL A   1      33.481  28.971  27.379  1.00  0.00     0.021 C 
BRANCH  32  33
ATOM     33  C   UNL A   1      33.637  30.287  26.614  1.00  0.00     0.116 C 
BRANCH  33  34
ATOM     34  N   UNL A   1      33.887  31.428  27.473  1.00  0.00    -0.352 N 
ATOM     35  C   UNL A   1      34.961  31.887  28.184  1.00  0.00     0.251 C 
ATOM     36  H   UNL A   1      33.098  32.009  27.567  1.00  0.00     0.163 HD
ATOM     37  O   UNL A   1      34.804  32.962  28.769  1.00  0.00    -0.269 OA
BRANCH  35  38
ATOM     38  C   UNL A   1      36.267  31.182  28.331  1.00  0.00     0.039 A 
ATOM     39  C   UNL A   1      36.530  29.871  27.939  1.00  0.00     0.014 A 
ATOM     40  C   UNL A   1      37.304  31.911  28.948  1.00  0.00     0.014 A 
ATOM     41  C   UNL A   1      37.758  29.282  28.219  1.00  0.00     0.010 A 
ATOM     42  C   UNL A   1      38.547  31.333  29.206  1.00  0.00     0.010 A 
ATOM     43  C   UNL A   1      38.764  30.002  28.872  1.00  0.00    -0.014 A 
BRANCH  43  44
ATOM     44  C   UNL A   1      40.032  29.309  29.103  1.00  0.00     0.031 A 
ATOM     45  C   UNL A   1      40.319  28.941  30.517  1.00  0.00     0.074 A 
ATOM     46  C   UNL A   1      40.900  28.950  28.136  1.00  0.00     0.049 A 
ATOM     47  N   UNL A   1      41.304  29.334  31.260  1.00  0.00    -0.248 NA
ATOM     48  C   UNL A   1      39.358  28.068  31.207  1.00  0.00     0.031 C 
ATOM     49  C   UNL A   1      40.671  28.943  26.691  1.00  0.00     0.029 A 
ATOM     50  N   UNL A   1      42.163  28.431  28.261  1.00  0.00    -0.354 N 
ATOM     51  C   UNL A   1      41.183  28.637  32.460  1.00  0.00     0.074 A 
ATOM     52  C   UNL A   1      39.918  27.952  32.413  1.00  0.00     0.031 C 
ATOM     53  C   UNL A   1      41.667  28.257  26.089  1.00  0.00     0.029 A 
ATOM     54  C   UNL A   1      42.673  27.916  27.082  1.00  0.00     0.049 A 
ATOM     55  H   UNL A   1      42.660  28.425  29.110  1.00  0.00     0.167 HD
ATOM     56  C   UNL A   1      42.239  28.505  33.309  1.00  0.00     0.037 A 
ATOM     57  C   UNL A   1      43.826  27.226  26.921  1.00  0.00     0.037 A 
ATOM     58  C   UNL A   1      43.276  29.458  33.026  1.00  0.00     0.049 A 
ATOM     59  C   UNL A   1      44.756  27.574  28.019  1.00  0.00     0.074 A 
ATOM     60  C   UNL A   1      43.537  30.781  33.301  1.00  0.00     0.029 A 
ATOM     61  N   UNL A   1      44.161  29.059  32.067  1.00  0.00    -0.354 N 
ATOM     62  N   UNL A   1      45.294  28.753  28.175  1.00  0.00    -0.248 NA
ATOM     63  C   UNL A   1      44.945  26.651  29.134  1.00  0.00     0.031 C 
ATOM     64  C   UNL A   1      44.507  31.208  32.345  1.00  0.00     0.029 A 
ATOM     65  C   UNL A   1      44.801  30.134  31.510  1.00  0.00     0.049 A 
ATOM     66  H   UNL A   1      44.319  28.122  31.808  1.00  0.00     0.167 HD
ATOM     67  C   UNL A   1      45.515  28.849  29.532  1.00  0.00     0.074 A 
ATOM     68  C   UNL A   1      45.472  27.485  30.033  1.00  0.00     0.031 C 
ATOM     69  C   UNL A   1      45.358  30.034  30.181  1.00  0.00     0.037 A 
BRANCH  56  70
ATOM     70  C   UNL A   1      42.556  27.257  34.107  1.00  0.00     0.064 A 
ATOM     71  C   UNL A   1      42.329  27.255  35.501  1.00  0.00     0.173 A 
ATOM     72  C   UNL A   1      43.379  26.216  33.626  1.00  0.00     0.173 A 
ATOM     73  F   UNL A   1      41.576  28.207  36.074  1.00  0.00    -0.203 F 
ATOM     74  C   UNL A   1      42.944  26.331  36.352  1.00  0.00     0.198 A 
ATOM     75  C   UNL A   1      43.949  25.265  34.473  1.00  0.00     0.198 A 
ATOM     76  F   UNL A   1      43.756  26.147  32.345  1.00  0.00    -0.203 F 
ATOM     77  F   UNL A   1      42.797  26.445  37.678  1.00  0.00    -0.200 F 
ATOM     78  C   UNL A   1      43.759  25.341  35.837  1.00  0.00     0.200 A 
ATOM     79  F   UNL A   1      44.755  24.324  33.958  1.00  0.00    -0.200 F 
ATOM     80  F   UNL A   1      44.398  24.492  36.652  1.00  0.00    -0.200 F 
ENDBRANCH  56  70
BRANCH  57  81
ATOM     81  C   UNL A   1      44.107  26.125  25.973  1.00  0.00     0.064 A 
ATOM     82  C   UNL A   1      45.397  25.926  25.456  1.00  0.00     0.173 A 
ATOM     83  C   UNL A   1      43.182  25.080  25.775  1.00  0.00     0.173 A 
ATOM     84  F   UNL A   1      46.348  26.856  25.632  1.00  0.00    -0.203 F 
ATOM     85  C   UNL A   1      45.754  24.734  24.820  1.00  0.00     0.198 A 
ATOM     86  C   UNL A   1      43.537  23.897  25.128  1.00  0.00     0.198 A 
ATOM     87  F   UNL A   1      41.948  25.148  26.294  1.00  0.00    -0.203 F 
ATOM     88  F   UNL A   1      47.017  24.549  24.410  1.00  0.00    -0.200 F 
ATOM     89  C   UNL A   1      44.828  23.716  24.668  1.00  0.00     0.200 A 
ATOM     90  F   UNL A   1      42.639  22.908  25.016  1.00  0.00    -0.200 F 
ATOM     91  F   UNL A   1      45.187  22.549  24.119  1.00  0.00    -0.200 F 
ENDBRANCH  57  81
BRANCH  69  92
ATOM     92  C   UNL A   1      45.546  31.286  29.389  1.00  0.00     0.064 A 
ATOM     93  C   UNL A   1      46.794  31.876  29.138  1.00  0.00     0.173 A 
ATOM     94  C   UNL A   1      44.415  31.875  28.808  1.00  0.00     0.173 A 
ATOM     95  F   UNL A   1      47.924  31.319  29.593  1.00  0.00    -0.203 F 
ATOM     96  C   UNL A   1      46.895  33.036  28.373  1.00  0.00     0.198 A 
ATOM     97  C   UNL A   1      44.523  33.013  28.015  1.00  0.00     0.198 A 
ATOM     98  F   UNL A   1      43.205  31.323  28.982  1.00  0.00    -0.203 F 
ATOM     99  F   UNL A   1      48.093  33.599  28.160  1.00  0.00    -0.200 F 
ATOM    100  C   UNL A   1      45.761  33.600  27.808  1.00  0.00     0.200 A 
ATOM    101  F   UNL A   1      43.429  33.528  27.437  1.00  0.00    -0.200 F 
ATOM    102  F   UNL A   1      45.862  34.697  27.044  1.00  0.00    -0.200 F 
ENDBRANCH  69  92
ENDBRANCH  43  44
ENDBRANCH  35  38
ENDBRANCH  33  34
ENDBRANCH  32  33
ENDBRANCH  31  32
ENDBRANCH   1  31
TORSDOF 17
ENDMDL
