MODEL 1
REMARK VINA RESULT:     -13.4      0.000      0.000
REMARK SMILES COc1cc(Cl)c(C)cc1N1C(=O)C[C@H](Nc2cc(C(=O)NCCCCCCNC(=O)c3ccc(-c4c5nc(c(-c6c(F)c(F)c(F)c(F)c6F)c6ccc([nH]6)c(-c6c(F)c(F)c(F)c(F)c6F)c6nc(c(-c7c(F)c(F)c(F)c(F)c7F)c7ccc4[nH]7)C=C6)C=C5)cc3)ccc2C)C1=O
REMARK SMILES IDX 24 1 23 2 22 3 20 4 21 5 19 7 17 8 18 9 97 10 96 11 98 12
REMARK SMILES IDX 95 13 16 14 15 16 11 17 12 18 99 19 13 20 14 21 100 22 10 23
REMARK SMILES IDX 3 24 4 25 5 26 9 27 6 28 7 29 8 30 2 31 1 32 25 33 26 34
REMARK SMILES IDX 27 35 28 36 29 37 30 38 31 40 32 41 33 42 94 43 34 44 93 45
REMARK SMILES IDX 35 46 36 47 37 48 87 49 38 50 92 51 86 52 88 53 39 54 91 55
REMARK SMILES IDX 85 56 84 57 40 59 72 60 52 61 71 62 53 63 56 64 70 65 89 66
REMARK SMILES IDX 54 67 55 68 69 70 90 71 57 72 41 73 42 74 50 75 43 76 44 77
REMARK SMILES IDX 48 78 51 79 45 80 46 81 49 82 47 83 73 84 74 85 82 86 75 87
REMARK SMILES IDX 76 88 80 89 83 90 77 91 78 92 81 93 79 94 58 95 59 96 67 97
REMARK SMILES IDX 60 98 61 99 65 100 68 101 62 102 63 103 66 104 64 105
REMARK H PARENT 22 6 16 15 29 39 88 58 56 69
REMARK Flexibility Score: inf
ROOT
ATOM      1  C   UNL A   1      32.813  30.483  27.219  1.00  0.00     0.021 C 
ENDROOT
BRANCH   1   2
ATOM      2  C   UNL A   1      33.564  29.164  27.054  1.00  0.00     0.116 C 
BRANCH   2   3
ATOM      3  N   UNL A   1      34.161  28.962  25.747  1.00  0.00    -0.352 N 
ATOM      4  C   UNL A   1      33.614  28.481  24.578  1.00  0.00     0.251 C 
ATOM      5  O   UNL A   1      34.335  28.410  23.584  1.00  0.00    -0.269 OA
ATOM      6  H   UNL A   1      35.112  29.209  25.687  1.00  0.00     0.163 HD
BRANCH   4   7
ATOM      7  C   UNL A   1      32.207  28.000  24.483  1.00  0.00     0.041 A 
ATOM      8  C   UNL A   1      30.421  26.409  24.989  1.00  0.00     0.038 A 
ATOM      9  C   UNL A   1      31.715  26.907  25.203  1.00  0.00     0.039 A 
ATOM     10  C   UNL A   1      29.572  27.090  24.096  1.00  0.00    -0.028 A 
ATOM     11  C   UNL A   1      30.025  28.256  23.460  1.00  0.00     0.006 A 
ATOM     12  C   UNL A   1      28.141  26.670  23.879  1.00  0.00     0.046 C 
ATOM     13  C   UNL A   1      31.337  28.696  23.638  1.00  0.00     0.014 A 
BRANCH   8  14
ATOM     14  N   UNL A   1      30.008  25.207  25.547  1.00  0.00    -0.373 N 
ATOM     15  H   UNL A   1      29.383  25.234  26.307  1.00  0.00     0.161 HD
BRANCH  14  16
ATOM     16  C   UNL A   1      30.457  23.908  25.064  1.00  0.00     0.179 C 
ATOM     17  N   UNL A   1      32.562  23.012  24.573  1.00  0.00    -0.245 N 
ATOM     18  C   UNL A   1      31.999  23.302  23.356  1.00  0.00     0.236 C 
ATOM     19  C   UNL A   1      31.801  23.467  25.627  1.00  0.00     0.256 C 
ATOM     20  O   UNL A   1      32.435  23.041  22.243  1.00  0.00    -0.274 OA
ATOM     21  C   UNL A   1      30.695  24.000  23.567  1.00  0.00     0.136 C 
ATOM     22  O   UNL A   1      32.125  23.551  26.806  1.00  0.00    -0.272 OA
BRANCH  17  23
ATOM     23  C   UNL A   1      33.795  22.334  24.712  1.00  0.00     0.094 A 
ATOM     24  C   UNL A   1      33.865  20.937  24.839  1.00  0.00     0.144 A 
ATOM     25  C   UNL A   1      35.102  20.295  24.953  1.00  0.00     0.069 A 
ATOM     26  C   UNL A   1      36.284  21.039  24.936  1.00  0.00     0.047 A 
ATOM     27  C   UNL A   1      34.996  23.064  24.684  1.00  0.00     0.035 A 
ATOM     28  Cl  UNL A   1      37.779  20.183  25.046  1.00  0.00    -0.084 Cl
ATOM     29  C   UNL A   1      36.246  22.435  24.824  1.00  0.00    -0.030 A 
ATOM     30  C   UNL A   1      37.495  23.273  24.845  1.00  0.00     0.046 C 
BRANCH  24  31
ATOM     31  O   UNL A   1      32.762  20.123  24.832  1.00  0.00    -0.495 OA
ATOM     32  C   UNL A   1      32.873  19.076  23.866  1.00  0.00     0.278 C 
ENDBRANCH  24  31
ENDBRANCH  17  23
ENDBRANCH  14  16
ENDBRANCH   8  14
ENDBRANCH   4   7
ENDBRANCH   2   3
ENDBRANCH   1   2
BRANCH   1  33
ATOM     33  C   UNL A   1      33.636  31.768  27.359  1.00  0.00     0.002 C 
BRANCH  33  34
ATOM     34  C   UNL A   1      34.827  31.769  28.328  1.00  0.00     0.002 C 
BRANCH  34  35
ATOM     35  C   UNL A   1      34.640  32.467  29.675  1.00  0.00     0.021 C 
BRANCH  35  36
ATOM     36  C   UNL A   1      34.359  33.962  29.609  1.00  0.00     0.116 C 
BRANCH  36  37
ATOM     37  N   UNL A   1      33.511  34.477  30.677  1.00  0.00    -0.352 N 
ATOM     38  C   UNL A   1      33.729  34.491  32.050  1.00  0.00     0.251 C 
ATOM     39  H   UNL A   1      32.660  34.875  30.383  1.00  0.00     0.163 HD
ATOM     40  O   UNL A   1      32.877  34.913  32.804  1.00  0.00    -0.269 OA
BRANCH  38  41
ATOM     41  C   UNL A   1      35.067  34.108  32.577  1.00  0.00     0.039 A 
ATOM     42  C   UNL A   1      36.165  34.907  32.229  1.00  0.00     0.014 A 
ATOM     43  C   UNL A   1      35.268  32.892  33.217  1.00  0.00     0.014 A 
ATOM     44  C   UNL A   1      37.449  34.368  32.287  1.00  0.00     0.010 A 
ATOM     45  C   UNL A   1      36.518  32.313  33.163  1.00  0.00     0.010 A 
ATOM     46  C   UNL A   1      37.598  33.027  32.637  1.00  0.00    -0.014 A 
BRANCH  46  47
ATOM     47  C   UNL A   1      38.801  32.248  32.368  1.00  0.00     0.031 A 
ATOM     48  C   UNL A   1      38.750  31.046  31.510  1.00  0.00     0.074 A 
ATOM     49  C   UNL A   1      39.994  32.730  32.785  1.00  0.00     0.049 A 
ATOM     50  N   UNL A   1      39.648  30.119  31.509  1.00  0.00    -0.248 NA
ATOM     51  C   UNL A   1      37.653  30.774  30.590  1.00  0.00     0.031 C 
ATOM     52  C   UNL A   1      41.319  32.318  32.328  1.00  0.00     0.029 A 
ATOM     53  N   UNL A   1      40.252  33.604  33.857  1.00  0.00    -0.354 N 
ATOM     54  C   UNL A   1      39.408  29.293  30.434  1.00  0.00     0.074 A 
ATOM     55  C   UNL A   1      38.120  29.711  29.929  1.00  0.00     0.031 C 
ATOM     56  C   UNL A   1      42.229  32.679  33.246  1.00  0.00     0.029 A 
ATOM     57  C   UNL A   1      41.499  33.198  34.388  1.00  0.00     0.049 A 
ATOM     58  H   UNL A   1      39.683  34.342  34.171  1.00  0.00     0.167 HD
ATOM     59  C   UNL A   1      40.389  28.438  30.019  1.00  0.00     0.037 A 
ATOM     60  C   UNL A   1      41.616  32.724  35.662  1.00  0.00     0.037 A 
ATOM     61  C   UNL A   1      41.563  28.529  30.883  1.00  0.00     0.049 A 
ATOM     62  C   UNL A   1      42.168  31.322  35.749  1.00  0.00     0.074 A 
ATOM     63  C   UNL A   1      42.759  29.219  30.761  1.00  0.00     0.029 A 
ATOM     64  N   UNL A   1      41.486  28.101  32.203  1.00  0.00    -0.354 N 
ATOM     65  N   UNL A   1      42.159  30.480  34.754  1.00  0.00    -0.248 NA
ATOM     66  C   UNL A   1      42.742  30.747  36.962  1.00  0.00     0.031 C 
ATOM     67  C   UNL A   1      43.390  29.233  32.026  1.00  0.00     0.029 A 
ATOM     68  C   UNL A   1      42.586  28.537  32.914  1.00  0.00     0.049 A 
ATOM     69  H   UNL A   1      40.751  27.564  32.577  1.00  0.00     0.167 HD
ATOM     70  C   UNL A   1      42.681  29.281  35.164  1.00  0.00     0.074 A 
ATOM     71  C   UNL A   1      43.048  29.503  36.549  1.00  0.00     0.031 C 
ATOM     72  C   UNL A   1      42.753  28.210  34.320  1.00  0.00     0.037 A 
BRANCH  59  73
ATOM     73  C   UNL A   1      40.409  27.736  28.675  1.00  0.00     0.064 A 
ATOM     74  C   UNL A   1      39.818  26.461  28.515  1.00  0.00     0.173 A 
ATOM     75  C   UNL A   1      41.033  28.236  27.519  1.00  0.00     0.173 A 
ATOM     76  F   UNL A   1      39.080  25.901  29.482  1.00  0.00    -0.203 F 
ATOM     77  C   UNL A   1      39.958  25.704  27.348  1.00  0.00     0.198 A 
ATOM     78  C   UNL A   1      41.220  27.460  26.369  1.00  0.00     0.198 A 
ATOM     79  F   UNL A   1      41.425  29.513  27.437  1.00  0.00    -0.203 F 
ATOM     80  F   UNL A   1      39.384  24.495  27.266  1.00  0.00    -0.200 F 
ATOM     81  C   UNL A   1      40.696  26.187  26.290  1.00  0.00     0.200 A 
ATOM     82  F   UNL A   1      41.913  27.960  25.336  1.00  0.00    -0.200 F 
ATOM     83  F   UNL A   1      40.872  25.445  25.188  1.00  0.00    -0.200 F 
ENDBRANCH  59  73
BRANCH  60  84
ATOM     84  C   UNL A   1      40.625  33.312  36.597  1.00  0.00     0.064 A 
ATOM     85  C   UNL A   1      39.451  32.583  36.860  1.00  0.00     0.173 A 
ATOM     86  C   UNL A   1      40.985  34.316  37.504  1.00  0.00     0.173 A 
ATOM     87  F   UNL A   1      39.066  31.609  36.020  1.00  0.00    -0.203 F 
ATOM     88  C   UNL A   1      38.737  32.765  38.042  1.00  0.00     0.198 A 
ATOM     89  C   UNL A   1      40.261  34.501  38.684  1.00  0.00     0.198 A 
ATOM     90  F   UNL A   1      42.103  35.031  37.315  1.00  0.00    -0.203 F 
ATOM     91  F   UNL A   1      37.687  31.978  38.317  1.00  0.00    -0.200 F 
ATOM     92  C   UNL A   1      39.162  33.703  38.967  1.00  0.00     0.200 A 
ATOM     93  F   UNL A   1      40.687  35.389  39.594  1.00  0.00    -0.200 F 
ATOM     94  F   UNL A   1      38.537  33.811  40.149  1.00  0.00    -0.200 F 
ENDBRANCH  60  84
BRANCH  72  95
ATOM     95  C   UNL A   1      43.073  26.783  34.698  1.00  0.00     0.064 A 
ATOM     96  C   UNL A   1      42.105  25.827  35.050  1.00  0.00     0.173 A 
ATOM     97  C   UNL A   1      44.394  26.286  34.561  1.00  0.00     0.173 A 
ATOM     98  F   UNL A   1      40.804  26.140  35.104  1.00  0.00    -0.203 F 
ATOM     99  C   UNL A   1      42.439  24.493  35.297  1.00  0.00     0.198 A 
ATOM    100  C   UNL A   1      44.713  24.943  34.751  1.00  0.00     0.198 A 
ATOM    101  F   UNL A   1      45.411  27.085  34.207  1.00  0.00    -0.203 F 
ATOM    102  F   UNL A   1      41.484  23.628  35.667  1.00  0.00    -0.200 F 
ATOM    103  C   UNL A   1      43.739  24.047  35.135  1.00  0.00     0.200 A 
ATOM    104  F   UNL A   1      45.967  24.521  34.537  1.00  0.00    -0.200 F 
ATOM    105  F   UNL A   1      44.043  22.757  35.324  1.00  0.00    -0.200 F 
ENDBRANCH  72  95
ENDBRANCH  46  47
ENDBRANCH  38  41
ENDBRANCH  36  37
ENDBRANCH  35  36
ENDBRANCH  34  35
ENDBRANCH  33  34
ENDBRANCH   1  33
TORSDOF 17
ENDMDL
MODEL 2
REMARK VINA RESULT:     -12.9      3.061      5.655
REMARK SMILES COc1cc(Cl)c(C)cc1N1C(=O)C[C@H](Nc2cc(C(=O)NCCCCCCNC(=O)c3ccc(-c4c5nc(c(-c6c(F)c(F)c(F)c(F)c6F)c6ccc([nH]6)c(-c6c(F)c(F)c(F)c(F)c6F)c6nc(c(-c7c(F)c(F)c(F)c(F)c7F)c7ccc4[nH]7)C=C6)C=C5)cc3)ccc2C)C1=O
REMARK SMILES IDX 24 1 23 2 22 3 20 4 21 5 19 7 17 8 18 9 97 10 96 11 98 12
REMARK SMILES IDX 95 13 16 14 15 16 11 17 12 18 99 19 13 20 14 21 100 22 10 23
REMARK SMILES IDX 3 24 4 25 5 26 9 27 6 28 7 29 8 30 2 31 1 32 25 33 26 34
REMARK SMILES IDX 27 35 28 36 29 37 30 38 31 40 32 41 33 42 94 43 34 44 93 45
REMARK SMILES IDX 35 46 36 47 37 48 87 49 38 50 92 51 86 52 88 53 39 54 91 55
REMARK SMILES IDX 85 56 84 57 40 59 72 60 52 61 71 62 53 63 56 64 70 65 89 66
REMARK SMILES IDX 54 67 55 68 69 70 90 71 57 72 41 73 42 74 50 75 43 76 44 77
REMARK SMILES IDX 48 78 51 79 45 80 46 81 49 82 47 83 73 84 74 85 82 86 75 87
REMARK SMILES IDX 76 88 80 89 83 90 77 91 78 92 81 93 79 94 58 95 59 96 67 97
REMARK SMILES IDX 60 98 61 99 65 100 68 101 62 102 63 103 66 104 64 105
REMARK H PARENT 22 6 16 15 29 39 88 58 56 69
REMARK Flexibility Score: inf
ROOT
ATOM      1  C   UNL A   1      30.713  26.693  26.701  1.00  0.00     0.021 C 
ENDROOT
BRANCH   1   2
ATOM      2  C   UNL A   1      31.359  25.314  26.813  1.00  0.00     0.116 C 
BRANCH   2   3
ATOM      3  N   UNL A   1      30.433  24.200  26.735  1.00  0.00    -0.352 N 
ATOM      4  C   UNL A   1      30.654  22.870  26.455  1.00  0.00     0.251 C 
ATOM      5  O   UNL A   1      29.690  22.105  26.455  1.00  0.00    -0.269 OA
ATOM      6  H   UNL A   1      29.492  24.433  26.911  1.00  0.00     0.163 HD
BRANCH   4   7
ATOM      7  C   UNL A   1      31.999  22.332  26.103  1.00  0.00     0.041 A 
ATOM      8  C   UNL A   1      34.322  22.599  25.390  1.00  0.00     0.038 A 
ATOM      9  C   UNL A   1      33.109  23.140  25.841  1.00  0.00     0.039 A 
ATOM     10  C   UNL A   1      34.445  21.199  25.295  1.00  0.00    -0.028 A 
ATOM     11  C   UNL A   1      33.369  20.380  25.670  1.00  0.00     0.006 A 
ATOM     12  C   UNL A   1      35.742  20.537  24.904  1.00  0.00     0.046 C 
ATOM     13  C   UNL A   1      32.151  20.943  26.052  1.00  0.00     0.014 A 
BRANCH   8  14
ATOM     14  N   UNL A   1      35.351  23.411  24.934  1.00  0.00    -0.373 N 
ATOM     15  H   UNL A   1      36.244  23.305  25.333  1.00  0.00     0.161 HD
BRANCH  14  16
ATOM     16  C   UNL A   1      35.172  24.414  23.892  1.00  0.00     0.179 C 
ATOM     17  N   UNL A   1      33.326  25.639  23.137  1.00  0.00    -0.245 N 
ATOM     18  C   UNL A   1      33.519  24.657  22.198  1.00  0.00     0.236 C 
ATOM     19  C   UNL A   1      34.146  25.486  24.233  1.00  0.00     0.256 C 
ATOM     20  O   UNL A   1      32.940  24.514  21.130  1.00  0.00    -0.274 OA
ATOM     21  C   UNL A   1      34.603  23.738  22.657  1.00  0.00     0.136 C 
ATOM     22  O   UNL A   1      34.071  26.062  25.312  1.00  0.00    -0.272 OA
BRANCH  17  23
ATOM     23  C   UNL A   1      32.377  26.677  22.987  1.00  0.00     0.094 A 
ATOM     24  C   UNL A   1      32.738  27.952  22.524  1.00  0.00     0.144 A 
ATOM     25  C   UNL A   1      31.771  28.950  22.366  1.00  0.00     0.069 A 
ATOM     26  C   UNL A   1      30.432  28.685  22.664  1.00  0.00     0.047 A 
ATOM     27  C   UNL A   1      31.023  26.425  23.269  1.00  0.00     0.035 A 
ATOM     28  Cl  UNL A   1      29.283  29.950  22.414  1.00  0.00    -0.084 Cl
ATOM     29  C   UNL A   1      30.044  27.426  23.141  1.00  0.00    -0.030 A 
ATOM     30  C   UNL A   1      28.619  27.116  23.511  1.00  0.00     0.046 C 
BRANCH  24  31
ATOM     31  O   UNL A   1      34.019  28.294  22.176  1.00  0.00    -0.495 OA
ATOM     32  C   UNL A   1      34.682  29.020  23.213  1.00  0.00     0.278 C 
ENDBRANCH  24  31
ENDBRANCH  17  23
ENDBRANCH  14  16
ENDBRANCH   8  14
ENDBRANCH   4   7
ENDBRANCH   2   3
ENDBRANCH   1   2
BRANCH   1  33
ATOM     33  C   UNL A   1      31.483  27.897  27.254  1.00  0.00     0.002 C 
BRANCH  33  34
ATOM     34  C   UNL A   1      31.780  29.069  26.308  1.00  0.00     0.002 C 
BRANCH  34  35
ATOM     35  C   UNL A   1      32.382  30.334  26.920  1.00  0.00     0.021 C 
BRANCH  35  36
ATOM     36  C   UNL A   1      33.876  30.280  27.208  1.00  0.00     0.116 C 
BRANCH  36  37
ATOM     37  N   UNL A   1      34.357  31.276  28.157  1.00  0.00    -0.352 N 
ATOM     38  C   UNL A   1      35.453  31.227  29.010  1.00  0.00     0.251 C 
ATOM     39  H   UNL A   1      33.829  32.106  28.199  1.00  0.00     0.163 HD
ATOM     40  O   UNL A   1      35.673  32.136  29.783  1.00  0.00    -0.269 OA
BRANCH  38  41
ATOM     41  C   UNL A   1      36.431  30.113  28.873  1.00  0.00     0.039 A 
ATOM     42  C   UNL A   1      36.662  29.298  29.990  1.00  0.00     0.014 A 
ATOM     43  C   UNL A   1      37.244  30.002  27.752  1.00  0.00     0.014 A 
ATOM     44  C   UNL A   1      37.852  28.575  30.075  1.00  0.00     0.010 A 
ATOM     45  C   UNL A   1      38.472  29.388  27.881  1.00  0.00     0.010 A 
ATOM     46  C   UNL A   1      38.803  28.729  29.069  1.00  0.00    -0.014 A 
BRANCH  46  47
ATOM     47  C   UNL A   1      40.205  28.356  29.215  1.00  0.00     0.031 A 
ATOM     48  C   UNL A   1      40.721  27.102  28.628  1.00  0.00     0.074 A 
ATOM     49  C   UNL A   1      41.063  29.251  29.757  1.00  0.00     0.049 A 
ATOM     50  N   UNL A   1      41.816  26.526  29.000  1.00  0.00    -0.248 NA
ATOM     51  C   UNL A   1      40.021  26.369  27.581  1.00  0.00     0.031 C 
ATOM     52  C   UNL A   1      42.521  29.236  29.672  1.00  0.00     0.029 A 
ATOM     53  N   UNL A   1      40.776  30.293  30.657  1.00  0.00    -0.354 N 
ATOM     54  C   UNL A   1      42.105  25.534  28.091  1.00  0.00     0.074 A 
ATOM     55  C   UNL A   1      40.925  25.439  27.260  1.00  0.00     0.031 C 
ATOM     56  C   UNL A   1      43.022  29.991  30.662  1.00  0.00     0.029 A 
ATOM     57  C   UNL A   1      41.907  30.389  31.501  1.00  0.00     0.049 A 
ATOM     58  H   UNL A   1      39.960  30.841  30.692  1.00  0.00     0.167 HD
ATOM     59  C   UNL A   1      43.361  24.998  28.067  1.00  0.00     0.037 A 
ATOM     60  C   UNL A   1      41.824  30.151  32.842  1.00  0.00     0.037 A 
ATOM     61  C   UNL A   1      44.198  25.579  29.113  1.00  0.00     0.049 A 
ATOM     62  C   UNL A   1      42.711  29.029  33.325  1.00  0.00     0.074 A 
ATOM     63  C   UNL A   1      45.136  26.599  29.098  1.00  0.00     0.029 A 
ATOM     64  N   UNL A   1      43.910  25.327  30.450  1.00  0.00    -0.354 N 
ATOM     65  N   UNL A   1      43.199  28.107  32.542  1.00  0.00    -0.248 NA
ATOM     66  C   UNL A   1      43.094  28.836  34.720  1.00  0.00     0.031 C 
ATOM     67  C   UNL A   1      45.390  26.982  30.435  1.00  0.00     0.029 A 
ATOM     68  C   UNL A   1      44.620  26.186  31.264  1.00  0.00     0.049 A 
ATOM     69  H   UNL A   1      43.289  24.633  30.769  1.00  0.00     0.167 HD
ATOM     70  C   UNL A   1      43.917  27.208  33.286  1.00  0.00     0.074 A 
ATOM     71  C   UNL A   1      43.837  27.717  34.641  1.00  0.00     0.031 C 
ATOM     72  C   UNL A   1      44.506  26.118  32.711  1.00  0.00     0.037 A 
BRANCH  59  73
ATOM     73  C   UNL A   1      43.925  24.171  26.928  1.00  0.00     0.064 A 
ATOM     74  C   UNL A   1      43.536  22.823  26.750  1.00  0.00     0.173 A 
ATOM     75  C   UNL A   1      44.885  24.625  26.007  1.00  0.00     0.173 A 
ATOM     76  F   UNL A   1      42.544  22.276  27.465  1.00  0.00    -0.203 F 
ATOM     77  C   UNL A   1      44.150  21.974  25.824  1.00  0.00     0.198 A 
ATOM     78  C   UNL A   1      45.539  23.765  25.116  1.00  0.00     0.198 A 
ATOM     79  F   UNL A   1      45.177  25.926  25.890  1.00  0.00    -0.203 F 
ATOM     80  F   UNL A   1      43.744  20.702  25.715  1.00  0.00    -0.200 F 
ATOM     81  C   UNL A   1      45.182  22.435  25.036  1.00  0.00     0.200 A 
ATOM     82  F   UNL A   1      46.518  24.240  24.333  1.00  0.00    -0.200 F 
ATOM     83  F   UNL A   1      45.805  21.613  24.182  1.00  0.00    -0.200 F 
ENDBRANCH  59  73
BRANCH  60  84
ATOM     84  C   UNL A   1      40.501  30.501  33.416  1.00  0.00     0.064 A 
ATOM     85  C   UNL A   1      40.210  31.862  33.624  1.00  0.00     0.173 A 
ATOM     86  C   UNL A   1      39.425  29.606  33.368  1.00  0.00     0.173 A 
ATOM     87  F   UNL A   1      41.209  32.758  33.677  1.00  0.00    -0.203 F 
ATOM     88  C   UNL A   1      38.897  32.323  33.659  1.00  0.00     0.198 A 
ATOM     89  C   UNL A   1      38.110  30.072  33.412  1.00  0.00     0.198 A 
ATOM     90  F   UNL A   1      39.640  28.300  33.152  1.00  0.00    -0.203 F 
ATOM     91  F   UNL A   1      38.652  33.639  33.748  1.00  0.00    -0.200 F 
ATOM     92  C   UNL A   1      37.848  31.431  33.521  1.00  0.00     0.200 A 
ATOM     93  F   UNL A   1      37.093  29.213  33.250  1.00  0.00    -0.200 F 
ATOM     94  F   UNL A   1      36.587  31.881  33.454  1.00  0.00    -0.200 F 
ENDBRANCH  60  84
BRANCH  72  95
ATOM     95  C   UNL A   1      45.111  24.936  33.430  1.00  0.00     0.064 A 
ATOM     96  C   UNL A   1      44.406  23.764  33.749  1.00  0.00     0.173 A 
ATOM     97  C   UNL A   1      46.505  24.893  33.686  1.00  0.00     0.173 A 
ATOM     98  F   UNL A   1      43.105  23.631  33.455  1.00  0.00    -0.203 F 
ATOM     99  C   UNL A   1      45.033  22.657  34.328  1.00  0.00     0.198 A 
ATOM    100  C   UNL A   1      47.137  23.765  34.209  1.00  0.00     0.198 A 
ATOM    101  F   UNL A   1      47.303  25.933  33.408  1.00  0.00    -0.203 F 
ATOM    102  F   UNL A   1      44.307  21.577  34.648  1.00  0.00    -0.200 F 
ATOM    103  C   UNL A   1      46.399  22.651  34.545  1.00  0.00     0.200 A 
ATOM    104  F   UNL A   1      48.469  23.760  34.363  1.00  0.00    -0.200 F 
ATOM    105  F   UNL A   1      47.001  21.569  35.053  1.00  0.00    -0.200 F 
ENDBRANCH  72  95
ENDBRANCH  46  47
ENDBRANCH  38  41
ENDBRANCH  36  37
ENDBRANCH  35  36
ENDBRANCH  34  35
ENDBRANCH  33  34
ENDBRANCH   1  33
TORSDOF 17
ENDMDL
MODEL 3
REMARK VINA RESULT:     -12.8      5.037     10.520
REMARK SMILES COc1cc(Cl)c(C)cc1N1C(=O)C[C@H](Nc2cc(C(=O)NCCCCCCNC(=O)c3ccc(-c4c5nc(c(-c6c(F)c(F)c(F)c(F)c6F)c6ccc([nH]6)c(-c6c(F)c(F)c(F)c(F)c6F)c6nc(c(-c7c(F)c(F)c(F)c(F)c7F)c7ccc4[nH]7)C=C6)C=C5)cc3)ccc2C)C1=O
REMARK SMILES IDX 24 1 23 2 22 3 20 4 21 5 19 7 17 8 18 9 97 10 96 11 98 12
REMARK SMILES IDX 95 13 16 14 15 16 11 17 12 18 99 19 13 20 14 21 100 22 10 23
REMARK SMILES IDX 3 24 4 25 5 26 9 27 6 28 7 29 8 30 2 31 1 32 25 33 26 34
REMARK SMILES IDX 27 35 28 36 29 37 30 38 31 40 32 41 33 42 94 43 34 44 93 45
REMARK SMILES IDX 35 46 36 47 37 48 87 49 38 50 92 51 86 52 88 53 39 54 91 55
REMARK SMILES IDX 85 56 84 57 40 59 72 60 52 61 71 62 53 63 56 64 70 65 89 66
REMARK SMILES IDX 54 67 55 68 69 70 90 71 57 72 41 73 42 74 50 75 43 76 44 77
REMARK SMILES IDX 48 78 51 79 45 80 46 81 49 82 47 83 73 84 74 85 82 86 75 87
REMARK SMILES IDX 76 88 80 89 83 90 77 91 78 92 81 93 79 94 58 95 59 96 67 97
REMARK SMILES IDX 60 98 61 99 65 100 68 101 62 102 63 103 66 104 64 105
REMARK H PARENT 22 6 16 15 29 39 88 58 56 69
REMARK Flexibility Score: inf
ROOT
ATOM      1  C   UNL A   1      38.795  23.552  25.799  1.00  0.00     0.021 C 
ENDROOT
BRANCH   1   2
ATOM      2  C   UNL A   1      37.393  23.055  25.451  1.00  0.00     0.116 C 
BRANCH   2   3
ATOM      3  N   UNL A   1      36.426  23.159  26.527  1.00  0.00    -0.352 N 
ATOM      4  C   UNL A   1      35.085  22.845  26.559  1.00  0.00     0.251 C 
ATOM      5  O   UNL A   1      34.471  23.020  27.611  1.00  0.00    -0.269 OA
ATOM      6  H   UNL A   1      36.787  23.512  27.373  1.00  0.00     0.163 HD
BRANCH   4   7
ATOM      7  C   UNL A   1      34.342  22.355  25.364  1.00  0.00     0.041 A 
ATOM      8  C   UNL A   1      33.292  22.680  23.181  1.00  0.00     0.038 A 
ATOM      9  C   UNL A   1      34.104  23.136  24.229  1.00  0.00     0.039 A 
ATOM     10  C   UNL A   1      32.788  21.366  23.236  1.00  0.00    -0.028 A 
ATOM     11  C   UNL A   1      33.123  20.539  24.319  1.00  0.00     0.006 A 
ATOM     12  C   UNL A   1      31.983  20.772  22.109  1.00  0.00     0.046 C 
ATOM     13  C   UNL A   1      33.878  21.036  25.383  1.00  0.00     0.014 A 
BRANCH   8  14
ATOM     14  N   UNL A   1      32.887  23.527  22.159  1.00  0.00    -0.373 N 
ATOM     15  H   UNL A   1      33.330  23.449  21.283  1.00  0.00     0.161 HD
BRANCH  14  16
ATOM     16  C   UNL A   1      31.840  24.527  22.319  1.00  0.00     0.179 C 
ATOM     17  N   UNL A   1      31.506  26.280  23.834  1.00  0.00    -0.245 N 
ATOM     18  C   UNL A   1      30.656  25.283  24.240  1.00  0.00     0.236 C 
ATOM     19  C   UNL A   1      32.341  25.876  22.816  1.00  0.00     0.256 C 
ATOM     20  O   UNL A   1      29.811  25.327  25.123  1.00  0.00    -0.274 OA
ATOM     21  C   UNL A   1      30.887  24.064  23.407  1.00  0.00     0.136 C 
ATOM     22  O   UNL A   1      33.335  26.452  22.388  1.00  0.00    -0.272 OA
BRANCH  17  23
ATOM     23  C   UNL A   1      31.521  27.568  24.417  1.00  0.00     0.094 A 
ATOM     24  C   UNL A   1      30.818  28.646  23.856  1.00  0.00     0.144 A 
ATOM     25  C   UNL A   1      30.836  29.902  24.469  1.00  0.00     0.069 A 
ATOM     26  C   UNL A   1      31.551  30.096  25.652  1.00  0.00     0.047 A 
ATOM     27  C   UNL A   1      32.224  27.779  25.616  1.00  0.00     0.035 A 
ATOM     28  Cl  UNL A   1      31.503  31.663  26.378  1.00  0.00    -0.084 Cl
ATOM     29  C   UNL A   1      32.273  29.043  26.229  1.00  0.00    -0.030 A 
ATOM     30  C   UNL A   1      33.088  29.225  27.481  1.00  0.00     0.046 C 
BRANCH  24  31
ATOM     31  O   UNL A   1      30.063  28.541  22.716  1.00  0.00    -0.495 OA
ATOM     32  C   UNL A   1      28.732  29.028  22.907  1.00  0.00     0.278 C 
ENDBRANCH  24  31
ENDBRANCH  17  23
ENDBRANCH  14  16
ENDBRANCH   8  14
ENDBRANCH   4   7
ENDBRANCH   2   3
ENDBRANCH   1   2
BRANCH   1  33
ATOM     33  C   UNL A   1      39.494  22.943  27.019  1.00  0.00     0.002 C 
BRANCH  33  34
ATOM     34  C   UNL A   1      41.027  22.866  27.018  1.00  0.00     0.002 C 
BRANCH  34  35
ATOM     35  C   UNL A   1      41.681  21.848  26.083  1.00  0.00     0.021 C 
BRANCH  35  36
ATOM     36  C   UNL A   1      42.704  22.413  25.108  1.00  0.00     0.116 C 
BRANCH  36  37
ATOM     37  N   UNL A   1      43.838  21.540  24.829  1.00  0.00    -0.352 N 
ATOM     38  C   UNL A   1      45.181  21.706  25.146  1.00  0.00     0.251 C 
ATOM     39  H   UNL A   1      43.620  20.710  24.346  1.00  0.00     0.163 HD
ATOM     40  O   UNL A   1      46.005  20.895  24.779  1.00  0.00    -0.269 OA
BRANCH  38  41
ATOM     41  C   UNL A   1      45.580  22.816  26.053  1.00  0.00     0.039 A 
ATOM     42  C   UNL A   1      45.376  22.648  27.430  1.00  0.00     0.014 A 
ATOM     43  C   UNL A   1      45.949  24.059  25.553  1.00  0.00     0.014 A 
ATOM     44  C   UNL A   1      45.286  23.771  28.251  1.00  0.00     0.010 A 
ATOM     45  C   UNL A   1      45.742  25.176  26.334  1.00  0.00     0.010 A 
ATOM     46  C   UNL A   1      45.346  25.034  27.667  1.00  0.00    -0.014 A 
BRANCH  46  47
ATOM     47  C   UNL A   1      44.889  26.253  28.324  1.00  0.00     0.031 A 
ATOM     48  C   UNL A   1      43.499  26.727  28.163  1.00  0.00     0.074 A 
ATOM     49  C   UNL A   1      45.710  26.861  29.211  1.00  0.00     0.049 A 
ATOM     50  N   UNL A   1      43.115  27.937  28.394  1.00  0.00    -0.248 NA
ATOM     51  C   UNL A   1      42.418  25.868  27.694  1.00  0.00     0.031 C 
ATOM     52  C   UNL A   1      45.339  27.849  30.221  1.00  0.00     0.029 A 
ATOM     53  N   UNL A   1      47.115  26.817  29.266  1.00  0.00    -0.354 N 
ATOM     54  C   UNL A   1      41.738  27.959  28.375  1.00  0.00     0.074 A 
ATOM     55  C   UNL A   1      41.356  26.657  27.877  1.00  0.00     0.031 C 
ATOM     56  C   UNL A   1      46.438  28.524  30.594  1.00  0.00     0.029 A 
ATOM     57  C   UNL A   1      47.518  28.093  29.726  1.00  0.00     0.049 A 
ATOM     58  H   UNL A   1      47.696  26.058  29.032  1.00  0.00     0.167 HD
ATOM     59  C   UNL A   1      41.082  29.032  28.907  1.00  0.00     0.037 A 
ATOM     60  C   UNL A   1      48.273  28.928  28.955  1.00  0.00     0.037 A 
ATOM     61  C   UNL A   1      42.026  30.043  29.377  1.00  0.00     0.049 A 
ATOM     62  C   UNL A   1      47.621  30.259  28.670  1.00  0.00     0.074 A 
ATOM     63  C   UNL A   1      42.541  30.325  30.632  1.00  0.00     0.029 A 
ATOM     64  N   UNL A   1      42.810  30.736  28.462  1.00  0.00    -0.354 N 
ATOM     65  N   UNL A   1      46.338  30.472  28.774  1.00  0.00    -0.248 NA
ATOM     66  C   UNL A   1      48.347  31.442  28.217  1.00  0.00     0.031 C 
ATOM     67  C   UNL A   1      43.663  31.170  30.466  1.00  0.00     0.029 A 
ATOM     68  C   UNL A   1      43.821  31.415  29.113  1.00  0.00     0.049 A 
ATOM     69  H   UNL A   1      42.664  30.742  27.489  1.00  0.00     0.167 HD
ATOM     70  C   UNL A   1      46.056  31.759  28.398  1.00  0.00     0.074 A 
ATOM     71  C   UNL A   1      47.348  32.332  28.075  1.00  0.00     0.031 C 
ATOM     72  C   UNL A   1      44.774  32.230  28.380  1.00  0.00     0.037 A 
BRANCH  59  73
ATOM     73  C   UNL A   1      39.610  29.049  29.272  1.00  0.00     0.064 A 
ATOM     74  C   UNL A   1      38.633  29.427  28.322  1.00  0.00     0.173 A 
ATOM     75  C   UNL A   1      39.097  28.753  30.547  1.00  0.00     0.173 A 
ATOM     76  F   UNL A   1      38.942  29.622  27.033  1.00  0.00    -0.203 F 
ATOM     77  C   UNL A   1      37.290  29.622  28.656  1.00  0.00     0.198 A 
ATOM     78  C   UNL A   1      37.763  28.997  30.896  1.00  0.00     0.198 A 
ATOM     79  F   UNL A   1      39.850  28.156  31.479  1.00  0.00    -0.203 F 
ATOM     80  F   UNL A   1      36.416  29.995  27.710  1.00  0.00    -0.200 F 
ATOM     81  C   UNL A   1      36.862  29.447  29.954  1.00  0.00     0.200 A 
ATOM     82  F   UNL A   1      37.359  28.789  32.158  1.00  0.00    -0.200 F 
ATOM     83  F   UNL A   1      35.586  29.678  30.287  1.00  0.00    -0.200 F 
ENDBRANCH  59  73
BRANCH  60  84
ATOM     84  C   UNL A   1      49.183  28.207  28.032  1.00  0.00     0.064 A 
ATOM     85  C   UNL A   1      50.409  27.741  28.542  1.00  0.00     0.173 A 
ATOM     86  C   UNL A   1      48.713  27.633  26.845  1.00  0.00     0.173 A 
ATOM     87  F   UNL A   1      50.900  28.261  29.679  1.00  0.00    -0.203 F 
ATOM     88  C   UNL A   1      51.073  26.665  27.959  1.00  0.00     0.198 A 
ATOM     89  C   UNL A   1      49.386  26.560  26.258  1.00  0.00     0.198 A 
ATOM     90  F   UNL A   1      47.542  28.023  26.322  1.00  0.00    -0.203 F 
ATOM     91  F   UNL A   1      52.180  26.172  28.532  1.00  0.00    -0.200 F 
ATOM     92  C   UNL A   1      50.543  26.055  26.835  1.00  0.00     0.200 A 
ATOM     93  F   UNL A   1      48.860  25.949  25.186  1.00  0.00    -0.200 F 
ATOM     94  F   UNL A   1      51.124  24.957  26.330  1.00  0.00    -0.200 F 
ENDBRANCH  60  84
BRANCH  72  95
ATOM     95  C   UNL A   1      44.297  33.526  27.767  1.00  0.00     0.064 A 
ATOM     96  C   UNL A   1      43.873  33.656  26.435  1.00  0.00     0.173 A 
ATOM     97  C   UNL A   1      44.105  34.672  28.579  1.00  0.00     0.173 A 
ATOM     98  F   UNL A   1      43.895  32.615  25.591  1.00  0.00    -0.203 F 
ATOM     99  C   UNL A   1      43.348  34.852  25.938  1.00  0.00     0.198 A 
ATOM    100  C   UNL A   1      43.527  35.844  28.096  1.00  0.00     0.198 A 
ATOM    101  F   UNL A   1      44.445  34.679  29.876  1.00  0.00    -0.203 F 
ATOM    102  F   UNL A   1      42.992  34.936  24.649  1.00  0.00    -0.200 F 
ATOM    103  C   UNL A   1      43.162  35.941  26.771  1.00  0.00     0.200 A 
ATOM    104  F   UNL A   1      43.307  36.870  28.930  1.00  0.00    -0.200 F 
ATOM    105  F   UNL A   1      42.612  37.068  26.302  1.00  0.00    -0.200 F 
ENDBRANCH  72  95
ENDBRANCH  46  47
ENDBRANCH  38  41
ENDBRANCH  36  37
ENDBRANCH  35  36
ENDBRANCH  34  35
ENDBRANCH  33  34
ENDBRANCH   1  33
TORSDOF 17
ENDMDL
