MODEL 1
REMARK VINA RESULT:     -10.9      0.000      0.000
REMARK SMILES Cc1cccc(S(=O)(=O)Nc2cc(C(=O)NCCCCCCNC(=O)c3ccc(-c4c5nc(c(-c6c(F)c(F)c(F)c(F)c6F)c6ccc([nH]6)c(-c6c(F)c(F)c(F)c(F)c6F)c6nc(c(-c7c(F)c(F)c(F)c(F)c7F)c7ccc4[nH]7)C=C6)C=C5)cc3)ccc2N2CCC[C@H](C[NH+]3CCCC3)C2)c1
REMARK SMILES IDX 19 1 18 2 17 3 16 4 14 5 15 6 13 8 11 9 12 10 91 11 90 12
REMARK SMILES IDX 89 13 10 14 7 16 8 17 9 18 6 19 1 20 2 21 3 22 104 23 4 24
REMARK SMILES IDX 5 25 92 26 93 27 103 28 94 29 96 30 95 31 97 32 98 33 99 34
REMARK SMILES IDX 102 35 100 37 101 38 20 39 21 40 22 41 23 42 24 43 25 45
REMARK SMILES IDX 26 46 27 47 88 48 28 49 87 50 29 51 30 52 31 53 81 54 32 55
REMARK SMILES IDX 86 56 80 57 82 58 33 59 85 60 79 61 78 62 34 64 66 65 46 66
REMARK SMILES IDX 65 67 47 68 50 69 64 70 83 71 48 72 49 73 63 75 84 76 51 77
REMARK SMILES IDX 35 78 36 79 44 80 37 81 38 82 42 83 45 84 39 85 40 86 43 87
REMARK SMILES IDX 41 88 67 89 68 90 76 91 69 92 70 93 74 94 77 95 71 96 72 97
REMARK SMILES IDX 75 98 73 99 52 100 53 101 61 102 54 103 55 104 59 105 62 106
REMARK SMILES IDX 56 107 57 108 60 109 58 110
REMARK H PARENT 16 7 10 15 98 36 23 44 82 63 50 74
REMARK Flexibility Score: inf
ROOT
ATOM      1  C   UNL A   1      48.305  30.563  27.970  1.00  0.00     0.002 C 
ENDROOT
BRANCH   1   2
ATOM      2  C   UNL A   1      47.199  29.545  27.666  1.00  0.00     0.021 C 
BRANCH   2   3
ATOM      3  C   UNL A   1      47.422  28.769  26.368  1.00  0.00     0.116 C 
BRANCH   3   4
ATOM      4  N   UNL A   1      48.297  27.632  26.586  1.00  0.00    -0.352 N 
ATOM      5  C   UNL A   1      48.057  26.296  26.781  1.00  0.00     0.251 C 
ATOM      6  O   UNL A   1      49.030  25.549  26.883  1.00  0.00    -0.269 OA
ATOM      7  H   UNL A   1      49.253  27.867  26.597  1.00  0.00     0.163 HD
BRANCH   5   8
ATOM      8  C   UNL A   1      46.693  25.703  26.798  1.00  0.00     0.042 A 
ATOM      9  C   UNL A   1      44.356  25.631  26.193  1.00  0.00     0.073 A 
ATOM     10  C   UNL A   1      45.553  26.342  26.316  1.00  0.00     0.042 A 
ATOM     11  C   UNL A   1      44.206  24.337  26.735  1.00  0.00     0.061 A 
ATOM     12  C   UNL A   1      45.333  23.747  27.315  1.00  0.00     0.029 A 
ATOM     13  C   UNL A   1      46.567  24.405  27.317  1.00  0.00     0.016 A 
BRANCH   9  14
ATOM     14  N   UNL A   1      43.267  26.234  25.497  1.00  0.00    -0.277 N 
ATOM     15  H   UNL A   1      42.789  25.710  24.814  1.00  0.00     0.180 HD
BRANCH  14  16
ATOM     16  S   UNL A   1      42.771  27.826  25.810  1.00  0.00     0.261 S 
ATOM     17  O   UNL A   1      42.357  28.341  24.517  1.00  0.00    -0.201 OA
ATOM     18  O   UNL A   1      43.871  28.449  26.519  1.00  0.00    -0.201 OA
BRANCH  16  19
ATOM     19  C   UNL A   1      41.344  27.987  26.875  1.00  0.00     0.088 A 
ATOM     20  C   UNL A   1      39.176  26.076  29.354  1.00  0.00     0.044 C 
ATOM     21  C   UNL A   1      39.722  27.183  28.496  1.00  0.00    -0.050 A 
ATOM     22  C   UNL A   1      38.954  28.337  28.300  1.00  0.00     0.003 A 
ATOM     23  C   UNL A   1      40.957  27.050  27.834  1.00  0.00     0.025 A 
ATOM     24  C   UNL A   1      39.389  29.329  27.427  1.00  0.00     0.002 A 
ATOM     25  C   UNL A   1      40.564  29.144  26.698  1.00  0.00     0.022 A 
ENDBRANCH  16  19
ENDBRANCH  14  16
ENDBRANCH   9  14
BRANCH  11  26
ATOM     26  N   UNL A   1      42.998  23.663  26.765  1.00  0.00    -0.369 N 
ATOM     27  C   UNL A   1      42.183  23.766  27.973  1.00  0.00     0.116 C 
ATOM     28  C   UNL A   1      42.435  22.986  25.600  1.00  0.00     0.126 C 
ATOM     29  C   UNL A   1      41.692  22.380  28.381  1.00  0.00     0.022 C 
ATOM     30  C   UNL A   1      41.950  21.569  25.976  1.00  0.00     0.064 C 
ATOM     31  C   UNL A   1      41.026  21.668  27.205  1.00  0.00     0.013 C 
BRANCH  30  32
ATOM     32  C   UNL A   1      43.172  20.625  26.133  1.00  0.00     0.267 C 
BRANCH  32  33
ATOM     33  N   UNL A   1      43.985  20.268  24.968  1.00  0.00    -0.335 N 
ATOM     34  C   UNL A   1      44.290  18.849  24.813  1.00  0.00     0.262 C 
ATOM     35  C   UNL A   1      45.223  21.019  24.782  1.00  0.00     0.262 C 
ATOM     36  H   UNL A   1      43.332  20.548  24.235  1.00  0.00     0.348 HD
ATOM     37  C   UNL A   1      45.728  18.700  25.264  1.00  0.00     0.067 C 
ATOM     38  C   UNL A   1      46.369  20.017  24.864  1.00  0.00     0.067 C 
ENDBRANCH  32  33
ENDBRANCH  30  32
ENDBRANCH  11  26
ENDBRANCH   5   8
ENDBRANCH   3   4
ENDBRANCH   2   3
ENDBRANCH   1   2
BRANCH   1  39
ATOM     39  C   UNL A   1      47.856  32.032  28.077  1.00  0.00     0.002 C 
BRANCH  39  40
ATOM     40  C   UNL A   1      47.854  32.827  26.769  1.00  0.00     0.021 C 
BRANCH  40  41
ATOM     41  C   UNL A   1      47.265  34.226  26.905  1.00  0.00     0.116 C 
BRANCH  41  42
ATOM     42  N   UNL A   1      46.112  34.464  26.044  1.00  0.00    -0.352 N 
ATOM     43  C   UNL A   1      44.808  34.023  26.176  1.00  0.00     0.251 C 
ATOM     44  H   UNL A   1      46.289  35.020  25.251  1.00  0.00     0.163 HD
ATOM     45  O   UNL A   1      43.980  34.275  25.315  1.00  0.00    -0.269 OA
BRANCH  43  46
ATOM     46  C   UNL A   1      44.390  33.363  27.438  1.00  0.00     0.039 A 
ATOM     47  C   UNL A   1      44.155  31.983  27.405  1.00  0.00     0.014 A 
ATOM     48  C   UNL A   1      44.035  34.110  28.556  1.00  0.00     0.014 A 
ATOM     49  C   UNL A   1      43.336  31.408  28.373  1.00  0.00     0.010 A 
ATOM     50  C   UNL A   1      43.144  33.565  29.461  1.00  0.00     0.010 A 
ATOM     51  C   UNL A   1      42.735  32.235  29.322  1.00  0.00    -0.014 A 
BRANCH  51  52
ATOM     52  C   UNL A   1      41.576  31.837  30.114  1.00  0.00     0.031 A 
ATOM     53  C   UNL A   1      40.449  32.764  30.329  1.00  0.00     0.074 A 
ATOM     54  C   UNL A   1      41.491  30.559  30.551  1.00  0.00     0.049 A 
ATOM     55  N   UNL A   1      39.537  32.608  31.228  1.00  0.00    -0.248 NA
ATOM     56  C   UNL A   1      40.288  33.986  29.555  1.00  0.00     0.031 C 
ATOM     57  C   UNL A   1      40.311  29.871  31.070  1.00  0.00     0.029 A 
ATOM     58  N   UNL A   1      42.551  29.677  30.816  1.00  0.00    -0.354 N 
ATOM     59  C   UNL A   1      38.548  33.537  31.000  1.00  0.00     0.074 A 
ATOM     60  C   UNL A   1      39.091  34.404  29.980  1.00  0.00     0.031 C 
ATOM     61  C   UNL A   1      40.714  28.857  31.851  1.00  0.00     0.029 A 
ATOM     62  C   UNL A   1      42.156  28.965  31.975  1.00  0.00     0.049 A 
ATOM     63  H   UNL A   1      43.387  29.575  30.306  1.00  0.00     0.167 HD
ATOM     64  C   UNL A   1      37.345  33.393  31.631  1.00  0.00     0.037 A 
ATOM     65  C   UNL A   1      42.836  29.111  33.151  1.00  0.00     0.037 A 
ATOM     66  C   UNL A   1      37.379  32.304  32.609  1.00  0.00     0.049 A 
ATOM     67  C   UNL A   1      42.006  29.625  34.311  1.00  0.00     0.074 A 
ATOM     68  C   UNL A   1      36.950  30.988  32.622  1.00  0.00     0.029 A 
ATOM     69  N   UNL A   1      38.194  32.447  33.718  1.00  0.00    -0.354 N 
ATOM     70  N   UNL A   1      40.778  30.051  34.209  1.00  0.00    -0.248 NA
ATOM     71  C   UNL A   1      42.549  29.808  35.658  1.00  0.00     0.031 C 
ATOM     72  C   UNL A   1      37.529  30.342  33.753  1.00  0.00     0.029 A 
ATOM     73  C   UNL A   1      38.307  31.267  34.423  1.00  0.00     0.049 A 
ATOM     74  H   UNL A   1      38.638  33.289  33.972  1.00  0.00     0.167 HD
ATOM     75  C   UNL A   1      40.395  30.605  35.399  1.00  0.00     0.074 A 
ATOM     76  C   UNL A   1      41.532  30.428  36.280  1.00  0.00     0.031 C 
ATOM     77  C   UNL A   1      39.190  31.220  35.572  1.00  0.00     0.037 A 
BRANCH  64  78
ATOM     78  C   UNL A   1      36.066  34.091  31.216  1.00  0.00     0.064 A 
ATOM     79  C   UNL A   1      35.377  34.929  32.122  1.00  0.00     0.173 A 
ATOM     80  C   UNL A   1      35.432  33.941  29.969  1.00  0.00     0.173 A 
ATOM     81  F   UNL A   1      35.907  35.267  33.305  1.00  0.00    -0.203 F 
ATOM     82  C   UNL A   1      34.112  35.455  31.850  1.00  0.00     0.198 A 
ATOM     83  C   UNL A   1      34.141  34.416  29.717  1.00  0.00     0.198 A 
ATOM     84  F   UNL A   1      36.063  33.395  28.925  1.00  0.00    -0.203 F 
ATOM     85  F   UNL A   1      33.509  36.238  32.756  1.00  0.00    -0.200 F 
ATOM     86  C   UNL A   1      33.474  35.163  30.664  1.00  0.00     0.200 A 
ATOM     87  F   UNL A   1      33.552  34.149  28.542  1.00  0.00    -0.200 F 
ATOM     88  F   UNL A   1      32.240  35.626  30.421  1.00  0.00    -0.200 F 
ENDBRANCH  64  78
BRANCH  65  89
ATOM     89  C   UNL A   1      44.279  29.418  32.954  1.00  0.00     0.064 A 
ATOM     90  C   UNL A   1      45.187  28.350  32.807  1.00  0.00     0.173 A 
ATOM     91  C   UNL A   1      44.711  30.691  32.568  1.00  0.00     0.173 A 
ATOM     92  F   UNL A   1      44.824  27.106  33.160  1.00  0.00    -0.203 F 
ATOM     93  C   UNL A   1      46.421  28.531  32.188  1.00  0.00     0.198 A 
ATOM     94  C   UNL A   1      45.958  30.873  31.972  1.00  0.00     0.198 A 
ATOM     95  F   UNL A   1      43.890  31.746  32.661  1.00  0.00    -0.203 F 
ATOM     96  F   UNL A   1      47.213  27.474  31.953  1.00  0.00    -0.200 F 
ATOM     97  C   UNL A   1      46.796  29.788  31.750  1.00  0.00     0.200 A 
ATOM     98  F   UNL A   1      46.309  32.086  31.523  1.00  0.00    -0.200 F 
ATOM     99  F   UNL A   1      47.943  29.953  31.076  1.00  0.00    -0.200 F 
ENDBRANCH  65  89
BRANCH  77 100
ATOM    100  C   UNL A   1      38.767  31.841  36.866  1.00  0.00     0.064 A 
ATOM    101  C   UNL A   1      37.826  31.236  37.712  1.00  0.00     0.173 A 
ATOM    102  C   UNL A   1      39.213  33.125  37.239  1.00  0.00     0.173 A 
ATOM    103  F   UNL A   1      37.316  30.031  37.415  1.00  0.00    -0.203 F 
ATOM    104  C   UNL A   1      37.380  31.865  38.875  1.00  0.00     0.198 A 
ATOM    105  C   UNL A   1      38.730  33.772  38.373  1.00  0.00     0.198 A 
ATOM    106  F   UNL A   1      40.148  33.771  36.526  1.00  0.00    -0.203 F 
ATOM    107  F   UNL A   1      36.515  31.236  39.683  1.00  0.00    -0.200 F 
ATOM    108  C   UNL A   1      37.820  33.138  39.197  1.00  0.00     0.200 A 
ATOM    109  F   UNL A   1      39.154  35.010  38.665  1.00  0.00    -0.200 F 
ATOM    110  F   UNL A   1      37.373  33.750  40.302  1.00  0.00    -0.200 F 
ENDBRANCH  77 100
ENDBRANCH  51  52
ENDBRANCH  43  46
ENDBRANCH  41  42
ENDBRANCH  40  41
ENDBRANCH  39  40
ENDBRANCH   1  39
TORSDOF 19
ENDMDL
MODEL 2
REMARK VINA RESULT:     -10.9      1.869      2.502
REMARK SMILES Cc1cccc(S(=O)(=O)Nc2cc(C(=O)NCCCCCCNC(=O)c3ccc(-c4c5nc(c(-c6c(F)c(F)c(F)c(F)c6F)c6ccc([nH]6)c(-c6c(F)c(F)c(F)c(F)c6F)c6nc(c(-c7c(F)c(F)c(F)c(F)c7F)c7ccc4[nH]7)C=C6)C=C5)cc3)ccc2N2CCC[C@H](C[NH+]3CCCC3)C2)c1
REMARK SMILES IDX 19 1 18 2 17 3 16 4 14 5 15 6 13 8 11 9 12 10 91 11 90 12
REMARK SMILES IDX 89 13 10 14 7 16 8 17 9 18 6 19 1 20 2 21 3 22 104 23 4 24
REMARK SMILES IDX 5 25 92 26 93 27 103 28 94 29 96 30 95 31 97 32 98 33 99 34
REMARK SMILES IDX 102 35 100 37 101 38 20 39 21 40 22 41 23 42 24 43 25 45
REMARK SMILES IDX 26 46 27 47 88 48 28 49 87 50 29 51 30 52 31 53 81 54 32 55
REMARK SMILES IDX 86 56 80 57 82 58 33 59 85 60 79 61 78 62 34 64 66 65 46 66
REMARK SMILES IDX 65 67 47 68 50 69 64 70 83 71 48 72 49 73 63 75 84 76 51 77
REMARK SMILES IDX 35 78 36 79 44 80 37 81 38 82 42 83 45 84 39 85 40 86 43 87
REMARK SMILES IDX 41 88 67 89 68 90 76 91 69 92 70 93 74 94 77 95 71 96 72 97
REMARK SMILES IDX 75 98 73 99 52 100 53 101 61 102 54 103 55 104 59 105 62 106
REMARK SMILES IDX 56 107 57 108 60 109 58 110
REMARK H PARENT 16 7 10 15 98 36 23 44 82 63 50 74
REMARK Flexibility Score: inf
ROOT
ATOM      1  C   UNL A   1      46.571  29.188  28.242  1.00  0.00     0.002 C 
ENDROOT
BRANCH   1   2
ATOM      2  C   UNL A   1      46.313  28.751  29.689  1.00  0.00     0.021 C 
BRANCH   2   3
ATOM      3  C   UNL A   1      46.409  27.239  29.897  1.00  0.00     0.116 C 
BRANCH   3   4
ATOM      4  N   UNL A   1      45.860  26.855  31.184  1.00  0.00    -0.352 N 
ATOM      5  C   UNL A   1      44.847  26.006  31.547  1.00  0.00     0.251 C 
ATOM      6  O   UNL A   1      44.645  25.837  32.750  1.00  0.00    -0.269 OA
ATOM      7  H   UNL A   1      46.302  27.291  31.947  1.00  0.00     0.163 HD
BRANCH   5   8
ATOM      8  C   UNL A   1      44.039  25.227  30.570  1.00  0.00     0.042 A 
ATOM      9  C   UNL A   1      42.566  25.006  28.669  1.00  0.00     0.073 A 
ATOM     10  C   UNL A   1      43.129  25.791  29.678  1.00  0.00     0.042 A 
ATOM     11  C   UNL A   1      42.730  23.604  28.644  1.00  0.00     0.061 A 
ATOM     12  C   UNL A   1      43.561  23.036  29.614  1.00  0.00     0.029 A 
ATOM     13  C   UNL A   1      44.233  23.838  30.542  1.00  0.00     0.016 A 
BRANCH   9  14
ATOM     14  N   UNL A   1      41.814  25.645  27.640  1.00  0.00    -0.277 N 
ATOM     15  H   UNL A   1      42.284  25.973  26.838  1.00  0.00     0.180 HD
BRANCH  14  16
ATOM     16  S   UNL A   1      40.134  25.858  27.753  1.00  0.00     0.261 S 
ATOM     17  O   UNL A   1      39.712  24.898  28.757  1.00  0.00    -0.201 OA
ATOM     18  O   UNL A   1      39.633  25.755  26.397  1.00  0.00    -0.201 OA
BRANCH  16  19
ATOM     19  C   UNL A   1      39.605  27.455  28.355  1.00  0.00     0.088 A 
ATOM     20  C   UNL A   1      37.521  29.141  31.059  1.00  0.00     0.044 C 
ATOM     21  C   UNL A   1      38.422  28.939  29.873  1.00  0.00    -0.050 A 
ATOM     22  C   UNL A   1      38.676  30.018  29.017  1.00  0.00     0.003 A 
ATOM     23  C   UNL A   1      38.956  27.672  29.572  1.00  0.00     0.025 A 
ATOM     24  C   UNL A   1      39.419  29.831  27.856  1.00  0.00     0.002 A 
ATOM     25  C   UNL A   1      39.859  28.553  27.513  1.00  0.00     0.022 A 
ENDBRANCH  16  19
ENDBRANCH  14  16
ENDBRANCH   9  14
BRANCH  11  26
ATOM     26  N   UNL A   1      42.069  22.779  27.752  1.00  0.00    -0.369 N 
ATOM     27  C   UNL A   1      41.135  21.792  28.289  1.00  0.00     0.116 C 
ATOM     28  C   UNL A   1      42.145  22.951  26.303  1.00  0.00     0.126 C 
ATOM     29  C   UNL A   1      41.385  20.438  27.632  1.00  0.00     0.022 C 
ATOM     30  C   UNL A   1      42.420  21.599  25.609  1.00  0.00     0.064 C 
ATOM     31  C   UNL A   1      41.395  20.563  26.109  1.00  0.00     0.013 C 
BRANCH  30  32
ATOM     32  C   UNL A   1      43.911  21.210  25.802  1.00  0.00     0.267 C 
BRANCH  32  33
ATOM     33  N   UNL A   1      44.619  20.461  24.761  1.00  0.00    -0.335 N 
ATOM     34  C   UNL A   1      44.433  19.013  24.777  1.00  0.00     0.262 C 
ATOM     35  C   UNL A   1      46.047  20.731  24.620  1.00  0.00     0.262 C 
ATOM     36  H   UNL A   1      44.142  20.846  23.945  1.00  0.00     0.348 HD
ATOM     37  C   UNL A   1      45.707  18.455  25.376  1.00  0.00     0.067 C 
ATOM     38  C   UNL A   1      46.779  19.425  24.911  1.00  0.00     0.067 C 
ENDBRANCH  32  33
ENDBRANCH  30  32
ENDBRANCH  11  26
ENDBRANCH   5   8
ENDBRANCH   3   4
ENDBRANCH   2   3
ENDBRANCH   1   2
BRANCH   1  39
ATOM     39  C   UNL A   1      47.530  30.380  28.061  1.00  0.00     0.002 C 
BRANCH  39  40
ATOM     40  C   UNL A   1      47.415  31.135  26.733  1.00  0.00     0.021 C 
BRANCH  40  41
ATOM     41  C   UNL A   1      47.196  32.633  26.900  1.00  0.00     0.116 C 
BRANCH  41  42
ATOM     42  N   UNL A   1      45.991  33.127  26.243  1.00  0.00    -0.352 N 
ATOM     43  C   UNL A   1      44.663  32.930  26.575  1.00  0.00     0.251 C 
ATOM     44  H   UNL A   1      46.147  33.682  25.445  1.00  0.00     0.163 HD
ATOM     45  O   UNL A   1      43.776  33.377  25.865  1.00  0.00    -0.269 OA
BRANCH  43  46
ATOM     46  C   UNL A   1      44.327  32.292  27.871  1.00  0.00     0.039 A 
ATOM     47  C   UNL A   1      43.691  31.044  27.840  1.00  0.00     0.014 A 
ATOM     48  C   UNL A   1      44.437  32.995  29.067  1.00  0.00     0.014 A 
ATOM     49  C   UNL A   1      42.947  30.630  28.941  1.00  0.00     0.010 A 
ATOM     50  C   UNL A   1      43.622  32.635  30.124  1.00  0.00     0.010 A 
ATOM     51  C   UNL A   1      42.818  31.494  30.028  1.00  0.00    -0.014 A 
BRANCH  51  52
ATOM     52  C   UNL A   1      41.773  31.362  31.039  1.00  0.00     0.031 A 
ATOM     53  C   UNL A   1      40.618  32.279  31.061  1.00  0.00     0.074 A 
ATOM     54  C   UNL A   1      41.814  30.309  31.886  1.00  0.00     0.049 A 
ATOM     55  N   UNL A   1      39.815  32.417  32.061  1.00  0.00    -0.248 NA
ATOM     56  C   UNL A   1      40.302  33.160  29.946  1.00  0.00     0.031 C 
ATOM     57  C   UNL A   1      40.740  29.810  32.741  1.00  0.00     0.029 A 
ATOM     58  N   UNL A   1      42.949  29.596  32.305  1.00  0.00    -0.354 N 
ATOM     59  C   UNL A   1      38.751  33.188  31.653  1.00  0.00     0.074 A 
ATOM     60  C   UNL A   1      39.131  33.669  30.343  1.00  0.00     0.031 C 
ATOM     61  C   UNL A   1      41.284  29.133  33.764  1.00  0.00     0.029 A 
ATOM     62  C   UNL A   1      42.721  29.312  33.674  1.00  0.00     0.049 A 
ATOM     63  H   UNL A   1      43.734  29.346  31.764  1.00  0.00     0.167 HD
ATOM     64  C   UNL A   1      37.631  33.238  32.432  1.00  0.00     0.037 A 
ATOM     65  C   UNL A   1      43.508  29.866  34.643  1.00  0.00     0.037 A 
ATOM     66  C   UNL A   1      37.834  32.550  33.707  1.00  0.00     0.049 A 
ATOM     67  C   UNL A   1      42.771  30.725  35.652  1.00  0.00     0.074 A 
ATOM     68  C   UNL A   1      37.492  31.306  34.213  1.00  0.00     0.029 A 
ATOM     69  N   UNL A   1      38.747  33.082  34.600  1.00  0.00    -0.354 N 
ATOM     70  N   UNL A   1      41.514  31.060  35.559  1.00  0.00    -0.248 NA
ATOM     71  C   UNL A   1      43.436  31.369  36.786  1.00  0.00     0.031 C 
ATOM     72  C   UNL A   1      38.223  31.099  35.418  1.00  0.00     0.029 A 
ATOM     73  C   UNL A   1      39.006  32.215  35.642  1.00  0.00     0.049 A 
ATOM     74  H   UNL A   1      39.161  33.970  34.502  1.00  0.00     0.167 HD
ATOM     75  C   UNL A   1      41.220  31.977  36.530  1.00  0.00     0.074 A 
ATOM     76  C   UNL A   1      42.452  32.139  37.278  1.00  0.00     0.031 C 
ATOM     77  C   UNL A   1      40.004  32.584  36.628  1.00  0.00     0.037 A 
BRANCH  64  78
ATOM     78  C   UNL A   1      36.275  33.722  31.960  1.00  0.00     0.064 A 
ATOM     79  C   UNL A   1      35.670  33.159  30.813  1.00  0.00     0.173 A 
ATOM     80  C   UNL A   1      35.540  34.766  32.550  1.00  0.00     0.173 A 
ATOM     81  F   UNL A   1      36.183  32.080  30.207  1.00  0.00    -0.203 F 
ATOM     82  C   UNL A   1      34.509  33.683  30.239  1.00  0.00     0.198 A 
ATOM     83  C   UNL A   1      34.412  35.330  31.945  1.00  0.00     0.198 A 
ATOM     84  F   UNL A   1      35.840  35.231  33.766  1.00  0.00    -0.203 F 
ATOM     85  F   UNL A   1      33.989  33.106  29.147  1.00  0.00    -0.200 F 
ATOM     86  C   UNL A   1      33.903  34.796  30.781  1.00  0.00     0.200 A 
ATOM     87  F   UNL A   1      33.818  36.393  32.507  1.00  0.00    -0.200 F 
ATOM     88  F   UNL A   1      32.818  35.331  30.204  1.00  0.00    -0.200 F 
ENDBRANCH  64  78
BRANCH  65  89
ATOM     89  C   UNL A   1      44.900  30.123  34.186  1.00  0.00     0.064 A 
ATOM     90  C   UNL A   1      45.836  29.070  34.232  1.00  0.00     0.173 A 
ATOM     91  C   UNL A   1      45.221  31.238  33.404  1.00  0.00     0.173 A 
ATOM     92  F   UNL A   1      45.578  27.974  34.966  1.00  0.00    -0.203 F 
ATOM     93  C   UNL A   1      46.978  29.082  33.436  1.00  0.00     0.198 A 
ATOM     94  C   UNL A   1      46.379  31.257  32.627  1.00  0.00     0.198 A 
ATOM     95  F   UNL A   1      44.366  32.265  33.299  1.00  0.00    -0.203 F 
ATOM     96  F   UNL A   1      47.787  28.012  33.411  1.00  0.00    -0.200 F 
ATOM     97  C   UNL A   1      47.237  30.166  32.617  1.00  0.00     0.200 A 
ATOM     98  F   UNL A   1      46.614  32.295  31.813  1.00  0.00    -0.200 F 
ATOM     99  F   UNL A   1      48.286  30.146  31.784  1.00  0.00    -0.200 F 
ENDBRANCH  65  89
BRANCH  77 100
ATOM    100  C   UNL A   1      39.677  33.599  37.678  1.00  0.00     0.064 A 
ATOM    101  C   UNL A   1      38.876  33.293  38.787  1.00  0.00     0.173 A 
ATOM    102  C   UNL A   1      40.070  34.945  37.539  1.00  0.00     0.173 A 
ATOM    103  F   UNL A   1      38.422  32.045  38.980  1.00  0.00    -0.203 F 
ATOM    104  C   UNL A   1      38.512  34.270  39.715  1.00  0.00     0.198 A 
ATOM    105  C   UNL A   1      39.665  35.927  38.438  1.00  0.00     0.198 A 
ATOM    106  F   UNL A   1      40.876  35.335  36.540  1.00  0.00    -0.203 F 
ATOM    107  F   UNL A   1      37.783  33.930  40.788  1.00  0.00    -0.200 F 
ATOM    108  C   UNL A   1      38.893  35.588  39.533  1.00  0.00     0.200 A 
ATOM    109  F   UNL A   1      40.030  37.202  38.241  1.00  0.00    -0.200 F 
ATOM    110  F   UNL A   1      38.524  36.529  40.413  1.00  0.00    -0.200 F 
ENDBRANCH  77 100
ENDBRANCH  51  52
ENDBRANCH  43  46
ENDBRANCH  41  42
ENDBRANCH  40  41
ENDBRANCH  39  40
ENDBRANCH   1  39
TORSDOF 19
ENDMDL
MODEL 3
REMARK VINA RESULT:     -10.8      4.536      9.567
REMARK SMILES Cc1cccc(S(=O)(=O)Nc2cc(C(=O)NCCCCCCNC(=O)c3ccc(-c4c5nc(c(-c6c(F)c(F)c(F)c(F)c6F)c6ccc([nH]6)c(-c6c(F)c(F)c(F)c(F)c6F)c6nc(c(-c7c(F)c(F)c(F)c(F)c7F)c7ccc4[nH]7)C=C6)C=C5)cc3)ccc2N2CCC[C@H](C[NH+]3CCCC3)C2)c1
REMARK SMILES IDX 19 1 18 2 17 3 16 4 14 5 15 6 13 8 11 9 12 10 91 11 90 12
REMARK SMILES IDX 89 13 10 14 7 16 8 17 9 18 6 19 1 20 2 21 3 22 104 23 4 24
REMARK SMILES IDX 5 25 92 26 93 27 103 28 94 29 96 30 95 31 97 32 98 33 99 34
REMARK SMILES IDX 102 35 100 37 101 38 20 39 21 40 22 41 23 42 24 43 25 45
REMARK SMILES IDX 26 46 27 47 88 48 28 49 87 50 29 51 30 52 31 53 81 54 32 55
REMARK SMILES IDX 86 56 80 57 82 58 33 59 85 60 79 61 78 62 34 64 66 65 46 66
REMARK SMILES IDX 65 67 47 68 50 69 64 70 83 71 48 72 49 73 63 75 84 76 51 77
REMARK SMILES IDX 35 78 36 79 44 80 37 81 38 82 42 83 45 84 39 85 40 86 43 87
REMARK SMILES IDX 41 88 67 89 68 90 76 91 69 92 70 93 74 94 77 95 71 96 72 97
REMARK SMILES IDX 75 98 73 99 52 100 53 101 61 102 54 103 55 104 59 105 62 106
REMARK SMILES IDX 56 107 57 108 60 109 58 110
REMARK H PARENT 16 7 10 15 98 36 23 44 82 63 50 74
REMARK Flexibility Score: inf
ROOT
ATOM      1  C   UNL A   1      44.426  31.368  29.532  1.00  0.00     0.002 C 
ENDROOT
BRANCH   1   2
ATOM      2  C   UNL A   1      43.756  32.595  28.901  1.00  0.00     0.021 C 
BRANCH   2   3
ATOM      3  C   UNL A   1      43.414  33.691  29.910  1.00  0.00     0.116 C 
BRANCH   3   4
ATOM      4  N   UNL A   1      43.225  33.136  31.237  1.00  0.00    -0.352 N 
ATOM      5  C   UNL A   1      42.120  32.674  31.904  1.00  0.00     0.251 C 
ATOM      6  O   UNL A   1      42.288  32.198  33.027  1.00  0.00    -0.269 OA
ATOM      7  H   UNL A   1      44.056  33.081  31.762  1.00  0.00     0.163 HD
BRANCH   5   8
ATOM      8  C   UNL A   1      40.756  32.650  31.313  1.00  0.00     0.042 A 
ATOM      9  C   UNL A   1      39.044  31.767  29.856  1.00  0.00     0.073 A 
ATOM     10  C   UNL A   1      40.389  31.872  30.216  1.00  0.00     0.042 A 
ATOM     11  C   UNL A   1      38.055  32.587  30.441  1.00  0.00     0.061 A 
ATOM     12  C   UNL A   1      38.457  33.444  31.470  1.00  0.00     0.029 A 
ATOM     13  C   UNL A   1      39.780  33.452  31.922  1.00  0.00     0.016 A 
BRANCH   9  14
ATOM     14  N   UNL A   1      38.668  30.800  28.877  1.00  0.00    -0.277 N 
ATOM     15  H   UNL A   1      38.604  31.076  27.934  1.00  0.00     0.180 HD
BRANCH  14  16
ATOM     16  S   UNL A   1      38.328  29.189  29.288  1.00  0.00     0.261 S 
ATOM     17  O   UNL A   1      37.207  28.825  28.441  1.00  0.00    -0.201 OA
ATOM     18  O   UNL A   1      38.181  29.175  30.730  1.00  0.00    -0.201 OA
BRANCH  16  19
ATOM     19  C   UNL A   1      39.622  28.015  28.912  1.00  0.00     0.088 A 
ATOM     20  C   UNL A   1      40.235  24.432  27.780  1.00  0.00     0.044 C 
ATOM     21  C   UNL A   1      40.477  25.851  28.213  1.00  0.00    -0.050 A 
ATOM     22  C   UNL A   1      41.768  26.236  28.597  1.00  0.00     0.003 A 
ATOM     23  C   UNL A   1      39.420  26.775  28.304  1.00  0.00     0.025 A 
ATOM     24  C   UNL A   1      41.997  27.512  29.102  1.00  0.00     0.002 A 
ATOM     25  C   UNL A   1      40.927  28.388  29.283  1.00  0.00     0.022 A 
ENDBRANCH  16  19
ENDBRANCH  14  16
ENDBRANCH   9  14
BRANCH  11  26
ATOM     26  N   UNL A   1      36.742  32.617  30.009  1.00  0.00    -0.369 N 
ATOM     27  C   UNL A   1      36.483  32.988  28.619  1.00  0.00     0.116 C 
ATOM     28  C   UNL A   1      35.624  32.152  30.826  1.00  0.00     0.126 C 
ATOM     29  C   UNL A   1      35.354  34.012  28.562  1.00  0.00     0.022 C 
ATOM     30  C   UNL A   1      34.472  33.179  30.807  1.00  0.00     0.064 C 
ATOM     31  C   UNL A   1      34.135  33.526  29.344  1.00  0.00     0.013 C 
BRANCH  30  32
ATOM     32  C   UNL A   1      34.838  34.387  31.711  1.00  0.00     0.267 C 
BRANCH  32  33
ATOM     33  N   UNL A   1      33.782  35.196  32.325  1.00  0.00    -0.335 N 
ATOM     34  C   UNL A   1      32.879  35.874  31.401  1.00  0.00     0.262 C 
ATOM     35  C   UNL A   1      34.206  36.164  33.334  1.00  0.00     0.262 C 
ATOM     36  H   UNL A   1      33.272  34.450  32.798  1.00  0.00     0.348 HD
ATOM     37  C   UNL A   1      33.326  37.322  31.397  1.00  0.00     0.067 C 
ATOM     38  C   UNL A   1      33.831  37.547  32.810  1.00  0.00     0.067 C 
ENDBRANCH  32  33
ENDBRANCH  30  32
ENDBRANCH  11  26
ENDBRANCH   5   8
ENDBRANCH   3   4
ENDBRANCH   2   3
ENDBRANCH   1   2
BRANCH   1  39
ATOM     39  C   UNL A   1      45.444  30.627  28.645  1.00  0.00     0.002 C 
BRANCH  39  40
ATOM     40  C   UNL A   1      45.514  29.109  28.834  1.00  0.00     0.021 C 
BRANCH  40  41
ATOM     41  C   UNL A   1      46.927  28.547  28.735  1.00  0.00     0.116 C 
BRANCH  41  42
ATOM     42  N   UNL A   1      47.099  27.580  27.658  1.00  0.00    -0.352 N 
ATOM     43  C   UNL A   1      47.071  26.197  27.700  1.00  0.00     0.251 C 
ATOM     44  H   UNL A   1      47.261  27.969  26.768  1.00  0.00     0.163 HD
ATOM     45  O   UNL A   1      47.299  25.543  26.695  1.00  0.00    -0.269 OA
BRANCH  43  46
ATOM     46  C   UNL A   1      46.625  25.520  28.942  1.00  0.00     0.039 A 
ATOM     47  C   UNL A   1      45.370  24.897  28.931  1.00  0.00     0.014 A 
ATOM     48  C   UNL A   1      47.320  25.679  30.137  1.00  0.00     0.014 A 
ATOM     49  C   UNL A   1      44.709  24.675  30.136  1.00  0.00     0.010 A 
ATOM     50  C   UNL A   1      46.630  25.552  31.327  1.00  0.00     0.010 A 
ATOM     51  C   UNL A   1      45.298  25.123  31.318  1.00  0.00    -0.014 A 
BRANCH  51  52
ATOM     52  C   UNL A   1      44.558  25.314  32.562  1.00  0.00     0.031 A 
ATOM     53  C   UNL A   1      44.016  26.636  32.928  1.00  0.00     0.074 A 
ATOM     54  C   UNL A   1      44.267  24.232  33.320  1.00  0.00     0.049 A 
ATOM     55  N   UNL A   1      43.608  26.955  34.109  1.00  0.00    -0.248 NA
ATOM     56  C   UNL A   1      43.932  27.734  31.976  1.00  0.00     0.031 C 
ATOM     57  C   UNL A   1      43.293  24.140  34.406  1.00  0.00     0.029 A 
ATOM     58  N   UNL A   1      44.983  23.026  33.394  1.00  0.00    -0.354 N 
ATOM     59  C   UNL A   1      42.984  28.179  34.030  1.00  0.00     0.074 A 
ATOM     60  C   UNL A   1      43.261  28.643  32.690  1.00  0.00     0.031 C 
ATOM     61  C   UNL A   1      43.649  23.133  35.218  1.00  0.00     0.029 A 
ATOM     62  C   UNL A   1      44.942  22.656  34.760  1.00  0.00     0.049 A 
ATOM     63  H   UNL A   1      45.418  22.541  32.655  1.00  0.00     0.167 HD
ATOM     64  C   UNL A   1      42.217  28.601  35.079  1.00  0.00     0.037 A 
ATOM     65  C   UNL A   1      46.081  22.628  35.512  1.00  0.00     0.037 A 
ATOM     66  C   UNL A   1      42.330  27.697  36.224  1.00  0.00     0.049 A 
ATOM     67  C   UNL A   1      46.077  23.549  36.716  1.00  0.00     0.074 A 
ATOM     68  C   UNL A   1      41.551  26.678  36.746  1.00  0.00     0.029 A 
ATOM     69  N   UNL A   1      43.552  27.605  36.867  1.00  0.00    -0.354 N 
ATOM     70  N   UNL A   1      45.146  24.425  36.972  1.00  0.00    -0.248 NA
ATOM     71  C   UNL A   1      47.192  23.628  37.663  1.00  0.00     0.031 C 
ATOM     72  C   UNL A   1      42.330  25.968  37.706  1.00  0.00     0.029 A 
ATOM     73  C   UNL A   1      43.578  26.557  37.764  1.00  0.00     0.049 A 
ATOM     74  H   UNL A   1      44.309  28.213  36.703  1.00  0.00     0.167 HD
ATOM     75  C   UNL A   1      45.539  25.203  38.026  1.00  0.00     0.074 A 
ATOM     76  C   UNL A   1      46.824  24.667  38.430  1.00  0.00     0.031 C 
ATOM     77  C   UNL A   1      44.814  26.269  38.468  1.00  0.00     0.037 A 
BRANCH  64  78
ATOM     78  C   UNL A   1      41.193  29.715  35.003  1.00  0.00     0.064 A 
ATOM     79  C   UNL A   1      41.219  30.781  35.931  1.00  0.00     0.173 A 
ATOM     80  C   UNL A   1      40.128  29.771  34.085  1.00  0.00     0.173 A 
ATOM     81  F   UNL A   1      42.234  30.936  36.792  1.00  0.00    -0.203 F 
ATOM     82  C   UNL A   1      40.202  31.735  36.013  1.00  0.00     0.198 A 
ATOM     83  C   UNL A   1      39.079  30.689  34.203  1.00  0.00     0.198 A 
ATOM     84  F   UNL A   1      40.099  28.992  33.000  1.00  0.00    -0.203 F 
ATOM     85  F   UNL A   1      40.285  32.718  36.920  1.00  0.00    -0.200 F 
ATOM     86  C   UNL A   1      39.109  31.664  35.176  1.00  0.00     0.200 A 
ATOM     87  F   UNL A   1      38.040  30.622  33.357  1.00  0.00    -0.200 F 
ATOM     88  F   UNL A   1      38.109  32.548  35.285  1.00  0.00    -0.200 F 
ENDBRANCH  64  78
BRANCH  65  89
ATOM     89  C   UNL A   1      47.296  22.300  34.716  1.00  0.00     0.064 A 
ATOM     90  C   UNL A   1      48.162  23.345  34.337  1.00  0.00     0.173 A 
ATOM     91  C   UNL A   1      47.786  20.992  34.633  1.00  0.00     0.173 A 
ATOM     92  F   UNL A   1      47.744  24.621  34.400  1.00  0.00    -0.203 F 
ATOM     93  C   UNL A   1      49.492  23.098  34.009  1.00  0.00     0.198 A 
ATOM     94  C   UNL A   1      49.112  20.747  34.278  1.00  0.00     0.198 A 
ATOM     95  F   UNL A   1      47.021  19.954  34.999  1.00  0.00    -0.203 F 
ATOM     96  F   UNL A   1      50.324  24.123  33.770  1.00  0.00    -0.200 F 
ATOM     97  C   UNL A   1      49.972  21.801  34.002  1.00  0.00     0.200 A 
ATOM     98  F   UNL A   1      49.583  19.493  34.299  1.00  0.00    -0.200 F 
ATOM     99  F   UNL A   1      51.271  21.564  33.773  1.00  0.00    -0.200 F 
ENDBRANCH  65  89
BRANCH  77 100
ATOM    100  C   UNL A   1      45.242  27.135  39.611  1.00  0.00     0.064 A 
ATOM    101  C   UNL A   1      44.846  26.877  40.931  1.00  0.00     0.173 A 
ATOM    102  C   UNL A   1      45.973  28.320  39.394  1.00  0.00     0.173 A 
ATOM    103  F   UNL A   1      44.113  25.792  41.226  1.00  0.00    -0.203 F 
ATOM    104  C   UNL A   1      45.186  27.738  41.975  1.00  0.00     0.198 A 
ATOM    105  C   UNL A   1      46.268  29.203  40.429  1.00  0.00     0.198 A 
ATOM    106  F   UNL A   1      46.440  28.637  38.177  1.00  0.00    -0.203 F 
ATOM    107  F   UNL A   1      44.829  27.434  43.232  1.00  0.00    -0.200 F 
ATOM    108  C   UNL A   1      45.882  28.908  41.723  1.00  0.00     0.200 A 
ATOM    109  F   UNL A   1      46.931  30.339  40.167  1.00  0.00    -0.200 F 
ATOM    110  F   UNL A   1      46.187  29.745  42.723  1.00  0.00    -0.200 F 
ENDBRANCH  77 100
ENDBRANCH  51  52
ENDBRANCH  43  46
ENDBRANCH  41  42
ENDBRANCH  40  41
ENDBRANCH  39  40
ENDBRANCH   1  39
TORSDOF 19
ENDMDL
