MODEL 1
REMARK VINA RESULT:     -11.5      0.000      0.000
REMARK SMILES N#CCSCC(=O)N1Cc2ccccc2C[C@@H]1C(=O)NCCCCCCNC(=O)c1ccc(-c2c3nc(c(-c4c(F)c(F)c(F)c(F)c4F)c4ccc([nH]4)c(-c4c(F)c(F)c(F)c(F)c4F)c4nc(c(-c5c(F)c(F)c(F)c(F)c5F)c5ccc2[nH]5)C=C4)C=C3)cc1
REMARK SMILES IDX 22 1 21 2 20 3 18 4 19 5 17 7 8 8 9 9 10 10 16 11 11 12
REMARK SMILES IDX 15 13 12 14 14 15 13 16 6 17 7 18 5 19 4 20 3 21 2 22 1 23
REMARK SMILES IDX 23 24 24 25 25 26 26 27 27 28 28 29 29 31 30 32 31 33 92 34
REMARK SMILES IDX 32 35 91 36 33 37 34 38 35 39 85 40 36 41 90 42 84 43 86 44
REMARK SMILES IDX 37 45 89 46 83 47 82 48 38 50 70 51 50 52 69 53 51 54 54 55
REMARK SMILES IDX 68 56 87 57 52 58 53 59 67 61 88 62 55 63 39 64 40 65 48 66
REMARK SMILES IDX 41 67 42 68 46 69 49 70 43 71 44 72 47 73 45 74 71 75 72 76
REMARK SMILES IDX 80 77 73 78 74 79 78 80 81 81 75 82 76 83 79 84 77 85 56 86
REMARK SMILES IDX 57 87 65 88 58 89 59 90 63 91 66 92 60 93 61 94 64 95 62 96
REMARK H PARENT 20 6 27 30 86 49 54 60
REMARK Flexibility Score: inf
ROOT
ATOM      1  C   UNL A   1      32.382  28.574  27.318  1.00  0.00     0.021 C 
ENDROOT
BRANCH   1   2
ATOM      2  C   UNL A   1      32.423  27.293  26.489  1.00  0.00     0.116 C 
BRANCH   2   3
ATOM      3  N   UNL A   1      31.293  26.422  26.771  1.00  0.00    -0.354 N 
ATOM      4  C   UNL A   1      30.763  25.329  26.155  1.00  0.00     0.243 C 
ATOM      5  O   UNL A   1      29.784  24.828  26.729  1.00  0.00    -0.273 OA
ATOM      6  H   UNL A   1      30.804  26.678  27.586  1.00  0.00     0.163 HD
BRANCH   4   7
ATOM      7  C   UNL A   1      31.222  24.736  24.784  1.00  0.00     0.179 C 
ATOM      8  N   UNL A   1      32.598  25.053  24.368  1.00  0.00    -0.325 N 
ATOM      9  C   UNL A   1      32.767  26.071  23.301  1.00  0.00     0.156 C 
ATOM     10  C   UNL A   1      31.611  27.042  23.184  1.00  0.00    -0.025 A 
ATOM     11  C   UNL A   1      30.158  25.118  23.742  1.00  0.00     0.071 C 
ATOM     12  C   UNL A   1      31.801  28.391  22.868  1.00  0.00     0.006 A 
ATOM     13  C   UNL A   1      30.309  26.569  23.398  1.00  0.00    -0.040 A 
ATOM     14  C   UNL A   1      30.706  29.259  22.816  1.00  0.00     0.000 A 
ATOM     15  C   UNL A   1      29.214  27.434  23.335  1.00  0.00     0.004 A 
ATOM     16  C   UNL A   1      29.417  28.782  23.056  1.00  0.00     0.000 A 
BRANCH   8  17
ATOM     17  C   UNL A   1      33.743  24.516  24.942  1.00  0.00     0.233 C 
ATOM     18  O   UNL A   1      34.838  25.054  24.714  1.00  0.00    -0.274 OA
BRANCH  17  19
ATOM     19  C   UNL A   1      33.782  23.182  25.696  1.00  0.00     0.170 C 
BRANCH  19  20
ATOM     20  S   UNL A   1      34.396  21.661  24.938  1.00  0.00    -0.137 SA
BRANCH  20  21
ATOM     21  C   UNL A   1      32.912  20.993  24.134  1.00  0.00     0.189 C 
BRANCH  21  22
ATOM     22  C   UNL A   1      32.511  19.616  24.637  1.00  0.00     0.073 C 
ATOM     23  N   UNL A   1      32.178  18.473  25.055  1.00  0.00    -0.197 NA
ENDBRANCH  21  22
ENDBRANCH  20  21
ENDBRANCH  19  20
ENDBRANCH  17  19
ENDBRANCH   8  17
ENDBRANCH   4   7
ENDBRANCH   2   3
ENDBRANCH   1   2
BRANCH   1  24
ATOM     24  C   UNL A   1      32.733  29.842  26.538  1.00  0.00     0.002 C 
BRANCH  24  25
ATOM     25  C   UNL A   1      31.538  30.626  25.982  1.00  0.00     0.002 C 
BRANCH  25  26
ATOM     26  C   UNL A   1      31.363  32.050  26.520  1.00  0.00     0.021 C 
BRANCH  26  27
ATOM     27  C   UNL A   1      32.574  32.623  27.252  1.00  0.00     0.116 C 
BRANCH  27  28
ATOM     28  N   UNL A   1      32.406  34.027  27.586  1.00  0.00    -0.352 N 
ATOM     29  C   UNL A   1      33.040  34.786  28.533  1.00  0.00     0.251 C 
ATOM     30  H   UNL A   1      31.734  34.506  27.050  1.00  0.00     0.163 HD
ATOM     31  O   UNL A   1      32.630  35.920  28.791  1.00  0.00    -0.269 OA
BRANCH  29  32
ATOM     32  C   UNL A   1      34.207  34.251  29.263  1.00  0.00     0.039 A 
ATOM     33  C   UNL A   1      33.995  33.545  30.451  1.00  0.00     0.014 A 
ATOM     34  C   UNL A   1      35.507  34.466  28.798  1.00  0.00     0.014 A 
ATOM     35  C   UNL A   1      35.081  33.004  31.141  1.00  0.00     0.010 A 
ATOM     36  C   UNL A   1      36.584  33.872  29.451  1.00  0.00     0.010 A 
ATOM     37  C   UNL A   1      36.382  33.137  30.631  1.00  0.00    -0.014 A 
BRANCH  37  38
ATOM     38  C   UNL A   1      37.545  32.515  31.314  1.00  0.00     0.031 A 
ATOM     39  C   UNL A   1      38.271  31.365  30.675  1.00  0.00     0.074 A 
ATOM     40  C   UNL A   1      37.902  32.943  32.540  1.00  0.00     0.049 A 
ATOM     41  N   UNL A   1      39.252  30.639  31.147  1.00  0.00    -0.248 NA
ATOM     42  C   UNL A   1      37.815  30.960  29.336  1.00  0.00     0.031 C 
ATOM     43  C   UNL A   1      37.249  34.022  33.281  1.00  0.00     0.029 A 
ATOM     44  N   UNL A   1      38.895  32.513  33.385  1.00  0.00    -0.354 N 
ATOM     45  C   UNL A   1      39.521  29.686  30.174  1.00  0.00     0.074 A 
ATOM     46  C   UNL A   1      38.567  29.893  29.105  1.00  0.00     0.031 C 
ATOM     47  C   UNL A   1      37.868  34.181  34.462  1.00  0.00     0.029 A 
ATOM     48  C   UNL A   1      38.935  33.192  34.577  1.00  0.00     0.049 A 
ATOM     49  H   UNL A   1      39.520  31.787  33.156  1.00  0.00     0.167 HD
ATOM     50  C   UNL A   1      40.488  28.739  30.164  1.00  0.00     0.037 A 
ATOM     51  C   UNL A   1      39.736  33.028  35.647  1.00  0.00     0.037 A 
ATOM     52  C   UNL A   1      41.451  28.552  31.217  1.00  0.00     0.049 A 
ATOM     53  C   UNL A   1      40.797  31.962  35.614  1.00  0.00     0.074 A 
ATOM     54  C   UNL A   1      42.508  27.661  31.274  1.00  0.00     0.029 A 
ATOM     55  N   UNL A   1      41.471  29.272  32.404  1.00  0.00    -0.354 N 
ATOM     56  N   UNL A   1      41.084  31.109  34.660  1.00  0.00    -0.248 NA
ATOM     57  C   UNL A   1      41.651  31.839  36.804  1.00  0.00     0.031 C 
ATOM     58  C   UNL A   1      43.140  27.809  32.513  1.00  0.00     0.029 A 
ATOM     59  C   UNL A   1      42.508  28.828  33.208  1.00  0.00     0.049 A 
ATOM     60  H   UNL A   1      40.842  29.991  32.639  1.00  0.00     0.167 HD
ATOM     61  C   UNL A   1      42.165  30.369  35.121  1.00  0.00     0.074 A 
ATOM     62  C   UNL A   1      42.492  30.883  36.435  1.00  0.00     0.031 C 
ATOM     63  C   UNL A   1      42.826  29.356  34.511  1.00  0.00     0.037 A 
BRANCH  50  64
ATOM     64  C   UNL A   1      40.557  27.828  28.971  1.00  0.00     0.064 A 
ATOM     65  C   UNL A   1      41.415  28.093  27.893  1.00  0.00     0.173 A 
ATOM     66  C   UNL A   1      39.788  26.656  28.923  1.00  0.00     0.173 A 
ATOM     67  F   UNL A   1      42.165  29.205  27.883  1.00  0.00    -0.203 F 
ATOM     68  C   UNL A   1      41.477  27.234  26.798  1.00  0.00     0.198 A 
ATOM     69  C   UNL A   1      39.875  25.784  27.841  1.00  0.00     0.198 A 
ATOM     70  F   UNL A   1      38.955  26.352  29.931  1.00  0.00    -0.203 F 
ATOM     71  F   UNL A   1      42.267  27.533  25.758  1.00  0.00    -0.200 F 
ATOM     72  C   UNL A   1      40.713  26.077  26.776  1.00  0.00     0.200 A 
ATOM     73  F   UNL A   1      39.145  24.660  27.829  1.00  0.00    -0.200 F 
ATOM     74  F   UNL A   1      40.779  25.247  25.726  1.00  0.00    -0.200 F 
ENDBRANCH  50  64
BRANCH  51  75
ATOM     75  C   UNL A   1      39.577  33.907  36.834  1.00  0.00     0.064 A 
ATOM     76  C   UNL A   1      40.209  35.158  36.891  1.00  0.00     0.173 A 
ATOM     77  C   UNL A   1      38.799  33.518  37.934  1.00  0.00     0.173 A 
ATOM     78  F   UNL A   1      40.982  35.564  35.873  1.00  0.00    -0.203 F 
ATOM     79  C   UNL A   1      40.085  35.977  38.012  1.00  0.00     0.198 A 
ATOM     80  C   UNL A   1      38.653  34.351  39.042  1.00  0.00     0.198 A 
ATOM     81  F   UNL A   1      38.171  32.334  37.927  1.00  0.00    -0.203 F 
ATOM     82  F   UNL A   1      40.738  37.146  38.059  1.00  0.00    -0.200 F 
ATOM     83  C   UNL A   1      39.302  35.576  39.084  1.00  0.00     0.200 A 
ATOM     84  F   UNL A   1      37.885  33.965  40.070  1.00  0.00    -0.200 F 
ATOM     85  F   UNL A   1      39.180  36.365  40.159  1.00  0.00    -0.200 F 
ENDBRANCH  51  75
BRANCH  63  86
ATOM     86  C   UNL A   1      43.992  28.756  35.241  1.00  0.00     0.064 A 
ATOM     87  C   UNL A   1      45.295  29.243  35.073  1.00  0.00     0.173 A 
ATOM     88  C   UNL A   1      43.794  27.707  36.153  1.00  0.00     0.173 A 
ATOM     89  F   UNL A   1      45.539  30.234  34.202  1.00  0.00    -0.203 F 
ATOM     90  C   UNL A   1      46.363  28.688  35.774  1.00  0.00     0.198 A 
ATOM     91  C   UNL A   1      44.858  27.175  36.874  1.00  0.00     0.198 A 
ATOM     92  F   UNL A   1      42.564  27.210  36.355  1.00  0.00    -0.203 F 
ATOM     93  F   UNL A   1      47.607  29.139  35.565  1.00  0.00    -0.200 F 
ATOM     94  C   UNL A   1      46.142  27.660  36.680  1.00  0.00     0.200 A 
ATOM     95  F   UNL A   1      44.641  26.192  37.759  1.00  0.00    -0.200 F 
ATOM     96  F   UNL A   1      47.169  27.133  37.360  1.00  0.00    -0.200 F 
ENDBRANCH  63  86
ENDBRANCH  37  38
ENDBRANCH  29  32
ENDBRANCH  27  28
ENDBRANCH  26  27
ENDBRANCH  25  26
ENDBRANCH  24  25
ENDBRANCH   1  24
TORSDOF 18
ENDMDL
MODEL 2
REMARK VINA RESULT:     -11.4      5.644     10.858
REMARK SMILES N#CCSCC(=O)N1Cc2ccccc2C[C@@H]1C(=O)NCCCCCCNC(=O)c1ccc(-c2c3nc(c(-c4c(F)c(F)c(F)c(F)c4F)c4ccc([nH]4)c(-c4c(F)c(F)c(F)c(F)c4F)c4nc(c(-c5c(F)c(F)c(F)c(F)c5F)c5ccc2[nH]5)C=C4)C=C3)cc1
REMARK SMILES IDX 22 1 21 2 20 3 18 4 19 5 17 7 8 8 9 9 10 10 16 11 11 12
REMARK SMILES IDX 15 13 12 14 14 15 13 16 6 17 7 18 5 19 4 20 3 21 2 22 1 23
REMARK SMILES IDX 23 24 24 25 25 26 26 27 27 28 28 29 29 31 30 32 31 33 92 34
REMARK SMILES IDX 32 35 91 36 33 37 34 38 35 39 85 40 36 41 90 42 84 43 86 44
REMARK SMILES IDX 37 45 89 46 83 47 82 48 38 50 70 51 50 52 69 53 51 54 54 55
REMARK SMILES IDX 68 56 87 57 52 58 53 59 67 61 88 62 55 63 39 64 40 65 48 66
REMARK SMILES IDX 41 67 42 68 46 69 49 70 43 71 44 72 47 73 45 74 71 75 72 76
REMARK SMILES IDX 80 77 73 78 74 79 78 80 81 81 75 82 76 83 79 84 77 85 56 86
REMARK SMILES IDX 57 87 65 88 58 89 59 90 63 91 66 92 60 93 61 94 64 95 62 96
REMARK H PARENT 20 6 27 30 86 49 54 60
REMARK Flexibility Score: inf
ROOT
ATOM      1  C   UNL A   1      36.689  22.917  23.972  1.00  0.00     0.021 C 
ENDROOT
BRANCH   1   2
ATOM      2  C   UNL A   1      35.343  23.483  24.417  1.00  0.00     0.116 C 
BRANCH   2   3
ATOM      3  N   UNL A   1      35.085  23.235  25.827  1.00  0.00    -0.354 N 
ATOM      4  C   UNL A   1      33.956  23.041  26.563  1.00  0.00     0.243 C 
ATOM      5  O   UNL A   1      34.148  22.828  27.769  1.00  0.00    -0.273 OA
ATOM      6  H   UNL A   1      35.907  23.201  26.367  1.00  0.00     0.163 HD
BRANCH   4   7
ATOM      7  C   UNL A   1      32.488  23.153  26.038  1.00  0.00     0.179 C 
ATOM      8  N   UNL A   1      32.290  22.891  24.603  1.00  0.00    -0.325 N 
ATOM      9  C   UNL A   1      32.055  24.066  23.726  1.00  0.00     0.156 C 
ATOM     10  C   UNL A   1      32.604  25.367  24.272  1.00  0.00    -0.025 A 
ATOM     11  C   UNL A   1      31.940  24.514  26.499  1.00  0.00     0.071 C 
ATOM     12  C   UNL A   1      33.164  26.346  23.445  1.00  0.00     0.006 A 
ATOM     13  C   UNL A   1      32.543  25.596  25.654  1.00  0.00    -0.040 A 
ATOM     14  C   UNL A   1      33.698  27.511  24.002  1.00  0.00     0.000 A 
ATOM     15  C   UNL A   1      33.066  26.765  26.210  1.00  0.00     0.004 A 
ATOM     16  C   UNL A   1      33.655  27.716  25.382  1.00  0.00     0.000 A 
BRANCH   8  17
ATOM     17  C   UNL A   1      32.369  21.639  24.007  1.00  0.00     0.233 C 
ATOM     18  O   UNL A   1      32.382  21.563  22.769  1.00  0.00    -0.274 OA
BRANCH  17  19
ATOM     19  C   UNL A   1      32.254  20.316  24.772  1.00  0.00     0.170 C 
BRANCH  19  20
ATOM     20  S   UNL A   1      33.356  18.918  24.456  1.00  0.00    -0.137 SA
BRANCH  20  21
ATOM     21  C   UNL A   1      32.879  17.739  25.751  1.00  0.00     0.189 C 
BRANCH  21  22
ATOM     22  C   UNL A   1      33.089  16.285  25.361  1.00  0.00     0.073 C 
ATOM     23  N   UNL A   1      33.262  15.078  25.037  1.00  0.00    -0.197 NA
ENDBRANCH  21  22
ENDBRANCH  20  21
ENDBRANCH  19  20
ENDBRANCH  17  19
ENDBRANCH   8  17
ENDBRANCH   4   7
ENDBRANCH   2   3
ENDBRANCH   1   2
BRANCH   1  24
ATOM     24  C   UNL A   1      37.310  21.920  24.952  1.00  0.00     0.002 C 
BRANCH  24  25
ATOM     25  C   UNL A   1      36.961  20.448  24.704  1.00  0.00     0.002 C 
BRANCH  25  26
ATOM     26  C   UNL A   1      38.072  19.436  25.004  1.00  0.00     0.021 C 
BRANCH  26  27
ATOM     27  C   UNL A   1      39.269  19.993  25.771  1.00  0.00     0.116 C 
BRANCH  27  28
ATOM     28  N   UNL A   1      40.331  19.013  25.928  1.00  0.00    -0.352 N 
ATOM     29  C   UNL A   1      41.673  19.197  26.127  1.00  0.00     0.251 C 
ATOM     30  H   UNL A   1      40.040  18.073  25.884  1.00  0.00     0.163 HD
ATOM     31  O   UNL A   1      42.444  18.238  26.054  1.00  0.00    -0.269 OA
BRANCH  29  32
ATOM     32  C   UNL A   1      42.209  20.542  26.417  1.00  0.00     0.039 A 
ATOM     33  C   UNL A   1      42.649  21.336  25.354  1.00  0.00     0.014 A 
ATOM     34  C   UNL A   1      42.306  21.011  27.729  1.00  0.00     0.014 A 
ATOM     35  C   UNL A   1      43.131  22.623  25.601  1.00  0.00     0.010 A 
ATOM     36  C   UNL A   1      42.725  22.316  27.970  1.00  0.00     0.010 A 
ATOM     37  C   UNL A   1      43.145  23.135  26.908  1.00  0.00    -0.014 A 
BRANCH  37  38
ATOM     38  C   UNL A   1      43.593  24.523  27.186  1.00  0.00     0.031 A 
ATOM     39  C   UNL A   1      42.616  25.545  27.695  1.00  0.00     0.074 A 
ATOM     40  C   UNL A   1      44.864  24.878  26.917  1.00  0.00     0.049 A 
ATOM     41  N   UNL A   1      42.794  26.822  27.919  1.00  0.00    -0.248 NA
ATOM     42  C   UNL A   1      41.248  25.074  27.962  1.00  0.00     0.031 C 
ATOM     43  C   UNL A   1      45.894  23.987  26.382  1.00  0.00     0.029 A 
ATOM     44  N   UNL A   1      45.503  26.086  27.043  1.00  0.00    -0.354 N 
ATOM     45  C   UNL A   1      41.563  27.309  28.338  1.00  0.00     0.074 A 
ATOM     46  C   UNL A   1      40.632  26.201  28.290  1.00  0.00     0.031 C 
ATOM     47  C   UNL A   1      47.039  24.674  26.241  1.00  0.00     0.029 A 
ATOM     48  C   UNL A   1      46.814  26.060  26.640  1.00  0.00     0.049 A 
ATOM     49  H   UNL A   1      45.062  26.895  27.391  1.00  0.00     0.167 HD
ATOM     50  C   UNL A   1      41.243  28.560  28.746  1.00  0.00     0.037 A 
ATOM     51  C   UNL A   1      47.730  27.046  26.586  1.00  0.00     0.037 A 
ATOM     52  C   UNL A   1      42.177  29.653  28.817  1.00  0.00     0.049 A 
ATOM     53  C   UNL A   1      47.347  28.430  27.037  1.00  0.00     0.074 A 
ATOM     54  C   UNL A   1      41.967  30.942  29.274  1.00  0.00     0.029 A 
ATOM     55  N   UNL A   1      43.504  29.583  28.415  1.00  0.00    -0.354 N 
ATOM     56  N   UNL A   1      46.196  28.862  27.493  1.00  0.00    -0.248 NA
ATOM     57  C   UNL A   1      48.391  29.462  26.971  1.00  0.00     0.031 C 
ATOM     58  C   UNL A   1      43.152  31.665  29.106  1.00  0.00     0.029 A 
ATOM     59  C   UNL A   1      44.117  30.813  28.592  1.00  0.00     0.049 A 
ATOM     60  H   UNL A   1      43.945  28.779  28.057  1.00  0.00     0.167 HD
ATOM     61  C   UNL A   1      46.385  30.205  27.794  1.00  0.00     0.074 A 
ATOM     62  C   UNL A   1      47.765  30.512  27.481  1.00  0.00     0.031 C 
ATOM     63  C   UNL A   1      45.495  31.101  28.284  1.00  0.00     0.037 A 
BRANCH  50  64
ATOM     64  C   UNL A   1      39.820  28.817  29.152  1.00  0.00     0.064 A 
ATOM     65  C   UNL A   1      39.393  28.654  30.478  1.00  0.00     0.173 A 
ATOM     66  C   UNL A   1      38.882  29.270  28.213  1.00  0.00     0.173 A 
ATOM     67  F   UNL A   1      40.248  28.212  31.414  1.00  0.00    -0.203 F 
ATOM     68  C   UNL A   1      38.073  28.906  30.843  1.00  0.00     0.198 A 
ATOM     69  C   UNL A   1      37.570  29.551  28.587  1.00  0.00     0.198 A 
ATOM     70  F   UNL A   1      39.239  29.450  26.931  1.00  0.00    -0.203 F 
ATOM     71  F   UNL A   1      37.676  28.696  32.106  1.00  0.00    -0.200 F 
ATOM     72  C   UNL A   1      37.165  29.361  29.899  1.00  0.00     0.200 A 
ATOM     73  F   UNL A   1      36.697  30.003  27.676  1.00  0.00    -0.200 F 
ATOM     74  F   UNL A   1      35.896  29.611  30.253  1.00  0.00    -0.200 F 
ENDBRANCH  50  64
BRANCH  51  75
ATOM     75  C   UNL A   1      49.105  26.756  26.106  1.00  0.00     0.064 A 
ATOM     76  C   UNL A   1      50.083  26.259  26.980  1.00  0.00     0.173 A 
ATOM     77  C   UNL A   1      49.475  26.972  24.770  1.00  0.00     0.173 A 
ATOM     78  F   UNL A   1      49.783  26.056  28.273  1.00  0.00    -0.203 F 
ATOM     79  C   UNL A   1      51.381  26.008  26.541  1.00  0.00     0.198 A 
ATOM     80  C   UNL A   1      50.766  26.694  24.326  1.00  0.00     0.198 A 
ATOM     81  F   UNL A   1      48.576  27.443  23.893  1.00  0.00    -0.203 F 
ATOM     82  F   UNL A   1      52.307  25.577  27.409  1.00  0.00    -0.200 F 
ATOM     83  C   UNL A   1      51.720  26.220  25.214  1.00  0.00     0.200 A 
ATOM     84  F   UNL A   1      51.086  26.888  23.040  1.00  0.00    -0.200 F 
ATOM     85  F   UNL A   1      52.968  25.976  24.792  1.00  0.00    -0.200 F 
ENDBRANCH  51  75
BRANCH  63  86
ATOM     86  C   UNL A   1      45.992  32.493  28.546  1.00  0.00     0.064 A 
ATOM     87  C   UNL A   1      46.583  32.845  29.767  1.00  0.00     0.173 A 
ATOM     88  C   UNL A   1      45.914  33.474  27.546  1.00  0.00     0.173 A 
ATOM     89  F   UNL A   1      46.668  31.947  30.761  1.00  0.00    -0.203 F 
ATOM     90  C   UNL A   1      47.058  34.136  29.986  1.00  0.00     0.198 A 
ATOM     91  C   UNL A   1      46.415  34.754  27.757  1.00  0.00     0.198 A 
ATOM     92  F   UNL A   1      45.362  33.185  26.357  1.00  0.00    -0.203 F 
ATOM     93  F   UNL A   1      47.579  34.463  31.177  1.00  0.00    -0.200 F 
ATOM     94  C   UNL A   1      46.982  35.087  28.979  1.00  0.00     0.200 A 
ATOM     95  F   UNL A   1      46.353  35.667  26.778  1.00  0.00    -0.200 F 
ATOM     96  F   UNL A   1      47.447  36.325  29.189  1.00  0.00    -0.200 F 
ENDBRANCH  63  86
ENDBRANCH  37  38
ENDBRANCH  29  32
ENDBRANCH  27  28
ENDBRANCH  26  27
ENDBRANCH  25  26
ENDBRANCH  24  25
ENDBRANCH   1  24
TORSDOF 18
ENDMDL
MODEL 3
REMARK VINA RESULT:     -11.3      1.335      3.487
REMARK SMILES N#CCSCC(=O)N1Cc2ccccc2C[C@@H]1C(=O)NCCCCCCNC(=O)c1ccc(-c2c3nc(c(-c4c(F)c(F)c(F)c(F)c4F)c4ccc([nH]4)c(-c4c(F)c(F)c(F)c(F)c4F)c4nc(c(-c5c(F)c(F)c(F)c(F)c5F)c5ccc2[nH]5)C=C4)C=C3)cc1
REMARK SMILES IDX 22 1 21 2 20 3 18 4 19 5 17 7 8 8 9 9 10 10 16 11 11 12
REMARK SMILES IDX 15 13 12 14 14 15 13 16 6 17 7 18 5 19 4 20 3 21 2 22 1 23
REMARK SMILES IDX 23 24 24 25 25 26 26 27 27 28 28 29 29 31 30 32 31 33 92 34
REMARK SMILES IDX 32 35 91 36 33 37 34 38 35 39 85 40 36 41 90 42 84 43 86 44
REMARK SMILES IDX 37 45 89 46 83 47 82 48 38 50 70 51 50 52 69 53 51 54 54 55
REMARK SMILES IDX 68 56 87 57 52 58 53 59 67 61 88 62 55 63 39 64 40 65 48 66
REMARK SMILES IDX 41 67 42 68 46 69 49 70 43 71 44 72 47 73 45 74 71 75 72 76
REMARK SMILES IDX 80 77 73 78 74 79 78 80 81 81 75 82 76 83 79 84 77 85 56 86
REMARK SMILES IDX 57 87 65 88 58 89 59 90 63 91 66 92 60 93 61 94 64 95 62 96
REMARK H PARENT 20 6 27 30 86 49 54 60
REMARK Flexibility Score: inf
ROOT
ATOM      1  C   UNL A   1      32.403  28.752  27.466  1.00  0.00     0.021 C 
ENDROOT
BRANCH   1   2
ATOM      2  C   UNL A   1      33.223  27.738  26.673  1.00  0.00     0.116 C 
BRANCH   2   3
ATOM      3  N   UNL A   1      32.413  26.621  26.213  1.00  0.00    -0.354 N 
ATOM      4  C   UNL A   1      32.634  25.574  25.369  1.00  0.00     0.243 C 
ATOM      5  O   UNL A   1      31.681  24.791  25.246  1.00  0.00    -0.273 OA
ATOM      6  H   UNL A   1      31.506  26.620  26.595  1.00  0.00     0.163 HD
BRANCH   4   7
ATOM      7  C   UNL A   1      33.918  25.346  24.508  1.00  0.00     0.179 C 
ATOM      8  N   UNL A   1      33.704  24.831  23.146  1.00  0.00    -0.325 N 
ATOM      9  C   UNL A   1      34.018  23.400  22.905  1.00  0.00     0.156 C 
ATOM     10  C   UNL A   1      33.960  22.536  24.147  1.00  0.00    -0.025 A 
ATOM     11  C   UNL A   1      34.885  24.494  25.346  1.00  0.00     0.071 C 
ATOM     12  C   UNL A   1      33.490  21.219  24.117  1.00  0.00     0.006 A 
ATOM     13  C   UNL A   1      34.397  23.076  25.365  1.00  0.00    -0.040 A 
ATOM     14  C   UNL A   1      33.413  20.476  25.299  1.00  0.00     0.000 A 
ATOM     15  C   UNL A   1      34.331  22.330  26.543  1.00  0.00     0.004 A 
ATOM     16  C   UNL A   1      33.826  21.033  26.509  1.00  0.00     0.000 A 
BRANCH   8  17
ATOM     17  C   UNL A   1      33.174  25.567  22.094  1.00  0.00     0.233 C 
ATOM     18  O   UNL A   1      33.277  25.124  20.940  1.00  0.00    -0.274 OA
BRANCH  17  19
ATOM     19  C   UNL A   1      32.627  26.992  22.233  1.00  0.00     0.170 C 
BRANCH  19  20
ATOM     20  S   UNL A   1      30.861  27.339  22.391  1.00  0.00    -0.137 SA
BRANCH  20  21
ATOM     21  C   UNL A   1      30.831  28.705  23.587  1.00  0.00     0.189 C 
BRANCH  21  22
ATOM     22  C   UNL A   1      29.822  29.790  23.250  1.00  0.00     0.073 C 
ATOM     23  N   UNL A   1      28.985  30.691  22.971  1.00  0.00    -0.197 NA
ENDBRANCH  21  22
ENDBRANCH  20  21
ENDBRANCH  19  20
ENDBRANCH  17  19
ENDBRANCH   8  17
ENDBRANCH   4   7
ENDBRANCH   2   3
ENDBRANCH   1   2
BRANCH   1  24
ATOM     24  C   UNL A   1      32.614  30.206  27.039  1.00  0.00     0.002 C 
BRANCH  24  25
ATOM     25  C   UNL A   1      31.395  30.891  26.409  1.00  0.00     0.002 C 
BRANCH  25  26
ATOM     26  C   UNL A   1      31.364  32.420  26.500  1.00  0.00     0.021 C 
BRANCH  26  27
ATOM     27  C   UNL A   1      32.673  33.072  26.939  1.00  0.00     0.116 C 
BRANCH  27  28
ATOM     28  N   UNL A   1      32.459  34.335  27.625  1.00  0.00    -0.352 N 
ATOM     29  C   UNL A   1      33.050  34.831  28.757  1.00  0.00     0.251 C 
ATOM     30  H   UNL A   1      31.788  34.925  27.213  1.00  0.00     0.163 HD
ATOM     31  O   UNL A   1      32.604  35.849  29.290  1.00  0.00    -0.269 OA
BRANCH  29  32
ATOM     32  C   UNL A   1      34.213  34.145  29.356  1.00  0.00     0.039 A 
ATOM     33  C   UNL A   1      35.499  34.541  28.975  1.00  0.00     0.014 A 
ATOM     34  C   UNL A   1      34.042  33.099  30.266  1.00  0.00     0.014 A 
ATOM     35  C   UNL A   1      36.613  33.928  29.551  1.00  0.00     0.010 A 
ATOM     36  C   UNL A   1      35.151  32.532  30.888  1.00  0.00     0.010 A 
ATOM     37  C   UNL A   1      36.449  32.940  30.535  1.00  0.00    -0.014 A 
BRANCH  37  38
ATOM     38  C   UNL A   1      37.619  32.320  31.207  1.00  0.00     0.031 A 
ATOM     39  C   UNL A   1      38.369  31.201  30.542  1.00  0.00     0.074 A 
ATOM     40  C   UNL A   1      37.964  32.723  32.446  1.00  0.00     0.049 A 
ATOM     41  N   UNL A   1      39.361  30.481  31.000  1.00  0.00    -0.248 NA
ATOM     42  C   UNL A   1      37.926  30.823  29.190  1.00  0.00     0.031 C 
ATOM     43  C   UNL A   1      37.288  33.770  33.211  1.00  0.00     0.029 A 
ATOM     44  N   UNL A   1      38.961  32.289  33.283  1.00  0.00    -0.354 N 
ATOM     45  C   UNL A   1      39.651  29.559  30.003  1.00  0.00     0.074 A 
ATOM     46  C   UNL A   1      38.699  29.777  28.935  1.00  0.00     0.031 C 
ATOM     47  C   UNL A   1      37.898  33.909  34.399  1.00  0.00     0.029 A 
ATOM     48  C   UNL A   1      38.983  32.937  34.493  1.00  0.00     0.049 A 
ATOM     49  H   UNL A   1      39.599  31.580  33.039  1.00  0.00     0.167 HD
ATOM     50  C   UNL A   1      40.636  28.629  29.973  1.00  0.00     0.037 A 
ATOM     51  C   UNL A   1      39.782  32.759  35.563  1.00  0.00     0.037 A 
ATOM     52  C   UNL A   1      41.597  28.433  31.026  1.00  0.00     0.049 A 
ATOM     53  C   UNL A   1      40.862  31.713  35.507  1.00  0.00     0.074 A 
ATOM     54  C   UNL A   1      42.670  27.559  31.064  1.00  0.00     0.029 A 
ATOM     55  N   UNL A   1      41.599  29.121  32.231  1.00  0.00    -0.354 N 
ATOM     56  N   UNL A   1      41.168  30.892  34.533  1.00  0.00    -0.248 NA
ATOM     57  C   UNL A   1      41.713  31.574  36.698  1.00  0.00     0.031 C 
ATOM     58  C   UNL A   1      43.293  27.686  32.310  1.00  0.00     0.029 A 
ATOM     59  C   UNL A   1      42.640  28.675  33.029  1.00  0.00     0.049 A 
ATOM     60  H   UNL A   1      40.955  29.822  32.481  1.00  0.00     0.167 HD
ATOM     61  C   UNL A   1      42.261  30.159  34.979  1.00  0.00     0.074 A 
ATOM     62  C   UNL A   1      42.572  30.644  36.308  1.00  0.00     0.031 C 
ATOM     63  C   UNL A   1      42.942  29.174  34.346  1.00  0.00     0.037 A 
BRANCH  50  64
ATOM     64  C   UNL A   1      40.726  27.751  28.757  1.00  0.00     0.064 A 
ATOM     65  C   UNL A   1      39.996  26.558  28.656  1.00  0.00     0.173 A 
ATOM     66  C   UNL A   1      41.521  28.127  27.664  1.00  0.00     0.173 A 
ATOM     67  F   UNL A   1      39.229  26.147  29.678  1.00  0.00    -0.203 F 
ATOM     68  C   UNL A   1      40.081  25.758  27.519  1.00  0.00     0.198 A 
ATOM     69  C   UNL A   1      41.581  27.341  26.516  1.00  0.00     0.198 A 
ATOM     70  F   UNL A   1      42.235  29.263  27.705  1.00  0.00    -0.203 F 
ATOM     71  F   UNL A   1      39.413  24.598  27.466  1.00  0.00    -0.200 F 
ATOM     72  C   UNL A   1      40.867  26.154  26.447  1.00  0.00     0.200 A 
ATOM     73  F   UNL A   1      42.331  27.732  25.477  1.00  0.00    -0.200 F 
ATOM     74  F   UNL A   1      40.943  25.388  25.350  1.00  0.00    -0.200 F 
ENDBRANCH  50  64
BRANCH  51  75
ATOM     75  C   UNL A   1      39.602  33.604  36.772  1.00  0.00     0.064 A 
ATOM     76  C   UNL A   1      38.735  33.211  37.801  1.00  0.00     0.173 A 
ATOM     77  C   UNL A   1      40.286  34.819  36.923  1.00  0.00     0.173 A 
ATOM     78  F   UNL A   1      38.042  32.067  37.692  1.00  0.00    -0.203 F 
ATOM     79  C   UNL A   1      38.543  34.011  38.926  1.00  0.00     0.198 A 
ATOM     80  C   UNL A   1      40.115  35.604  38.062  1.00  0.00     0.198 A 
ATOM     81  F   UNL A   1      41.129  35.238  35.968  1.00  0.00    -0.203 F 
ATOM     82  F   UNL A   1      37.673  33.633  39.873  1.00  0.00    -0.200 F 
ATOM     83  C   UNL A   1      39.238  35.204  39.058  1.00  0.00     0.200 A 
ATOM     84  F   UNL A   1      40.798  36.749  38.191  1.00  0.00    -0.200 F 
ATOM     85  F   UNL A   1      39.056  35.970  40.141  1.00  0.00    -0.200 F 
ENDBRANCH  51  75
BRANCH  63  86
ATOM     86  C   UNL A   1      44.116  28.576  35.066  1.00  0.00     0.064 A 
ATOM     87  C   UNL A   1      45.391  29.154  35.002  1.00  0.00     0.173 A 
ATOM     88  C   UNL A   1      43.951  27.434  35.865  1.00  0.00     0.173 A 
ATOM     89  F   UNL A   1      45.604  30.237  34.239  1.00  0.00    -0.203 F 
ATOM     90  C   UNL A   1      46.465  28.598  35.693  1.00  0.00     0.198 A 
ATOM     91  C   UNL A   1      45.018  26.898  36.578  1.00  0.00     0.198 A 
ATOM     92  F   UNL A   1      42.748  26.847  35.965  1.00  0.00    -0.203 F 
ATOM     93  F   UNL A   1      47.685  29.139  35.581  1.00  0.00    -0.200 F 
ATOM     94  C   UNL A   1      46.276  27.475  36.486  1.00  0.00     0.200 A 
ATOM     95  F   UNL A   1      44.831  25.822  37.355  1.00  0.00    -0.200 F 
ATOM     96  F   UNL A   1      47.308  26.947  37.157  1.00  0.00    -0.200 F 
ENDBRANCH  63  86
ENDBRANCH  37  38
ENDBRANCH  29  32
ENDBRANCH  27  28
ENDBRANCH  26  27
ENDBRANCH  25  26
ENDBRANCH  24  25
ENDBRANCH   1  24
TORSDOF 18
ENDMDL
