MODEL 1
REMARK VINA RESULT:      -8.5      0.000      0.000
REMARK SMILES CC[C@@H](C)N(C)c1ccc(/C=C/C(=O)NCCCCCCNC(=O)c2ccc(-c3c4nc(c(-c5c(F)c(F)c(F)c(F)c5F)c5ccc([nH]5)c(-c5c(F)c(F)c(F)c(F)c5F)c5nc(c(-c6c(F)c(F)c(F)c(F)c6F)c6ccc3[nH]6)C=C5)C=C4)cc2)cc1F
REMARK SMILES IDX 17 1 16 2 15 3 13 4 14 5 12 7 11 8 10 9 7 10 8 11 89 12 9 13
REMARK SMILES IDX 88 14 90 15 5 16 6 17 3 18 4 19 2 20 1 21 18 22 19 23 20 24
REMARK SMILES IDX 21 25 22 26 23 27 24 29 25 30 26 31 87 32 27 33 86 34 28 35
REMARK SMILES IDX 29 36 30 37 80 38 31 39 85 40 79 41 81 42 32 43 84 44 78 45
REMARK SMILES IDX 77 46 33 48 65 49 45 50 64 51 46 52 49 53 63 54 82 55 47 56
REMARK SMILES IDX 48 57 62 59 83 60 50 61 34 62 35 63 43 64 36 65 37 66 41 67
REMARK SMILES IDX 44 68 38 69 39 70 42 71 40 72 66 73 67 74 75 75 68 76 69 77
REMARK SMILES IDX 73 78 76 79 70 80 71 81 74 82 72 83 51 84 52 85 60 86 53 87
REMARK SMILES IDX 54 88 58 89 61 90 55 91 56 92 59 93 57 94
REMARK H PARENT 15 6 22 28 81 47 49 58
REMARK Flexibility Score: inf
ROOT
ATOM      1  C   UNL A   1      44.411  23.164  28.629  1.00  0.00     0.021 C 
ENDROOT
BRANCH   1   2
ATOM      2  C   UNL A   1      45.473  24.149  28.139  1.00  0.00     0.116 C 
BRANCH   2   3
ATOM      3  N   UNL A   1      45.670  24.021  26.706  1.00  0.00    -0.353 N 
ATOM      4  C   UNL A   1      45.546  24.936  25.707  1.00  0.00     0.243 C 
ATOM      5  O   UNL A   1      45.850  24.632  24.556  1.00  0.00    -0.270 OA
ATOM      6  H   UNL A   1      45.939  23.122  26.407  1.00  0.00     0.163 HD
BRANCH   4   7
ATOM      7  C   UNL A   1      45.140  26.324  26.011  1.00  0.00     0.072 C 
ATOM      8  C   UNL A   1      46.013  27.332  26.158  1.00  0.00     0.014 C 
BRANCH   8   9
ATOM      9  C   UNL A   1      45.629  28.726  26.409  1.00  0.00    -0.022 A 
ATOM     10  C   UNL A   1      44.743  31.404  26.868  1.00  0.00     0.073 A 
ATOM     11  C   UNL A   1      46.022  31.127  26.358  1.00  0.00     0.029 A 
ATOM     12  C   UNL A   1      43.923  30.295  27.122  1.00  0.00     0.147 A 
ATOM     13  C   UNL A   1      46.460  29.812  26.127  1.00  0.00     0.010 A 
ATOM     14  C   UNL A   1      44.350  28.983  26.904  1.00  0.00     0.049 A 
ATOM     15  F   UNL A   1      42.654  30.457  27.528  1.00  0.00    -0.205 F 
BRANCH  10  16
ATOM     16  N   UNL A   1      44.315  32.717  27.061  1.00  0.00    -0.370 N 
ATOM     17  C   UNL A   1      44.238  33.572  25.881  1.00  0.00     0.144 C 
BRANCH  16  18
ATOM     18  C   UNL A   1      44.383  33.377  28.385  1.00  0.00     0.078 C 
ATOM     19  C   UNL A   1      45.536  32.824  29.227  1.00  0.00     0.031 C 
BRANCH  18  20
ATOM     20  C   UNL A   1      43.036  33.342  29.121  1.00  0.00     0.021 C 
ATOM     21  C   UNL A   1      42.293  34.673  29.098  1.00  0.00     0.006 C 
ENDBRANCH  18  20
ENDBRANCH  16  18
ENDBRANCH  10  16
ENDBRANCH   8   9
ENDBRANCH   4   7
ENDBRANCH   2   3
ENDBRANCH   1   2
BRANCH   1  22
ATOM     22  C   UNL A   1      42.979  23.559  28.245  1.00  0.00     0.002 C 
BRANCH  22  23
ATOM     23  C   UNL A   1      41.890  22.582  28.704  1.00  0.00     0.002 C 
BRANCH  23  24
ATOM     24  C   UNL A   1      41.356  21.644  27.618  1.00  0.00     0.021 C 
BRANCH  24  25
ATOM     25  C   UNL A   1      41.289  22.263  26.224  1.00  0.00     0.116 C 
BRANCH  25  26
ATOM     26  N   UNL A   1      39.917  22.467  25.788  1.00  0.00    -0.352 N 
ATOM     27  C   UNL A   1      39.011  23.423  26.172  1.00  0.00     0.251 C 
ATOM     28  H   UNL A   1      39.589  21.825  25.117  1.00  0.00     0.163 HD
ATOM     29  O   UNL A   1      37.830  23.315  25.861  1.00  0.00    -0.269 OA
BRANCH  27  30
ATOM     30  C   UNL A   1      39.455  24.584  26.973  1.00  0.00     0.039 A 
ATOM     31  C   UNL A   1      40.278  25.541  26.375  1.00  0.00     0.014 A 
ATOM     32  C   UNL A   1      39.091  24.711  28.317  1.00  0.00     0.014 A 
ATOM     33  C   UNL A   1      40.696  26.652  27.110  1.00  0.00     0.010 A 
ATOM     34  C   UNL A   1      39.452  25.853  29.028  1.00  0.00     0.010 A 
ATOM     35  C   UNL A   1      40.264  26.831  28.433  1.00  0.00    -0.014 A 
BRANCH  35  36
ATOM     36  C   UNL A   1      40.655  28.031  29.211  1.00  0.00     0.031 A 
ATOM     37  C   UNL A   1      42.040  28.147  29.782  1.00  0.00     0.074 A 
ATOM     38  C   UNL A   1      39.746  28.997  29.443  1.00  0.00     0.049 A 
ATOM     39  N   UNL A   1      42.550  29.093  30.530  1.00  0.00    -0.248 NA
ATOM     40  C   UNL A   1      42.969  27.042  29.494  1.00  0.00     0.031 C 
ATOM     41  C   UNL A   1      38.360  28.979  28.975  1.00  0.00     0.029 A 
ATOM     42  N   UNL A   1      39.849  30.179  30.134  1.00  0.00    -0.354 N 
ATOM     43  C   UNL A   1      43.851  28.694  30.806  1.00  0.00     0.074 A 
ATOM     44  C   UNL A   1      44.036  27.396  30.194  1.00  0.00     0.031 C 
ATOM     45  C   UNL A   1      37.750  30.108  29.366  1.00  0.00     0.029 A 
ATOM     46  C   UNL A   1      38.689  30.912  30.144  1.00  0.00     0.049 A 
ATOM     47  H   UNL A   1      40.676  30.472  30.580  1.00  0.00     0.167 HD
ATOM     48  C   UNL A   1      44.811  29.364  31.486  1.00  0.00     0.037 A 
ATOM     49  C   UNL A   1      38.412  32.101  30.715  1.00  0.00     0.037 A 
ATOM     50  C   UNL A   1      44.629  30.665  32.074  1.00  0.00     0.049 A 
ATOM     51  C   UNL A   1      39.491  32.821  31.473  1.00  0.00     0.074 A 
ATOM     52  C   UNL A   1      45.554  31.446  32.742  1.00  0.00     0.029 A 
ATOM     53  N   UNL A   1      43.438  31.378  32.061  1.00  0.00    -0.354 N 
ATOM     54  N   UNL A   1      40.732  32.457  31.689  1.00  0.00    -0.248 NA
ATOM     55  C   UNL A   1      39.135  34.118  32.065  1.00  0.00     0.031 C 
ATOM     56  C   UNL A   1      44.914  32.612  33.173  1.00  0.00     0.029 A 
ATOM     57  C   UNL A   1      43.602  32.582  32.728  1.00  0.00     0.049 A 
ATOM     58  H   UNL A   1      42.601  31.074  31.642  1.00  0.00     0.167 HD
ATOM     59  C   UNL A   1      41.310  33.483  32.421  1.00  0.00     0.074 A 
ATOM     60  C   UNL A   1      40.289  34.494  32.602  1.00  0.00     0.031 C 
ATOM     61  C   UNL A   1      42.575  33.578  32.900  1.00  0.00     0.037 A 
BRANCH  48  62
ATOM     62  C   UNL A   1      46.155  28.709  31.621  1.00  0.00     0.064 A 
ATOM     63  C   UNL A   1      46.492  27.999  32.783  1.00  0.00     0.173 A 
ATOM     64  C   UNL A   1      47.133  28.832  30.621  1.00  0.00     0.173 A 
ATOM     65  F   UNL A   1      45.597  27.858  33.772  1.00  0.00    -0.203 F 
ATOM     66  C   UNL A   1      47.759  27.443  32.943  1.00  0.00     0.198 A 
ATOM     67  C   UNL A   1      48.388  28.249  30.770  1.00  0.00     0.198 A 
ATOM     68  F   UNL A   1      46.857  29.491  29.486  1.00  0.00    -0.203 F 
ATOM     69  F   UNL A   1      48.067  26.793  34.074  1.00  0.00    -0.200 F 
ATOM     70  C   UNL A   1      48.703  27.563  31.934  1.00  0.00     0.200 A 
ATOM     71  F   UNL A   1      49.291  28.343  29.785  1.00  0.00    -0.200 F 
ATOM     72  F   UNL A   1      49.917  27.014  32.082  1.00  0.00    -0.200 F 
ENDBRANCH  48  62
BRANCH  49  73
ATOM     73  C   UNL A   1      37.060  32.692  30.546  1.00  0.00     0.064 A 
ATOM     74  C   UNL A   1      36.737  33.472  29.427  1.00  0.00     0.173 A 
ATOM     75  C   UNL A   1      36.079  32.528  31.533  1.00  0.00     0.173 A 
ATOM     76  F   UNL A   1      37.645  33.664  28.458  1.00  0.00    -0.203 F 
ATOM     77  C   UNL A   1      35.490  34.083  29.312  1.00  0.00     0.198 A 
ATOM     78  C   UNL A   1      34.824  33.119  31.406  1.00  0.00     0.198 A 
ATOM     79  F   UNL A   1      36.337  31.775  32.613  1.00  0.00    -0.203 F 
ATOM     80  F   UNL A   1      35.220  34.855  28.250  1.00  0.00    -0.200 F 
ATOM     81  C   UNL A   1      34.534  33.904  30.300  1.00  0.00     0.200 A 
ATOM     82  F   UNL A   1      33.896  32.926  32.353  1.00  0.00    -0.200 F 
ATOM     83  F   UNL A   1      33.333  34.488  30.187  1.00  0.00    -0.200 F 
ENDBRANCH  49  73
BRANCH  61  84
ATOM     84  C   UNL A   1      42.941  34.821  33.657  1.00  0.00     0.064 A 
ATOM     85  C   UNL A   1      43.502  35.920  32.988  1.00  0.00     0.173 A 
ATOM     86  C   UNL A   1      42.810  34.895  35.051  1.00  0.00     0.173 A 
ATOM     87  F   UNL A   1      43.655  35.895  31.656  1.00  0.00    -0.203 F 
ATOM     88  C   UNL A   1      43.935  37.041  33.691  1.00  0.00     0.198 A 
ATOM     89  C   UNL A   1      43.219  36.029  35.747  1.00  0.00     0.198 A 
ATOM     90  F   UNL A   1      42.268  33.875  35.733  1.00  0.00    -0.203 F 
ATOM     91  F   UNL A   1      44.500  38.064  33.036  1.00  0.00    -0.200 F 
ATOM     92  C   UNL A   1      43.790  37.096  35.069  1.00  0.00     0.200 A 
ATOM     93  F   UNL A   1      43.058  36.091  37.076  1.00  0.00    -0.200 F 
ATOM     94  F   UNL A   1      44.200  38.178  35.744  1.00  0.00    -0.200 F 
ENDBRANCH  61  84
ENDBRANCH  35  36
ENDBRANCH  27  30
ENDBRANCH  25  26
ENDBRANCH  24  25
ENDBRANCH  23  24
ENDBRANCH  22  23
ENDBRANCH   1  22
TORSDOF 17
ENDMDL
MODEL 2
REMARK VINA RESULT:      -8.5      3.575      9.903
REMARK SMILES CC[C@@H](C)N(C)c1ccc(/C=C/C(=O)NCCCCCCNC(=O)c2ccc(-c3c4nc(c(-c5c(F)c(F)c(F)c(F)c5F)c5ccc([nH]5)c(-c5c(F)c(F)c(F)c(F)c5F)c5nc(c(-c6c(F)c(F)c(F)c(F)c6F)c6ccc3[nH]6)C=C5)C=C4)cc2)cc1F
REMARK SMILES IDX 17 1 16 2 15 3 13 4 14 5 12 7 11 8 10 9 7 10 8 11 89 12 9 13
REMARK SMILES IDX 88 14 90 15 5 16 6 17 3 18 4 19 2 20 1 21 18 22 19 23 20 24
REMARK SMILES IDX 21 25 22 26 23 27 24 29 25 30 26 31 87 32 27 33 86 34 28 35
REMARK SMILES IDX 29 36 30 37 80 38 31 39 85 40 79 41 81 42 32 43 84 44 78 45
REMARK SMILES IDX 77 46 33 48 65 49 45 50 64 51 46 52 49 53 63 54 82 55 47 56
REMARK SMILES IDX 48 57 62 59 83 60 50 61 34 62 35 63 43 64 36 65 37 66 41 67
REMARK SMILES IDX 44 68 38 69 39 70 42 71 40 72 66 73 67 74 75 75 68 76 69 77
REMARK SMILES IDX 73 78 76 79 70 80 71 81 74 82 72 83 51 84 52 85 60 86 53 87
REMARK SMILES IDX 54 88 58 89 61 90 55 91 56 92 59 93 57 94
REMARK H PARENT 15 6 22 28 81 47 49 58
REMARK Flexibility Score: inf
ROOT
ATOM      1  C   UNL A   1      37.448  34.051  31.119  1.00  0.00     0.021 C 
ENDROOT
BRANCH   1   2
ATOM      2  C   UNL A   1      38.163  34.360  32.435  1.00  0.00     0.116 C 
BRANCH   2   3
ATOM      3  N   UNL A   1      37.253  34.228  33.558  1.00  0.00    -0.353 N 
ATOM      4  C   UNL A   1      37.257  33.362  34.607  1.00  0.00     0.243 C 
ATOM      5  O   UNL A   1      36.428  33.484  35.506  1.00  0.00    -0.270 OA
ATOM      6  H   UNL A   1      36.509  34.873  33.561  1.00  0.00     0.163 HD
BRANCH   4   7
ATOM      7  C   UNL A   1      38.313  32.335  34.724  1.00  0.00     0.072 C 
ATOM      8  C   UNL A   1      38.248  31.138  34.121  1.00  0.00     0.014 C 
BRANCH   8   9
ATOM      9  C   UNL A   1      39.308  30.126  34.181  1.00  0.00    -0.022 A 
ATOM     10  C   UNL A   1      41.455  28.248  34.373  1.00  0.00     0.073 A 
ATOM     11  C   UNL A   1      40.585  28.265  33.270  1.00  0.00     0.029 A 
ATOM     12  C   UNL A   1      41.219  29.214  35.363  1.00  0.00     0.147 A 
ATOM     13  C   UNL A   1      39.531  29.189  33.170  1.00  0.00     0.010 A 
ATOM     14  C   UNL A   1      40.170  30.132  35.279  1.00  0.00     0.049 A 
ATOM     15  F   UNL A   1      42.046  29.336  36.414  1.00  0.00    -0.205 F 
BRANCH  10  16
ATOM     16  N   UNL A   1      42.514  27.344  34.439  1.00  0.00    -0.370 N 
ATOM     17  C   UNL A   1      42.444  26.314  35.470  1.00  0.00     0.144 C 
BRANCH  16  18
ATOM     18  C   UNL A   1      43.842  27.647  33.859  1.00  0.00     0.078 C 
ATOM     19  C   UNL A   1      44.443  26.421  33.167  1.00  0.00     0.031 C 
BRANCH  18  20
ATOM     20  C   UNL A   1      44.794  28.279  34.886  1.00  0.00     0.021 C 
ATOM     21  C   UNL A   1      46.231  27.786  34.770  1.00  0.00     0.006 C 
ENDBRANCH  18  20
ENDBRANCH  16  18
ENDBRANCH  10  16
ENDBRANCH   8   9
ENDBRANCH   4   7
ENDBRANCH   2   3
ENDBRANCH   1   2
BRANCH   1  22
ATOM     22  C   UNL A   1      37.113  32.565  30.934  1.00  0.00     0.002 C 
BRANCH  22  23
ATOM     23  C   UNL A   1      35.656  32.186  31.230  1.00  0.00     0.002 C 
BRANCH  23  24
ATOM     24  C   UNL A   1      34.618  32.806  30.290  1.00  0.00     0.021 C 
BRANCH  24  25
ATOM     25  C   UNL A   1      34.853  32.519  28.809  1.00  0.00     0.116 C 
BRANCH  25  26
ATOM     26  N   UNL A   1      34.201  31.290  28.385  1.00  0.00    -0.352 N 
ATOM     27  C   UNL A   1      34.751  30.075  28.063  1.00  0.00     0.251 C 
ATOM     28  H   UNL A   1      33.220  31.337  28.318  1.00  0.00     0.163 HD
ATOM     29  O   UNL A   1      34.070  29.214  27.519  1.00  0.00    -0.269 OA
BRANCH  27  30
ATOM     30  C   UNL A   1      36.174  29.805  28.363  1.00  0.00     0.039 A 
ATOM     31  C   UNL A   1      36.509  29.262  29.606  1.00  0.00     0.014 A 
ATOM     32  C   UNL A   1      37.176  30.116  27.439  1.00  0.00     0.014 A 
ATOM     33  C   UNL A   1      37.845  28.984  29.903  1.00  0.00     0.010 A 
ATOM     34  C   UNL A   1      38.498  29.776  27.709  1.00  0.00     0.010 A 
ATOM     35  C   UNL A   1      38.847  29.213  28.946  1.00  0.00    -0.014 A 
BRANCH  35  36
ATOM     36  C   UNL A   1      40.263  28.875  29.226  1.00  0.00     0.031 A 
ATOM     37  C   UNL A   1      41.132  29.827  29.998  1.00  0.00     0.074 A 
ATOM     38  C   UNL A   1      40.780  27.730  28.741  1.00  0.00     0.049 A 
ATOM     39  N   UNL A   1      42.403  29.730  30.296  1.00  0.00    -0.248 NA
ATOM     40  C   UNL A   1      40.494  31.063  30.480  1.00  0.00     0.031 C 
ATOM     41  C   UNL A   1      40.047  26.746  27.944  1.00  0.00     0.029 A 
ATOM     42  N   UNL A   1      42.043  27.202  28.844  1.00  0.00    -0.354 N 
ATOM     43  C   UNL A   1      42.716  30.890  30.991  1.00  0.00     0.074 A 
ATOM     44  C   UNL A   1      41.519  31.703  31.023  1.00  0.00     0.031 C 
ATOM     45  C   UNL A   1      40.863  25.721  27.654  1.00  0.00     0.029 A 
ATOM     46  C   UNL A   1      42.185  25.991  28.212  1.00  0.00     0.049 A 
ATOM     47  H   UNL A   1      42.777  27.649  29.323  1.00  0.00     0.167 HD
ATOM     48  C   UNL A   1      43.890  31.234  31.572  1.00  0.00     0.037 A 
ATOM     49  C   UNL A   1      43.261  25.188  28.095  1.00  0.00     0.037 A 
ATOM     50  C   UNL A   1      45.072  30.413  31.557  1.00  0.00     0.049 A 
ATOM     51  C   UNL A   1      44.556  25.595  28.741  1.00  0.00     0.074 A 
ATOM     52  C   UNL A   1      46.296  30.652  32.157  1.00  0.00     0.029 A 
ATOM     53  N   UNL A   1      45.177  29.191  30.907  1.00  0.00    -0.354 N 
ATOM     54  N   UNL A   1      44.828  26.673  29.436  1.00  0.00    -0.248 NA
ATOM     55  C   UNL A   1      45.691  24.676  28.590  1.00  0.00     0.031 C 
ATOM     56  C   UNL A   1      47.155  29.597  31.835  1.00  0.00     0.029 A 
ATOM     57  C   UNL A   1      46.452  28.674  31.077  1.00  0.00     0.049 A 
ATOM     58  H   UNL A   1      44.454  28.756  30.401  1.00  0.00     0.167 HD
ATOM     59  C   UNL A   1      46.156  26.554  29.822  1.00  0.00     0.074 A 
ATOM     60  C   UNL A   1      46.631  25.291  29.296  1.00  0.00     0.031 C 
ATOM     61  C   UNL A   1      46.910  27.415  30.547  1.00  0.00     0.037 A 
BRANCH  48  62
ATOM     62  C   UNL A   1      43.953  32.551  32.290  1.00  0.00     0.064 A 
ATOM     63  C   UNL A   1      44.455  33.693  31.647  1.00  0.00     0.173 A 
ATOM     64  C   UNL A   1      43.569  32.671  33.635  1.00  0.00     0.173 A 
ATOM     65  F   UNL A   1      44.843  33.632  30.365  1.00  0.00    -0.203 F 
ATOM     66  C   UNL A   1      44.576  34.903  32.326  1.00  0.00     0.198 A 
ATOM     67  C   UNL A   1      43.662  33.889  34.301  1.00  0.00     0.198 A 
ATOM     68  F   UNL A   1      43.072  31.612  34.291  1.00  0.00    -0.203 F 
ATOM     69  F   UNL A   1      45.084  35.974  31.699  1.00  0.00    -0.200 F 
ATOM     70  C   UNL A   1      44.174  35.001  33.650  1.00  0.00     0.200 A 
ATOM     71  F   UNL A   1      43.251  33.990  35.572  1.00  0.00    -0.200 F 
ATOM     72  F   UNL A   1      44.277  36.171  34.297  1.00  0.00    -0.200 F 
ENDBRANCH  48  62
BRANCH  49  73
ATOM     73  C   UNL A   1      43.132  23.900  27.368  1.00  0.00     0.064 A 
ATOM     74  C   UNL A   1      43.475  23.787  26.014  1.00  0.00     0.173 A 
ATOM     75  C   UNL A   1      42.615  22.766  28.008  1.00  0.00     0.173 A 
ATOM     76  F   UNL A   1      43.969  24.847  25.355  1.00  0.00    -0.203 F 
ATOM     77  C   UNL A   1      43.283  22.594  25.320  1.00  0.00     0.198 A 
ATOM     78  C   UNL A   1      42.446  21.566  27.321  1.00  0.00     0.198 A 
ATOM     79  F   UNL A   1      42.290  22.821  29.308  1.00  0.00    -0.203 F 
ATOM     80  F   UNL A   1      43.583  22.524  24.016  1.00  0.00    -0.200 F 
ATOM     81  C   UNL A   1      42.771  21.484  25.975  1.00  0.00     0.200 A 
ATOM     82  F   UNL A   1      41.971  20.489  27.962  1.00  0.00    -0.200 F 
ATOM     83  F   UNL A   1      42.591  20.335  25.309  1.00  0.00    -0.200 F 
ENDBRANCH  49  73
BRANCH  61  84
ATOM     84  C   UNL A   1      48.331  27.024  30.833  1.00  0.00     0.064 A 
ATOM     85  C   UNL A   1      49.374  27.491  30.020  1.00  0.00     0.173 A 
ATOM     86  C   UNL A   1      48.649  26.124  31.861  1.00  0.00     0.173 A 
ATOM     87  F   UNL A   1      49.118  28.347  29.019  1.00  0.00    -0.203 F 
ATOM     88  C   UNL A   1      50.682  27.060  30.215  1.00  0.00     0.198 A 
ATOM     89  C   UNL A   1      49.964  25.716  32.069  1.00  0.00     0.198 A 
ATOM     90  F   UNL A   1      47.688  25.658  32.673  1.00  0.00    -0.203 F 
ATOM     91  F   UNL A   1      51.657  27.493  29.404  1.00  0.00    -0.200 F 
ATOM     92  C   UNL A   1      50.977  26.176  31.241  1.00  0.00     0.200 A 
ATOM     93  F   UNL A   1      50.251  24.879  33.076  1.00  0.00    -0.200 F 
ATOM     94  F   UNL A   1      52.239  25.767  31.433  1.00  0.00    -0.200 F 
ENDBRANCH  61  84
ENDBRANCH  35  36
ENDBRANCH  27  30
ENDBRANCH  25  26
ENDBRANCH  24  25
ENDBRANCH  23  24
ENDBRANCH  22  23
ENDBRANCH   1  22
TORSDOF 17
ENDMDL
MODEL 3
REMARK VINA RESULT:      -8.4      4.462      8.196
REMARK SMILES CC[C@@H](C)N(C)c1ccc(/C=C/C(=O)NCCCCCCNC(=O)c2ccc(-c3c4nc(c(-c5c(F)c(F)c(F)c(F)c5F)c5ccc([nH]5)c(-c5c(F)c(F)c(F)c(F)c5F)c5nc(c(-c6c(F)c(F)c(F)c(F)c6F)c6ccc3[nH]6)C=C5)C=C4)cc2)cc1F
REMARK SMILES IDX 17 1 16 2 15 3 13 4 14 5 12 7 11 8 10 9 7 10 8 11 89 12 9 13
REMARK SMILES IDX 88 14 90 15 5 16 6 17 3 18 4 19 2 20 1 21 18 22 19 23 20 24
REMARK SMILES IDX 21 25 22 26 23 27 24 29 25 30 26 31 87 32 27 33 86 34 28 35
REMARK SMILES IDX 29 36 30 37 80 38 31 39 85 40 79 41 81 42 32 43 84 44 78 45
REMARK SMILES IDX 77 46 33 48 65 49 45 50 64 51 46 52 49 53 63 54 82 55 47 56
REMARK SMILES IDX 48 57 62 59 83 60 50 61 34 62 35 63 43 64 36 65 37 66 41 67
REMARK SMILES IDX 44 68 38 69 39 70 42 71 40 72 66 73 67 74 75 75 68 76 69 77
REMARK SMILES IDX 73 78 76 79 70 80 71 81 74 82 72 83 51 84 52 85 60 86 53 87
REMARK SMILES IDX 54 88 58 89 61 90 55 91 56 92 59 93 57 94
REMARK H PARENT 15 6 22 28 81 47 49 58
REMARK Flexibility Score: inf
ROOT
ATOM      1  C   UNL A   1      40.498  22.537  27.408  1.00  0.00     0.021 C 
ENDROOT
BRANCH   1   2
ATOM      2  C   UNL A   1      39.334  23.095  26.588  1.00  0.00     0.116 C 
BRANCH   2   3
ATOM      3  N   UNL A   1      38.748  22.058  25.757  1.00  0.00    -0.353 N 
ATOM      4  C   UNL A   1      37.648  22.078  24.956  1.00  0.00     0.243 C 
ATOM      5  O   UNL A   1      37.377  21.100  24.263  1.00  0.00    -0.270 OA
ATOM      6  H   UNL A   1      39.225  21.197  25.777  1.00  0.00     0.163 HD
BRANCH   4   7
ATOM      7  C   UNL A   1      36.832  23.304  24.838  1.00  0.00     0.072 C 
ATOM      8  C   UNL A   1      35.504  23.290  24.648  1.00  0.00     0.014 C 
BRANCH   8   9
ATOM      9  C   UNL A   1      34.668  24.495  24.581  1.00  0.00    -0.022 A 
ATOM     10  C   UNL A   1      33.093  26.866  24.319  1.00  0.00     0.073 A 
ATOM     11  C   UNL A   1      33.575  26.434  25.566  1.00  0.00     0.029 A 
ATOM     12  C   UNL A   1      33.442  26.077  23.212  1.00  0.00     0.147 A 
ATOM     13  C   UNL A   1      34.353  25.271  25.699  1.00  0.00     0.010 A 
ATOM     14  C   UNL A   1      34.207  24.915  23.333  1.00  0.00     0.049 A 
ATOM     15  F   UNL A   1      33.103  26.450  21.968  1.00  0.00    -0.205 F 
BRANCH  10  16
ATOM     16  N   UNL A   1      32.348  28.038  24.203  1.00  0.00    -0.370 N 
ATOM     17  C   UNL A   1      32.962  29.267  24.694  1.00  0.00     0.144 C 
BRANCH  16  18
ATOM     18  C   UNL A   1      30.875  28.021  24.048  1.00  0.00     0.078 C 
ATOM     19  C   UNL A   1      30.280  26.692  24.519  1.00  0.00     0.031 C 
BRANCH  18  20
ATOM     20  C   UNL A   1      30.436  28.401  22.626  1.00  0.00     0.021 C 
ATOM     21  C   UNL A   1      29.331  29.448  22.589  1.00  0.00     0.006 C 
ENDBRANCH  18  20
ENDBRANCH  16  18
ENDBRANCH  10  16
ENDBRANCH   8   9
ENDBRANCH   4   7
ENDBRANCH   2   3
ENDBRANCH   1   2
BRANCH   1  22
ATOM     22  C   UNL A   1      41.476  21.684  26.590  1.00  0.00     0.002 C 
BRANCH  22  23
ATOM     23  C   UNL A   1      41.709  20.268  27.129  1.00  0.00     0.002 C 
BRANCH  23  24
ATOM     24  C   UNL A   1      42.082  19.222  26.073  1.00  0.00     0.021 C 
BRANCH  24  25
ATOM     25  C   UNL A   1      43.518  18.712  26.166  1.00  0.00     0.116 C 
BRANCH  25  26
ATOM     26  N   UNL A   1      44.148  18.625  24.859  1.00  0.00    -0.352 N 
ATOM     27  C   UNL A   1      44.614  19.627  24.045  1.00  0.00     0.251 C 
ATOM     28  H   UNL A   1      44.257  17.712  24.505  1.00  0.00     0.163 HD
ATOM     29  O   UNL A   1      44.920  19.385  22.883  1.00  0.00    -0.269 OA
BRANCH  27  30
ATOM     30  C   UNL A   1      44.738  21.005  24.565  1.00  0.00     0.039 A 
ATOM     31  C   UNL A   1      45.364  21.207  25.798  1.00  0.00     0.014 A 
ATOM     32  C   UNL A   1      44.211  22.091  23.859  1.00  0.00     0.014 A 
ATOM     33  C   UNL A   1      45.505  22.502  26.300  1.00  0.00     0.010 A 
ATOM     34  C   UNL A   1      44.412  23.386  24.327  1.00  0.00     0.010 A 
ATOM     35  C   UNL A   1      45.055  23.604  25.555  1.00  0.00    -0.014 A 
BRANCH  35  36
ATOM     36  C   UNL A   1      45.244  24.990  26.049  1.00  0.00     0.031 A 
ATOM     37  C   UNL A   1      46.599  25.636  25.993  1.00  0.00     0.074 A 
ATOM     38  C   UNL A   1      44.202  25.648  26.593  1.00  0.00     0.049 A 
ATOM     39  N   UNL A   1      46.971  26.816  26.423  1.00  0.00    -0.248 NA
ATOM     40  C   UNL A   1      47.686  24.843  25.397  1.00  0.00     0.031 C 
ATOM     41  C   UNL A   1      42.850  25.111  26.739  1.00  0.00     0.029 A 
ATOM     42  N   UNL A   1      44.120  26.910  27.128  1.00  0.00    -0.354 N 
ATOM     43  C   UNL A   1      48.330  26.902  26.156  1.00  0.00     0.074 A 
ATOM     44  C   UNL A   1      48.731  25.637  25.579  1.00  0.00     0.031 C 
ATOM     45  C   UNL A   1      42.064  26.045  27.297  1.00  0.00     0.029 A 
ATOM     46  C   UNL A   1      42.865  27.232  27.583  1.00  0.00     0.049 A 
ATOM     47  H   UNL A   1      44.887  27.524  27.181  1.00  0.00     0.167 HD
ATOM     48  C   UNL A   1      49.162  27.953  26.351  1.00  0.00     0.037 A 
ATOM     49  C   UNL A   1      42.411  28.359  28.165  1.00  0.00     0.037 A 
ATOM     50  C   UNL A   1      48.754  29.218  26.904  1.00  0.00     0.049 A 
ATOM     51  C   UNL A   1      43.355  29.509  28.379  1.00  0.00     0.074 A 
ATOM     52  C   UNL A   1      49.511  30.359  27.097  1.00  0.00     0.029 A 
ATOM     53  N   UNL A   1      47.472  29.507  27.352  1.00  0.00    -0.354 N 
ATOM     54  N   UNL A   1      44.628  29.597  28.080  1.00  0.00    -0.248 NA
ATOM     55  C   UNL A   1      42.801  30.715  29.008  1.00  0.00     0.031 C 
ATOM     56  C   UNL A   1      48.701  31.324  27.702  1.00  0.00     0.029 A 
ATOM     57  C   UNL A   1      47.425  30.804  27.839  1.00  0.00     0.049 A 
ATOM     58  H   UNL A   1      46.711  28.884  27.328  1.00  0.00     0.167 HD
ATOM     59  C   UNL A   1      45.024  30.870  28.464  1.00  0.00     0.074 A 
ATOM     60  C   UNL A   1      43.851  31.526  29.005  1.00  0.00     0.031 C 
ATOM     61  C   UNL A   1      46.249  31.443  28.374  1.00  0.00     0.037 A 
BRANCH  48  62
ATOM     62  C   UNL A   1      50.599  27.789  25.948  1.00  0.00     0.064 A 
ATOM     63  C   UNL A   1      50.984  27.921  24.605  1.00  0.00     0.173 A 
ATOM     64  C   UNL A   1      51.587  27.445  26.883  1.00  0.00     0.173 A 
ATOM     65  F   UNL A   1      50.078  28.242  23.669  1.00  0.00    -0.203 F 
ATOM     66  C   UNL A   1      52.304  27.708  24.213  1.00  0.00     0.198 A 
ATOM     67  C   UNL A   1      52.911  27.263  26.493  1.00  0.00     0.198 A 
ATOM     68  F   UNL A   1      51.272  27.317  28.180  1.00  0.00    -0.203 F 
ATOM     69  F   UNL A   1      52.643  27.813  22.921  1.00  0.00    -0.200 F 
ATOM     70  C   UNL A   1      53.266  27.385  25.158  1.00  0.00     0.200 A 
ATOM     71  F   UNL A   1      53.845  26.976  27.410  1.00  0.00    -0.200 F 
ATOM     72  F   UNL A   1      54.538  27.195  24.781  1.00  0.00    -0.200 F 
ENDBRANCH  48  62
BRANCH  49  73
ATOM     73  C   UNL A   1      40.978  28.456  28.543  1.00  0.00     0.064 A 
ATOM     74  C   UNL A   1      40.022  28.977  27.659  1.00  0.00     0.173 A 
ATOM     75  C   UNL A   1      40.547  28.073  29.820  1.00  0.00     0.173 A 
ATOM     76  F   UNL A   1      40.386  29.363  26.427  1.00  0.00    -0.203 F 
ATOM     77  C   UNL A   1      38.693  29.132  28.047  1.00  0.00     0.198 A 
ATOM     78  C   UNL A   1      39.213  28.206  30.199  1.00  0.00     0.198 A 
ATOM     79  F   UNL A   1      41.422  27.553  30.693  1.00  0.00    -0.203 F 
ATOM     80  F   UNL A   1      37.807  29.669  27.197  1.00  0.00    -0.200 F 
ATOM     81  C   UNL A   1      38.289  28.744  29.316  1.00  0.00     0.200 A 
ATOM     82  F   UNL A   1      38.822  27.811  31.418  1.00  0.00    -0.200 F 
ATOM     83  F   UNL A   1      37.010  28.889  29.687  1.00  0.00    -0.200 F 
ENDBRANCH  49  73
BRANCH  61  84
ATOM     84  C   UNL A   1      46.393  32.856  28.858  1.00  0.00     0.064 A 
ATOM     85  C   UNL A   1      46.697  33.118  30.203  1.00  0.00     0.173 A 
ATOM     86  C   UNL A   1      46.153  33.948  28.012  1.00  0.00     0.173 A 
ATOM     87  F   UNL A   1      46.928  32.107  31.053  1.00  0.00    -0.203 F 
ATOM     88  C   UNL A   1      46.739  34.423  30.686  1.00  0.00     0.198 A 
ATOM     89  C   UNL A   1      46.222  35.252  28.494  1.00  0.00     0.198 A 
ATOM     90  F   UNL A   1      45.870  33.748  26.716  1.00  0.00    -0.203 F 
ATOM     91  F   UNL A   1      46.997  34.649  31.981  1.00  0.00    -0.200 F 
ATOM     92  C   UNL A   1      46.505  35.489  29.831  1.00  0.00     0.200 A 
ATOM     93  F   UNL A   1      46.018  36.283  27.661  1.00  0.00    -0.200 F 
ATOM     94  F   UNL A   1      46.553  36.745  30.295  1.00  0.00    -0.200 F 
ENDBRANCH  61  84
ENDBRANCH  35  36
ENDBRANCH  27  30
ENDBRANCH  25  26
ENDBRANCH  24  25
ENDBRANCH  23  24
ENDBRANCH  22  23
ENDBRANCH   1  22
TORSDOF 17
ENDMDL
