MODEL 1
REMARK VINA RESULT:     -12.0      0.000      0.000
REMARK SMILES CCc1c(C(=O)NCC(=O)NCCCCCCNC(=O)c2ccc(-c3c4nc(c(-c5c(F)c(F)c(F)c(F)c5F)c5ccc([nH]5)c(-c5c(F)c(F)c(F)c(F)c5F)c5nc(c(-c6c(F)c(F)c(F)c(F)c6F)c6ccc3[nH]6)C=C5)C=C4)cc2)nnn1-c1ccc(Cl)cc1
REMARK SMILES IDX 14 1 13 2 12 3 11 4 9 5 10 6 8 8 7 9 5 10 6 11 4 13 3 14
REMARK SMILES IDX 86 15 84 16 85 17 2 18 1 19 87 20 88 21 93 22 89 23 92 24
REMARK SMILES IDX 90 25 91 26 15 27 16 28 17 29 18 30 19 31 20 33 21 34 22 35
REMARK SMILES IDX 83 36 23 37 82 38 24 39 25 40 26 41 76 42 27 43 81 44 75 45
REMARK SMILES IDX 77 46 28 47 80 48 74 49 73 50 29 52 61 53 41 54 60 55 42 56
REMARK SMILES IDX 45 57 59 58 78 59 43 60 44 61 58 63 79 64 46 65 30 66 31 67
REMARK SMILES IDX 39 68 32 69 33 70 37 71 40 72 34 73 35 74 38 75 36 76 62 77
REMARK SMILES IDX 63 78 71 79 64 80 65 81 69 82 72 83 66 84 67 85 70 86 68 87
REMARK SMILES IDX 47 88 48 89 56 90 49 91 50 92 54 93 57 94 51 95 52 96 55 97
REMARK SMILES IDX 53 98
REMARK H PARENT 11 7 7 12 18 32 77 51 45 62
REMARK Flexibility Score: inf
ROOT
ATOM      1  C   UNL A   1      40.512  21.886  26.427  1.00  0.00     0.002 C 
ENDROOT
BRANCH   1   2
ATOM      2  C   UNL A   1      39.062  21.553  26.067  1.00  0.00     0.021 C 
BRANCH   2   3
ATOM      3  C   UNL A   1      38.172  22.785  25.980  1.00  0.00     0.116 C 
BRANCH   3   4
ATOM      4  N   UNL A   1      37.744  23.033  24.624  1.00  0.00    -0.355 N 
ATOM      5  C   UNL A   1      36.679  22.571  23.923  1.00  0.00     0.239 C 
ATOM      6  O   UNL A   1      36.591  22.943  22.747  1.00  0.00    -0.273 OA
ATOM      7  H   UNL A   1      38.329  23.643  24.119  1.00  0.00     0.163 HD
BRANCH   5   8
ATOM      8  C   UNL A   1      35.504  21.815  24.561  1.00  0.00     0.216 C 
BRANCH   8   9
ATOM      9  N   UNL A   1      34.173  21.790  23.999  1.00  0.00    -0.342 N 
ATOM     10  C   UNL A   1      33.244  22.714  23.601  1.00  0.00     0.274 C 
ATOM     11  O   UNL A   1      32.300  22.209  22.981  1.00  0.00    -0.267 OA
ATOM     12  H   UNL A   1      33.850  20.870  23.870  1.00  0.00     0.164 HD
BRANCH  10  13
ATOM     13  C   UNL A   1      33.213  24.151  23.932  1.00  0.00     0.174 A 
ATOM     14  C   UNL A   1      32.758  24.971  24.972  1.00  0.00     0.077 A 
ATOM     15  N   UNL A   1      33.045  26.267  24.526  1.00  0.00    -0.217 N 
ATOM     16  N   UNL A   1      33.645  24.984  22.911  1.00  0.00    -0.124 NA
ATOM     17  N   UNL A   1      33.422  26.239  23.238  1.00  0.00    -0.061 NA
BRANCH  14  18
ATOM     18  C   UNL A   1      31.971  24.742  26.220  1.00  0.00     0.055 C 
ATOM     19  C   UNL A   1      30.464  24.786  26.021  1.00  0.00     0.011 C 
ENDBRANCH  14  18
BRANCH  15  20
ATOM     20  C   UNL A   1      32.916  27.513  25.191  1.00  0.00     0.067 A 
ATOM     21  C   UNL A   1      33.851  27.871  26.173  1.00  0.00     0.030 A 
ATOM     22  C   UNL A   1      31.856  28.376  24.890  1.00  0.00     0.030 A 
ATOM     23  C   UNL A   1      33.767  29.123  26.788  1.00  0.00     0.023 A 
ATOM     24  C   UNL A   1      31.764  29.617  25.524  1.00  0.00     0.023 A 
ATOM     25  C   UNL A   1      32.728  29.993  26.456  1.00  0.00     0.041 A 
ATOM     26  Cl  UNL A   1      32.629  31.536  27.206  1.00  0.00    -0.084 Cl
ENDBRANCH  15  20
ENDBRANCH  10  13
ENDBRANCH   8   9
ENDBRANCH   5   8
ENDBRANCH   3   4
ENDBRANCH   2   3
ENDBRANCH   1   2
BRANCH   1  27
ATOM     27  C   UNL A   1      41.120  21.061  27.572  1.00  0.00     0.002 C 
BRANCH  27  28
ATOM     28  C   UNL A   1      42.146  19.984  27.182  1.00  0.00     0.021 C 
BRANCH  28  29
ATOM     29  C   UNL A   1      42.242  19.729  25.688  1.00  0.00     0.116 C 
BRANCH  29  30
ATOM     30  N   UNL A   1      43.628  19.578  25.224  1.00  0.00    -0.352 N 
ATOM     31  C   UNL A   1      44.516  20.555  24.817  1.00  0.00     0.251 C 
ATOM     32  H   UNL A   1      43.971  18.656  25.201  1.00  0.00     0.163 HD
ATOM     33  O   UNL A   1      45.484  20.276  24.101  1.00  0.00    -0.269 OA
BRANCH  31  34
ATOM     34  C   UNL A   1      44.306  21.936  25.268  1.00  0.00     0.039 A 
ATOM     35  C   UNL A   1      43.457  22.840  24.624  1.00  0.00     0.014 A 
ATOM     36  C   UNL A   1      44.973  22.303  26.428  1.00  0.00     0.014 A 
ATOM     37  C   UNL A   1      43.269  24.095  25.203  1.00  0.00     0.010 A 
ATOM     38  C   UNL A   1      44.542  23.378  27.138  1.00  0.00     0.010 A 
ATOM     39  C   UNL A   1      43.820  24.346  26.471  1.00  0.00    -0.014 A 
BRANCH  39  40
ATOM     40  C   UNL A   1      43.613  25.585  27.199  1.00  0.00     0.031 A 
ATOM     41  C   UNL A   1      44.575  26.646  26.834  1.00  0.00     0.074 A 
ATOM     42  C   UNL A   1      42.503  25.816  27.939  1.00  0.00     0.049 A 
ATOM     43  N   UNL A   1      45.537  27.104  27.559  1.00  0.00    -0.248 NA
ATOM     44  C   UNL A   1      44.591  27.126  25.443  1.00  0.00     0.031 C 
ATOM     45  C   UNL A   1      41.314  24.967  28.108  1.00  0.00     0.029 A 
ATOM     46  N   UNL A   1      42.162  26.929  28.641  1.00  0.00    -0.354 N 
ATOM     47  C   UNL A   1      46.141  28.098  26.797  1.00  0.00     0.074 A 
ATOM     48  C   UNL A   1      45.671  27.911  25.450  1.00  0.00     0.031 C 
ATOM     49  C   UNL A   1      40.311  25.682  28.666  1.00  0.00     0.029 A 
ATOM     50  C   UNL A   1      40.831  26.978  29.054  1.00  0.00     0.049 A 
ATOM     51  H   UNL A   1      42.805  27.646  28.843  1.00  0.00     0.167 HD
ATOM     52  C   UNL A   1      46.743  29.156  27.406  1.00  0.00     0.037 A 
ATOM     53  C   UNL A   1      40.212  28.028  29.654  1.00  0.00     0.037 A 
ATOM     54  C   UNL A   1      46.969  28.877  28.806  1.00  0.00     0.049 A 
ATOM     55  C   UNL A   1      41.282  28.895  30.211  1.00  0.00     0.074 A 
ATOM     56  C   UNL A   1      47.681  27.921  29.503  1.00  0.00     0.029 A 
ATOM     57  N   UNL A   1      46.074  29.405  29.706  1.00  0.00    -0.354 N 
ATOM     58  N   UNL A   1      42.061  28.536  31.193  1.00  0.00    -0.248 NA
ATOM     59  C   UNL A   1      41.798  29.951  29.355  1.00  0.00     0.031 C 
ATOM     60  C   UNL A   1      46.860  27.591  30.624  1.00  0.00     0.029 A 
ATOM     61  C   UNL A   1      45.737  28.419  30.597  1.00  0.00     0.049 A 
ATOM     62  H   UNL A   1      45.735  30.328  29.710  1.00  0.00     0.167 HD
ATOM     63  C   UNL A   1      43.321  28.984  30.822  1.00  0.00     0.074 A 
ATOM     64  C   UNL A   1      43.083  29.913  29.718  1.00  0.00     0.031 C 
ATOM     65  C   UNL A   1      44.446  28.333  31.241  1.00  0.00     0.037 A 
BRANCH  52  66
ATOM     66  C   UNL A   1      46.740  30.566  26.865  1.00  0.00     0.064 A 
ATOM     67  C   UNL A   1      47.943  31.300  26.890  1.00  0.00     0.173 A 
ATOM     68  C   UNL A   1      45.574  31.324  26.619  1.00  0.00     0.173 A 
ATOM     69  F   UNL A   1      49.112  30.685  27.125  1.00  0.00    -0.203 F 
ATOM     70  C   UNL A   1      47.963  32.691  26.778  1.00  0.00     0.198 A 
ATOM     71  C   UNL A   1      45.604  32.708  26.453  1.00  0.00     0.198 A 
ATOM     72  F   UNL A   1      44.349  30.792  26.642  1.00  0.00    -0.203 F 
ATOM     73  F   UNL A   1      49.114  33.355  26.950  1.00  0.00    -0.200 F 
ATOM     74  C   UNL A   1      46.792  33.396  26.569  1.00  0.00     0.200 A 
ATOM     75  F   UNL A   1      44.455  33.373  26.270  1.00  0.00    -0.200 F 
ATOM     76  F   UNL A   1      46.798  34.734  26.531  1.00  0.00    -0.200 F 
ENDBRANCH  52  66
BRANCH  53  77
ATOM     77  C   UNL A   1      38.816  28.506  29.492  1.00  0.00     0.064 A 
ATOM     78  C   UNL A   1      37.991  28.729  30.609  1.00  0.00     0.173 A 
ATOM     79  C   UNL A   1      38.365  29.037  28.268  1.00  0.00     0.173 A 
ATOM     80  F   UNL A   1      38.366  28.294  31.821  1.00  0.00    -0.203 F 
ATOM     81  C   UNL A   1      36.806  29.470  30.513  1.00  0.00     0.198 A 
ATOM     82  C   UNL A   1      37.181  29.772  28.173  1.00  0.00     0.198 A 
ATOM     83  F   UNL A   1      39.112  28.936  27.160  1.00  0.00    -0.203 F 
ATOM     84  F   UNL A   1      36.079  29.716  31.612  1.00  0.00    -0.200 F 
ATOM     85  C   UNL A   1      36.409  30.001  29.298  1.00  0.00     0.200 A 
ATOM     86  F   UNL A   1      36.825  30.310  26.998  1.00  0.00    -0.200 F 
ATOM     87  F   UNL A   1      35.310  30.765  29.217  1.00  0.00    -0.200 F 
ENDBRANCH  53  77
BRANCH  65  88
ATOM     88  C   UNL A   1      44.292  27.294  32.320  1.00  0.00     0.064 A 
ATOM     89  C   UNL A   1      44.166  25.913  32.086  1.00  0.00     0.173 A 
ATOM     90  C   UNL A   1      44.413  27.708  33.653  1.00  0.00     0.173 A 
ATOM     91  F   UNL A   1      44.139  25.423  30.841  1.00  0.00    -0.203 F 
ATOM     92  C   UNL A   1      44.122  24.999  33.138  1.00  0.00     0.198 A 
ATOM     93  C   UNL A   1      44.406  26.791  34.700  1.00  0.00     0.198 A 
ATOM     94  F   UNL A   1      44.587  29.008  33.937  1.00  0.00    -0.203 F 
ATOM     95  F   UNL A   1      43.988  23.687  32.887  1.00  0.00    -0.200 F 
ATOM     96  C   UNL A   1      44.249  25.439  34.445  1.00  0.00     0.200 A 
ATOM     97  F   UNL A   1      44.577  27.219  35.958  1.00  0.00    -0.200 F 
ATOM     98  F   UNL A   1      44.245  24.559  35.456  1.00  0.00    -0.200 F 
ENDBRANCH  65  88
ENDBRANCH  39  40
ENDBRANCH  31  34
ENDBRANCH  29  30
ENDBRANCH  28  29
ENDBRANCH  27  28
ENDBRANCH   1  27
TORSDOF 17
ENDMDL
MODEL 2
REMARK VINA RESULT:     -12.0      1.228      1.889
REMARK SMILES CCc1c(C(=O)NCC(=O)NCCCCCCNC(=O)c2ccc(-c3c4nc(c(-c5c(F)c(F)c(F)c(F)c5F)c5ccc([nH]5)c(-c5c(F)c(F)c(F)c(F)c5F)c5nc(c(-c6c(F)c(F)c(F)c(F)c6F)c6ccc3[nH]6)C=C5)C=C4)cc2)nnn1-c1ccc(Cl)cc1
REMARK SMILES IDX 14 1 13 2 12 3 11 4 9 5 10 6 8 8 7 9 5 10 6 11 4 13 3 14
REMARK SMILES IDX 86 15 84 16 85 17 2 18 1 19 87 20 88 21 93 22 89 23 92 24
REMARK SMILES IDX 90 25 91 26 15 27 16 28 17 29 18 30 19 31 20 33 21 34 22 35
REMARK SMILES IDX 83 36 23 37 82 38 24 39 25 40 26 41 76 42 27 43 81 44 75 45
REMARK SMILES IDX 77 46 28 47 80 48 74 49 73 50 29 52 61 53 41 54 60 55 42 56
REMARK SMILES IDX 45 57 59 58 78 59 43 60 44 61 58 63 79 64 46 65 30 66 31 67
REMARK SMILES IDX 39 68 32 69 33 70 37 71 40 72 34 73 35 74 38 75 36 76 62 77
REMARK SMILES IDX 63 78 71 79 64 80 65 81 69 82 72 83 66 84 67 85 70 86 68 87
REMARK SMILES IDX 47 88 48 89 56 90 49 91 50 92 54 93 57 94 51 95 52 96 55 97
REMARK SMILES IDX 53 98
REMARK H PARENT 11 7 7 12 18 32 77 51 45 62
REMARK Flexibility Score: inf
ROOT
ATOM      1  C   UNL A   1      40.707  21.814  26.223  1.00  0.00     0.002 C 
ENDROOT
BRANCH   1   2
ATOM      2  C   UNL A   1      39.293  22.365  26.427  1.00  0.00     0.021 C 
BRANCH   2   3
ATOM      3  C   UNL A   1      38.225  21.540  25.725  1.00  0.00     0.116 C 
BRANCH   3   4
ATOM      4  N   UNL A   1      37.741  22.201  24.536  1.00  0.00    -0.355 N 
ATOM      5  C   UNL A   1      36.710  23.061  24.348  1.00  0.00     0.239 C 
ATOM      6  O   UNL A   1      36.517  23.443  23.188  1.00  0.00    -0.273 OA
ATOM      7  H   UNL A   1      38.248  21.990  23.719  1.00  0.00     0.163 HD
BRANCH   5   8
ATOM      8  C   UNL A   1      35.937  23.727  25.496  1.00  0.00     0.216 C 
BRANCH   8   9
ATOM      9  N   UNL A   1      34.902  23.059  26.252  1.00  0.00    -0.342 N 
ATOM     10  C   UNL A   1      33.546  23.179  26.404  1.00  0.00     0.274 C 
ATOM     11  O   UNL A   1      33.046  22.232  27.023  1.00  0.00    -0.267 OA
ATOM     12  H   UNL A   1      35.266  22.328  26.801  1.00  0.00     0.164 HD
BRANCH  10  13
ATOM     13  C   UNL A   1      32.702  24.328  26.026  1.00  0.00     0.174 A 
ATOM     14  C   UNL A   1      32.692  25.340  25.059  1.00  0.00     0.077 A 
ATOM     15  N   UNL A   1      31.568  26.107  25.388  1.00  0.00    -0.217 N 
ATOM     16  N   UNL A   1      31.668  24.596  26.912  1.00  0.00    -0.124 NA
ATOM     17  N   UNL A   1      31.084  25.727  26.581  1.00  0.00    -0.061 NA
BRANCH  14  18
ATOM     18  C   UNL A   1      33.641  25.782  23.993  1.00  0.00     0.055 C 
ATOM     19  C   UNL A   1      33.252  25.337  22.593  1.00  0.00     0.011 C 
ENDBRANCH  14  18
BRANCH  15  20
ATOM     20  C   UNL A   1      30.977  27.203  24.709  1.00  0.00     0.067 A 
ATOM     21  C   UNL A   1      31.339  28.511  25.065  1.00  0.00     0.030 A 
ATOM     22  C   UNL A   1      30.026  26.992  23.705  1.00  0.00     0.030 A 
ATOM     23  C   UNL A   1      30.807  29.594  24.359  1.00  0.00     0.023 A 
ATOM     24  C   UNL A   1      29.482  28.079  23.018  1.00  0.00     0.023 A 
ATOM     25  C   UNL A   1      29.887  29.373  23.335  1.00  0.00     0.041 A 
ATOM     26  Cl  UNL A   1      29.240  30.705  22.461  1.00  0.00    -0.084 Cl
ENDBRANCH  15  20
ENDBRANCH  10  13
ENDBRANCH   8   9
ENDBRANCH   5   8
ENDBRANCH   3   4
ENDBRANCH   2   3
ENDBRANCH   1   2
BRANCH   1  27
ATOM     27  C   UNL A   1      41.266  20.970  27.380  1.00  0.00     0.002 C 
BRANCH  27  28
ATOM     28  C   UNL A   1      42.292  19.886  27.014  1.00  0.00     0.021 C 
BRANCH  28  29
ATOM     29  C   UNL A   1      42.431  19.639  25.522  1.00  0.00     0.116 C 
BRANCH  29  30
ATOM     30  N   UNL A   1      43.829  19.484  25.098  1.00  0.00    -0.352 N 
ATOM     31  C   UNL A   1      44.735  20.459  24.730  1.00  0.00     0.251 C 
ATOM     32  H   UNL A   1      44.166  18.559  25.074  1.00  0.00     0.163 HD
ATOM     33  O   UNL A   1      45.722  20.182  24.040  1.00  0.00    -0.269 OA
BRANCH  31  34
ATOM     34  C   UNL A   1      44.521  21.836  25.192  1.00  0.00     0.039 A 
ATOM     35  C   UNL A   1      43.690  22.750  24.540  1.00  0.00     0.014 A 
ATOM     36  C   UNL A   1      45.165  22.187  26.369  1.00  0.00     0.014 A 
ATOM     37  C   UNL A   1      43.494  23.999  25.129  1.00  0.00     0.010 A 
ATOM     38  C   UNL A   1      44.724  23.256  27.082  1.00  0.00     0.010 A 
ATOM     39  C   UNL A   1      44.020  24.234  26.410  1.00  0.00    -0.014 A 
BRANCH  39  40
ATOM     40  C   UNL A   1      43.802  25.467  27.147  1.00  0.00     0.031 A 
ATOM     41  C   UNL A   1      44.759  26.536  26.795  1.00  0.00     0.074 A 
ATOM     42  C   UNL A   1      42.688  25.684  27.885  1.00  0.00     0.049 A 
ATOM     43  N   UNL A   1      45.716  26.995  27.528  1.00  0.00    -0.248 NA
ATOM     44  C   UNL A   1      44.778  27.028  25.408  1.00  0.00     0.031 C 
ATOM     45  C   UNL A   1      41.503  24.827  28.042  1.00  0.00     0.029 A 
ATOM     46  N   UNL A   1      42.337  26.789  28.595  1.00  0.00    -0.354 N 
ATOM     47  C   UNL A   1      46.316  27.997  26.775  1.00  0.00     0.074 A 
ATOM     48  C   UNL A   1      45.853  27.819  25.425  1.00  0.00     0.031 C 
ATOM     49  C   UNL A   1      40.494  25.532  28.603  1.00  0.00     0.029 A 
ATOM     50  C   UNL A   1      41.005  26.828  29.003  1.00  0.00     0.049 A 
ATOM     51  H   UNL A   1      42.975  27.509  28.805  1.00  0.00     0.167 HD
ATOM     52  C   UNL A   1      46.909  29.055  27.395  1.00  0.00     0.037 A 
ATOM     53  C   UNL A   1      40.377  27.868  29.609  1.00  0.00     0.037 A 
ATOM     54  C   UNL A   1      47.131  28.766  28.793  1.00  0.00     0.049 A 
ATOM     55  C   UNL A   1      41.439  28.738  30.177  1.00  0.00     0.074 A 
ATOM     56  C   UNL A   1      47.847  27.808  29.486  1.00  0.00     0.029 A 
ATOM     57  N   UNL A   1      46.230  29.281  29.694  1.00  0.00    -0.354 N 
ATOM     58  N   UNL A   1      42.217  28.376  31.159  1.00  0.00    -0.248 NA
ATOM     59  C   UNL A   1      41.952  29.803  29.331  1.00  0.00     0.031 C 
ATOM     60  C   UNL A   1      47.024  27.465  30.601  1.00  0.00     0.029 A 
ATOM     61  C   UNL A   1      45.896  28.286  30.577  1.00  0.00     0.049 A 
ATOM     62  H   UNL A   1      45.885  30.202  29.704  1.00  0.00     0.167 HD
ATOM     63  C   UNL A   1      43.475  28.835  30.796  1.00  0.00     0.074 A 
ATOM     64  C   UNL A   1      43.236  29.770  29.699  1.00  0.00     0.031 C 
ATOM     65  C   UNL A   1      44.603  28.187  31.214  1.00  0.00     0.037 A 
BRANCH  52  66
ATOM     66  C   UNL A   1      46.899  30.469  26.865  1.00  0.00     0.064 A 
ATOM     67  C   UNL A   1      48.096  31.212  26.906  1.00  0.00     0.173 A 
ATOM     68  C   UNL A   1      45.729  31.220  26.616  1.00  0.00     0.173 A 
ATOM     69  F   UNL A   1      49.269  30.604  27.145  1.00  0.00    -0.203 F 
ATOM     70  C   UNL A   1      48.106  32.604  26.805  1.00  0.00     0.198 A 
ATOM     71  C   UNL A   1      45.750  32.605  26.462  1.00  0.00     0.198 A 
ATOM     72  F   UNL A   1      44.508  30.678  26.626  1.00  0.00    -0.203 F 
ATOM     73  F   UNL A   1      49.251  33.275  26.991  1.00  0.00    -0.200 F 
ATOM     74  C   UNL A   1      46.932  33.302  26.593  1.00  0.00     0.200 A 
ATOM     75  F   UNL A   1      44.598  33.263  26.274  1.00  0.00    -0.200 F 
ATOM     76  F   UNL A   1      46.928  34.639  26.565  1.00  0.00    -0.200 F 
ENDBRANCH  52  66
BRANCH  53  77
ATOM     77  C   UNL A   1      38.979  28.339  29.446  1.00  0.00     0.064 A 
ATOM     78  C   UNL A   1      38.152  28.561  30.562  1.00  0.00     0.173 A 
ATOM     79  C   UNL A   1      38.525  28.865  28.221  1.00  0.00     0.173 A 
ATOM     80  F   UNL A   1      38.529  28.131  31.775  1.00  0.00    -0.203 F 
ATOM     81  C   UNL A   1      36.964  29.295  30.464  1.00  0.00     0.198 A 
ATOM     82  C   UNL A   1      37.338  29.594  28.123  1.00  0.00     0.198 A 
ATOM     83  F   UNL A   1      39.273  28.765  27.113  1.00  0.00    -0.203 F 
ATOM     84  F   UNL A   1      36.235  29.541  31.562  1.00  0.00    -0.200 F 
ATOM     85  C   UNL A   1      36.565  29.822  29.247  1.00  0.00     0.200 A 
ATOM     86  F   UNL A   1      36.980  30.128  26.947  1.00  0.00    -0.200 F 
ATOM     87  F   UNL A   1      35.462  30.580  29.164  1.00  0.00    -0.200 F 
ENDBRANCH  53  77
BRANCH  65  88
ATOM     88  C   UNL A   1      44.451  27.139  32.285  1.00  0.00     0.064 A 
ATOM     89  C   UNL A   1      44.282  27.415  33.653  1.00  0.00     0.173 A 
ATOM     90  C   UNL A   1      44.339  25.801  31.884  1.00  0.00     0.173 A 
ATOM     91  F   UNL A   1      44.281  28.673  34.109  1.00  0.00    -0.203 F 
ATOM     92  C   UNL A   1      44.053  26.397  34.577  1.00  0.00     0.198 A 
ATOM     93  C   UNL A   1      44.074  24.790  32.803  1.00  0.00     0.198 A 
ATOM     94  F   UNL A   1      44.441  25.480  30.585  1.00  0.00    -0.203 F 
ATOM     95  F   UNL A   1      43.907  26.687  35.879  1.00  0.00    -0.200 F 
ATOM     96  C   UNL A   1      43.942  25.084  34.150  1.00  0.00     0.200 A 
ATOM     97  F   UNL A   1      43.920  23.528  32.376  1.00  0.00    -0.200 F 
ATOM     98  F   UNL A   1      43.684  24.108  35.030  1.00  0.00    -0.200 F 
ENDBRANCH  65  88
ENDBRANCH  39  40
ENDBRANCH  31  34
ENDBRANCH  29  30
ENDBRANCH  28  29
ENDBRANCH  27  28
ENDBRANCH   1  27
TORSDOF 17
ENDMDL
MODEL 3
REMARK VINA RESULT:     -11.4      2.405      3.248
REMARK SMILES CCc1c(C(=O)NCC(=O)NCCCCCCNC(=O)c2ccc(-c3c4nc(c(-c5c(F)c(F)c(F)c(F)c5F)c5ccc([nH]5)c(-c5c(F)c(F)c(F)c(F)c5F)c5nc(c(-c6c(F)c(F)c(F)c(F)c6F)c6ccc3[nH]6)C=C5)C=C4)cc2)nnn1-c1ccc(Cl)cc1
REMARK SMILES IDX 14 1 13 2 12 3 11 4 9 5 10 6 8 8 7 9 5 10 6 11 4 13 3 14
REMARK SMILES IDX 86 15 84 16 85 17 2 18 1 19 87 20 88 21 93 22 89 23 92 24
REMARK SMILES IDX 90 25 91 26 15 27 16 28 17 29 18 30 19 31 20 33 21 34 22 35
REMARK SMILES IDX 83 36 23 37 82 38 24 39 25 40 26 41 76 42 27 43 81 44 75 45
REMARK SMILES IDX 77 46 28 47 80 48 74 49 73 50 29 52 61 53 41 54 60 55 42 56
REMARK SMILES IDX 45 57 59 58 78 59 43 60 44 61 58 63 79 64 46 65 30 66 31 67
REMARK SMILES IDX 39 68 32 69 33 70 37 71 40 72 34 73 35 74 38 75 36 76 62 77
REMARK SMILES IDX 63 78 71 79 64 80 65 81 69 82 72 83 66 84 67 85 70 86 68 87
REMARK SMILES IDX 47 88 48 89 56 90 49 91 50 92 54 93 57 94 51 95 52 96 55 97
REMARK SMILES IDX 53 98
REMARK H PARENT 11 7 7 12 18 32 77 51 45 62
REMARK Flexibility Score: inf
ROOT
ATOM      1  C   UNL A   1      37.060  23.589  25.851  1.00  0.00     0.002 C 
ENDROOT
BRANCH   1   2
ATOM      2  C   UNL A   1      36.474  22.469  24.988  1.00  0.00     0.021 C 
BRANCH   2   3
ATOM      3  C   UNL A   1      35.469  21.605  25.736  1.00  0.00     0.116 C 
BRANCH   3   4
ATOM      4  N   UNL A   1      35.436  20.259  25.215  1.00  0.00    -0.355 N 
ATOM      5  C   UNL A   1      34.398  19.465  24.852  1.00  0.00     0.239 C 
ATOM      6  O   UNL A   1      34.687  18.328  24.464  1.00  0.00    -0.273 OA
ATOM      7  H   UNL A   1      36.322  19.844  25.107  1.00  0.00     0.163 HD
BRANCH   5   8
ATOM      8  C   UNL A   1      32.956  19.969  24.697  1.00  0.00     0.216 C 
BRANCH   8   9
ATOM      9  N   UNL A   1      32.394  20.402  23.438  1.00  0.00    -0.342 N 
ATOM     10  C   UNL A   1      32.434  21.532  22.666  1.00  0.00     0.274 C 
ATOM     11  O   UNL A   1      31.944  21.365  21.542  1.00  0.00    -0.267 OA
ATOM     12  H   UNL A   1      31.837  19.701  23.028  1.00  0.00     0.164 HD
BRANCH  10  13
ATOM     13  C   UNL A   1      32.871  22.881  23.077  1.00  0.00     0.174 A 
ATOM     14  C   UNL A   1      32.391  23.938  23.858  1.00  0.00     0.077 A 
ATOM     15  N   UNL A   1      33.370  24.929  23.718  1.00  0.00    -0.217 N 
ATOM     16  N   UNL A   1      34.030  23.321  22.454  1.00  0.00    -0.124 NA
ATOM     17  N   UNL A   1      34.240  24.584  22.756  1.00  0.00    -0.061 NA
BRANCH  14  18
ATOM     18  C   UNL A   1      31.108  24.217  24.571  1.00  0.00     0.055 C 
ATOM     19  C   UNL A   1      30.138  25.086  23.787  1.00  0.00     0.011 C 
ENDBRANCH  14  18
BRANCH  15  20
ATOM     20  C   UNL A   1      33.497  26.187  24.359  1.00  0.00     0.067 A 
ATOM     21  C   UNL A   1      33.482  27.359  23.588  1.00  0.00     0.030 A 
ATOM     22  C   UNL A   1      33.656  26.269  25.747  1.00  0.00     0.030 A 
ATOM     23  C   UNL A   1      33.544  28.605  24.218  1.00  0.00     0.023 A 
ATOM     24  C   UNL A   1      33.739  27.516  26.369  1.00  0.00     0.023 A 
ATOM     25  C   UNL A   1      33.666  28.678  25.605  1.00  0.00     0.041 A 
ATOM     26  Cl  UNL A   1      33.733  30.211  26.381  1.00  0.00    -0.084 Cl
ENDBRANCH  15  20
ENDBRANCH  10  13
ENDBRANCH   8   9
ENDBRANCH   5   8
ENDBRANCH   3   4
ENDBRANCH   2   3
ENDBRANCH   1   2
BRANCH   1  27
ATOM     27  C   UNL A   1      38.476  23.339  26.394  1.00  0.00     0.002 C 
BRANCH  27  28
ATOM     28  C   UNL A   1      39.107  21.973  26.082  1.00  0.00     0.021 C 
BRANCH  28  29
ATOM     29  C   UNL A   1      40.378  21.682  26.863  1.00  0.00     0.116 C 
BRANCH  29  30
ATOM     30  N   UNL A   1      41.595  21.890  26.067  1.00  0.00    -0.352 N 
ATOM     31  C   UNL A   1      42.257  23.070  25.789  1.00  0.00     0.251 C 
ATOM     32  H   UNL A   1      41.994  21.078  25.679  1.00  0.00     0.163 HD
ATOM     33  O   UNL A   1      43.015  23.161  24.818  1.00  0.00    -0.269 OA
BRANCH  31  34
ATOM     34  C   UNL A   1      42.064  24.219  26.684  1.00  0.00     0.039 A 
ATOM     35  C   UNL A   1      42.641  24.316  27.953  1.00  0.00     0.014 A 
ATOM     36  C   UNL A   1      41.296  25.258  26.179  1.00  0.00     0.014 A 
ATOM     37  C   UNL A   1      42.460  25.498  28.670  1.00  0.00     0.010 A 
ATOM     38  C   UNL A   1      41.396  26.495  26.733  1.00  0.00     0.010 A 
ATOM     39  C   UNL A   1      41.834  26.585  28.038  1.00  0.00    -0.014 A 
BRANCH  39  40
ATOM     40  C   UNL A   1      41.672  27.886  28.664  1.00  0.00     0.031 A 
ATOM     41  C   UNL A   1      42.726  28.851  28.286  1.00  0.00     0.074 A 
ATOM     42  C   UNL A   1      40.541  28.243  29.316  1.00  0.00     0.049 A 
ATOM     43  N   UNL A   1      43.675  29.297  29.035  1.00  0.00    -0.248 NA
ATOM     44  C   UNL A   1      42.855  29.225  26.868  1.00  0.00     0.031 C 
ATOM     45  C   UNL A   1      39.288  27.489  29.470  1.00  0.00     0.029 A 
ATOM     46  N   UNL A   1      40.240  29.425  29.917  1.00  0.00    -0.354 N 
ATOM     47  C   UNL A   1      44.390  30.189  28.244  1.00  0.00     0.074 A 
ATOM     48  C   UNL A   1      43.985  29.936  26.887  1.00  0.00     0.031 C 
ATOM     49  C   UNL A   1      38.308  28.309  29.915  1.00  0.00     0.029 A 
ATOM     50  C   UNL A   1      38.895  29.593  30.243  1.00  0.00     0.049 A 
ATOM     51  H   UNL A   1      40.919  30.111  30.107  1.00  0.00     0.167 HD
ATOM     52  C   UNL A   1      45.029  31.248  28.814  1.00  0.00     0.037 A 
ATOM     53  C   UNL A   1      38.318  30.722  30.728  1.00  0.00     0.037 A 
ATOM     54  C   UNL A   1      45.155  31.059  30.241  1.00  0.00     0.049 A 
ATOM     55  C   UNL A   1      39.412  31.555  31.289  1.00  0.00     0.074 A 
ATOM     56  C   UNL A   1      45.757  30.111  31.046  1.00  0.00     0.029 A 
ATOM     57  N   UNL A   1      44.250  31.709  31.045  1.00  0.00    -0.354 N 
ATOM     58  N   UNL A   1      40.108  31.220  32.340  1.00  0.00    -0.248 NA
ATOM     59  C   UNL A   1      40.049  32.509  30.394  1.00  0.00     0.031 C 
ATOM     60  C   UNL A   1      44.853  29.920  32.134  1.00  0.00     0.029 A 
ATOM     61  C   UNL A   1      43.795  30.817  31.981  1.00  0.00     0.049 A 
ATOM     62  H   UNL A   1      43.977  32.651  30.964  1.00  0.00     0.167 HD
ATOM     63  C   UNL A   1      41.415  31.555  32.016  1.00  0.00     0.074 A 
ATOM     64  C   UNL A   1      41.306  32.413  30.838  1.00  0.00     0.031 C 
ATOM     65  C   UNL A   1      42.467  30.863  32.548  1.00  0.00     0.037 A 
BRANCH  52  66
ATOM     66  C   UNL A   1      45.155  32.611  28.176  1.00  0.00     0.064 A 
ATOM     67  C   UNL A   1      46.445  33.113  27.910  1.00  0.00     0.173 A 
ATOM     68  C   UNL A   1      44.111  33.560  28.105  1.00  0.00     0.173 A 
ATOM     69  F   UNL A   1      47.515  32.304  27.958  1.00  0.00    -0.203 F 
ATOM     70  C   UNL A   1      46.679  34.472  27.689  1.00  0.00     0.198 A 
ATOM     71  C   UNL A   1      44.342  34.906  27.831  1.00  0.00     0.198 A 
ATOM     72  F   UNL A   1      42.844  33.262  28.409  1.00  0.00    -0.203 F 
ATOM     73  F   UNL A   1      47.937  34.919  27.580  1.00  0.00    -0.200 F 
ATOM     74  C   UNL A   1      45.629  35.369  27.659  1.00  0.00     0.200 A 
ATOM     75  F   UNL A   1      43.312  35.763  27.824  1.00  0.00    -0.200 F 
ATOM     76  F   UNL A   1      45.855  36.681  27.517  1.00  0.00    -0.200 F 
ENDBRANCH  52  66
BRANCH  53  77
ATOM     77  C   UNL A   1      36.971  31.278  30.449  1.00  0.00     0.064 A 
ATOM     78  C   UNL A   1      36.102  31.639  31.494  1.00  0.00     0.173 A 
ATOM     79  C   UNL A   1      36.627  31.744  29.165  1.00  0.00     0.173 A 
ATOM     80  F   UNL A   1      36.377  31.273  32.755  1.00  0.00    -0.203 F 
ATOM     81  C   UNL A   1      34.979  32.447  31.274  1.00  0.00     0.198 A 
ATOM     82  C   UNL A   1      35.505  32.546  28.945  1.00  0.00     0.198 A 
ATOM     83  F   UNL A   1      37.426  31.510  28.114  1.00  0.00    -0.203 F 
ATOM     84  F   UNL A   1      34.212  32.823  32.306  1.00  0.00    -0.200 F 
ATOM     85  C   UNL A   1      34.690  32.910  30.002  1.00  0.00     0.200 A 
ATOM     86  F   UNL A   1      35.254  33.017  27.715  1.00  0.00    -0.200 F 
ATOM     87  F   UNL A   1      33.654  33.737  29.799  1.00  0.00    -0.200 F 
ENDBRANCH  53  77
BRANCH  65  88
ATOM     88  C   UNL A   1      42.179  29.919  33.686  1.00  0.00     0.064 A 
ATOM     89  C   UNL A   1      41.775  28.581  33.529  1.00  0.00     0.173 A 
ATOM     90  C   UNL A   1      42.455  30.356  34.987  1.00  0.00     0.173 A 
ATOM     91  F   UNL A   1      41.581  28.055  32.314  1.00  0.00    -0.203 F 
ATOM     92  C   UNL A   1      41.618  27.737  34.628  1.00  0.00     0.198 A 
ATOM     93  C   UNL A   1      42.333  29.501  36.079  1.00  0.00     0.198 A 
ATOM     94  F   UNL A   1      42.893  31.607  35.196  1.00  0.00    -0.203 F 
ATOM     95  F   UNL A   1      41.220  26.467  34.451  1.00  0.00    -0.200 F 
ATOM     96  C   UNL A   1      41.904  28.196  35.902  1.00  0.00     0.200 A 
ATOM     97  F   UNL A   1      42.657  29.939  37.304  1.00  0.00    -0.200 F 
ATOM     98  F   UNL A   1      41.790  27.376  36.956  1.00  0.00    -0.200 F 
ENDBRANCH  65  88
ENDBRANCH  39  40
ENDBRANCH  31  34
ENDBRANCH  29  30
ENDBRANCH  28  29
ENDBRANCH  27  28
ENDBRANCH   1  27
TORSDOF 17
ENDMDL
