MODEL 1
REMARK VINA RESULT:     -12.1      0.000      0.000
REMARK SMILES COc1ccc2ccccc2c1CNc1ccc(C(=O)NCCCCCCNC(=O)c2ccc(-c3c4nc(c(-c5c(F)c(F)c(F)c(F)c5F)c5ccc([nH]5)c(-c5c(F)c(F)c(F)c(F)c5F)c5nc(c(-c6c(F)c(F)c(F)c(F)c6F)c6ccc3[nH]6)C=C5)C=C4)cc2)c(Cl)c1
REMARK SMILES IDX 23 1 22 2 21 3 19 4 20 5 18 7 15 8 16 9 96 10 17 11 94 12
REMARK SMILES IDX 95 13 14 14 13 16 12 17 3 18 4 19 5 20 11 21 6 22 10 23 7 24
REMARK SMILES IDX 9 25 8 26 2 27 1 28 24 29 25 30 26 31 27 32 28 33 29 34
REMARK SMILES IDX 30 36 31 37 32 38 93 39 33 40 92 41 34 42 35 43 36 44 86 45
REMARK SMILES IDX 37 46 91 47 85 48 87 49 38 50 90 51 84 52 83 53 39 55 71 56
REMARK SMILES IDX 51 57 70 58 52 59 55 60 69 61 88 62 53 63 54 64 68 66 89 67
REMARK SMILES IDX 56 68 40 69 41 70 49 71 42 72 43 73 47 74 50 75 44 76 45 77
REMARK SMILES IDX 48 78 46 79 72 80 73 81 81 82 74 83 75 84 79 85 82 86 76 87
REMARK SMILES IDX 77 88 80 89 78 90 57 91 58 92 66 93 59 94 60 95 64 96 67 97
REMARK SMILES IDX 61 98 62 99 65 100 63 101
REMARK H PARENT 21 6 14 15 28 35 87 54 55 65
REMARK Flexibility Score: inf
ROOT
ATOM      1  C   UNL A   1      37.101  23.227  25.013  1.00  0.00     0.021 C 
ENDROOT
BRANCH   1   2
ATOM      2  C   UNL A   1      36.235  23.812  26.138  1.00  0.00     0.116 C 
BRANCH   2   3
ATOM      3  N   UNL A   1      35.503  22.737  26.772  1.00  0.00    -0.352 N 
ATOM      4  C   UNL A   1      34.187  22.375  26.820  1.00  0.00     0.252 C 
ATOM      5  O   UNL A   1      33.919  21.472  27.621  1.00  0.00    -0.269 OA
ATOM      6  H   UNL A   1      36.084  22.131  27.285  1.00  0.00     0.163 HD
BRANCH   4   7
ATOM      7  C   UNL A   1      33.087  22.877  25.945  1.00  0.00     0.058 A 
ATOM      8  C   UNL A   1      30.919  24.188  24.626  1.00  0.00     0.036 A 
ATOM      9  C   UNL A   1      31.067  24.283  26.004  1.00  0.00     0.026 A 
ATOM     10  C   UNL A   1      31.840  23.412  23.920  1.00  0.00     0.047 A 
ATOM     11  C   UNL A   1      32.106  23.607  26.653  1.00  0.00     0.017 A 
ATOM     12  C   UNL A   1      32.960  22.837  24.552  1.00  0.00     0.055 A 
ATOM     13  Cl  UNL A   1      34.202  22.377  23.446  1.00  0.00    -0.083 Cl
BRANCH   8  14
ATOM     14  N   UNL A   1      30.040  25.008  23.930  1.00  0.00    -0.381 N 
ATOM     15  H   UNL A   1      29.467  24.648  23.216  1.00  0.00     0.160 HD
BRANCH  14  16
ATOM     16  C   UNL A   1      29.994  26.429  24.294  1.00  0.00     0.153 C 
BRANCH  16  17
ATOM     17  C   UNL A   1      31.370  27.063  24.130  1.00  0.00     0.021 A 
ATOM     18  C   UNL A   1      32.003  27.005  22.871  1.00  0.00     0.124 A 
ATOM     19  C   UNL A   1      33.277  27.541  22.694  1.00  0.00     0.047 A 
ATOM     20  C   UNL A   1      33.964  28.089  23.774  1.00  0.00     0.012 A 
ATOM     21  C   UNL A   1      32.059  27.663  25.235  1.00  0.00    -0.010 A 
ATOM     22  C   UNL A   1      33.378  28.148  25.043  1.00  0.00    -0.018 A 
ATOM     23  C   UNL A   1      31.513  27.816  26.531  1.00  0.00     0.009 A 
ATOM     24  C   UNL A   1      34.103  28.694  26.117  1.00  0.00     0.009 A 
ATOM     25  C   UNL A   1      32.247  28.346  27.597  1.00  0.00     0.001 A 
ATOM     26  C   UNL A   1      33.547  28.778  27.391  1.00  0.00     0.001 A 
BRANCH  18  27
ATOM     27  O   UNL A   1      31.287  26.480  21.825  1.00  0.00    -0.496 OA
ATOM     28  C   UNL A   1      32.062  25.738  20.887  1.00  0.00     0.278 C 
ENDBRANCH  18  27
ENDBRANCH  16  17
ENDBRANCH  14  16
ENDBRANCH   8  14
ENDBRANCH   4   7
ENDBRANCH   2   3
ENDBRANCH   1   2
BRANCH   1  29
ATOM     29  C   UNL A   1      37.919  22.001  25.436  1.00  0.00     0.002 C 
BRANCH  29  30
ATOM     30  C   UNL A   1      37.593  20.726  24.652  1.00  0.00     0.002 C 
BRANCH  30  31
ATOM     31  C   UNL A   1      38.518  19.537  24.935  1.00  0.00     0.021 C 
BRANCH  31  32
ATOM     32  C   UNL A   1      39.430  19.721  26.145  1.00  0.00     0.116 C 
BRANCH  32  33
ATOM     33  N   UNL A   1      40.622  18.891  26.043  1.00  0.00    -0.352 N 
ATOM     34  C   UNL A   1      41.938  19.266  25.994  1.00  0.00     0.251 C 
ATOM     35  H   UNL A   1      40.459  17.922  26.005  1.00  0.00     0.163 HD
ATOM     36  O   UNL A   1      42.799  18.457  25.648  1.00  0.00    -0.269 OA
BRANCH  34  37
ATOM     37  C   UNL A   1      42.331  20.643  26.355  1.00  0.00     0.039 A 
ATOM     38  C   UNL A   1      42.682  21.537  25.340  1.00  0.00     0.014 A 
ATOM     39  C   UNL A   1      42.387  21.040  27.694  1.00  0.00     0.014 A 
ATOM     40  C   UNL A   1      43.047  22.844  25.666  1.00  0.00     0.010 A 
ATOM     41  C   UNL A   1      42.687  22.362  28.013  1.00  0.00     0.010 A 
ATOM     42  C   UNL A   1      43.029  23.273  27.003  1.00  0.00    -0.014 A 
BRANCH  42  43
ATOM     43  C   UNL A   1      43.371  24.671  27.365  1.00  0.00     0.031 A 
ATOM     44  C   UNL A   1      44.810  25.101  27.435  1.00  0.00     0.074 A 
ATOM     45  C   UNL A   1      42.389  25.530  27.701  1.00  0.00     0.049 A 
ATOM     46  N   UNL A   1      45.313  26.252  27.807  1.00  0.00    -0.248 NA
ATOM     47  C   UNL A   1      45.822  24.099  27.065  1.00  0.00     0.031 C 
ATOM     48  C   UNL A   1      40.961  25.210  27.727  1.00  0.00     0.029 A 
ATOM     49  N   UNL A   1      42.444  26.840  28.104  1.00  0.00    -0.354 N 
ATOM     50  C   UNL A   1      46.692  26.102  27.740  1.00  0.00     0.074 A 
ATOM     51  C   UNL A   1      46.951  24.739  27.329  1.00  0.00     0.031 C 
ATOM     52  C   UNL A   1      40.274  26.296  28.119  1.00  0.00     0.029 A 
ATOM     53  C   UNL A   1      41.214  27.376  28.402  1.00  0.00     0.049 A 
ATOM     54  H   UNL A   1      43.284  27.349  28.174  1.00  0.00     0.167 HD
ATOM     55  C   UNL A   1      47.652  27.024  27.985  1.00  0.00     0.037 A 
ATOM     56  C   UNL A   1      40.885  28.597  28.866  1.00  0.00     0.037 A 
ATOM     57  C   UNL A   1      47.388  28.391  28.349  1.00  0.00     0.049 A 
ATOM     58  C   UNL A   1      41.973  29.610  29.098  1.00  0.00     0.074 A 
ATOM     59  C   UNL A   1      48.288  29.427  28.523  1.00  0.00     0.029 A 
ATOM     60  N   UNL A   1      46.126  28.911  28.596  1.00  0.00    -0.354 N 
ATOM     61  N   UNL A   1      43.269  29.483  28.943  1.00  0.00    -0.248 NA
ATOM     62  C   UNL A   1      41.553  30.942  29.558  1.00  0.00     0.031 C 
ATOM     63  C   UNL A   1      47.577  30.562  28.924  1.00  0.00     0.029 A 
ATOM     64  C   UNL A   1      46.228  30.247  28.948  1.00  0.00     0.049 A 
ATOM     65  H   UNL A   1      45.283  28.406  28.531  1.00  0.00     0.167 HD
ATOM     66  C   UNL A   1      43.814  30.720  29.259  1.00  0.00     0.074 A 
ATOM     67  C   UNL A   1      42.707  31.590  29.597  1.00  0.00     0.031 C 
ATOM     68  C   UNL A   1      45.114  31.101  29.270  1.00  0.00     0.037 A 
BRANCH  55  69
ATOM     69  C   UNL A   1      49.087  26.598  27.862  1.00  0.00     0.064 A 
ATOM     70  C   UNL A   1      49.733  26.531  26.620  1.00  0.00     0.173 A 
ATOM     71  C   UNL A   1      49.842  26.320  29.012  1.00  0.00     0.173 A 
ATOM     72  F   UNL A   1      49.053  26.777  25.490  1.00  0.00    -0.203 F 
ATOM     73  C   UNL A   1      51.081  26.188  26.531  1.00  0.00     0.198 A 
ATOM     74  C   UNL A   1      51.195  26.004  28.922  1.00  0.00     0.198 A 
ATOM     75  F   UNL A   1      49.274  26.375  30.226  1.00  0.00    -0.203 F 
ATOM     76  F   UNL A   1      51.669  26.097  25.330  1.00  0.00    -0.200 F 
ATOM     77  C   UNL A   1      51.812  25.934  27.682  1.00  0.00     0.200 A 
ATOM     78  F   UNL A   1      51.904  25.774  30.036  1.00  0.00    -0.200 F 
ATOM     79  F   UNL A   1      53.111  25.620  27.595  1.00  0.00    -0.200 F 
ENDBRANCH  55  69
BRANCH  56  80
ATOM     80  C   UNL A   1      39.463  28.933  29.138  1.00  0.00     0.064 A 
ATOM     81  C   UNL A   1      38.642  29.464  28.133  1.00  0.00     0.173 A 
ATOM     82  C   UNL A   1      38.902  28.751  30.410  1.00  0.00     0.173 A 
ATOM     83  F   UNL A   1      39.137  29.676  26.905  1.00  0.00    -0.203 F 
ATOM     84  C   UNL A   1      37.323  29.831  28.400  1.00  0.00     0.198 A 
ATOM     85  C   UNL A   1      37.574  29.088  30.667  1.00  0.00     0.198 A 
ATOM     86  F   UNL A   1      39.641  28.240  31.404  1.00  0.00    -0.203 F 
ATOM     87  F   UNL A   1      36.578  30.389  27.436  1.00  0.00    -0.200 F 
ATOM     88  C   UNL A   1      36.789  29.638  29.665  1.00  0.00     0.200 A 
ATOM     89  F   UNL A   1      37.058  28.887  31.887  1.00  0.00    -0.200 F 
ATOM     90  F   UNL A   1      35.523  29.992  29.921  1.00  0.00    -0.200 F 
ENDBRANCH  56  80
BRANCH  68  91
ATOM     91  C   UNL A   1      45.410  32.528  29.626  1.00  0.00     0.064 A 
ATOM     92  C   UNL A   1      45.689  32.916  30.944  1.00  0.00     0.173 A 
ATOM     93  C   UNL A   1      45.456  33.513  28.627  1.00  0.00     0.173 A 
ATOM     94  F   UNL A   1      45.643  32.014  31.937  1.00  0.00    -0.203 F 
ATOM     95  C   UNL A   1      45.979  34.242  31.252  1.00  0.00     0.198 A 
ATOM     96  C   UNL A   1      45.775  34.832  28.935  1.00  0.00     0.198 A 
ATOM     97  F   UNL A   1      45.203  33.192  27.348  1.00  0.00    -0.203 F 
ATOM     98  F   UNL A   1      46.195  34.599  32.527  1.00  0.00    -0.200 F 
ATOM     99  C   UNL A   1      46.028  35.197  30.247  1.00  0.00     0.200 A 
ATOM    100  F   UNL A   1      45.838  35.750  27.960  1.00  0.00    -0.200 F 
ATOM    101  F   UNL A   1      46.316  36.471  30.546  1.00  0.00    -0.200 F 
ENDBRANCH  68  91
ENDBRANCH  42  43
ENDBRANCH  34  37
ENDBRANCH  32  33
ENDBRANCH  31  32
ENDBRANCH  30  31
ENDBRANCH  29  30
ENDBRANCH   1  29
TORSDOF 17
ENDMDL
MODEL 2
REMARK VINA RESULT:     -11.5      1.959      2.892
REMARK SMILES COc1ccc2ccccc2c1CNc1ccc(C(=O)NCCCCCCNC(=O)c2ccc(-c3c4nc(c(-c5c(F)c(F)c(F)c(F)c5F)c5ccc([nH]5)c(-c5c(F)c(F)c(F)c(F)c5F)c5nc(c(-c6c(F)c(F)c(F)c(F)c6F)c6ccc3[nH]6)C=C5)C=C4)cc2)c(Cl)c1
REMARK SMILES IDX 23 1 22 2 21 3 19 4 20 5 18 7 15 8 16 9 96 10 17 11 94 12
REMARK SMILES IDX 95 13 14 14 13 16 12 17 3 18 4 19 5 20 11 21 6 22 10 23 7 24
REMARK SMILES IDX 9 25 8 26 2 27 1 28 24 29 25 30 26 31 27 32 28 33 29 34
REMARK SMILES IDX 30 36 31 37 32 38 93 39 33 40 92 41 34 42 35 43 36 44 86 45
REMARK SMILES IDX 37 46 91 47 85 48 87 49 38 50 90 51 84 52 83 53 39 55 71 56
REMARK SMILES IDX 51 57 70 58 52 59 55 60 69 61 88 62 53 63 54 64 68 66 89 67
REMARK SMILES IDX 56 68 40 69 41 70 49 71 42 72 43 73 47 74 50 75 44 76 45 77
REMARK SMILES IDX 48 78 46 79 72 80 73 81 81 82 74 83 75 84 79 85 82 86 76 87
REMARK SMILES IDX 77 88 80 89 78 90 57 91 58 92 66 93 59 94 60 95 64 96 67 97
REMARK SMILES IDX 61 98 62 99 65 100 63 101
REMARK H PARENT 21 6 14 15 28 35 87 54 55 65
REMARK Flexibility Score: inf
ROOT
ATOM      1  C   UNL A   1      40.160  22.631  27.194  1.00  0.00     0.021 C 
ENDROOT
BRANCH   1   2
ATOM      2  C   UNL A   1      38.905  23.187  26.505  1.00  0.00     0.116 C 
BRANCH   2   3
ATOM      3  N   UNL A   1      38.144  22.084  25.959  1.00  0.00    -0.352 N 
ATOM      4  C   UNL A   1      36.817  21.863  25.725  1.00  0.00     0.252 C 
ATOM      5  O   UNL A   1      36.527  20.706  25.397  1.00  0.00    -0.269 OA
ATOM      6  H   UNL A   1      38.710  21.323  25.698  1.00  0.00     0.163 HD
BRANCH   4   7
ATOM      7  C   UNL A   1      35.725  22.880  25.724  1.00  0.00     0.058 A 
ATOM      8  C   UNL A   1      33.729  24.862  25.226  1.00  0.00     0.036 A 
ATOM      9  C   UNL A   1      34.826  24.739  24.383  1.00  0.00     0.026 A 
ATOM     10  C   UNL A   1      33.654  24.012  26.331  1.00  0.00     0.047 A 
ATOM     11  C   UNL A   1      35.823  23.795  24.651  1.00  0.00     0.017 A 
ATOM     12  C   UNL A   1      34.587  22.976  26.532  1.00  0.00     0.055 A 
ATOM     13  Cl  UNL A   1      34.031  21.763  27.626  1.00  0.00    -0.083 Cl
BRANCH   8  14
ATOM     14  N   UNL A   1      32.626  25.630  24.878  1.00  0.00    -0.381 N 
ATOM     15  H   UNL A   1      31.734  25.436  25.248  1.00  0.00     0.160 HD
BRANCH  14  16
ATOM     16  C   UNL A   1      32.832  26.742  23.942  1.00  0.00     0.153 C 
BRANCH  16  17
ATOM     17  C   UNL A   1      32.299  28.040  24.536  1.00  0.00     0.021 A 
ATOM     18  C   UNL A   1      31.134  28.614  23.987  1.00  0.00     0.124 A 
ATOM     19  C   UNL A   1      30.639  29.820  24.480  1.00  0.00     0.047 A 
ATOM     20  C   UNL A   1      31.324  30.501  25.484  1.00  0.00     0.012 A 
ATOM     21  C   UNL A   1      32.984  28.719  25.596  1.00  0.00    -0.010 A 
ATOM     22  C   UNL A   1      32.494  29.974  26.040  1.00  0.00    -0.018 A 
ATOM     23  C   UNL A   1      34.135  28.224  26.253  1.00  0.00     0.009 A 
ATOM     24  C   UNL A   1      33.171  30.692  27.042  1.00  0.00     0.009 A 
ATOM     25  C   UNL A   1      34.811  28.952  27.236  1.00  0.00     0.001 A 
ATOM     26  C   UNL A   1      34.332  30.192  27.626  1.00  0.00     0.001 A 
BRANCH  18  27
ATOM     27  O   UNL A   1      30.472  27.905  23.017  1.00  0.00    -0.496 OA
ATOM     28  C   UNL A   1      29.052  27.929  23.126  1.00  0.00     0.278 C 
ENDBRANCH  18  27
ENDBRANCH  16  17
ENDBRANCH  14  16
ENDBRANCH   8  14
ENDBRANCH   4   7
ENDBRANCH   2   3
ENDBRANCH   1   2
BRANCH   1  29
ATOM     29  C   UNL A   1      41.060  21.806  26.269  1.00  0.00     0.002 C 
BRANCH  29  30
ATOM     30  C   UNL A   1      41.392  20.406  26.796  1.00  0.00     0.002 C 
BRANCH  30  31
ATOM     31  C   UNL A   1      41.958  19.438  25.751  1.00  0.00     0.021 C 
BRANCH  31  32
ATOM     32  C   UNL A   1      43.268  18.768  26.155  1.00  0.00     0.116 C 
BRANCH  32  33
ATOM     33  N   UNL A   1      44.130  18.548  25.003  1.00  0.00    -0.352 N 
ATOM     34  C   UNL A   1      44.771  19.463  24.212  1.00  0.00     0.251 C 
ATOM     35  H   UNL A   1      44.273  17.606  24.757  1.00  0.00     0.163 HD
ATOM     36  O   UNL A   1      45.246  19.120  23.129  1.00  0.00    -0.269 OA
BRANCH  34  37
ATOM     37  C   UNL A   1      44.895  20.867  24.654  1.00  0.00     0.039 A 
ATOM     38  C   UNL A   1      45.356  21.133  25.946  1.00  0.00     0.014 A 
ATOM     39  C   UNL A   1      44.523  21.916  23.808  1.00  0.00     0.014 A 
ATOM     40  C   UNL A   1      45.487  22.455  26.375  1.00  0.00     0.010 A 
ATOM     41  C   UNL A   1      44.717  23.234  24.214  1.00  0.00     0.010 A 
ATOM     42  C   UNL A   1      45.192  23.516  25.504  1.00  0.00    -0.014 A 
BRANCH  42  43
ATOM     43  C   UNL A   1      45.366  24.927  25.927  1.00  0.00     0.031 A 
ATOM     44  C   UNL A   1      46.724  25.570  25.867  1.00  0.00     0.074 A 
ATOM     45  C   UNL A   1      44.317  25.604  26.432  1.00  0.00     0.049 A 
ATOM     46  N   UNL A   1      47.094  26.762  26.264  1.00  0.00    -0.248 NA
ATOM     47  C   UNL A   1      47.820  24.758  25.314  1.00  0.00     0.031 C 
ATOM     48  C   UNL A   1      42.965  25.067  26.593  1.00  0.00     0.029 A 
ATOM     49  N   UNL A   1      44.227  26.883  26.921  1.00  0.00    -0.354 N 
ATOM     50  C   UNL A   1      48.462  26.831  26.033  1.00  0.00     0.074 A 
ATOM     51  C   UNL A   1      48.867  25.549  25.497  1.00  0.00     0.031 C 
ATOM     52  C   UNL A   1      42.179  26.010  27.138  1.00  0.00     0.029 A 
ATOM     53  C   UNL A   1      42.977  27.205  27.393  1.00  0.00     0.049 A 
ATOM     54  H   UNL A   1      44.985  27.511  26.933  1.00  0.00     0.167 HD
ATOM     55  C   UNL A   1      49.298  27.875  26.235  1.00  0.00     0.037 A 
ATOM     56  C   UNL A   1      42.531  28.333  27.978  1.00  0.00     0.037 A 
ATOM     57  C   UNL A   1      48.882  29.163  26.725  1.00  0.00     0.049 A 
ATOM     58  C   UNL A   1      43.478  29.488  28.160  1.00  0.00     0.074 A 
ATOM     59  C   UNL A   1      49.635  30.314  26.873  1.00  0.00     0.029 A 
ATOM     60  N   UNL A   1      47.596  29.468  27.148  1.00  0.00    -0.354 N 
ATOM     61  N   UNL A   1      44.750  29.571  27.853  1.00  0.00    -0.248 NA
ATOM     62  C   UNL A   1      42.926  30.711  28.760  1.00  0.00     0.031 C 
ATOM     63  C   UNL A   1      48.819  31.302  27.432  1.00  0.00     0.029 A 
ATOM     64  C   UNL A   1      47.543  30.782  27.583  1.00  0.00     0.049 A 
ATOM     65  H   UNL A   1      46.836  28.843  27.141  1.00  0.00     0.167 HD
ATOM     66  C   UNL A   1      45.142  30.858  28.195  1.00  0.00     0.074 A 
ATOM     67  C   UNL A   1      43.969  31.527  28.717  1.00  0.00     0.031 C 
ATOM     68  C   UNL A   1      46.363  31.435  28.089  1.00  0.00     0.037 A 
BRANCH  55  69
ATOM     69  C   UNL A   1      50.754  27.684  25.923  1.00  0.00     0.064 A 
ATOM     70  C   UNL A   1      51.267  27.895  24.635  1.00  0.00     0.173 A 
ATOM     71  C   UNL A   1      51.658  27.351  26.943  1.00  0.00     0.173 A 
ATOM     72  F   UNL A   1      50.443  28.204  23.622  1.00  0.00    -0.203 F 
ATOM     73  C   UNL A   1      52.630  27.766  24.376  1.00  0.00     0.198 A 
ATOM     74  C   UNL A   1      53.023  27.250  26.687  1.00  0.00     0.198 A 
ATOM     75  F   UNL A   1      51.221  27.143  28.194  1.00  0.00    -0.203 F 
ATOM     76  F   UNL A   1      53.092  27.940  23.130  1.00  0.00    -0.200 F 
ATOM     77  C   UNL A   1      53.507  27.454  25.404  1.00  0.00     0.200 A 
ATOM     78  F   UNL A   1      53.872  26.962  27.684  1.00  0.00    -0.200 F 
ATOM     79  F   UNL A   1      54.819  27.346  25.156  1.00  0.00    -0.200 F 
ENDBRANCH  55  69
BRANCH  56  80
ATOM     80  C   UNL A   1      41.118  28.430  28.430  1.00  0.00     0.064 A 
ATOM     81  C   UNL A   1      40.740  28.011  29.714  1.00  0.00     0.173 A 
ATOM     82  C   UNL A   1      40.115  28.920  27.583  1.00  0.00     0.173 A 
ATOM     83  F   UNL A   1      41.660  27.515  30.555  1.00  0.00    -0.203 F 
ATOM     84  C   UNL A   1      39.407  28.051  30.121  1.00  0.00     0.198 A 
ATOM     85  C   UNL A   1      38.787  28.989  28.002  1.00  0.00     0.198 A 
ATOM     86  F   UNL A   1      40.424  29.340  26.347  1.00  0.00    -0.203 F 
ATOM     87  F   UNL A   1      39.065  27.591  31.333  1.00  0.00    -0.200 F 
ATOM     88  C   UNL A   1      38.433  28.543  29.266  1.00  0.00     0.200 A 
ATOM     89  F   UNL A   1      37.851  29.480  27.178  1.00  0.00    -0.200 F 
ATOM     90  F   UNL A   1      37.152  28.580  29.656  1.00  0.00    -0.200 F 
ENDBRANCH  56  80
BRANCH  68  91
ATOM     91  C   UNL A   1      46.488  32.868  28.512  1.00  0.00     0.064 A 
ATOM     92  C   UNL A   1      46.847  33.222  29.821  1.00  0.00     0.173 A 
ATOM     93  C   UNL A   1      46.284  33.901  27.585  1.00  0.00     0.173 A 
ATOM     94  F   UNL A   1      47.037  32.270  30.748  1.00  0.00    -0.203 F 
ATOM     95  C   UNL A   1      46.974  34.557  30.191  1.00  0.00     0.198 A 
ATOM     96  C   UNL A   1      46.442  35.235  27.951  1.00  0.00     0.198 A 
ATOM     97  F   UNL A   1      45.945  33.616  26.318  1.00  0.00    -0.203 F 
ATOM     98  F   UNL A   1      47.272  34.873  31.460  1.00  0.00    -0.200 F 
ATOM     99  C   UNL A   1      46.779  35.561  29.255  1.00  0.00     0.200 A 
ATOM    100  F   UNL A   1      46.267  36.204  27.041  1.00  0.00    -0.200 F 
ATOM    101  F   UNL A   1      46.910  36.847  29.612  1.00  0.00    -0.200 F 
ENDBRANCH  68  91
ENDBRANCH  42  43
ENDBRANCH  34  37
ENDBRANCH  32  33
ENDBRANCH  31  32
ENDBRANCH  30  31
ENDBRANCH  29  30
ENDBRANCH   1  29
TORSDOF 17
ENDMDL
MODEL 3
REMARK VINA RESULT:     -11.3      1.904      3.004
REMARK SMILES COc1ccc2ccccc2c1CNc1ccc(C(=O)NCCCCCCNC(=O)c2ccc(-c3c4nc(c(-c5c(F)c(F)c(F)c(F)c5F)c5ccc([nH]5)c(-c5c(F)c(F)c(F)c(F)c5F)c5nc(c(-c6c(F)c(F)c(F)c(F)c6F)c6ccc3[nH]6)C=C5)C=C4)cc2)c(Cl)c1
REMARK SMILES IDX 23 1 22 2 21 3 19 4 20 5 18 7 15 8 16 9 96 10 17 11 94 12
REMARK SMILES IDX 95 13 14 14 13 16 12 17 3 18 4 19 5 20 11 21 6 22 10 23 7 24
REMARK SMILES IDX 9 25 8 26 2 27 1 28 24 29 25 30 26 31 27 32 28 33 29 34
REMARK SMILES IDX 30 36 31 37 32 38 93 39 33 40 92 41 34 42 35 43 36 44 86 45
REMARK SMILES IDX 37 46 91 47 85 48 87 49 38 50 90 51 84 52 83 53 39 55 71 56
REMARK SMILES IDX 51 57 70 58 52 59 55 60 69 61 88 62 53 63 54 64 68 66 89 67
REMARK SMILES IDX 56 68 40 69 41 70 49 71 42 72 43 73 47 74 50 75 44 76 45 77
REMARK SMILES IDX 48 78 46 79 72 80 73 81 81 82 74 83 75 84 79 85 82 86 76 87
REMARK SMILES IDX 77 88 80 89 78 90 57 91 58 92 66 93 59 94 60 95 64 96 67 97
REMARK SMILES IDX 61 98 62 99 65 100 63 101
REMARK H PARENT 21 6 14 15 28 35 87 54 55 65
REMARK Flexibility Score: inf
ROOT
ATOM      1  C   UNL A   1      40.136  22.559  27.135  1.00  0.00     0.021 C 
ENDROOT
BRANCH   1   2
ATOM      2  C   UNL A   1      38.912  23.148  26.419  1.00  0.00     0.116 C 
BRANCH   2   3
ATOM      3  N   UNL A   1      38.469  22.216  25.405  1.00  0.00    -0.352 N 
ATOM      4  C   UNL A   1      37.277  21.618  25.112  1.00  0.00     0.252 C 
ATOM      5  O   UNL A   1      37.331  20.732  24.251  1.00  0.00    -0.269 OA
ATOM      6  H   UNL A   1      39.189  21.954  24.788  1.00  0.00     0.163 HD
BRANCH   4   7
ATOM      7  C   UNL A   1      35.932  21.995  25.638  1.00  0.00     0.058 A 
ATOM      8  C   UNL A   1      33.496  23.186  26.535  1.00  0.00     0.036 A 
ATOM      9  C   UNL A   1      34.672  23.926  26.500  1.00  0.00     0.026 A 
ATOM     10  C   UNL A   1      33.554  21.846  26.151  1.00  0.00     0.047 A 
ATOM     11  C   UNL A   1      35.872  23.329  26.100  1.00  0.00     0.017 A 
ATOM     12  C   UNL A   1      34.730  21.278  25.624  1.00  0.00     0.055 A 
ATOM     13  Cl  UNL A   1      34.449  19.813  24.757  1.00  0.00    -0.083 Cl
BRANCH   8  14
ATOM     14  N   UNL A   1      32.260  23.793  26.719  1.00  0.00    -0.381 N 
ATOM     15  H   UNL A   1      31.876  23.902  27.618  1.00  0.00     0.160 HD
BRANCH  14  16
ATOM     16  C   UNL A   1      31.545  24.266  25.527  1.00  0.00     0.153 C 
BRANCH  16  17
ATOM     17  C   UNL A   1      32.239  25.491  24.945  1.00  0.00     0.021 A 
ATOM     18  C   UNL A   1      32.905  25.376  23.708  1.00  0.00     0.124 A 
ATOM     19  C   UNL A   1      33.582  26.465  23.164  1.00  0.00     0.047 A 
ATOM     20  C   UNL A   1      33.656  27.666  23.865  1.00  0.00     0.012 A 
ATOM     21  C   UNL A   1      32.279  26.739  25.651  1.00  0.00    -0.010 A 
ATOM     22  C   UNL A   1      33.025  27.815  25.104  1.00  0.00    -0.018 A 
ATOM     23  C   UNL A   1      31.617  26.988  26.876  1.00  0.00     0.009 A 
ATOM     24  C   UNL A   1      33.130  29.035  25.796  1.00  0.00     0.009 A 
ATOM     25  C   UNL A   1      31.741  28.199  27.563  1.00  0.00     0.001 A 
ATOM     26  C   UNL A   1      32.505  29.222  27.026  1.00  0.00     0.001 A 
BRANCH  18  27
ATOM     27  O   UNL A   1      32.791  24.186  23.034  1.00  0.00    -0.496 OA
ATOM     28  C   UNL A   1      34.027  23.527  22.776  1.00  0.00     0.278 C 
ENDBRANCH  18  27
ENDBRANCH  16  17
ENDBRANCH  14  16
ENDBRANCH   8  14
ENDBRANCH   4   7
ENDBRANCH   2   3
ENDBRANCH   1   2
BRANCH   1  29
ATOM     29  C   UNL A   1      41.146  21.899  26.191  1.00  0.00     0.002 C 
BRANCH  29  30
ATOM     30  C   UNL A   1      41.887  20.703  26.798  1.00  0.00     0.002 C 
BRANCH  30  31
ATOM     31  C   UNL A   1      42.103  19.523  25.843  1.00  0.00     0.021 C 
BRANCH  31  32
ATOM     32  C   UNL A   1      43.365  18.711  26.117  1.00  0.00     0.116 C 
BRANCH  32  33
ATOM     33  N   UNL A   1      44.157  18.534  24.909  1.00  0.00    -0.352 N 
ATOM     34  C   UNL A   1      44.724  19.480  24.097  1.00  0.00     0.251 C 
ATOM     35  H   UNL A   1      44.306  17.601  24.635  1.00  0.00     0.163 HD
ATOM     36  O   UNL A   1      45.138  19.169  22.981  1.00  0.00    -0.269 OA
BRANCH  34  37
ATOM     37  C   UNL A   1      44.843  20.877  24.559  1.00  0.00     0.039 A 
ATOM     38  C   UNL A   1      45.514  21.141  25.757  1.00  0.00     0.014 A 
ATOM     39  C   UNL A   1      44.263  21.921  23.832  1.00  0.00     0.014 A 
ATOM     40  C   UNL A   1      45.642  22.459  26.201  1.00  0.00     0.010 A 
ATOM     41  C   UNL A   1      44.448  23.238  24.243  1.00  0.00     0.010 A 
ATOM     42  C   UNL A   1      45.132  23.519  25.435  1.00  0.00    -0.014 A 
BRANCH  42  43
ATOM     43  C   UNL A   1      45.296  24.928  25.869  1.00  0.00     0.031 A 
ATOM     44  C   UNL A   1      46.649  25.582  25.813  1.00  0.00     0.074 A 
ATOM     45  C   UNL A   1      44.242  25.593  26.381  1.00  0.00     0.049 A 
ATOM     46  N   UNL A   1      47.010  26.773  26.219  1.00  0.00    -0.248 NA
ATOM     47  C   UNL A   1      47.750  24.782  25.253  1.00  0.00     0.031 C 
ATOM     48  C   UNL A   1      42.894  25.044  26.539  1.00  0.00     0.029 A 
ATOM     49  N   UNL A   1      44.143  26.867  26.880  1.00  0.00    -0.354 N 
ATOM     50  C   UNL A   1      48.377  26.854  25.987  1.00  0.00     0.074 A 
ATOM     51  C   UNL A   1      48.791  25.580  25.441  1.00  0.00     0.031 C 
ATOM     52  C   UNL A   1      42.102  25.977  27.092  1.00  0.00     0.029 A 
ATOM     53  C   UNL A   1      42.891  27.175  27.356  1.00  0.00     0.049 A 
ATOM     54  H   UNL A   1      44.897  27.500  26.897  1.00  0.00     0.167 HD
ATOM     55  C   UNL A   1      49.206  27.903  26.197  1.00  0.00     0.037 A 
ATOM     56  C   UNL A   1      42.437  28.295  27.951  1.00  0.00     0.037 A 
ATOM     57  C   UNL A   1      48.781  29.183  26.698  1.00  0.00     0.049 A 
ATOM     58  C   UNL A   1      43.376  29.456  28.141  1.00  0.00     0.074 A 
ATOM     59  C   UNL A   1      49.525  30.339  26.854  1.00  0.00     0.029 A 
ATOM     60  N   UNL A   1      47.493  29.475  27.125  1.00  0.00    -0.354 N 
ATOM     61  N   UNL A   1      44.647  29.551  27.834  1.00  0.00    -0.248 NA
ATOM     62  C   UNL A   1      42.815  30.670  28.752  1.00  0.00     0.031 C 
ATOM     63  C   UNL A   1      48.702  31.316  27.422  1.00  0.00     0.029 A 
ATOM     64  C   UNL A   1      47.431  30.786  27.571  1.00  0.00     0.049 A 
ATOM     65  H   UNL A   1      46.738  28.845  27.113  1.00  0.00     0.167 HD
ATOM     66  C   UNL A   1      45.030  30.838  28.186  1.00  0.00     0.074 A 
ATOM     67  C   UNL A   1      43.852  31.494  28.714  1.00  0.00     0.031 C 
ATOM     68  C   UNL A   1      46.246  31.425  28.083  1.00  0.00     0.037 A 
BRANCH  55  69
ATOM     69  C   UNL A   1      50.663  27.725  25.882  1.00  0.00     0.064 A 
ATOM     70  C   UNL A   1      51.591  27.357  26.866  1.00  0.00     0.173 A 
ATOM     71  C   UNL A   1      51.123  27.857  24.562  1.00  0.00     0.173 A 
ATOM     72  F   UNL A   1      51.205  27.228  28.144  1.00  0.00    -0.203 F 
ATOM     73  C   UNL A   1      52.930  27.142  26.544  1.00  0.00     0.198 A 
ATOM     74  C   UNL A   1      52.455  27.615  24.239  1.00  0.00     0.198 A 
ATOM     75  F   UNL A   1      50.275  28.203  23.582  1.00  0.00    -0.203 F 
ATOM     76  F   UNL A   1      53.806  26.824  27.507  1.00  0.00    -0.200 F 
ATOM     77  C   UNL A   1      53.357  27.262  25.230  1.00  0.00     0.200 A 
ATOM     78  F   UNL A   1      52.864  27.717  22.967  1.00  0.00    -0.200 F 
ATOM     79  F   UNL A   1      54.642  27.038  24.920  1.00  0.00    -0.200 F 
ENDBRANCH  55  69
BRANCH  56  80
ATOM     80  C   UNL A   1      41.025  28.378  28.405  1.00  0.00     0.064 A 
ATOM     81  C   UNL A   1      40.026  28.899  27.570  1.00  0.00     0.173 A 
ATOM     82  C   UNL A   1      40.647  27.960  29.690  1.00  0.00     0.173 A 
ATOM     83  F   UNL A   1      40.340  29.331  26.340  1.00  0.00    -0.203 F 
ATOM     84  C   UNL A   1      38.710  29.027  28.013  1.00  0.00     0.198 A 
ATOM     85  C   UNL A   1      39.325  28.059  30.120  1.00  0.00     0.198 A 
ATOM     86  F   UNL A   1      41.562  27.448  30.526  1.00  0.00    -0.203 F 
ATOM     87  F   UNL A   1      37.788  29.581  27.214  1.00  0.00    -0.200 F 
ATOM     88  C   UNL A   1      38.361  28.603  29.286  1.00  0.00     0.200 A 
ATOM     89  F   UNL A   1      38.989  27.635  31.346  1.00  0.00    -0.200 F 
ATOM     90  F   UNL A   1      37.097  28.728  29.713  1.00  0.00    -0.200 F 
ENDBRANCH  56  80
BRANCH  68  91
ATOM     91  C   UNL A   1      46.360  32.856  28.518  1.00  0.00     0.064 A 
ATOM     92  C   UNL A   1      46.060  33.916  27.650  1.00  0.00     0.173 A 
ATOM     93  C   UNL A   1      46.736  33.170  29.833  1.00  0.00     0.173 A 
ATOM     94  F   UNL A   1      45.711  33.667  26.378  1.00  0.00    -0.203 F 
ATOM     95  C   UNL A   1      46.155  35.237  28.075  1.00  0.00     0.198 A 
ATOM     96  C   UNL A   1      46.801  34.492  30.263  1.00  0.00     0.198 A 
ATOM     97  F   UNL A   1      47.028  32.193  30.705  1.00  0.00    -0.203 F 
ATOM     98  F   UNL A   1      45.910  36.235  27.214  1.00  0.00    -0.200 F 
ATOM     99  C   UNL A   1      46.519  35.524  29.383  1.00  0.00     0.200 A 
ATOM    100  F   UNL A   1      47.138  34.767  31.532  1.00  0.00    -0.200 F 
ATOM    101  F   UNL A   1      46.602  36.797  29.792  1.00  0.00    -0.200 F 
ENDBRANCH  68  91
ENDBRANCH  42  43
ENDBRANCH  34  37
ENDBRANCH  32  33
ENDBRANCH  31  32
ENDBRANCH  30  31
ENDBRANCH  29  30
ENDBRANCH   1  29
TORSDOF 17
ENDMDL
