MODEL 1
REMARK VINA RESULT:     -13.9      0.000      0.000
REMARK SMILES O=C(NCCCCCCNC(=O)[C@H](c1c[nH]c2cc(F)ccc12)[NH+]1CC[NH+](CC(=O)N2CCOCC2)CC1)c1ccc(-c2c3nc(c(-c4c(F)c(F)c(F)c(F)c4F)c4ccc([nH]4)c(-c4c(F)c(F)c(F)c(F)c4F)c4nc(c(-c5c(F)c(F)c(F)c(F)c5F)c5ccc2[nH]5)C=C4)C=C3)cc1
REMARK SMILES IDX 7 1 6 2 5 3 4 4 3 5 1 6 2 7 39 9 40 10 101 11 41 12 100 13
REMARK SMILES IDX 42 14 43 15 44 16 94 17 45 18 99 19 93 20 95 21 46 22 98 23
REMARK SMILES IDX 92 24 91 25 47 27 79 28 59 29 78 30 60 31 63 32 77 33 96 34
REMARK SMILES IDX 61 35 62 36 76 38 97 39 64 40 48 41 49 42 57 43 50 44 51 45
REMARK SMILES IDX 55 46 58 47 52 48 53 49 56 50 54 51 80 52 81 53 89 54 82 55
REMARK SMILES IDX 83 56 87 57 90 58 84 59 85 60 88 61 86 62 65 63 66 64 74 65
REMARK SMILES IDX 67 66 68 67 72 68 75 69 69 70 70 71 73 72 71 73 8 74 9 75
REMARK SMILES IDX 10 76 11 77 12 79 13 80 24 81 25 82 38 83 26 85 37 86 27 87
REMARK SMILES IDX 28 89 29 90 30 91 31 92 32 93 36 94 33 95 35 96 34 97 14 98
REMARK SMILES IDX 15 99 23 100 16 101 17 102 22 103 18 105 21 106 19 107
REMARK SMILES IDX 20 108
REMARK H PARENT 3 8 95 26 63 37 10 78 24 84 27 88 16 104
REMARK Flexibility Score: inf
ROOT
ATOM      1  C   UNL A   1      32.572  29.996  27.069  1.00  0.00     0.002 C 
ENDROOT
BRANCH   1   2
ATOM      2  C   UNL A   1      31.630  30.788  26.155  1.00  0.00     0.002 C 
BRANCH   2   3
ATOM      3  C   UNL A   1      31.406  32.232  26.600  1.00  0.00     0.021 C 
BRANCH   3   4
ATOM      4  C   UNL A   1      32.629  32.859  27.250  1.00  0.00     0.116 C 
BRANCH   4   5
ATOM      5  N   UNL A   1      32.389  34.240  27.638  1.00  0.00    -0.352 N 
ATOM      6  O   UNL A   1      32.529  36.040  28.996  1.00  0.00    -0.269 OA
ATOM      7  C   UNL A   1      32.967  34.954  28.658  1.00  0.00     0.251 C 
ATOM      8  H   UNL A   1      31.726  34.726  27.097  1.00  0.00     0.163 HD
BRANCH   7   9
ATOM      9  C   UNL A   1      34.125  34.362  29.356  1.00  0.00     0.039 A 
ATOM     10  C   UNL A   1      35.415  34.567  28.862  1.00  0.00     0.014 A 
ATOM     11  C   UNL A   1      33.908  33.566  30.482  1.00  0.00     0.014 A 
ATOM     12  C   UNL A   1      36.476  33.862  29.409  1.00  0.00     0.010 A 
ATOM     13  C   UNL A   1      34.992  32.932  31.089  1.00  0.00     0.010 A 
ATOM     14  C   UNL A   1      36.279  33.050  30.538  1.00  0.00    -0.014 A 
BRANCH  14  15
ATOM     15  C   UNL A   1      37.446  32.378  31.155  1.00  0.00     0.031 A 
ATOM     16  C   UNL A   1      37.902  32.729  32.541  1.00  0.00     0.074 A 
ATOM     17  C   UNL A   1      38.078  31.421  30.450  1.00  0.00     0.049 A 
ATOM     18  N   UNL A   1      38.894  32.230  33.234  1.00  0.00    -0.248 NA
ATOM     19  C   UNL A   1      37.155  33.786  33.239  1.00  0.00     0.031 C 
ATOM     20  C   UNL A   1      37.721  31.004  29.092  1.00  0.00     0.029 A 
ATOM     21  N   UNL A   1      39.136  30.615  30.779  1.00  0.00    -0.354 N 
ATOM     22  C   UNL A   1      38.910  32.927  34.434  1.00  0.00     0.074 A 
ATOM     23  C   UNL A   1      37.842  33.901  34.367  1.00  0.00     0.031 C 
ATOM     24  C   UNL A   1      38.510  29.984  28.724  1.00  0.00     0.029 A 
ATOM     25  C   UNL A   1      39.468  29.723  29.791  1.00  0.00     0.049 A 
ATOM     26  H   UNL A   1      39.611  30.670  31.640  1.00  0.00     0.167 HD
ATOM     27  C   UNL A   1      39.739  32.761  35.493  1.00  0.00     0.037 A 
ATOM     28  C   UNL A   1      40.448  28.802  29.743  1.00  0.00     0.037 A 
ATOM     29  C   UNL A   1      40.788  31.774  35.552  1.00  0.00     0.049 A 
ATOM     30  C   UNL A   1      41.365  28.658  30.922  1.00  0.00     0.074 A 
ATOM     31  C   UNL A   1      41.655  31.495  36.595  1.00  0.00     0.029 A 
ATOM     32  N   UNL A   1      41.119  30.908  34.519  1.00  0.00    -0.354 N 
ATOM     33  N   UNL A   1      41.347  29.296  32.066  1.00  0.00    -0.248 NA
ATOM     34  C   UNL A   1      42.439  27.665  30.800  1.00  0.00     0.031 C 
ATOM     35  C   UNL A   1      42.543  30.500  36.173  1.00  0.00     0.029 A 
ATOM     36  C   UNL A   1      42.193  30.114  34.890  1.00  0.00     0.049 A 
ATOM     37  H   UNL A   1      40.658  30.865  33.650  1.00  0.00     0.167 HD
ATOM     38  C   UNL A   1      42.389  28.766  32.813  1.00  0.00     0.074 A 
ATOM     39  C   UNL A   1      43.010  27.744  31.993  1.00  0.00     0.031 C 
ATOM     40  C   UNL A   1      42.795  29.096  34.063  1.00  0.00     0.037 A 
BRANCH  27  41
ATOM     41  C   UNL A   1      39.565  33.688  36.663  1.00  0.00     0.064 A 
ATOM     42  C   UNL A   1      40.190  34.944  36.717  1.00  0.00     0.173 A 
ATOM     43  C   UNL A   1      38.740  33.323  37.738  1.00  0.00     0.173 A 
ATOM     44  F   UNL A   1      40.999  35.339  35.722  1.00  0.00    -0.203 F 
ATOM     45  C   UNL A   1      40.024  35.781  37.818  1.00  0.00     0.198 A 
ATOM     46  C   UNL A   1      38.551  34.177  38.823  1.00  0.00     0.198 A 
ATOM     47  F   UNL A   1      38.110  32.138  37.736  1.00  0.00    -0.203 F 
ATOM     48  F   UNL A   1      40.676  36.951  37.871  1.00  0.00    -0.200 F 
ATOM     49  C   UNL A   1      39.201  35.401  38.866  1.00  0.00     0.200 A 
ATOM     50  F   UNL A   1      37.744  33.812  39.828  1.00  0.00    -0.200 F 
ATOM     51  F   UNL A   1      39.041  36.208  39.923  1.00  0.00    -0.200 F 
ENDBRANCH  27  41
BRANCH  28  52
ATOM     52  C   UNL A   1      40.588  27.943  28.540  1.00  0.00     0.064 A 
ATOM     53  C   UNL A   1      39.937  26.705  28.464  1.00  0.00     0.173 A 
ATOM     54  C   UNL A   1      41.345  28.355  27.434  1.00  0.00     0.173 A 
ATOM     55  F   UNL A   1      39.215  26.263  29.504  1.00  0.00    -0.203 F 
ATOM     56  C   UNL A   1      40.047  25.906  27.330  1.00  0.00     0.198 A 
ATOM     57  C   UNL A   1      41.430  27.568  26.288  1.00  0.00     0.198 A 
ATOM     58  F   UNL A   1      41.979  29.537  27.455  1.00  0.00    -0.203 F 
ATOM     59  F   UNL A   1      39.442  24.710  27.294  1.00  0.00    -0.200 F 
ATOM     60  C   UNL A   1      40.786  26.342  26.240  1.00  0.00     0.200 A 
ATOM     61  F   UNL A   1      42.128  28.002  25.230  1.00  0.00    -0.200 F 
ATOM     62  F   UNL A   1      40.880  25.578  25.143  1.00  0.00    -0.200 F 
ENDBRANCH  28  52
BRANCH  40  63
ATOM     63  C   UNL A   1      43.935  28.309  34.639  1.00  0.00     0.064 A 
ATOM     64  C   UNL A   1      45.263  28.751  34.542  1.00  0.00     0.173 A 
ATOM     65  C   UNL A   1      43.692  27.103  35.315  1.00  0.00     0.173 A 
ATOM     66  F   UNL A   1      45.550  29.887  33.890  1.00  0.00    -0.203 F 
ATOM     67  C   UNL A   1      46.308  27.998  35.073  1.00  0.00     0.198 A 
ATOM     68  C   UNL A   1      44.736  26.370  35.872  1.00  0.00     0.198 A 
ATOM     69  F   UNL A   1      42.439  26.639  35.440  1.00  0.00    -0.203 F 
ATOM     70  F   UNL A   1      47.573  28.411  34.918  1.00  0.00    -0.200 F 
ATOM     71  C   UNL A   1      46.042  26.813  35.742  1.00  0.00     0.200 A 
ATOM     72  F   UNL A   1      44.476  25.231  36.529  1.00  0.00    -0.200 F 
ATOM     73  F   UNL A   1      47.049  26.092  36.255  1.00  0.00    -0.200 F 
ENDBRANCH  40  63
ENDBRANCH  14  15
ENDBRANCH   7   9
ENDBRANCH   4   5
ENDBRANCH   3   4
ENDBRANCH   2   3
ENDBRANCH   1   2
BRANCH   1  74
ATOM     74  C   UNL A   1      33.833  29.471  26.364  1.00  0.00     0.021 C 
BRANCH  74  75
ATOM     75  C   UNL A   1      33.987  27.958  26.512  1.00  0.00     0.116 C 
BRANCH  75  76
ATOM     76  N   UNL A   1      32.744  27.403  27.018  1.00  0.00    -0.351 N 
ATOM     77  C   UNL A   1      31.740  26.784  26.310  1.00  0.00     0.283 C 
ATOM     78  H   UNL A   1      32.603  27.480  27.990  1.00  0.00     0.163 HD
ATOM     79  O   UNL A   1      30.659  26.612  26.875  1.00  0.00    -0.268 OA
BRANCH  77  80
ATOM     80  C   UNL A   1      32.097  26.228  24.924  1.00  0.00     0.308 C 
BRANCH  80  81
ATOM     81  N   UNL A   1      31.546  24.870  24.721  1.00  0.00    -0.312 N 
ATOM     82  C   UNL A   1      31.659  24.153  23.437  1.00  0.00     0.325 C 
ATOM     83  C   UNL A   1      31.648  23.934  25.821  1.00  0.00     0.325 C 
ATOM     84  H   UNL A   1      30.605  25.260  24.673  1.00  0.00     0.349 HD
ATOM     85  C   UNL A   1      32.726  23.018  23.360  1.00  0.00     0.325 C 
ATOM     86  C   UNL A   1      32.885  23.024  25.764  1.00  0.00     0.325 C 
ATOM     87  N   UNL A   1      32.918  22.193  24.567  1.00  0.00    -0.318 N 
ATOM     88  H   UNL A   1      33.856  21.805  24.469  1.00  0.00     0.348 HD
BRANCH  87  89
ATOM     89  C   UNL A   1      32.153  20.938  24.667  1.00  0.00     0.364 C 
BRANCH  89  90
ATOM     90  C   UNL A   1      32.334  19.891  23.559  1.00  0.00     0.277 C 
ATOM     91  O   UNL A   1      32.153  20.224  22.380  1.00  0.00    -0.268 OA
ATOM     92  N   UNL A   1      32.793  18.607  23.878  1.00  0.00    -0.333 N 
ATOM     93  C   UNL A   1      32.527  17.897  25.140  1.00  0.00     0.148 C 
ATOM     94  C   UNL A   1      33.120  17.730  22.751  1.00  0.00     0.148 C 
ATOM     95  C   UNL A   1      33.435  16.700  25.412  1.00  0.00     0.181 C 
ATOM     96  C   UNL A   1      34.046  16.579  23.152  1.00  0.00     0.181 C 
ATOM     97  O   UNL A   1      33.516  15.849  24.265  1.00  0.00    -0.378 OA
ENDBRANCH  89  90
ENDBRANCH  87  89
ENDBRANCH  80  81
BRANCH  80  98
ATOM     98  C   UNL A   1      31.875  27.174  23.759  1.00  0.00     0.044 A 
ATOM     99  C   UNL A   1      32.813  27.776  22.942  1.00  0.00     0.094 A 
ATOM    100  C   UNL A   1      30.593  27.717  23.362  1.00  0.00     0.009 A 
ATOM    101  N   UNL A   1      32.191  28.733  22.188  1.00  0.00    -0.361 N 
ATOM    102  C   UNL A   1      30.839  28.737  22.441  1.00  0.00     0.049 A 
ATOM    103  C   UNL A   1      29.257  27.493  23.773  1.00  0.00     0.014 A 
ATOM    104  H   UNL A   1      32.646  29.334  21.555  1.00  0.00     0.166 HD
ATOM    105  C   UNL A   1      29.827  29.568  21.943  1.00  0.00     0.065 A 
ATOM    106  C   UNL A   1      28.229  28.297  23.263  1.00  0.00     0.040 A 
ATOM    107  C   UNL A   1      28.525  29.321  22.377  1.00  0.00     0.125 A 
ATOM    108  F   UNL A   1      27.531  30.100  21.927  1.00  0.00    -0.207 F 
ENDBRANCH  80  98
ENDBRANCH  77  80
ENDBRANCH  75  76
ENDBRANCH  74  75
ENDBRANCH   1  74
TORSDOF 17
ENDMDL
MODEL 2
REMARK VINA RESULT:     -13.4      1.492      2.852
REMARK SMILES O=C(NCCCCCCNC(=O)[C@H](c1c[nH]c2cc(F)ccc12)[NH+]1CC[NH+](CC(=O)N2CCOCC2)CC1)c1ccc(-c2c3nc(c(-c4c(F)c(F)c(F)c(F)c4F)c4ccc([nH]4)c(-c4c(F)c(F)c(F)c(F)c4F)c4nc(c(-c5c(F)c(F)c(F)c(F)c5F)c5ccc2[nH]5)C=C4)C=C3)cc1
REMARK SMILES IDX 7 1 6 2 5 3 4 4 3 5 1 6 2 7 39 9 40 10 101 11 41 12 100 13
REMARK SMILES IDX 42 14 43 15 44 16 94 17 45 18 99 19 93 20 95 21 46 22 98 23
REMARK SMILES IDX 92 24 91 25 47 27 79 28 59 29 78 30 60 31 63 32 77 33 96 34
REMARK SMILES IDX 61 35 62 36 76 38 97 39 64 40 48 41 49 42 57 43 50 44 51 45
REMARK SMILES IDX 55 46 58 47 52 48 53 49 56 50 54 51 80 52 81 53 89 54 82 55
REMARK SMILES IDX 83 56 87 57 90 58 84 59 85 60 88 61 86 62 65 63 66 64 74 65
REMARK SMILES IDX 67 66 68 67 72 68 75 69 69 70 70 71 73 72 71 73 8 74 9 75
REMARK SMILES IDX 10 76 11 77 12 79 13 80 24 81 25 82 38 83 26 85 37 86 27 87
REMARK SMILES IDX 28 89 29 90 30 91 31 92 32 93 36 94 33 95 35 96 34 97 14 98
REMARK SMILES IDX 15 99 23 100 16 101 17 102 22 103 18 105 21 106 19 107
REMARK SMILES IDX 20 108
REMARK H PARENT 3 8 95 26 63 37 10 78 24 84 27 88 16 104
REMARK Flexibility Score: inf
ROOT
ATOM      1  C   UNL A   1      30.149  29.890  24.522  1.00  0.00     0.002 C 
ENDROOT
BRANCH   1   2
ATOM      2  C   UNL A   1      31.406  30.533  25.117  1.00  0.00     0.002 C 
BRANCH   2   3
ATOM      3  C   UNL A   1      31.115  31.654  26.113  1.00  0.00     0.021 C 
BRANCH   3   4
ATOM      4  C   UNL A   1      32.349  32.130  26.862  1.00  0.00     0.116 C 
BRANCH   4   5
ATOM      5  N   UNL A   1      32.249  33.533  27.234  1.00  0.00    -0.352 N 
ATOM      6  O   UNL A   1      32.684  35.352  28.502  1.00  0.00    -0.269 OA
ATOM      7  C   UNL A   1      33.004  34.232  28.143  1.00  0.00     0.251 C 
ATOM      8  H   UNL A   1      31.548  34.048  26.773  1.00  0.00     0.163 HD
BRANCH   7   9
ATOM      9  C   UNL A   1      34.209  33.583  28.696  1.00  0.00     0.039 A 
ATOM     10  C   UNL A   1      34.079  32.479  29.541  1.00  0.00     0.014 A 
ATOM     11  C   UNL A   1      35.466  34.110  28.395  1.00  0.00     0.014 A 
ATOM     12  C   UNL A   1      35.195  31.989  30.202  1.00  0.00     0.010 A 
ATOM     13  C   UNL A   1      36.599  33.554  28.989  1.00  0.00     0.010 A 
ATOM     14  C   UNL A   1      36.469  32.510  29.920  1.00  0.00    -0.014 A 
BRANCH  14  15
ATOM     15  C   UNL A   1      37.655  31.910  30.574  1.00  0.00     0.031 A 
ATOM     16  C   UNL A   1      38.056  32.301  31.967  1.00  0.00     0.074 A 
ATOM     17  C   UNL A   1      38.356  30.982  29.897  1.00  0.00     0.049 A 
ATOM     18  N   UNL A   1      39.056  31.864  32.690  1.00  0.00    -0.248 NA
ATOM     19  C   UNL A   1      37.235  33.322  32.633  1.00  0.00     0.031 C 
ATOM     20  C   UNL A   1      38.057  30.530  28.535  1.00  0.00     0.029 A 
ATOM     21  N   UNL A   1      39.447  30.239  30.262  1.00  0.00    -0.354 N 
ATOM     22  C   UNL A   1      39.003  32.574  33.882  1.00  0.00     0.074 A 
ATOM     23  C   UNL A   1      37.885  33.488  33.776  1.00  0.00     0.031 C 
ATOM     24  C   UNL A   1      38.910  29.552  28.200  1.00  0.00     0.029 A 
ATOM     25  C   UNL A   1      39.853  29.355  29.294  1.00  0.00     0.049 A 
ATOM     26  H   UNL A   1      39.897  30.329  31.133  1.00  0.00     0.167 HD
ATOM     27  C   UNL A   1      39.813  32.466  34.963  1.00  0.00     0.037 A 
ATOM     28  C   UNL A   1      40.882  28.490  29.281  1.00  0.00     0.037 A 
ATOM     29  C   UNL A   1      40.912  31.539  35.060  1.00  0.00     0.049 A 
ATOM     30  C   UNL A   1      41.776  28.408  30.484  1.00  0.00     0.074 A 
ATOM     31  C   UNL A   1      41.766  31.319  36.127  1.00  0.00     0.029 A 
ATOM     32  N   UNL A   1      41.316  30.681  34.046  1.00  0.00    -0.354 N 
ATOM     33  N   UNL A   1      41.694  29.057  31.620  1.00  0.00    -0.248 NA
ATOM     34  C   UNL A   1      42.906  27.475  30.401  1.00  0.00     0.031 C 
ATOM     35  C   UNL A   1      42.718  30.370  35.740  1.00  0.00     0.029 A 
ATOM     36  C   UNL A   1      42.422  29.951  34.453  1.00  0.00     0.049 A 
ATOM     37  H   UNL A   1      40.880  30.603  33.166  1.00  0.00     0.167 HD
ATOM     38  C   UNL A   1      42.744  28.593  32.398  1.00  0.00     0.074 A 
ATOM     39  C   UNL A   1      43.441  27.598  31.607  1.00  0.00     0.031 C 
ATOM     40  C   UNL A   1      43.099  28.959  33.654  1.00  0.00     0.037 A 
BRANCH  27  41
ATOM     41  C   UNL A   1      39.558  33.395  36.116  1.00  0.00     0.064 A 
ATOM     42  C   UNL A   1      38.733  33.035  37.193  1.00  0.00     0.173 A 
ATOM     43  C   UNL A   1      40.170  34.658  36.156  1.00  0.00     0.173 A 
ATOM     44  F   UNL A   1      38.114  31.845  37.202  1.00  0.00    -0.203 F 
ATOM     45  C   UNL A   1      38.501  33.918  38.246  1.00  0.00     0.198 A 
ATOM     46  C   UNL A   1      39.961  35.525  37.226  1.00  0.00     0.198 A 
ATOM     47  F   UNL A   1      40.976  35.051  35.158  1.00  0.00    -0.203 F 
ATOM     48  F   UNL A   1      37.664  33.573  39.235  1.00  0.00    -0.200 F 
ATOM     49  C   UNL A   1      39.119  35.158  38.265  1.00  0.00     0.200 A 
ATOM     50  F   UNL A   1      40.570  36.718  37.248  1.00  0.00    -0.200 F 
ATOM     51  F   UNL A   1      38.896  36.005  39.279  1.00  0.00    -0.200 F 
ENDBRANCH  27  41
BRANCH  28  52
ATOM     52  C   UNL A   1      41.100  27.627  28.093  1.00  0.00     0.064 A 
ATOM     53  C   UNL A   1      41.891  28.066  27.023  1.00  0.00     0.173 A 
ATOM     54  C   UNL A   1      40.553  26.337  28.017  1.00  0.00     0.173 A 
ATOM     55  F   UNL A   1      42.422  29.298  27.045  1.00  0.00    -0.203 F 
ATOM     56  C   UNL A   1      42.117  27.252  25.916  1.00  0.00     0.198 A 
ATOM     57  C   UNL A   1      40.806  25.513  26.924  1.00  0.00     0.198 A 
ATOM     58  F   UNL A   1      39.798  25.867  29.021  1.00  0.00    -0.203 F 
ATOM     59  F   UNL A   1      42.849  27.708  24.891  1.00  0.00    -0.200 F 
ATOM     60  C   UNL A   1      41.582  25.973  25.872  1.00  0.00     0.200 A 
ATOM     61  F   UNL A   1      40.303  24.272  26.894  1.00  0.00    -0.200 F 
ATOM     62  F   UNL A   1      41.812  25.185  24.813  1.00  0.00    -0.200 F 
ENDBRANCH  28  52
BRANCH  40  63
ATOM     63  C   UNL A   1      44.266  28.242  34.268  1.00  0.00     0.064 A 
ATOM     64  C   UNL A   1      45.574  28.739  34.171  1.00  0.00     0.173 A 
ATOM     65  C   UNL A   1      44.068  27.048  34.979  1.00  0.00     0.173 A 
ATOM     66  F   UNL A   1      45.819  29.866  33.486  1.00  0.00    -0.203 F 
ATOM     67  C   UNL A   1      46.645  28.051  34.737  1.00  0.00     0.198 A 
ATOM     68  C   UNL A   1      45.136  26.381  35.571  1.00  0.00     0.198 A 
ATOM     69  F   UNL A   1      42.836  26.533  35.105  1.00  0.00    -0.203 F 
ATOM     70  F   UNL A   1      47.893  28.515  34.583  1.00  0.00    -0.200 F 
ATOM     71  C   UNL A   1      46.424  26.877  35.441  1.00  0.00     0.200 A 
ATOM     72  F   UNL A   1      44.919  25.253  36.261  1.00  0.00    -0.200 F 
ATOM     73  F   UNL A   1      47.455  26.218  35.988  1.00  0.00    -0.200 F 
ENDBRANCH  40  63
ENDBRANCH  14  15
ENDBRANCH   7   9
ENDBRANCH   4   5
ENDBRANCH   3   4
ENDBRANCH   2   3
ENDBRANCH   1   2
BRANCH   1  74
ATOM     74  C   UNL A   1      30.236  29.628  23.009  1.00  0.00     0.021 C 
BRANCH  74  75
ATOM     75  C   UNL A   1      30.118  28.142  22.676  1.00  0.00     0.116 C 
BRANCH  75  76
ATOM     76  N   UNL A   1      31.311  27.719  21.965  1.00  0.00    -0.351 N 
ATOM     77  C   UNL A   1      32.179  26.703  22.292  1.00  0.00     0.283 C 
ATOM     78  H   UNL A   1      31.526  28.223  21.146  1.00  0.00     0.163 HD
ATOM     79  O   UNL A   1      33.266  26.665  21.711  1.00  0.00    -0.268 OA
BRANCH  77  80
ATOM     80  C   UNL A   1      31.663  25.617  23.246  1.00  0.00     0.308 C 
BRANCH  80  81
ATOM     81  N   UNL A   1      32.365  24.331  23.043  1.00  0.00    -0.312 N 
ATOM     82  C   UNL A   1      33.779  24.133  23.414  1.00  0.00     0.325 C 
ATOM     83  C   UNL A   1      31.617  23.114  23.278  1.00  0.00     0.325 C 
ATOM     84  H   UNL A   1      32.426  24.523  22.043  1.00  0.00     0.349 HD
ATOM     85  C   UNL A   1      34.054  23.323  24.718  1.00  0.00     0.325 C 
ATOM     86  C   UNL A   1      31.776  22.538  24.693  1.00  0.00     0.325 C 
ATOM     87  N   UNL A   1      33.157  22.189  25.008  1.00  0.00    -0.318 N 
ATOM     88  H   UNL A   1      33.233  22.049  26.015  1.00  0.00     0.348 HD
BRANCH  87  89
ATOM     89  C   UNL A   1      33.574  20.853  24.550  1.00  0.00     0.364 C 
BRANCH  89  90
ATOM     90  C   UNL A   1      33.286  19.654  25.465  1.00  0.00     0.277 C 
ATOM     91  O   UNL A   1      32.869  19.858  26.613  1.00  0.00    -0.268 OA
ATOM     92  N   UNL A   1      33.403  18.350  24.967  1.00  0.00    -0.333 N 
ATOM     93  C   UNL A   1      34.353  17.917  23.929  1.00  0.00     0.148 C 
ATOM     94  C   UNL A   1      32.930  17.272  25.838  1.00  0.00     0.148 C 
ATOM     95  C   UNL A   1      34.035  16.570  23.283  1.00  0.00     0.181 C 
ATOM     96  C   UNL A   1      32.635  15.982  25.070  1.00  0.00     0.181 C 
ATOM     97  O   UNL A   1      33.760  15.579  24.278  1.00  0.00    -0.378 OA
ENDBRANCH  89  90
ENDBRANCH  87  89
ENDBRANCH  80  81
BRANCH  80  98
ATOM     98  C   UNL A   1      31.525  26.032  24.699  1.00  0.00     0.044 A 
ATOM     99  C   UNL A   1      30.472  25.809  25.566  1.00  0.00     0.094 A 
ATOM    100  C   UNL A   1      32.466  26.863  25.420  1.00  0.00     0.009 A 
ATOM    101  N   UNL A   1      30.663  26.561  26.693  1.00  0.00    -0.361 N 
ATOM    102  C   UNL A   1      31.859  27.233  26.622  1.00  0.00     0.049 A 
ATOM    103  C   UNL A   1      33.738  27.404  25.116  1.00  0.00     0.014 A 
ATOM    104  H   UNL A   1      30.032  26.613  27.447  1.00  0.00     0.166 HD
ATOM    105  C   UNL A   1      32.440  28.148  27.511  1.00  0.00     0.065 A 
ATOM    106  C   UNL A   1      34.345  28.297  26.008  1.00  0.00     0.040 A 
ATOM    107  C   UNL A   1      33.690  28.664  27.174  1.00  0.00     0.125 A 
ATOM    108  F   UNL A   1      34.273  29.547  27.997  1.00  0.00    -0.207 F 
ENDBRANCH  80  98
ENDBRANCH  77  80
ENDBRANCH  75  76
ENDBRANCH  74  75
ENDBRANCH   1  74
TORSDOF 17
ENDMDL
MODEL 3
REMARK VINA RESULT:     -13.3      0.447      6.898
REMARK SMILES O=C(NCCCCCCNC(=O)[C@H](c1c[nH]c2cc(F)ccc12)[NH+]1CC[NH+](CC(=O)N2CCOCC2)CC1)c1ccc(-c2c3nc(c(-c4c(F)c(F)c(F)c(F)c4F)c4ccc([nH]4)c(-c4c(F)c(F)c(F)c(F)c4F)c4nc(c(-c5c(F)c(F)c(F)c(F)c5F)c5ccc2[nH]5)C=C4)C=C3)cc1
REMARK SMILES IDX 7 1 6 2 5 3 4 4 3 5 1 6 2 7 39 9 40 10 101 11 41 12 100 13
REMARK SMILES IDX 42 14 43 15 44 16 94 17 45 18 99 19 93 20 95 21 46 22 98 23
REMARK SMILES IDX 92 24 91 25 47 27 79 28 59 29 78 30 60 31 63 32 77 33 96 34
REMARK SMILES IDX 61 35 62 36 76 38 97 39 64 40 48 41 49 42 57 43 50 44 51 45
REMARK SMILES IDX 55 46 58 47 52 48 53 49 56 50 54 51 80 52 81 53 89 54 82 55
REMARK SMILES IDX 83 56 87 57 90 58 84 59 85 60 88 61 86 62 65 63 66 64 74 65
REMARK SMILES IDX 67 66 68 67 72 68 75 69 69 70 70 71 73 72 71 73 8 74 9 75
REMARK SMILES IDX 10 76 11 77 12 79 13 80 24 81 25 82 38 83 26 85 37 86 27 87
REMARK SMILES IDX 28 89 29 90 30 91 31 92 32 93 36 94 33 95 35 96 34 97 14 98
REMARK SMILES IDX 15 99 23 100 16 101 17 102 22 103 18 105 21 106 19 107
REMARK SMILES IDX 20 108
REMARK H PARENT 3 8 95 26 63 37 10 78 24 84 27 88 16 104
REMARK Flexibility Score: inf
ROOT
ATOM      1  C   UNL A   1      31.851  29.779  26.428  1.00  0.00     0.002 C 
ENDROOT
BRANCH   1   2
ATOM      2  C   UNL A   1      31.397  31.094  25.788  1.00  0.00     0.002 C 
BRANCH   2   3
ATOM      3  C   UNL A   1      31.297  32.258  26.771  1.00  0.00     0.021 C 
BRANCH   3   4
ATOM      4  C   UNL A   1      32.623  32.967  27.002  1.00  0.00     0.116 C 
BRANCH   4   5
ATOM      5  N   UNL A   1      32.437  34.288  27.582  1.00  0.00    -0.352 N 
ATOM      6  O   UNL A   1      32.678  35.883  29.164  1.00  0.00    -0.269 OA
ATOM      7  C   UNL A   1      33.071  34.843  28.666  1.00  0.00     0.251 C 
ATOM      8  H   UNL A   1      31.770  34.860  27.138  1.00  0.00     0.163 HD
BRANCH   7   9
ATOM      9  C   UNL A   1      34.235  34.132  29.232  1.00  0.00     0.039 A 
ATOM     10  C   UNL A   1      34.041  33.094  30.146  1.00  0.00     0.014 A 
ATOM     11  C   UNL A   1      35.522  34.540  28.875  1.00  0.00     0.014 A 
ATOM     12  C   UNL A   1      35.131  32.557  30.811  1.00  0.00     0.010 A 
ATOM     13  C   UNL A   1      36.622  33.931  29.478  1.00  0.00     0.010 A 
ATOM     14  C   UNL A   1      36.434  32.957  30.473  1.00  0.00    -0.014 A 
BRANCH  14  15
ATOM     15  C   UNL A   1      37.586  32.303  31.137  1.00  0.00     0.031 A 
ATOM     16  C   UNL A   1      38.400  31.258  30.431  1.00  0.00     0.074 A 
ATOM     17  C   UNL A   1      37.903  32.685  32.388  1.00  0.00     0.049 A 
ATOM     18  N   UNL A   1      39.444  30.597  30.862  1.00  0.00    -0.248 NA
ATOM     19  C   UNL A   1      37.983  30.899  29.068  1.00  0.00     0.031 C 
ATOM     20  C   UNL A   1      37.176  33.689  33.170  1.00  0.00     0.029 A 
ATOM     21  N   UNL A   1      38.923  32.295  33.215  1.00  0.00    -0.354 N 
ATOM     22  C   UNL A   1      39.792  29.726  29.838  1.00  0.00     0.074 A 
ATOM     23  C   UNL A   1      38.834  29.927  28.772  1.00  0.00     0.031 C 
ATOM     24  C   UNL A   1      37.803  33.873  34.340  1.00  0.00     0.029 A 
ATOM     25  C   UNL A   1      38.933  32.956  34.417  1.00  0.00     0.049 A 
ATOM     26  H   UNL A   1      39.584  31.607  32.970  1.00  0.00     0.167 HD
ATOM     27  C   UNL A   1      40.822  28.846  29.795  1.00  0.00     0.037 A 
ATOM     28  C   UNL A   1      39.756  32.828  35.473  1.00  0.00     0.037 A 
ATOM     29  C   UNL A   1      41.779  28.669  30.858  1.00  0.00     0.049 A 
ATOM     30  C   UNL A   1      40.873  31.829  35.406  1.00  0.00     0.074 A 
ATOM     31  C   UNL A   1      42.884  27.836  30.897  1.00  0.00     0.029 A 
ATOM     32  N   UNL A   1      41.740  29.332  32.077  1.00  0.00    -0.354 N 
ATOM     33  N   UNL A   1      41.216  31.038  34.418  1.00  0.00    -0.248 NA
ATOM     34  C   UNL A   1      41.716  31.704  36.601  1.00  0.00     0.031 C 
ATOM     35  C   UNL A   1      43.481  27.956  32.156  1.00  0.00     0.029 A 
ATOM     36  C   UNL A   1      42.785  28.908  32.883  1.00  0.00     0.049 A 
ATOM     37  H   UNL A   1      41.069  30.006  32.331  1.00  0.00     0.167 HD
ATOM     38  C   UNL A   1      42.330  30.340  34.861  1.00  0.00     0.074 A 
ATOM     39  C   UNL A   1      42.611  30.812  36.203  1.00  0.00     0.031 C 
ATOM     40  C   UNL A   1      43.054  29.394  34.215  1.00  0.00     0.037 A 
BRANCH  27  41
ATOM     41  C   UNL A   1      40.948  27.984  28.570  1.00  0.00     0.064 A 
ATOM     42  C   UNL A   1      41.734  28.365  27.471  1.00  0.00     0.173 A 
ATOM     43  C   UNL A   1      40.290  26.747  28.505  1.00  0.00     0.173 A 
ATOM     44  F   UNL A   1      42.376  29.542  27.474  1.00  0.00    -0.203 F 
ATOM     45  C   UNL A   1      41.825  27.556  26.340  1.00  0.00     0.198 A 
ATOM     46  C   UNL A   1      40.409  25.926  27.386  1.00  0.00     0.198 A 
ATOM     47  F   UNL A   1      39.532  26.328  29.531  1.00  0.00    -0.203 F 
ATOM     48  F   UNL A   1      42.537  27.966  25.281  1.00  0.00    -0.200 F 
ATOM     49  C   UNL A   1      41.169  26.335  26.301  1.00  0.00     0.200 A 
ATOM     50  F   UNL A   1      39.785  24.741  27.356  1.00  0.00    -0.200 F 
ATOM     51  F   UNL A   1      41.260  25.558  25.213  1.00  0.00    -0.200 F 
ENDBRANCH  27  41
BRANCH  28  52
ATOM     52  C   UNL A   1      39.552  33.685  36.668  1.00  0.00     0.064 A 
ATOM     53  C   UNL A   1      38.772  33.241  37.744  1.00  0.00     0.173 A 
ATOM     54  C   UNL A   1      40.158  34.945  36.774  1.00  0.00     0.173 A 
ATOM     55  F   UNL A   1      38.161  32.048  37.681  1.00  0.00    -0.203 F 
ATOM     56  C   UNL A   1      38.597  34.031  38.877  1.00  0.00     0.198 A 
ATOM     57  C   UNL A   1      40.006  35.721  37.921  1.00  0.00     0.198 A 
ATOM     58  F   UNL A   1      40.922  35.410  35.775  1.00  0.00    -0.203 F 
ATOM     59  F   UNL A   1      37.819  33.598  39.879  1.00  0.00    -0.200 F 
ATOM     60  C   UNL A   1      39.221  35.266  38.968  1.00  0.00     0.200 A 
ATOM     61  F   UNL A   1      40.627  36.905  38.012  1.00  0.00    -0.200 F 
ATOM     62  F   UNL A   1      39.063  36.020  40.065  1.00  0.00    -0.200 F 
ENDBRANCH  28  52
BRANCH  40  63
ATOM     63  C   UNL A   1      44.250  28.842  34.934  1.00  0.00     0.064 A 
ATOM     64  C   UNL A   1      44.167  27.692  35.734  1.00  0.00     0.173 A 
ATOM     65  C   UNL A   1      45.501  29.464  34.806  1.00  0.00     0.173 A 
ATOM     66  F   UNL A   1      42.990  27.071  35.904  1.00  0.00    -0.203 F 
ATOM     67  C   UNL A   1      45.287  27.204  36.403  1.00  0.00     0.198 A 
ATOM     68  C   UNL A   1      46.625  28.955  35.450  1.00  0.00     0.198 A 
ATOM     69  F   UNL A   1      45.635  30.564  34.049  1.00  0.00    -0.203 F 
ATOM     70  F   UNL A   1      45.172  26.137  37.206  1.00  0.00    -0.200 F 
ATOM     71  C   UNL A   1      46.515  27.832  36.255  1.00  0.00     0.200 A 
ATOM     72  F   UNL A   1      47.813  29.555  35.297  1.00  0.00    -0.200 F 
ATOM     73  F   UNL A   1      47.592  27.359  36.898  1.00  0.00    -0.200 F 
ENDBRANCH  40  63
ENDBRANCH  14  15
ENDBRANCH   7   9
ENDBRANCH   4   5
ENDBRANCH   3   4
ENDBRANCH   2   3
ENDBRANCH   1   2
BRANCH   1  74
ATOM     74  C   UNL A   1      33.337  29.456  26.209  1.00  0.00     0.021 C 
BRANCH  74  75
ATOM     75  C   UNL A   1      33.668  28.004  26.549  1.00  0.00     0.116 C 
BRANCH  75  76
ATOM     76  N   UNL A   1      32.469  27.347  27.039  1.00  0.00    -0.351 N 
ATOM     77  C   UNL A   1      31.543  26.625  26.321  1.00  0.00     0.283 C 
ATOM     78  H   UNL A   1      32.296  27.431  28.004  1.00  0.00     0.163 HD
ATOM     79  O   UNL A   1      30.468  26.366  26.864  1.00  0.00    -0.268 OA
BRANCH  77  80
ATOM     80  C   UNL A   1      31.985  26.075  24.957  1.00  0.00     0.308 C 
BRANCH  80  81
ATOM     81  N   UNL A   1      31.450  24.717  24.716  1.00  0.00    -0.312 N 
ATOM     82  C   UNL A   1      31.674  23.990  23.452  1.00  0.00     0.325 C 
ATOM     83  C   UNL A   1      31.451  23.788  25.827  1.00  0.00     0.325 C 
ATOM     84  H   UNL A   1      30.518  25.108  24.582  1.00  0.00     0.349 HD
ATOM     85  C   UNL A   1      32.740  22.852  23.477  1.00  0.00     0.325 C 
ATOM     86  C   UNL A   1      32.686  22.876  25.886  1.00  0.00     0.325 C 
ATOM     87  N   UNL A   1      32.823  22.035  24.702  1.00  0.00    -0.318 N 
ATOM     88  H   UNL A   1      33.764  21.646  24.690  1.00  0.00     0.348 HD
BRANCH  87  89
ATOM     89  C   UNL A   1      32.048  20.783  24.743  1.00  0.00     0.364 C 
BRANCH  89  90
ATOM     90  C   UNL A   1      32.298  19.743  23.642  1.00  0.00     0.277 C 
ATOM     91  O   UNL A   1      32.142  20.070  22.458  1.00  0.00    -0.268 OA
ATOM     92  N   UNL A   1      32.789  18.475  23.976  1.00  0.00    -0.333 N 
ATOM     93  C   UNL A   1      32.509  17.756  25.230  1.00  0.00     0.148 C 
ATOM     94  C   UNL A   1      33.180  17.610  22.861  1.00  0.00     0.148 C 
ATOM     95  C   UNL A   1      33.449  16.591  25.531  1.00  0.00     0.181 C 
ATOM     96  C   UNL A   1      34.131  16.491  23.291  1.00  0.00     0.181 C 
ATOM     97  O   UNL A   1      33.593  15.742  24.387  1.00  0.00    -0.378 OA
ENDBRANCH  89  90
ENDBRANCH  87  89
ENDBRANCH  80  81
BRANCH  80  98
ATOM     98  C   UNL A   1      31.831  27.026  23.785  1.00  0.00     0.044 A 
ATOM     99  C   UNL A   1      32.813  27.576  22.982  1.00  0.00     0.094 A 
ATOM    100  C   UNL A   1      30.586  27.630  23.363  1.00  0.00     0.009 A 
ATOM    101  N   UNL A   1      32.253  28.559  22.213  1.00  0.00    -0.361 N 
ATOM    102  C   UNL A   1      30.899  28.632  22.442  1.00  0.00     0.049 A 
ATOM    103  C   UNL A   1      29.233  27.475  23.750  1.00  0.00     0.014 A 
ATOM    104  H   UNL A   1      32.749  29.133  21.586  1.00  0.00     0.166 HD
ATOM    105  C   UNL A   1      29.939  29.510  21.923  1.00  0.00     0.065 A 
ATOM    106  C   UNL A   1      28.256  28.327  23.218  1.00  0.00     0.040 A 
ATOM    107  C   UNL A   1      28.618  29.330  22.333  1.00  0.00     0.125 A 
ATOM    108  F   UNL A   1      27.673  30.156  21.863  1.00  0.00    -0.207 F 
ENDBRANCH  80  98
ENDBRANCH  77  80
ENDBRANCH  75  76
ENDBRANCH  74  75
ENDBRANCH   1  74
TORSDOF 17
ENDMDL
