MODEL 1
REMARK VINA RESULT:     -12.2      0.000      0.000
REMARK SMILES C[C@H]1[C@H](C(=O)NCCCCCCNC(=O)c2ccc(-c3c4nc(c(-c5c(F)c(F)c(F)c(F)c5F)c5ccc([nH]5)c(-c5c(F)c(F)c(F)c(F)c5F)c5nc(c(-c6c(F)c(F)c(F)c(F)c6F)c6ccc3[nH]6)C=C5)C=C4)cc2)CCN1c1ncnc2sccc12
REMARK SMILES IDX 10 1 9 2 8 3 7 4 6 5 4 6 5 7 3 9 1 10 2 11 81 12 79 13 80 14
REMARK SMILES IDX 82 15 83 16 90 17 84 18 86 19 89 20 85 21 87 22 88 23 11 24
REMARK SMILES IDX 12 25 13 26 14 27 15 29 16 30 17 31 78 32 18 33 77 34 19 35
REMARK SMILES IDX 20 36 21 37 71 38 22 39 76 40 70 41 72 42 23 43 75 44 69 45
REMARK SMILES IDX 68 46 24 48 56 49 36 50 55 51 37 52 40 53 54 54 73 55 38 56
REMARK SMILES IDX 39 57 53 59 74 60 41 61 25 62 26 63 34 64 27 65 28 66 32 67
REMARK SMILES IDX 35 68 29 69 30 70 33 71 31 72 57 73 58 74 66 75 59 76 60 77
REMARK SMILES IDX 64 78 67 79 61 80 62 81 65 82 63 83 42 84 43 85 51 86 44 87
REMARK SMILES IDX 45 88 49 89 52 90 46 91 47 92 50 93 48 94
REMARK H PARENT 6 8 13 28 72 47 40 58
REMARK Flexibility Score: inf
ROOT
ATOM      1  C   UNL A   1      31.691  30.833  26.487  1.00  0.00     0.002 C 
ENDROOT
BRANCH   1   2
ATOM      2  C   UNL A   1      33.144  30.353  26.564  1.00  0.00     0.002 C 
BRANCH   2   3
ATOM      3  C   UNL A   1      33.339  29.003  27.264  1.00  0.00     0.021 C 
BRANCH   3   4
ATOM      4  C   UNL A   1      34.188  28.018  26.463  1.00  0.00     0.116 C 
BRANCH   4   5
ATOM      5  N   UNL A   1      34.430  28.511  25.120  1.00  0.00    -0.356 N 
ATOM      6  C   UNL A   1      33.934  28.103  23.922  1.00  0.00     0.225 C 
ATOM      7  O   UNL A   1      34.380  28.648  22.909  1.00  0.00    -0.275 OA
ATOM      8  H   UNL A   1      35.056  29.267  25.067  1.00  0.00     0.163 HD
BRANCH   6   9
ATOM      9  C   UNL A   1      32.834  27.061  23.804  1.00  0.00     0.102 C 
ATOM     10  C   UNL A   1      31.031  26.751  25.537  1.00  0.00     0.032 C 
ATOM     11  C   UNL A   1      31.466  27.550  24.307  1.00  0.00     0.093 C 
ATOM     12  N   UNL A   1      30.550  27.333  23.177  1.00  0.00    -0.352 N 
ATOM     13  C   UNL A   1      32.648  26.579  22.370  1.00  0.00     0.037 C 
ATOM     14  C   UNL A   1      31.150  26.563  22.108  1.00  0.00     0.119 C 
BRANCH  12  15
ATOM     15  C   UNL A   1      29.310  27.933  23.134  1.00  0.00     0.141 A 
ATOM     16  N   UNL A   1      28.260  27.206  23.608  1.00  0.00    -0.219 NA
ATOM     17  C   UNL A   1      29.019  29.249  22.672  1.00  0.00     0.054 A 
ATOM     18  C   UNL A   1      27.025  27.722  23.613  1.00  0.00     0.225 A 
ATOM     19  C   UNL A   1      27.693  29.658  22.770  1.00  0.00     0.128 A 
ATOM     20  C   UNL A   1      29.802  30.317  22.095  1.00  0.00     0.026 A 
ATOM     21  N   UNL A   1      26.658  28.939  23.228  1.00  0.00    -0.225 NA
ATOM     22  S   UNL A   1      27.432  31.258  22.240  1.00  0.00    -0.124 S 
ATOM     23  C   UNL A   1      29.074  31.458  21.838  1.00  0.00     0.068 A 
ENDBRANCH  12  15
ENDBRANCH   6   9
ENDBRANCH   4   5
ENDBRANCH   3   4
ENDBRANCH   2   3
ENDBRANCH   1   2
BRANCH   1  24
ATOM     24  C   UNL A   1      31.480  32.308  26.835  1.00  0.00     0.021 C 
BRANCH  24  25
ATOM     25  C   UNL A   1      32.751  33.047  27.238  1.00  0.00     0.116 C 
BRANCH  25  26
ATOM     26  N   UNL A   1      32.475  34.404  27.682  1.00  0.00    -0.352 N 
ATOM     27  C   UNL A   1      32.997  35.093  28.743  1.00  0.00     0.251 C 
ATOM     28  H   UNL A   1      31.816  34.898  27.141  1.00  0.00     0.163 HD
ATOM     29  O   UNL A   1      32.495  36.159  29.099  1.00  0.00    -0.269 OA
BRANCH  27  30
ATOM     30  C   UNL A   1      34.155  34.545  29.479  1.00  0.00     0.039 A 
ATOM     31  C   UNL A   1      33.939  33.907  30.701  1.00  0.00     0.014 A 
ATOM     32  C   UNL A   1      35.449  34.665  28.964  1.00  0.00     0.014 A 
ATOM     33  C   UNL A   1      35.016  33.338  31.382  1.00  0.00     0.010 A 
ATOM     34  C   UNL A   1      36.509  34.030  29.604  1.00  0.00     0.010 A 
ATOM     35  C   UNL A   1      36.304  33.365  30.822  1.00  0.00    -0.014 A 
BRANCH  35  36
ATOM     36  C   UNL A   1      37.446  32.699  31.497  1.00  0.00     0.031 A 
ATOM     37  C   UNL A   1      38.144  31.542  30.839  1.00  0.00     0.074 A 
ATOM     38  C   UNL A   1      37.816  33.101  32.728  1.00  0.00     0.049 A 
ATOM     39  N   UNL A   1      39.123  30.800  31.293  1.00  0.00    -0.248 NA
ATOM     40  C   UNL A   1      37.661  31.149  29.507  1.00  0.00     0.031 C 
ATOM     41  C   UNL A   1      37.187  34.182  33.487  1.00  0.00     0.029 A 
ATOM     42  N   UNL A   1      38.806  32.643  33.561  1.00  0.00    -0.354 N 
ATOM     43  C   UNL A   1      39.365  29.851  30.307  1.00  0.00     0.074 A 
ATOM     44  C   UNL A   1      38.392  30.072  29.260  1.00  0.00     0.031 C 
ATOM     45  C   UNL A   1      37.822  34.322  34.662  1.00  0.00     0.029 A 
ATOM     46  C   UNL A   1      38.873  33.313  34.757  1.00  0.00     0.049 A 
ATOM     47  H   UNL A   1      39.411  31.903  33.322  1.00  0.00     0.167 HD
ATOM     48  C   UNL A   1      40.326  28.898  30.269  1.00  0.00     0.037 A 
ATOM     49  C   UNL A   1      39.684  33.129  35.816  1.00  0.00     0.037 A 
ATOM     50  C   UNL A   1      41.302  28.692  31.309  1.00  0.00     0.049 A 
ATOM     51  C   UNL A   1      40.729  32.046  35.758  1.00  0.00     0.074 A 
ATOM     52  C   UNL A   1      42.352  27.792  31.341  1.00  0.00     0.029 A 
ATOM     53  N   UNL A   1      41.339  29.391  32.507  1.00  0.00    -0.354 N 
ATOM     54  N   UNL A   1      40.997  31.204  34.790  1.00  0.00    -0.248 NA
ATOM     55  C   UNL A   1      41.587  31.893  36.941  1.00  0.00     0.031 C 
ATOM     56  C   UNL A   1      42.990  27.906  32.580  1.00  0.00     0.029 A 
ATOM     57  C   UNL A   1      42.376  28.922  33.297  1.00  0.00     0.049 A 
ATOM     58  H   UNL A   1      40.720  30.114  32.758  1.00  0.00     0.167 HD
ATOM     59  C   UNL A   1      42.070  30.441  35.233  1.00  0.00     0.074 A 
ATOM     60  C   UNL A   1      42.414  30.934  36.551  1.00  0.00     0.031 C 
ATOM     61  C   UNL A   1      42.710  29.425  34.606  1.00  0.00     0.037 A 
BRANCH  48  62
ATOM     62  C   UNL A   1      40.371  28.003  29.063  1.00  0.00     0.064 A 
ATOM     63  C   UNL A   1      39.644  26.804  29.006  1.00  0.00     0.173 A 
ATOM     64  C   UNL A   1      41.126  28.364  27.936  1.00  0.00     0.173 A 
ATOM     65  F   UNL A   1      38.914  26.406  30.059  1.00  0.00    -0.203 F 
ATOM     66  C   UNL A   1      39.697  25.984  27.881  1.00  0.00     0.198 A 
ATOM     67  C   UNL A   1      41.149  27.559  26.799  1.00  0.00     0.198 A 
ATOM     68  F   UNL A   1      41.835  29.502  27.932  1.00  0.00    -0.203 F 
ATOM     69  F   UNL A   1      39.037  24.818  27.873  1.00  0.00    -0.200 F 
ATOM     70  C   UNL A   1      40.443  26.366  26.776  1.00  0.00     0.200 A 
ATOM     71  F   UNL A   1      41.858  27.937  25.727  1.00  0.00    -0.200 F 
ATOM     72  F   UNL A   1      40.487  25.580  25.692  1.00  0.00    -0.200 F 
ENDBRANCH  48  62
BRANCH  49  73
ATOM     73  C   UNL A   1      39.556  34.002  37.012  1.00  0.00     0.064 A 
ATOM     74  C   UNL A   1      40.193  35.250  37.066  1.00  0.00     0.173 A 
ATOM     75  C   UNL A   1      38.802  33.608  38.128  1.00  0.00     0.173 A 
ATOM     76  F   UNL A   1      40.941  35.663  36.032  1.00  0.00    -0.203 F 
ATOM     77  C   UNL A   1      40.100  36.058  38.196  1.00  0.00     0.198 A 
ATOM     78  C   UNL A   1      38.683  34.431  39.245  1.00  0.00     0.198 A 
ATOM     79  F   UNL A   1      38.167  32.426  38.127  1.00  0.00    -0.203 F 
ATOM     80  F   UNL A   1      40.760  37.225  38.239  1.00  0.00    -0.200 F 
ATOM     81  C   UNL A   1      39.340  35.652  39.282  1.00  0.00     0.200 A 
ATOM     82  F   UNL A   1      37.934  34.041  40.286  1.00  0.00    -0.200 F 
ATOM     83  F   UNL A   1      39.247  36.432  40.368  1.00  0.00    -0.200 F 
ENDBRANCH  49  73
BRANCH  61  84
ATOM     84  C   UNL A   1      43.872  28.797  35.321  1.00  0.00     0.064 A 
ATOM     85  C   UNL A   1      45.186  29.254  35.139  1.00  0.00     0.173 A 
ATOM     86  C   UNL A   1      43.663  27.748  36.231  1.00  0.00     0.173 A 
ATOM     87  F   UNL A   1      45.443  30.242  34.270  1.00  0.00    -0.203 F 
ATOM     88  C   UNL A   1      46.250  28.665  35.818  1.00  0.00     0.198 A 
ATOM     89  C   UNL A   1      44.724  27.185  36.935  1.00  0.00     0.198 A 
ATOM     90  F   UNL A   1      42.425  27.278  36.447  1.00  0.00    -0.203 F 
ATOM     91  F   UNL A   1      47.503  29.082  35.589  1.00  0.00    -0.200 F 
ATOM     92  C   UNL A   1      46.016  27.638  36.722  1.00  0.00     0.200 A 
ATOM     93  F   UNL A   1      44.494  26.205  37.818  1.00  0.00    -0.200 F 
ATOM     94  F   UNL A   1      47.040  27.079  37.381  1.00  0.00    -0.200 F 
ENDBRANCH  61  84
ENDBRANCH  35  36
ENDBRANCH  27  30
ENDBRANCH  25  26
ENDBRANCH  24  25
ENDBRANCH   1  24
TORSDOF 14
ENDMDL
MODEL 2
REMARK VINA RESULT:     -12.1      6.783     11.812
REMARK SMILES C[C@H]1[C@H](C(=O)NCCCCCCNC(=O)c2ccc(-c3c4nc(c(-c5c(F)c(F)c(F)c(F)c5F)c5ccc([nH]5)c(-c5c(F)c(F)c(F)c(F)c5F)c5nc(c(-c6c(F)c(F)c(F)c(F)c6F)c6ccc3[nH]6)C=C5)C=C4)cc2)CCN1c1ncnc2sccc12
REMARK SMILES IDX 10 1 9 2 8 3 7 4 6 5 4 6 5 7 3 9 1 10 2 11 81 12 79 13 80 14
REMARK SMILES IDX 82 15 83 16 90 17 84 18 86 19 89 20 85 21 87 22 88 23 11 24
REMARK SMILES IDX 12 25 13 26 14 27 15 29 16 30 17 31 78 32 18 33 77 34 19 35
REMARK SMILES IDX 20 36 21 37 71 38 22 39 76 40 70 41 72 42 23 43 75 44 69 45
REMARK SMILES IDX 68 46 24 48 56 49 36 50 55 51 37 52 40 53 54 54 73 55 38 56
REMARK SMILES IDX 39 57 53 59 74 60 41 61 25 62 26 63 34 64 27 65 28 66 32 67
REMARK SMILES IDX 35 68 29 69 30 70 33 71 31 72 57 73 58 74 66 75 59 76 60 77
REMARK SMILES IDX 64 78 67 79 61 80 62 81 65 82 63 83 42 84 43 85 51 86 44 87
REMARK SMILES IDX 45 88 49 89 52 90 46 91 47 92 50 93 48 94
REMARK H PARENT 6 8 13 28 72 47 40 58
REMARK Flexibility Score: inf
ROOT
ATOM      1  C   UNL A   1      37.317  20.689  24.905  1.00  0.00     0.002 C 
ENDROOT
BRANCH   1   2
ATOM      2  C   UNL A   1      37.742  22.068  25.421  1.00  0.00     0.002 C 
BRANCH   2   3
ATOM      3  C   UNL A   1      37.130  23.254  24.666  1.00  0.00     0.021 C 
BRANCH   3   4
ATOM      4  C   UNL A   1      36.312  24.187  25.557  1.00  0.00     0.116 C 
BRANCH   4   5
ATOM      5  N   UNL A   1      35.719  23.462  26.665  1.00  0.00    -0.356 N 
ATOM      6  C   UNL A   1      34.460  22.982  26.841  1.00  0.00     0.225 C 
ATOM      7  O   UNL A   1      34.195  22.472  27.932  1.00  0.00    -0.275 OA
ATOM      8  H   UNL A   1      36.331  23.288  27.415  1.00  0.00     0.163 HD
BRANCH   6   9
ATOM      9  C   UNL A   1      33.415  23.006  25.738  1.00  0.00     0.102 C 
ATOM     10  C   UNL A   1      33.976  22.749  23.294  1.00  0.00     0.032 C 
ATOM     11  C   UNL A   1      33.694  22.008  24.603  1.00  0.00     0.093 C 
ATOM     12  N   UNL A   1      32.471  21.198  24.505  1.00  0.00    -0.352 N 
ATOM     13  C   UNL A   1      32.014  22.719  26.265  1.00  0.00     0.037 C 
ATOM     14  C   UNL A   1      31.383  21.724  25.303  1.00  0.00     0.119 C 
BRANCH  12  15
ATOM     15  C   UNL A   1      32.456  20.002  23.818  1.00  0.00     0.141 A 
ATOM     16  N   UNL A   1      32.150  20.060  22.493  1.00  0.00    -0.219 NA
ATOM     17  C   UNL A   1      32.756  18.715  24.349  1.00  0.00     0.054 A 
ATOM     18  C   UNL A   1      32.126  18.945  21.752  1.00  0.00     0.225 A 
ATOM     19  C   UNL A   1      32.722  17.654  23.450  1.00  0.00     0.128 A 
ATOM     20  C   UNL A   1      33.103  18.214  25.659  1.00  0.00     0.026 A 
ATOM     21  N   UNL A   1      32.413  17.710  22.146  1.00  0.00    -0.225 NA
ATOM     22  S   UNL A   1      33.137  16.154  24.149  1.00  0.00    -0.124 S 
ATOM     23  C   UNL A   1      33.356  16.859  25.682  1.00  0.00     0.068 A 
ENDBRANCH  12  15
ENDBRANCH   6   9
ENDBRANCH   4   5
ENDBRANCH   3   4
ENDBRANCH   2   3
ENDBRANCH   1   2
BRANCH   1  24
ATOM     24  C   UNL A   1      38.363  19.586  25.078  1.00  0.00     0.021 C 
BRANCH  24  25
ATOM     25  C   UNL A   1      39.476  19.925  26.062  1.00  0.00     0.116 C 
BRANCH  25  26
ATOM     26  N   UNL A   1      40.546  18.939  26.033  1.00  0.00    -0.352 N 
ATOM     27  C   UNL A   1      41.902  19.129  26.053  1.00  0.00     0.251 C 
ATOM     28  H   UNL A   1      40.252  18.000  25.992  1.00  0.00     0.163 HD
ATOM     29  O   UNL A   1      42.663  18.194  25.810  1.00  0.00    -0.269 OA
BRANCH  27  30
ATOM     30  C   UNL A   1      42.453  20.468  26.349  1.00  0.00     0.039 A 
ATOM     31  C   UNL A   1      42.885  21.269  25.290  1.00  0.00     0.014 A 
ATOM     32  C   UNL A   1      42.546  20.927  27.665  1.00  0.00     0.014 A 
ATOM     33  C   UNL A   1      43.359  22.556  25.549  1.00  0.00     0.010 A 
ATOM     34  C   UNL A   1      42.945  22.237  27.914  1.00  0.00     0.010 A 
ATOM     35  C   UNL A   1      43.359  23.062  26.859  1.00  0.00    -0.014 A 
BRANCH  35  36
ATOM     36  C   UNL A   1      43.790  24.455  27.141  1.00  0.00     0.031 A 
ATOM     37  C   UNL A   1      42.800  25.465  27.650  1.00  0.00     0.074 A 
ATOM     38  C   UNL A   1      45.059  24.823  26.883  1.00  0.00     0.049 A 
ATOM     39  N   UNL A   1      42.972  26.738  27.903  1.00  0.00    -0.248 NA
ATOM     40  C   UNL A   1      41.428  24.987  27.880  1.00  0.00     0.031 C 
ATOM     41  C   UNL A   1      46.100  23.946  26.345  1.00  0.00     0.029 A 
ATOM     42  N   UNL A   1      45.689  26.033  27.031  1.00  0.00    -0.354 N 
ATOM     43  C   UNL A   1      41.732  27.212  28.313  1.00  0.00     0.074 A 
ATOM     44  C   UNL A   1      40.804  26.107  28.216  1.00  0.00     0.031 C 
ATOM     45  C   UNL A   1      47.244  24.639  26.233  1.00  0.00     0.029 A 
ATOM     46  C   UNL A   1      47.008  26.018  26.649  1.00  0.00     0.049 A 
ATOM     47  H   UNL A   1      45.238  26.837  27.378  1.00  0.00     0.167 HD
ATOM     48  C   UNL A   1      41.404  28.451  28.751  1.00  0.00     0.037 A 
ATOM     49  C   UNL A   1      47.922  27.007  26.628  1.00  0.00     0.037 A 
ATOM     50  C   UNL A   1      42.336  29.544  28.859  1.00  0.00     0.049 A 
ATOM     51  C   UNL A   1      47.525  28.381  27.098  1.00  0.00     0.074 A 
ATOM     52  C   UNL A   1      42.116  30.820  29.345  1.00  0.00     0.029 A 
ATOM     53  N   UNL A   1      43.665  29.490  28.464  1.00  0.00    -0.354 N 
ATOM     54  N   UNL A   1      46.368  28.799  27.553  1.00  0.00    -0.248 NA
ATOM     55  C   UNL A   1      48.563  29.420  27.055  1.00  0.00     0.031 C 
ATOM     56  C   UNL A   1      43.296  31.556  29.192  1.00  0.00     0.029 A 
ATOM     57  C   UNL A   1      44.269  30.721  28.668  1.00  0.00     0.049 A 
ATOM     58  H   UNL A   1      44.112  28.695  28.093  1.00  0.00     0.167 HD
ATOM     59  C   UNL A   1      46.547  30.138  27.878  1.00  0.00     0.074 A 
ATOM     60  C   UNL A   1      47.929  30.456  27.583  1.00  0.00     0.031 C 
ATOM     61  C   UNL A   1      45.647  31.022  28.373  1.00  0.00     0.037 A 
BRANCH  48  62
ATOM     62  C   UNL A   1      39.974  28.691  29.149  1.00  0.00     0.064 A 
ATOM     63  C   UNL A   1      39.020  29.153  28.230  1.00  0.00     0.173 A 
ATOM     64  C   UNL A   1      39.546  28.426  30.459  1.00  0.00     0.173 A 
ATOM     65  F   UNL A   1      39.379  29.432  26.967  1.00  0.00    -0.203 F 
ATOM     66  C   UNL A   1      37.700  29.373  28.614  1.00  0.00     0.198 A 
ATOM     67  C   UNL A   1      38.216  28.614  30.831  1.00  0.00     0.198 A 
ATOM     68  F   UNL A   1      40.412  27.976  31.378  1.00  0.00    -0.203 F 
ATOM     69  F   UNL A   1      36.821  29.867  27.731  1.00  0.00    -0.200 F 
ATOM     70  C   UNL A   1      37.297  29.096  29.911  1.00  0.00     0.200 A 
ATOM     71  F   UNL A   1      37.825  28.331  32.081  1.00  0.00    -0.200 F 
ATOM     72  F   UNL A   1      36.025  29.301  30.278  1.00  0.00    -0.200 F 
ENDBRANCH  48  62
BRANCH  49  73
ATOM     73  C   UNL A   1      49.307  26.730  26.164  1.00  0.00     0.064 A 
ATOM     74  C   UNL A   1      49.682  26.966  24.834  1.00  0.00     0.173 A 
ATOM     75  C   UNL A   1      50.282  26.221  27.035  1.00  0.00     0.173 A 
ATOM     76  F   UNL A   1      48.781  27.434  23.958  1.00  0.00    -0.203 F 
ATOM     77  C   UNL A   1      50.971  26.681  24.388  1.00  0.00     0.198 A 
ATOM     78  C   UNL A   1      51.579  25.967  26.595  1.00  0.00     0.198 A 
ATOM     79  F   UNL A   1      49.977  25.984  28.320  1.00  0.00    -0.203 F 
ATOM     80  F   UNL A   1      51.288  26.869  23.099  1.00  0.00    -0.200 F 
ATOM     81  C   UNL A   1      51.920  26.188  25.269  1.00  0.00     0.200 A 
ATOM     82  F   UNL A   1      52.497  25.506  27.456  1.00  0.00    -0.200 F 
ATOM     83  F   UNL A   1      53.161  25.919  24.841  1.00  0.00    -0.200 F 
ENDBRANCH  49  73
BRANCH  61  84
ATOM     84  C   UNL A   1      46.136  32.413  28.660  1.00  0.00     0.064 A 
ATOM     85  C   UNL A   1      46.713  32.753  29.893  1.00  0.00     0.173 A 
ATOM     86  C   UNL A   1      46.060  33.410  27.675  1.00  0.00     0.173 A 
ATOM     87  F   UNL A   1      46.796  31.843  30.874  1.00  0.00    -0.203 F 
ATOM     88  C   UNL A   1      47.169  34.046  30.138  1.00  0.00     0.198 A 
ATOM     89  C   UNL A   1      46.548  34.692  27.911  1.00  0.00     0.198 A 
ATOM     90  F   UNL A   1      45.523  33.136  26.477  1.00  0.00    -0.203 F 
ATOM     91  F   UNL A   1      47.669  34.362  31.341  1.00  0.00    -0.200 F 
ATOM     92  C   UNL A   1      47.094  35.011  29.144  1.00  0.00     0.200 A 
ATOM     93  F   UNL A   1      46.489  35.618  26.944  1.00  0.00    -0.200 F 
ATOM     94  F   UNL A   1      47.542  36.252  29.379  1.00  0.00    -0.200 F 
ENDBRANCH  61  84
ENDBRANCH  35  36
ENDBRANCH  27  30
ENDBRANCH  25  26
ENDBRANCH  24  25
ENDBRANCH   1  24
TORSDOF 14
ENDMDL
MODEL 3
REMARK VINA RESULT:     -12.1      2.625      3.652
REMARK SMILES C[C@H]1[C@H](C(=O)NCCCCCCNC(=O)c2ccc(-c3c4nc(c(-c5c(F)c(F)c(F)c(F)c5F)c5ccc([nH]5)c(-c5c(F)c(F)c(F)c(F)c5F)c5nc(c(-c6c(F)c(F)c(F)c(F)c6F)c6ccc3[nH]6)C=C5)C=C4)cc2)CCN1c1ncnc2sccc12
REMARK SMILES IDX 10 1 9 2 8 3 7 4 6 5 4 6 5 7 3 9 1 10 2 11 81 12 79 13 80 14
REMARK SMILES IDX 82 15 83 16 90 17 84 18 86 19 89 20 85 21 87 22 88 23 11 24
REMARK SMILES IDX 12 25 13 26 14 27 15 29 16 30 17 31 78 32 18 33 77 34 19 35
REMARK SMILES IDX 20 36 21 37 71 38 22 39 76 40 70 41 72 42 23 43 75 44 69 45
REMARK SMILES IDX 68 46 24 48 56 49 36 50 55 51 37 52 40 53 54 54 73 55 38 56
REMARK SMILES IDX 39 57 53 59 74 60 41 61 25 62 26 63 34 64 27 65 28 66 32 67
REMARK SMILES IDX 35 68 29 69 30 70 33 71 31 72 57 73 58 74 66 75 59 76 60 77
REMARK SMILES IDX 64 78 67 79 61 80 62 81 65 82 63 83 42 84 43 85 51 86 44 87
REMARK SMILES IDX 45 88 49 89 52 90 46 91 47 92 50 93 48 94
REMARK H PARENT 6 8 13 28 72 47 40 58
REMARK Flexibility Score: inf
ROOT
ATOM      1  C   UNL A   1      31.586  30.933  25.914  1.00  0.00     0.002 C 
ENDROOT
BRANCH   1   2
ATOM      2  C   UNL A   1      32.098  29.729  26.713  1.00  0.00     0.002 C 
BRANCH   2   3
ATOM      3  C   UNL A   1      31.742  28.362  26.117  1.00  0.00     0.021 C 
BRANCH   3   4
ATOM      4  C   UNL A   1      31.123  28.447  24.723  1.00  0.00     0.116 C 
BRANCH   4   5
ATOM      5  N   UNL A   1      30.367  27.247  24.416  1.00  0.00    -0.356 N 
ATOM      6  C   UNL A   1      30.740  26.096  23.796  1.00  0.00     0.225 C 
ATOM      7  O   UNL A   1      29.860  25.257  23.583  1.00  0.00    -0.275 OA
ATOM      8  H   UNL A   1      29.427  27.269  24.705  1.00  0.00     0.163 HD
BRANCH   6   9
ATOM      9  C   UNL A   1      32.182  25.800  23.420  1.00  0.00     0.102 C 
ATOM     10  C   UNL A   1      34.024  25.518  25.116  1.00  0.00     0.032 C 
ATOM     11  C   UNL A   1      32.880  24.821  24.377  1.00  0.00     0.093 C 
ATOM     12  N   UNL A   1      33.380  23.742  23.512  1.00  0.00    -0.352 N 
ATOM     13  C   UNL A   1      32.305  25.230  22.012  1.00  0.00     0.037 C 
ATOM     14  C   UNL A   1      33.263  24.052  22.103  1.00  0.00     0.119 C 
BRANCH  12  15
ATOM     15  C   UNL A   1      33.785  22.533  24.036  1.00  0.00     0.141 A 
ATOM     16  N   UNL A   1      32.808  21.622  24.302  1.00  0.00    -0.219 NA
ATOM     17  C   UNL A   1      35.126  22.129  24.300  1.00  0.00     0.054 A 
ATOM     18  C   UNL A   1      33.120  20.419  24.800  1.00  0.00     0.225 A 
ATOM     19  C   UNL A   1      35.295  20.836  24.786  1.00  0.00     0.128 A 
ATOM     20  C   UNL A   1      36.418  22.763  24.182  1.00  0.00     0.026 A 
ATOM     21  N   UNL A   1      34.333  19.942  25.056  1.00  0.00    -0.225 NA
ATOM     22  S   UNL A   1      36.928  20.409  25.034  1.00  0.00    -0.124 S 
ATOM     23  C   UNL A   1      37.469  21.940  24.523  1.00  0.00     0.068 A 
ENDBRANCH  12  15
ENDBRANCH   6   9
ENDBRANCH   4   5
ENDBRANCH   3   4
ENDBRANCH   2   3
ENDBRANCH   1   2
BRANCH   1  24
ATOM     24  C   UNL A   1      31.349  32.200  26.737  1.00  0.00     0.021 C 
BRANCH  24  25
ATOM     25  C   UNL A   1      32.620  32.849  27.272  1.00  0.00     0.116 C 
BRANCH  25  26
ATOM     26  N   UNL A   1      32.411  34.245  27.624  1.00  0.00    -0.352 N 
ATOM     27  C   UNL A   1      33.001  34.989  28.610  1.00  0.00     0.251 C 
ATOM     28  H   UNL A   1      31.749  34.723  27.073  1.00  0.00     0.163 HD
ATOM     29  O   UNL A   1      32.554  36.097  28.903  1.00  0.00    -0.269 OA
BRANCH  27  30
ATOM     30  C   UNL A   1      34.168  34.451  29.340  1.00  0.00     0.039 A 
ATOM     31  C   UNL A   1      33.962  33.802  30.559  1.00  0.00     0.014 A 
ATOM     32  C   UNL A   1      35.459  34.591  28.824  1.00  0.00     0.014 A 
ATOM     33  C   UNL A   1      35.047  33.243  31.233  1.00  0.00     0.010 A 
ATOM     34  C   UNL A   1      36.528  33.966  29.458  1.00  0.00     0.010 A 
ATOM     35  C   UNL A   1      36.334  33.289  30.671  1.00  0.00    -0.014 A 
BRANCH  35  36
ATOM     36  C   UNL A   1      37.486  32.634  31.340  1.00  0.00     0.031 A 
ATOM     37  C   UNL A   1      38.203  31.496  30.670  1.00  0.00     0.074 A 
ATOM     38  C   UNL A   1      37.848  33.027  32.576  1.00  0.00     0.049 A 
ATOM     39  N   UNL A   1      39.194  30.764  31.115  1.00  0.00    -0.248 NA
ATOM     40  C   UNL A   1      37.728  31.112  29.332  1.00  0.00     0.031 C 
ATOM     41  C   UNL A   1      37.200  34.089  33.348  1.00  0.00     0.029 A 
ATOM     42  N   UNL A   1      38.844  32.575  33.405  1.00  0.00    -0.354 N 
ATOM     43  C   UNL A   1      39.452  29.832  30.119  1.00  0.00     0.074 A 
ATOM     44  C   UNL A   1      38.476  30.049  29.073  1.00  0.00     0.031 C 
ATOM     45  C   UNL A   1      37.832  34.224  34.525  1.00  0.00     0.029 A 
ATOM     46  C   UNL A   1      38.899  33.232  34.610  1.00  0.00     0.049 A 
ATOM     47  H   UNL A   1      39.461  31.848  33.159  1.00  0.00     0.167 HD
ATOM     48  C   UNL A   1      40.428  28.894  30.071  1.00  0.00     0.037 A 
ATOM     49  C   UNL A   1      39.711  33.047  35.667  1.00  0.00     0.037 A 
ATOM     50  C   UNL A   1      41.405  28.692  31.109  1.00  0.00     0.049 A 
ATOM     51  C   UNL A   1      40.773  31.983  35.598  1.00  0.00     0.074 A 
ATOM     52  C   UNL A   1      42.470  27.808  31.132  1.00  0.00     0.029 A 
ATOM     53  N   UNL A   1      41.430  29.377  32.316  1.00  0.00    -0.354 N 
ATOM     54  N   UNL A   1      41.056  31.156  34.620  1.00  0.00    -0.248 NA
ATOM     55  C   UNL A   1      41.632  31.828  36.780  1.00  0.00     0.031 C 
ATOM     56  C   UNL A   1      43.104  27.918  32.374  1.00  0.00     0.029 A 
ATOM     57  C   UNL A   1      42.474  28.915  33.102  1.00  0.00     0.049 A 
ATOM     58  H   UNL A   1      40.799  30.087  32.574  1.00  0.00     0.167 HD
ATOM     59  C   UNL A   1      42.141  30.406  35.055  1.00  0.00     0.074 A 
ATOM     60  C   UNL A   1      42.476  30.888  36.380  1.00  0.00     0.031 C 
ATOM     61  C   UNL A   1      42.798  29.408  34.417  1.00  0.00     0.037 A 
BRANCH  48  62
ATOM     62  C   UNL A   1      40.489  28.015  28.853  1.00  0.00     0.064 A 
ATOM     63  C   UNL A   1      39.780  26.806  28.780  1.00  0.00     0.173 A 
ATOM     64  C   UNL A   1      41.240  28.401  27.733  1.00  0.00     0.173 A 
ATOM     65  F   UNL A   1      39.054  26.385  29.827  1.00  0.00    -0.203 F 
ATOM     66  C   UNL A   1      39.848  26.001  27.646  1.00  0.00     0.198 A 
ATOM     67  C   UNL A   1      41.278  27.611  26.587  1.00  0.00     0.198 A 
ATOM     68  F   UNL A   1      41.932  29.550  27.744  1.00  0.00    -0.203 F 
ATOM     69  F   UNL A   1      39.206  24.825  27.623  1.00  0.00    -0.200 F 
ATOM     70  C   UNL A   1      40.590  26.407  26.548  1.00  0.00     0.200 A 
ATOM     71  F   UNL A   1      41.983  28.012  25.520  1.00  0.00    -0.200 F 
ATOM     72  F   UNL A   1      40.648  25.636  25.454  1.00  0.00    -0.200 F 
ENDBRANCH  48  62
BRANCH  49  73
ATOM     73  C   UNL A   1      39.568  33.904  36.874  1.00  0.00     0.064 A 
ATOM     74  C   UNL A   1      40.192  35.157  36.947  1.00  0.00     0.173 A 
ATOM     75  C   UNL A   1      38.812  33.488  37.980  1.00  0.00     0.173 A 
ATOM     76  F   UNL A   1      40.942  35.591  35.923  1.00  0.00    -0.203 F 
ATOM     77  C   UNL A   1      40.084  35.950  38.087  1.00  0.00     0.198 A 
ATOM     78  C   UNL A   1      38.679  34.296  39.107  1.00  0.00     0.198 A 
ATOM     79  F   UNL A   1      38.189  32.300  37.960  1.00  0.00    -0.203 F 
ATOM     80  F   UNL A   1      40.732  37.123  38.148  1.00  0.00    -0.200 F 
ATOM     81  C   UNL A   1      39.323  35.523  39.163  1.00  0.00     0.200 A 
ATOM     82  F   UNL A   1      37.928  33.885  40.138  1.00  0.00    -0.200 F 
ATOM     83  F   UNL A   1      39.216  36.288  40.258  1.00  0.00    -0.200 F 
ENDBRANCH  49  73
BRANCH  61  84
ATOM     84  C   UNL A   1      43.969  28.789  35.126  1.00  0.00     0.064 A 
ATOM     85  C   UNL A   1      45.264  29.318  35.014  1.00  0.00     0.173 A 
ATOM     86  C   UNL A   1      43.786  27.676  35.961  1.00  0.00     0.173 A 
ATOM     87  F   UNL A   1      45.496  30.372  34.217  1.00  0.00    -0.203 F 
ATOM     88  C   UNL A   1      46.336  28.737  35.686  1.00  0.00     0.198 A 
ATOM     89  C   UNL A   1      44.853  27.119  36.660  1.00  0.00     0.198 A 
ATOM     90  F   UNL A   1      42.567  27.135  36.109  1.00  0.00    -0.203 F 
ATOM     91  F   UNL A   1      47.573  29.226  35.522  1.00  0.00    -0.200 F 
ATOM     92  C   UNL A   1      46.127  27.644  36.515  1.00  0.00     0.200 A 
ATOM     93  F   UNL A   1      44.647  26.074  37.472  1.00  0.00    -0.200 F 
ATOM     94  F   UNL A   1      47.159  27.093  37.170  1.00  0.00    -0.200 F 
ENDBRANCH  61  84
ENDBRANCH  35  36
ENDBRANCH  27  30
ENDBRANCH  25  26
ENDBRANCH  24  25
ENDBRANCH   1  24
TORSDOF 14
ENDMDL
