MODEL 1
REMARK VINA RESULT:     -11.8      0.000      0.000
REMARK SMILES Cc1cccc(Cl)c1Nc1ccccc1CC(=O)NCCCCCCNC(=O)c1ccc(-c2c3nc(c(-c4c(F)c(F)c(F)c(F)c4F)c4ccc([nH]4)c(-c4c(F)c(F)c(F)c(F)c4F)c4nc(c(-c5c(F)c(F)c(F)c(F)c5F)c5ccc2[nH]5)C=C4)C=C3)cc1
REMARK SMILES IDX 22 1 21 2 20 3 19 4 17 5 18 6 16 8 15 9 10 10 11 11 12 12
REMARK SMILES IDX 14 13 13 14 9 15 8 17 1 18 2 19 3 20 4 21 6 22 5 23 7 24
REMARK SMILES IDX 23 25 24 26 25 27 26 28 27 29 28 31 29 32 30 33 91 34 31 35
REMARK SMILES IDX 90 36 32 37 33 38 34 39 84 40 35 41 89 42 83 43 85 44 36 45
REMARK SMILES IDX 88 46 82 47 81 48 37 50 69 51 49 52 68 53 50 54 53 55 67 56
REMARK SMILES IDX 86 57 51 58 52 59 66 61 87 62 54 63 38 64 39 65 47 66 40 67
REMARK SMILES IDX 41 68 45 69 48 70 42 71 43 72 46 73 44 74 70 75 71 76 79 77
REMARK SMILES IDX 72 78 73 79 77 80 80 81 74 82 75 83 78 84 76 85 55 86 56 87
REMARK SMILES IDX 64 88 57 89 58 90 62 91 65 92 59 93 60 94 63 95 61 96
REMARK H PARENT 19 7 9 16 26 30 85 49 53 60
REMARK Flexibility Score: inf
ROOT
ATOM      1  C   UNL A   1      32.563  23.361  25.195  1.00  0.00     0.002 C 
ENDROOT
BRANCH   1   2
ATOM      2  C   UNL A   1      32.095  23.356  23.734  1.00  0.00     0.021 C 
BRANCH   2   3
ATOM      3  C   UNL A   1      30.673  23.885  23.547  1.00  0.00     0.116 C 
BRANCH   3   4
ATOM      4  N   UNL A   1      30.305  24.773  24.631  1.00  0.00    -0.356 N 
ATOM      5  C   UNL A   1      30.240  26.138  24.618  1.00  0.00     0.224 C 
ATOM      6  O   UNL A   1      30.058  26.725  25.687  1.00  0.00    -0.275 OA
ATOM      7  H   UNL A   1      30.073  24.338  25.483  1.00  0.00     0.163 HD
BRANCH   5   8
ATOM      8  C   UNL A   1      30.327  26.885  23.298  1.00  0.00     0.137 C 
BRANCH   8   9
ATOM      9  C   UNL A   1      29.614  28.222  23.280  1.00  0.00    -0.015 A 
ATOM     10  C   UNL A   1      30.253  29.445  23.590  1.00  0.00     0.042 A 
ATOM     11  C   UNL A   1      29.475  30.619  23.631  1.00  0.00     0.026 A 
ATOM     12  C   UNL A   1      28.110  30.601  23.344  1.00  0.00     0.002 A 
ATOM     13  C   UNL A   1      28.239  28.228  22.965  1.00  0.00     0.006 A 
ATOM     14  C   UNL A   1      27.495  29.406  23.000  1.00  0.00     0.000 A 
BRANCH  10  15
ATOM     15  N   UNL A   1      31.637  29.594  23.814  1.00  0.00    -0.354 N 
ATOM     16  H   UNL A   1      32.132  29.919  23.027  1.00  0.00     0.167 HD
BRANCH  15  17
ATOM     17  C   UNL A   1      32.455  29.369  24.948  1.00  0.00     0.060 A 
ATOM     18  C   UNL A   1      33.486  27.384  23.704  1.00  0.00     0.046 C 
ATOM     19  C   UNL A   1      33.391  28.301  24.896  1.00  0.00    -0.026 A 
ATOM     20  C   UNL A   1      34.292  28.100  25.958  1.00  0.00     0.005 A 
ATOM     21  C   UNL A   1      34.276  28.929  27.074  1.00  0.00     0.002 A 
ATOM     22  C   UNL A   1      32.437  30.176  26.109  1.00  0.00     0.064 A 
ATOM     23  C   UNL A   1      33.345  29.959  27.153  1.00  0.00     0.023 A 
ATOM     24  Cl  UNL A   1      31.247  31.404  26.391  1.00  0.00    -0.082 Cl
ENDBRANCH  15  17
ENDBRANCH  10  15
ENDBRANCH   8   9
ENDBRANCH   5   8
ENDBRANCH   3   4
ENDBRANCH   2   3
ENDBRANCH   1   2
BRANCH   1  25
ATOM     25  C   UNL A   1      33.829  24.184  25.462  1.00  0.00     0.002 C 
BRANCH  25  26
ATOM     26  C   UNL A   1      34.974  23.410  26.119  1.00  0.00     0.021 C 
BRANCH  26  27
ATOM     27  C   UNL A   1      36.368  23.881  25.717  1.00  0.00     0.116 C 
BRANCH  27  28
ATOM     28  N   UNL A   1      37.362  22.828  25.870  1.00  0.00    -0.352 N 
ATOM     29  C   UNL A   1      38.663  22.911  26.285  1.00  0.00     0.251 C 
ATOM     30  H   UNL A   1      37.051  21.923  25.641  1.00  0.00     0.163 HD
ATOM     31  O   UNL A   1      39.415  21.945  26.151  1.00  0.00    -0.269 OA
BRANCH  29  32
ATOM     32  C   UNL A   1      39.179  24.159  26.883  1.00  0.00     0.039 A 
ATOM     33  C   UNL A   1      39.927  25.029  26.084  1.00  0.00     0.014 A 
ATOM     34  C   UNL A   1      38.958  24.459  28.231  1.00  0.00     0.014 A 
ATOM     35  C   UNL A   1      40.412  26.221  26.624  1.00  0.00     0.010 A 
ATOM     36  C   UNL A   1      39.382  25.680  28.749  1.00  0.00     0.010 A 
ATOM     37  C   UNL A   1      40.120  26.569  27.953  1.00  0.00    -0.014 A 
BRANCH  37  38
ATOM     38  C   UNL A   1      40.585  27.860  28.518  1.00  0.00     0.031 A 
ATOM     39  C   UNL A   1      42.034  28.064  28.863  1.00  0.00     0.074 A 
ATOM     40  C   UNL A   1      39.688  28.834  28.766  1.00  0.00     0.049 A 
ATOM     41  N   UNL A   1      42.621  29.112  29.384  1.00  0.00    -0.248 NA
ATOM     42  C   UNL A   1      42.940  26.932  28.615  1.00  0.00     0.031 C 
ATOM     43  C   UNL A   1      38.247  28.734  28.530  1.00  0.00     0.029 A 
ATOM     44  N   UNL A   1      39.855  30.097  29.276  1.00  0.00    -0.354 N 
ATOM     45  C   UNL A   1      43.956  28.762  29.535  1.00  0.00     0.074 A 
ATOM     46  C   UNL A   1      44.083  27.388  29.102  1.00  0.00     0.031 C 
ATOM     47  C   UNL A   1      37.665  29.894  28.870  1.00  0.00     0.029 A 
ATOM     48  C   UNL A   1      38.684  30.808  29.375  1.00  0.00     0.049 A 
ATOM     49  H   UNL A   1      40.729  30.459  29.545  1.00  0.00     0.167 HD
ATOM     50  C   UNL A   1      44.986  29.526  29.972  1.00  0.00     0.037 A 
ATOM     51  C   UNL A   1      38.460  32.058  29.824  1.00  0.00     0.037 A 
ATOM     52  C   UNL A   1      44.859  30.903  30.378  1.00  0.00     0.049 A 
ATOM     53  C   UNL A   1      39.623  32.891  30.287  1.00  0.00     0.074 A 
ATOM     54  C   UNL A   1      45.852  31.782  30.772  1.00  0.00     0.029 A 
ATOM     55  N   UNL A   1      43.660  31.598  30.443  1.00  0.00    -0.354 N 
ATOM     56  N   UNL A   1      40.894  32.575  30.351  1.00  0.00    -0.248 NA
ATOM     57  C   UNL A   1      39.321  34.258  30.730  1.00  0.00     0.031 C 
ATOM     58  C   UNL A   1      45.249  32.996  31.121  1.00  0.00     0.029 A 
ATOM     59  C   UNL A   1      43.886  32.889  30.894  1.00  0.00     0.049 A 
ATOM     60  H   UNL A   1      42.779  31.229  30.205  1.00  0.00     0.167 HD
ATOM     61  C   UNL A   1      41.546  33.708  30.817  1.00  0.00     0.074 A 
ATOM     62  C   UNL A   1      40.532  34.726  30.999  1.00  0.00     0.031 C 
ATOM     63  C   UNL A   1      42.865  33.891  31.071  1.00  0.00     0.037 A 
BRANCH  50  64
ATOM     64  C   UNL A   1      46.346  28.891  30.030  1.00  0.00     0.064 A 
ATOM     65  C   UNL A   1      47.219  28.914  28.932  1.00  0.00     0.173 A 
ATOM     66  C   UNL A   1      46.796  28.280  31.212  1.00  0.00     0.173 A 
ATOM     67  F   UNL A   1      46.833  29.476  27.776  1.00  0.00    -0.203 F 
ATOM     68  C   UNL A   1      48.478  28.325  29.002  1.00  0.00     0.198 A 
ATOM     69  C   UNL A   1      48.068  27.719  31.288  1.00  0.00     0.198 A 
ATOM     70  F   UNL A   1      46.005  28.234  32.293  1.00  0.00    -0.203 F 
ATOM     71  F   UNL A   1      49.273  28.316  27.924  1.00  0.00    -0.200 F 
ATOM     72  C   UNL A   1      48.905  27.734  30.182  1.00  0.00     0.200 A 
ATOM     73  F   UNL A   1      48.485  27.160  32.433  1.00  0.00    -0.200 F 
ATOM     74  F   UNL A   1      50.120  27.173  30.251  1.00  0.00    -0.200 F 
ENDBRANCH  50  64
BRANCH  51  75
ATOM     75  C   UNL A   1      37.079  32.607  29.825  1.00  0.00     0.064 A 
ATOM     76  C   UNL A   1      36.239  32.441  30.935  1.00  0.00     0.173 A 
ATOM     77  C   UNL A   1      36.572  33.306  28.720  1.00  0.00     0.173 A 
ATOM     78  F   UNL A   1      36.673  31.763  32.007  1.00  0.00    -0.203 F 
ATOM     79  C   UNL A   1      34.937  32.935  30.932  1.00  0.00     0.198 A 
ATOM     80  C   UNL A   1      35.278  33.825  28.730  1.00  0.00     0.198 A 
ATOM     81  F   UNL A   1      37.338  33.498  27.636  1.00  0.00    -0.203 F 
ATOM     82  F   UNL A   1      34.140  32.722  31.988  1.00  0.00    -0.200 F 
ATOM     83  C   UNL A   1      34.459  33.632  29.832  1.00  0.00     0.200 A 
ATOM     84  F   UNL A   1      34.826  34.511  27.672  1.00  0.00    -0.200 F 
ATOM     85  F   UNL A   1      33.208  34.111  29.831  1.00  0.00    -0.200 F 
ENDBRANCH  51  75
BRANCH  63  86
ATOM     86  C   UNL A   1      43.288  35.250  31.548  1.00  0.00     0.064 A 
ATOM     87  C   UNL A   1      43.322  35.573  32.913  1.00  0.00     0.173 A 
ATOM     88  C   UNL A   1      43.685  36.233  30.630  1.00  0.00     0.173 A 
ATOM     89  F   UNL A   1      42.938  34.672  33.830  1.00  0.00    -0.203 F 
ATOM     90  C   UNL A   1      43.704  36.843  33.338  1.00  0.00     0.198 A 
ATOM     91  C   UNL A   1      44.098  37.491  31.061  1.00  0.00     0.198 A 
ATOM     92  F   UNL A   1      43.678  35.973  29.314  1.00  0.00    -0.203 F 
ATOM     93  F   UNL A   1      43.675  37.147  34.644  1.00  0.00    -0.200 F 
ATOM     94  C   UNL A   1      44.098  37.798  32.414  1.00  0.00     0.200 A 
ATOM     95  F   UNL A   1      44.490  38.409  30.167  1.00  0.00    -0.200 F 
ATOM     96  F   UNL A   1      44.468  39.019  32.825  1.00  0.00    -0.200 F 
ENDBRANCH  63  86
ENDBRANCH  37  38
ENDBRANCH  29  32
ENDBRANCH  27  28
ENDBRANCH  26  27
ENDBRANCH  25  26
ENDBRANCH   1  25
TORSDOF 16
ENDMDL
MODEL 2
REMARK VINA RESULT:     -11.7      0.210      2.004
REMARK SMILES Cc1cccc(Cl)c1Nc1ccccc1CC(=O)NCCCCCCNC(=O)c1ccc(-c2c3nc(c(-c4c(F)c(F)c(F)c(F)c4F)c4ccc([nH]4)c(-c4c(F)c(F)c(F)c(F)c4F)c4nc(c(-c5c(F)c(F)c(F)c(F)c5F)c5ccc2[nH]5)C=C4)C=C3)cc1
REMARK SMILES IDX 22 1 21 2 20 3 19 4 17 5 18 6 16 8 15 9 10 10 11 11 12 12
REMARK SMILES IDX 14 13 13 14 9 15 8 17 1 18 2 19 3 20 4 21 6 22 5 23 7 24
REMARK SMILES IDX 23 25 24 26 25 27 26 28 27 29 28 31 29 32 30 33 91 34 31 35
REMARK SMILES IDX 90 36 32 37 33 38 34 39 84 40 35 41 89 42 83 43 85 44 36 45
REMARK SMILES IDX 88 46 82 47 81 48 37 50 69 51 49 52 68 53 50 54 53 55 67 56
REMARK SMILES IDX 86 57 51 58 52 59 66 61 87 62 54 63 38 64 39 65 47 66 40 67
REMARK SMILES IDX 41 68 45 69 48 70 42 71 43 72 46 73 44 74 70 75 71 76 79 77
REMARK SMILES IDX 72 78 73 79 77 80 80 81 74 82 75 83 78 84 76 85 55 86 56 87
REMARK SMILES IDX 64 88 57 89 58 90 62 91 65 92 59 93 60 94 63 95 61 96
REMARK H PARENT 19 7 9 16 26 30 85 49 53 60
REMARK Flexibility Score: inf
ROOT
ATOM      1  C   UNL A   1      32.874  23.084  24.494  1.00  0.00     0.002 C 
ENDROOT
BRANCH   1   2
ATOM      2  C   UNL A   1      32.178  23.730  23.289  1.00  0.00     0.021 C 
BRANCH   2   3
ATOM      3  C   UNL A   1      30.669  23.894  23.472  1.00  0.00     0.116 C 
BRANCH   3   4
ATOM      4  N   UNL A   1      30.377  24.780  24.581  1.00  0.00    -0.356 N 
ATOM      5  C   UNL A   1      30.357  26.146  24.586  1.00  0.00     0.224 C 
ATOM      6  O   UNL A   1      30.240  26.726  25.668  1.00  0.00    -0.275 OA
ATOM      7  H   UNL A   1      30.165  24.342  25.436  1.00  0.00     0.163 HD
BRANCH   5   8
ATOM      8  C   UNL A   1      30.414  26.907  23.273  1.00  0.00     0.137 C 
BRANCH   8   9
ATOM      9  C   UNL A   1      29.688  28.237  23.280  1.00  0.00    -0.015 A 
ATOM     10  C   UNL A   1      30.309  29.457  23.633  1.00  0.00     0.042 A 
ATOM     11  C   UNL A   1      29.518  30.622  23.694  1.00  0.00     0.026 A 
ATOM     12  C   UNL A   1      28.158  30.598  23.385  1.00  0.00     0.002 A 
ATOM     13  C   UNL A   1      28.319  28.238  22.942  1.00  0.00     0.006 A 
ATOM     14  C   UNL A   1      27.561  29.407  22.997  1.00  0.00     0.000 A 
BRANCH  10  15
ATOM     15  N   UNL A   1      31.688  29.614  23.885  1.00  0.00    -0.354 N 
ATOM     16  H   UNL A   1      32.210  29.857  23.087  1.00  0.00     0.167 HD
BRANCH  15  17
ATOM     17  C   UNL A   1      32.469  29.490  25.060  1.00  0.00     0.060 A 
ATOM     18  C   UNL A   1      33.588  27.447  23.998  1.00  0.00     0.046 C 
ATOM     19  C   UNL A   1      33.430  28.445  25.118  1.00  0.00    -0.026 A 
ATOM     20  C   UNL A   1      34.295  28.342  26.222  1.00  0.00     0.005 A 
ATOM     21  C   UNL A   1      34.220  29.248  27.274  1.00  0.00     0.002 A 
ATOM     22  C   UNL A   1      32.391  30.377  26.158  1.00  0.00     0.064 A 
ATOM     23  C   UNL A   1      33.265  30.257  27.246  1.00  0.00     0.023 A 
ATOM     24  Cl  UNL A   1      31.164  31.592  26.310  1.00  0.00    -0.082 Cl
ENDBRANCH  15  17
ENDBRANCH  10  15
ENDBRANCH   8   9
ENDBRANCH   5   8
ENDBRANCH   3   4
ENDBRANCH   2   3
ENDBRANCH   1   2
BRANCH   1  25
ATOM     25  C   UNL A   1      34.071  23.869  25.042  1.00  0.00     0.002 C 
BRANCH  25  26
ATOM     26  C   UNL A   1      35.184  23.010  25.645  1.00  0.00     0.021 C 
BRANCH  26  27
ATOM     27  C   UNL A   1      36.570  23.647  25.601  1.00  0.00     0.116 C 
BRANCH  27  28
ATOM     28  N   UNL A   1      37.622  22.678  25.867  1.00  0.00    -0.352 N 
ATOM     29  C   UNL A   1      38.893  22.875  26.334  1.00  0.00     0.251 C 
ATOM     30  H   UNL A   1      37.384  21.741  25.683  1.00  0.00     0.163 HD
ATOM     31  O   UNL A   1      39.713  21.957  26.298  1.00  0.00    -0.269 OA
BRANCH  29  32
ATOM     32  C   UNL A   1      39.295  24.191  26.873  1.00  0.00     0.039 A 
ATOM     33  C   UNL A   1      38.948  24.514  28.188  1.00  0.00     0.014 A 
ATOM     34  C   UNL A   1      39.981  25.117  26.081  1.00  0.00     0.014 A 
ATOM     35  C   UNL A   1      39.331  25.745  28.722  1.00  0.00     0.010 A 
ATOM     36  C   UNL A   1      40.422  26.314  26.637  1.00  0.00     0.010 A 
ATOM     37  C   UNL A   1      40.094  26.644  27.961  1.00  0.00    -0.014 A 
BRANCH  37  38
ATOM     38  C   UNL A   1      40.552  27.931  28.540  1.00  0.00     0.031 A 
ATOM     39  C   UNL A   1      41.999  28.136  28.894  1.00  0.00     0.074 A 
ATOM     40  C   UNL A   1      39.651  28.901  28.790  1.00  0.00     0.049 A 
ATOM     41  N   UNL A   1      42.580  29.181  29.427  1.00  0.00    -0.248 NA
ATOM     42  C   UNL A   1      42.909  27.008  28.641  1.00  0.00     0.031 C 
ATOM     43  C   UNL A   1      38.212  28.799  28.545  1.00  0.00     0.029 A 
ATOM     44  N   UNL A   1      39.812  30.160  29.312  1.00  0.00    -0.354 N 
ATOM     45  C   UNL A   1      43.915  28.833  29.583  1.00  0.00     0.074 A 
ATOM     46  C   UNL A   1      44.049  27.463  29.139  1.00  0.00     0.031 C 
ATOM     47  C   UNL A   1      37.625  29.955  28.892  1.00  0.00     0.029 A 
ATOM     48  C   UNL A   1      38.639  30.867  29.411  1.00  0.00     0.049 A 
ATOM     49  H   UNL A   1      40.684  30.522  29.589  1.00  0.00     0.167 HD
ATOM     50  C   UNL A   1      44.940  29.597  30.031  1.00  0.00     0.037 A 
ATOM     51  C   UNL A   1      38.409  32.113  29.869  1.00  0.00     0.037 A 
ATOM     52  C   UNL A   1      44.808  30.969  30.448  1.00  0.00     0.049 A 
ATOM     53  C   UNL A   1      39.568  32.944  30.345  1.00  0.00     0.074 A 
ATOM     54  C   UNL A   1      45.796  31.847  30.855  1.00  0.00     0.029 A 
ATOM     55  N   UNL A   1      43.607  31.660  30.513  1.00  0.00    -0.354 N 
ATOM     56  N   UNL A   1      40.839  32.631  30.413  1.00  0.00    -0.248 NA
ATOM     57  C   UNL A   1      39.260  34.307  30.798  1.00  0.00     0.031 C 
ATOM     58  C   UNL A   1      45.188  33.057  31.211  1.00  0.00     0.029 A 
ATOM     59  C   UNL A   1      43.827  32.948  30.975  1.00  0.00     0.049 A 
ATOM     60  H   UNL A   1      42.728  31.291  30.266  1.00  0.00     0.167 HD
ATOM     61  C   UNL A   1      41.486  33.763  30.892  1.00  0.00     0.074 A 
ATOM     62  C   UNL A   1      40.468  34.776  31.077  1.00  0.00     0.031 C 
ATOM     63  C   UNL A   1      42.803  33.946  31.155  1.00  0.00     0.037 A 
BRANCH  50  64
ATOM     64  C   UNL A   1      46.302  28.964  30.092  1.00  0.00     0.064 A 
ATOM     65  C   UNL A   1      46.759  28.307  31.245  1.00  0.00     0.173 A 
ATOM     66  C   UNL A   1      47.149  28.986  28.972  1.00  0.00     0.173 A 
ATOM     67  F   UNL A   1      45.994  28.268  32.347  1.00  0.00    -0.203 F 
ATOM     68  C   UNL A   1      48.021  27.722  31.286  1.00  0.00     0.198 A 
ATOM     69  C   UNL A   1      48.398  28.373  29.006  1.00  0.00     0.198 A 
ATOM     70  F   UNL A   1      46.760  29.596  27.843  1.00  0.00    -0.203 F 
ATOM     71  F   UNL A   1      48.455  27.144  32.414  1.00  0.00    -0.200 F 
ATOM     72  C   UNL A   1      48.837  27.748  30.164  1.00  0.00     0.200 A 
ATOM     73  F   UNL A   1      49.180  28.388  27.918  1.00  0.00    -0.200 F 
ATOM     74  F   UNL A   1      50.050  27.179  30.202  1.00  0.00    -0.200 F 
ENDBRANCH  50  64
BRANCH  51  75
ATOM     75  C   UNL A   1      37.026  32.658  29.866  1.00  0.00     0.064 A 
ATOM     76  C   UNL A   1      36.510  33.305  28.735  1.00  0.00     0.173 A 
ATOM     77  C   UNL A   1      36.196  32.544  30.990  1.00  0.00     0.173 A 
ATOM     78  F   UNL A   1      37.274  33.454  27.643  1.00  0.00    -0.203 F 
ATOM     79  C   UNL A   1      35.222  33.836  28.734  1.00  0.00     0.198 A 
ATOM     80  C   UNL A   1      34.898  33.051  30.978  1.00  0.00     0.198 A 
ATOM     81  F   UNL A   1      36.640  31.927  32.095  1.00  0.00    -0.203 F 
ATOM     82  F   UNL A   1      34.770  34.489  27.656  1.00  0.00    -0.200 F 
ATOM     83  C   UNL A   1      34.415  33.703  29.854  1.00  0.00     0.200 A 
ATOM     84  F   UNL A   1      34.115  32.906  32.056  1.00  0.00    -0.200 F 
ATOM     85  F   UNL A   1      33.175  34.209  29.852  1.00  0.00    -0.200 F 
ENDBRANCH  51  75
BRANCH  63  86
ATOM     86  C   UNL A   1      43.220  35.302  31.646  1.00  0.00     0.064 A 
ATOM     87  C   UNL A   1      43.687  36.291  30.767  1.00  0.00     0.173 A 
ATOM     88  C   UNL A   1      43.131  35.623  33.008  1.00  0.00     0.173 A 
ATOM     89  F   UNL A   1      43.804  36.028  29.456  1.00  0.00    -0.203 F 
ATOM     90  C   UNL A   1      44.082  37.540  31.240  1.00  0.00     0.198 A 
ATOM     91  C   UNL A   1      43.496  36.884  33.474  1.00  0.00     0.198 A 
ATOM     92  F   UNL A   1      42.684  34.716  33.890  1.00  0.00    -0.203 F 
ATOM     93  F   UNL A   1      44.578  38.449  30.389  1.00  0.00    -0.200 F 
ATOM     94  C   UNL A   1      43.981  37.838  32.590  1.00  0.00     0.200 A 
ATOM     95  F   UNL A   1      43.385  37.174  34.776  1.00  0.00    -0.200 F 
ATOM     96  F   UNL A   1      44.359  39.040  33.043  1.00  0.00    -0.200 F 
ENDBRANCH  63  86
ENDBRANCH  37  38
ENDBRANCH  29  32
ENDBRANCH  27  28
ENDBRANCH  26  27
ENDBRANCH  25  26
ENDBRANCH   1  25
TORSDOF 16
ENDMDL
MODEL 3
REMARK VINA RESULT:     -11.6      3.317      8.471
REMARK SMILES Cc1cccc(Cl)c1Nc1ccccc1CC(=O)NCCCCCCNC(=O)c1ccc(-c2c3nc(c(-c4c(F)c(F)c(F)c(F)c4F)c4ccc([nH]4)c(-c4c(F)c(F)c(F)c(F)c4F)c4nc(c(-c5c(F)c(F)c(F)c(F)c5F)c5ccc2[nH]5)C=C4)C=C3)cc1
REMARK SMILES IDX 22 1 21 2 20 3 19 4 17 5 18 6 16 8 15 9 10 10 11 11 12 12
REMARK SMILES IDX 14 13 13 14 9 15 8 17 1 18 2 19 3 20 4 21 6 22 5 23 7 24
REMARK SMILES IDX 23 25 24 26 25 27 26 28 27 29 28 31 29 32 30 33 91 34 31 35
REMARK SMILES IDX 90 36 32 37 33 38 34 39 84 40 35 41 89 42 83 43 85 44 36 45
REMARK SMILES IDX 88 46 82 47 81 48 37 50 69 51 49 52 68 53 50 54 53 55 67 56
REMARK SMILES IDX 86 57 51 58 52 59 66 61 87 62 54 63 38 64 39 65 47 66 40 67
REMARK SMILES IDX 41 68 45 69 48 70 42 71 43 72 46 73 44 74 70 75 71 76 79 77
REMARK SMILES IDX 72 78 73 79 77 80 80 81 74 82 75 83 78 84 76 85 55 86 56 87
REMARK SMILES IDX 64 88 57 89 58 90 62 91 65 92 59 93 60 94 63 95 61 96
REMARK H PARENT 19 7 9 16 26 30 85 49 53 60
REMARK Flexibility Score: inf
ROOT
ATOM      1  C   UNL A   1      31.364  29.296  24.794  1.00  0.00     0.002 C 
ENDROOT
BRANCH   1   2
ATOM      2  C   UNL A   1      32.559  29.198  23.836  1.00  0.00     0.021 C 
BRANCH   2   3
ATOM      3  C   UNL A   1      32.197  28.619  22.468  1.00  0.00     0.116 C 
BRANCH   3   4
ATOM      4  N   UNL A   1      33.147  27.600  22.071  1.00  0.00    -0.356 N 
ATOM      5  C   UNL A   1      32.961  26.248  22.017  1.00  0.00     0.224 C 
ATOM      6  O   UNL A   1      33.940  25.529  21.803  1.00  0.00    -0.275 OA
ATOM      7  H   UNL A   1      34.038  27.923  21.806  1.00  0.00     0.163 HD
BRANCH   5   8
ATOM      8  C   UNL A   1      31.561  25.672  22.155  1.00  0.00     0.137 C 
BRANCH   8   9
ATOM      9  C   UNL A   1      31.173  25.283  23.567  1.00  0.00    -0.015 A 
ATOM     10  C   UNL A   1      31.699  24.152  24.231  1.00  0.00     0.042 A 
ATOM     11  C   UNL A   1      31.202  23.831  25.510  1.00  0.00     0.026 A 
ATOM     12  C   UNL A   1      30.235  24.617  26.136  1.00  0.00     0.002 A 
ATOM     13  C   UNL A   1      30.217  26.083  24.228  1.00  0.00     0.006 A 
ATOM     14  C   UNL A   1      29.752  25.751  25.499  1.00  0.00     0.000 A 
BRANCH  10  15
ATOM     15  N   UNL A   1      32.735  23.336  23.731  1.00  0.00    -0.354 N 
ATOM     16  H   UNL A   1      32.764  23.293  22.748  1.00  0.00     0.167 HD
BRANCH  15  17
ATOM     17  C   UNL A   1      33.742  22.567  24.363  1.00  0.00     0.060 A 
ATOM     18  C   UNL A   1      32.433  20.468  23.705  1.00  0.00     0.046 C 
ATOM     19  C   UNL A   1      33.620  21.151  24.333  1.00  0.00    -0.026 A 
ATOM     20  C   UNL A   1      34.644  20.344  24.862  1.00  0.00     0.005 A 
ATOM     21  C   UNL A   1      35.779  20.911  25.430  1.00  0.00     0.002 A 
ATOM     22  C   UNL A   1      34.890  23.118  24.977  1.00  0.00     0.064 A 
ATOM     23  C   UNL A   1      35.898  22.295  25.495  1.00  0.00     0.023 A 
ATOM     24  Cl  UNL A   1      35.100  24.818  25.241  1.00  0.00    -0.082 Cl
ENDBRANCH  15  17
ENDBRANCH  10  15
ENDBRANCH   8   9
ENDBRANCH   5   8
ENDBRANCH   3   4
ENDBRANCH   2   3
ENDBRANCH   1   2
BRANCH   1  25
ATOM     25  C   UNL A   1      31.658  28.865  26.235  1.00  0.00     0.002 C 
BRANCH  25  26
ATOM     26  C   UNL A   1      32.775  27.828  26.383  1.00  0.00     0.021 C 
BRANCH  26  27
ATOM     27  C   UNL A   1      34.030  28.347  27.079  1.00  0.00     0.116 C 
BRANCH  27  28
ATOM     28  N   UNL A   1      33.881  29.731  27.506  1.00  0.00    -0.352 N 
ATOM     29  C   UNL A   1      34.734  30.517  28.232  1.00  0.00     0.251 C 
ATOM     30  H   UNL A   1      33.042  30.165  27.232  1.00  0.00     0.163 HD
ATOM     31  O   UNL A   1      34.348  31.597  28.677  1.00  0.00    -0.269 OA
BRANCH  29  32
ATOM     32  C   UNL A   1      36.118  30.071  28.496  1.00  0.00     0.039 A 
ATOM     33  C   UNL A   1      37.078  30.225  27.492  1.00  0.00     0.014 A 
ATOM     34  C   UNL A   1      36.465  29.476  29.713  1.00  0.00     0.014 A 
ATOM     35  C   UNL A   1      38.394  29.825  27.725  1.00  0.00     0.010 A 
ATOM     36  C   UNL A   1      37.792  29.142  29.969  1.00  0.00     0.010 A 
ATOM     37  C   UNL A   1      38.768  29.306  28.975  1.00  0.00    -0.014 A 
BRANCH  37  38
ATOM     38  C   UNL A   1      40.177  28.930  29.250  1.00  0.00     0.031 A 
ATOM     39  C   UNL A   1      41.078  29.858  30.017  1.00  0.00     0.074 A 
ATOM     40  C   UNL A   1      40.658  27.769  28.766  1.00  0.00     0.049 A 
ATOM     41  N   UNL A   1      42.340  29.711  30.335  1.00  0.00    -0.248 NA
ATOM     42  C   UNL A   1      40.492  31.131  30.463  1.00  0.00     0.031 C 
ATOM     43  C   UNL A   1      39.899  26.813  27.958  1.00  0.00     0.029 A 
ATOM     44  N   UNL A   1      41.901  27.198  28.877  1.00  0.00    -0.354 N 
ATOM     45  C   UNL A   1      42.699  30.873  31.005  1.00  0.00     0.074 A 
ATOM     46  C   UNL A   1      41.539  31.738  31.001  1.00  0.00     0.031 C 
ATOM     47  C   UNL A   1      40.683  25.763  27.668  1.00  0.00     0.029 A 
ATOM     48  C   UNL A   1      42.007  25.984  28.242  1.00  0.00     0.049 A 
ATOM     49  H   UNL A   1      42.646  27.617  29.365  1.00  0.00     0.167 HD
ATOM     50  C   UNL A   1      43.881  31.179  31.591  1.00  0.00     0.037 A 
ATOM     51  C   UNL A   1      43.055  25.146  28.136  1.00  0.00     0.037 A 
ATOM     52  C   UNL A   1      45.025  30.304  31.615  1.00  0.00     0.049 A 
ATOM     53  C   UNL A   1      44.351  25.502  28.811  1.00  0.00     0.074 A 
ATOM     54  C   UNL A   1      46.245  30.494  32.240  1.00  0.00     0.029 A 
ATOM     55  N   UNL A   1      45.088  29.072  30.981  1.00  0.00    -0.354 N 
ATOM     56  N   UNL A   1      44.654  26.569  29.509  1.00  0.00    -0.248 NA
ATOM     57  C   UNL A   1      45.446  24.531  28.691  1.00  0.00     0.031 C 
ATOM     58  C   UNL A   1      47.064  29.397  31.945  1.00  0.00     0.029 A 
ATOM     59  C   UNL A   1      46.335  28.500  31.180  1.00  0.00     0.049 A 
ATOM     60  H   UNL A   1      44.355  28.663  30.465  1.00  0.00     0.167 HD
ATOM     61  C   UNL A   1      45.964  26.389  29.933  1.00  0.00     0.074 A 
ATOM     62  C   UNL A   1      46.389  25.099  29.430  1.00  0.00     0.031 C 
ATOM     63  C   UNL A   1      46.744  27.215  30.671  1.00  0.00     0.037 A 
BRANCH  50  64
ATOM     64  C   UNL A   1      43.997  32.518  32.262  1.00  0.00     0.064 A 
ATOM     65  C   UNL A   1      44.431  33.656  31.565  1.00  0.00     0.173 A 
ATOM     66  C   UNL A   1      43.638  32.674  33.610  1.00  0.00     0.173 A 
ATOM     67  F   UNL A   1      44.798  33.560  30.277  1.00  0.00    -0.203 F 
ATOM     68  C   UNL A   1      44.530  34.892  32.198  1.00  0.00     0.198 A 
ATOM     69  C   UNL A   1      43.709  33.918  34.231  1.00  0.00     0.198 A 
ATOM     70  F   UNL A   1      43.211  31.621  34.322  1.00  0.00    -0.203 F 
ATOM     71  F   UNL A   1      44.996  35.953  31.524  1.00  0.00    -0.200 F 
ATOM     72  C   UNL A   1      44.162  35.024  33.528  1.00  0.00     0.200 A 
ATOM     73  F   UNL A   1      43.340  34.046  35.513  1.00  0.00    -0.200 F 
ATOM     74  F   UNL A   1      44.251  36.216  34.135  1.00  0.00    -0.200 F 
ENDBRANCH  50  64
BRANCH  51  75
ATOM     75  C   UNL A   1      42.909  23.871  27.386  1.00  0.00     0.064 A 
ATOM     76  C   UNL A   1      42.409  22.721  28.012  1.00  0.00     0.173 A 
ATOM     77  C   UNL A   1      43.265  23.777  26.033  1.00  0.00     0.173 A 
ATOM     78  F   UNL A   1      42.073  22.758  29.310  1.00  0.00    -0.203 F 
ATOM     79  C   UNL A   1      42.290  21.519  27.319  1.00  0.00     0.198 A 
ATOM     80  C   UNL A   1      43.118  22.580  25.333  1.00  0.00     0.198 A 
ATOM     81  F   UNL A   1      43.742  24.850  25.386  1.00  0.00    -0.203 F 
ATOM     82  F   UNL A   1      41.852  20.423  27.954  1.00  0.00    -0.200 F 
ATOM     83  C   UNL A   1      42.639  21.451  25.979  1.00  0.00     0.200 A 
ATOM     84  F   UNL A   1      43.441  22.523  24.035  1.00  0.00    -0.200 F 
ATOM     85  F   UNL A   1      42.520  20.295  25.311  1.00  0.00    -0.200 F 
ENDBRANCH  51  75
BRANCH  63  86
ATOM     86  C   UNL A   1      48.128  26.736  31.001  1.00  0.00     0.064 A 
ATOM     87  C   UNL A   1      48.382  25.942  32.130  1.00  0.00     0.173 A 
ATOM     88  C   UNL A   1      49.209  27.057  30.167  1.00  0.00     0.173 A 
ATOM     89  F   UNL A   1      47.385  25.620  32.967  1.00  0.00    -0.203 F 
ATOM     90  C   UNL A   1      49.674  25.516  32.428  1.00  0.00     0.198 A 
ATOM     91  C   UNL A   1      50.494  26.603  30.451  1.00  0.00     0.198 A 
ATOM     92  F   UNL A   1      49.019  27.808  29.071  1.00  0.00    -0.203 F 
ATOM     93  F   UNL A   1      49.902  24.806  33.542  1.00  0.00    -0.200 F 
ATOM     94  C   UNL A   1      50.727  25.841  31.587  1.00  0.00     0.200 A 
ATOM     95  F   UNL A   1      51.508  26.907  29.630  1.00  0.00    -0.200 F 
ATOM     96  F   UNL A   1      51.969  25.429  31.875  1.00  0.00    -0.200 F 
ENDBRANCH  63  86
ENDBRANCH  37  38
ENDBRANCH  29  32
ENDBRANCH  27  28
ENDBRANCH  26  27
ENDBRANCH  25  26
ENDBRANCH   1  25
TORSDOF 16
ENDMDL
