MODEL 1
REMARK VINA RESULT:     -12.0      0.000      0.000
REMARK SMILES C[C@]1(C(=O)NCc2ccc(C(=O)NCCCCCCNC(=O)c3ccc(-c4c5nc(c(-c6c(F)c(F)c(F)c(F)c6F)c6ccc([nH]6)c(-c6c(F)c(F)c(F)c(F)c6F)c6nc(c(-c7c(F)c(F)c(F)c(F)c7F)c7ccc4[nH]7)C=C6)C=C5)cc3)o2)CCC[NH2+]C1
REMARK SMILES IDX 16 1 15 2 14 3 13 4 11 5 12 6 10 8 7 9 8 10 86 11 9 12 6 13
REMARK SMILES IDX 5 14 3 15 4 16 2 18 1 19 87 20 91 21 88 22 90 23 89 24 17 27
REMARK SMILES IDX 18 28 19 29 20 30 21 31 22 33 23 34 24 35 85 36 25 37 84 38
REMARK SMILES IDX 26 39 27 40 28 41 78 42 29 43 83 44 77 45 79 46 30 47 82 48
REMARK SMILES IDX 76 49 75 50 31 52 63 53 43 54 62 55 44 56 47 57 61 58 80 59
REMARK SMILES IDX 45 60 46 61 60 63 81 64 48 65 32 66 33 67 41 68 34 69 35 70
REMARK SMILES IDX 39 71 42 72 36 73 37 74 40 75 38 76 64 77 65 78 73 79 66 80
REMARK SMILES IDX 67 81 71 82 74 83 68 84 69 85 72 86 70 87 49 88 50 89 58 90
REMARK SMILES IDX 51 91 52 92 56 93 59 94 53 95 54 96 57 97 55 98
REMARK H PARENT 13 7 5 17 90 25 90 26 20 32 79 51 47 62
REMARK Flexibility Score: inf
ROOT
ATOM      1  C   UNL A   1      32.742  30.174  26.879  1.00  0.00     0.002 C 
ENDROOT
BRANCH   1   2
ATOM      2  C   UNL A   1      32.643  28.648  27.006  1.00  0.00     0.021 C 
BRANCH   2   3
ATOM      3  C   UNL A   1      33.755  27.904  26.270  1.00  0.00     0.116 C 
BRANCH   3   4
ATOM      4  N   UNL A   1      34.022  28.489  24.977  1.00  0.00    -0.349 N 
ATOM      5  C   UNL A   1      33.712  28.101  23.693  1.00  0.00     0.286 C 
ATOM      6  O   UNL A   1      34.157  28.845  22.813  1.00  0.00    -0.266 OA
ATOM      7  H   UNL A   1      34.526  29.333  25.023  1.00  0.00     0.163 HD
BRANCH   5   8
ATOM      8  C   UNL A   1      32.922  26.915  23.393  1.00  0.00     0.191 A 
ATOM      9  C   UNL A   1      32.731  24.855  22.569  1.00  0.00     0.124 A 
ATOM     10  C   UNL A   1      31.475  25.223  22.990  1.00  0.00     0.048 A 
ATOM     11  O   UNL A   1      33.612  25.859  22.829  1.00  0.00    -0.454 OA
ATOM     12  C   UNL A   1      31.595  26.535  23.505  1.00  0.00     0.056 A 
BRANCH   9  13
ATOM     13  C   UNL A   1      33.267  23.627  21.925  1.00  0.00     0.191 C 
BRANCH  13  14
ATOM     14  N   UNL A   1      33.006  22.488  22.788  1.00  0.00    -0.348 N 
ATOM     15  C   UNL A   1      33.613  21.921  23.850  1.00  0.00     0.232 C 
ATOM     16  O   UNL A   1      33.165  20.794  24.122  1.00  0.00    -0.274 OA
ATOM     17  H   UNL A   1      32.183  22.012  22.535  1.00  0.00     0.163 HD
BRANCH  15  18
ATOM     18  C   UNL A   1      34.775  22.491  24.702  1.00  0.00     0.095 C 
ATOM     19  C   UNL A   1      35.852  22.893  23.650  1.00  0.00     0.028 C 
ATOM     20  C   UNL A   1      34.334  23.790  25.410  1.00  0.00     0.028 C 
ATOM     21  C   UNL A   1      35.467  21.558  25.710  1.00  0.00     0.277 C 
ATOM     22  C   UNL A   1      33.540  23.508  26.676  1.00  0.00     0.063 C 
ATOM     23  N   UNL A   1      34.755  21.362  26.972  1.00  0.00    -0.345 N 
ATOM     24  C   UNL A   1      34.302  22.585  27.618  1.00  0.00     0.260 C 
ATOM     25  H   UNL A   1      33.938  20.780  26.787  1.00  0.00     0.346 HD
ATOM     26  H   UNL A   1      35.422  20.930  27.611  1.00  0.00     0.346 HD
ENDBRANCH  15  18
ENDBRANCH  13  14
ENDBRANCH   9  13
ENDBRANCH   5   8
ENDBRANCH   3   4
ENDBRANCH   2   3
ENDBRANCH   1   2
BRANCH   1  27
ATOM     27  C   UNL A   1      31.478  30.866  26.352  1.00  0.00     0.002 C 
BRANCH  27  28
ATOM     28  C   UNL A   1      31.371  32.359  26.675  1.00  0.00     0.021 C 
BRANCH  28  29
ATOM     29  C   UNL A   1      32.648  32.968  27.245  1.00  0.00     0.116 C 
BRANCH  29  30
ATOM     30  N   UNL A   1      32.439  34.338  27.686  1.00  0.00    -0.352 N 
ATOM     31  C   UNL A   1      32.994  35.009  28.746  1.00  0.00     0.251 C 
ATOM     32  H   UNL A   1      31.807  34.862  27.142  1.00  0.00     0.163 HD
ATOM     33  O   UNL A   1      32.530  36.083  29.110  1.00  0.00    -0.269 OA
BRANCH  31  34
ATOM     34  C   UNL A   1      34.151  34.427  29.458  1.00  0.00     0.039 A 
ATOM     35  C   UNL A   1      33.933  33.742  30.656  1.00  0.00     0.014 A 
ATOM     36  C   UNL A   1      35.447  34.578  28.959  1.00  0.00     0.014 A 
ATOM     37  C   UNL A   1      35.011  33.164  31.326  1.00  0.00     0.010 A 
ATOM     38  C   UNL A   1      36.509  33.935  29.584  1.00  0.00     0.010 A 
ATOM     39  C   UNL A   1      36.305  33.230  30.780  1.00  0.00    -0.014 A 
BRANCH  39  40
ATOM     40  C   UNL A   1      37.456  32.577  31.451  1.00  0.00     0.031 A 
ATOM     41  C   UNL A   1      38.160  31.424  30.794  1.00  0.00     0.074 A 
ATOM     42  C   UNL A   1      37.825  32.982  32.681  1.00  0.00     0.049 A 
ATOM     43  N   UNL A   1      39.141  30.685  31.246  1.00  0.00    -0.248 NA
ATOM     44  C   UNL A   1      37.676  31.029  29.461  1.00  0.00     0.031 C 
ATOM     45  C   UNL A   1      37.187  34.057  33.442  1.00  0.00     0.029 A 
ATOM     46  N   UNL A   1      38.818  32.530  33.513  1.00  0.00    -0.354 N 
ATOM     47  C   UNL A   1      39.383  29.735  30.261  1.00  0.00     0.074 A 
ATOM     48  C   UNL A   1      38.404  29.951  29.217  1.00  0.00     0.031 C 
ATOM     49  C   UNL A   1      37.819  34.197  34.617  1.00  0.00     0.029 A 
ATOM     50  C   UNL A   1      38.877  33.197  34.711  1.00  0.00     0.049 A 
ATOM     51  H   UNL A   1      39.429  31.796  33.272  1.00  0.00     0.167 HD
ATOM     52  C   UNL A   1      40.349  28.786  30.221  1.00  0.00     0.037 A 
ATOM     53  C   UNL A   1      39.689  33.015  35.770  1.00  0.00     0.037 A 
ATOM     54  C   UNL A   1      41.327  28.587  31.257  1.00  0.00     0.049 A 
ATOM     55  C   UNL A   1      40.744  31.944  35.709  1.00  0.00     0.074 A 
ATOM     56  C   UNL A   1      42.382  27.692  31.289  1.00  0.00     0.029 A 
ATOM     57  N   UNL A   1      41.365  29.291  32.454  1.00  0.00    -0.354 N 
ATOM     58  N   UNL A   1      41.011  31.099  34.744  1.00  0.00    -0.248 NA
ATOM     59  C   UNL A   1      41.617  31.809  36.883  1.00  0.00     0.031 C 
ATOM     60  C   UNL A   1      43.021  27.813  32.528  1.00  0.00     0.029 A 
ATOM     61  C   UNL A   1      42.407  28.829  33.243  1.00  0.00     0.049 A 
ATOM     62  H   UNL A   1      40.742  30.011  32.706  1.00  0.00     0.167 HD
ATOM     63  C   UNL A   1      42.098  30.352  35.179  1.00  0.00     0.074 A 
ATOM     64  C   UNL A   1      42.449  30.855  36.490  1.00  0.00     0.031 C 
ATOM     65  C   UNL A   1      42.746  29.341  34.548  1.00  0.00     0.037 A 
BRANCH  52  66
ATOM     66  C   UNL A   1      40.386  27.888  29.016  1.00  0.00     0.064 A 
ATOM     67  C   UNL A   1      41.156  28.200  27.884  1.00  0.00     0.173 A 
ATOM     68  C   UNL A   1      39.654  26.691  28.997  1.00  0.00     0.173 A 
ATOM     69  F   UNL A   1      41.868  29.337  27.844  1.00  0.00    -0.203 F 
ATOM     70  C   UNL A   1      41.158  27.370  26.766  1.00  0.00     0.198 A 
ATOM     71  C   UNL A   1      39.688  25.845  27.891  1.00  0.00     0.198 A 
ATOM     72  F   UNL A   1      38.906  26.338  30.054  1.00  0.00    -0.203 F 
ATOM     73  F   UNL A   1      41.850  27.724  25.673  1.00  0.00    -0.200 F 
ATOM     74  C   UNL A   1      40.429  26.191  26.771  1.00  0.00     0.200 A 
ATOM     75  F   UNL A   1      38.994  24.699  27.905  1.00  0.00    -0.200 F 
ATOM     76  F   UNL A   1      40.434  25.393  25.696  1.00  0.00    -0.200 F 
ENDBRANCH  52  66
BRANCH  53  77
ATOM     77  C   UNL A   1      39.547  33.886  36.967  1.00  0.00     0.064 A 
ATOM     78  C   UNL A   1      38.793  33.473  38.073  1.00  0.00     0.173 A 
ATOM     79  C   UNL A   1      40.172  35.140  37.035  1.00  0.00     0.173 A 
ATOM     80  F   UNL A   1      38.161  32.290  38.049  1.00  0.00    -0.203 F 
ATOM     81  C   UNL A   1      38.656  34.287  39.195  1.00  0.00     0.198 A 
ATOM     82  C   UNL A   1      40.059  35.941  38.169  1.00  0.00     0.198 A 
ATOM     83  F   UNL A   1      40.911  35.579  36.005  1.00  0.00    -0.203 F 
ATOM     84  F   UNL A   1      37.894  33.885  40.223  1.00  0.00    -0.200 F 
ATOM     85  C   UNL A   1      39.294  35.517  39.246  1.00  0.00     0.200 A 
ATOM     86  F   UNL A   1      40.693  37.120  38.220  1.00  0.00    -0.200 F 
ATOM     87  F   UNL A   1      39.170  36.295  40.329  1.00  0.00    -0.200 F 
ENDBRANCH  53  77
BRANCH  65  88
ATOM     88  C   UNL A   1      43.928  28.735  35.251  1.00  0.00     0.064 A 
ATOM     89  C   UNL A   1      43.783  27.684  36.169  1.00  0.00     0.173 A 
ATOM     90  C   UNL A   1      45.226  29.187  34.970  1.00  0.00     0.173 A 
ATOM     91  F   UNL A   1      42.562  27.225  36.483  1.00  0.00    -0.203 F 
ATOM     92  C   UNL A   1      44.893  27.128  36.799  1.00  0.00     0.198 A 
ATOM     93  C   UNL A   1      46.335  28.604  35.577  1.00  0.00     0.198 A 
ATOM     94  F   UNL A   1      45.422  30.184  34.095  1.00  0.00    -0.203 F 
ATOM     95  F   UNL A   1      44.726  26.160  37.712  1.00  0.00    -0.200 F 
ATOM     96  C   UNL A   1      46.167  27.582  36.497  1.00  0.00     0.200 A 
ATOM     97  F   UNL A   1      47.567  29.035  35.271  1.00  0.00    -0.200 F 
ATOM     98  F   UNL A   1      47.234  27.038  37.100  1.00  0.00    -0.200 F 
ENDBRANCH  65  88
ENDBRANCH  39  40
ENDBRANCH  31  34
ENDBRANCH  29  30
ENDBRANCH  28  29
ENDBRANCH  27  28
ENDBRANCH   1  27
TORSDOF 16
ENDMDL
MODEL 2
REMARK VINA RESULT:     -11.9      2.807      8.419
REMARK SMILES C[C@]1(C(=O)NCc2ccc(C(=O)NCCCCCCNC(=O)c3ccc(-c4c5nc(c(-c6c(F)c(F)c(F)c(F)c6F)c6ccc([nH]6)c(-c6c(F)c(F)c(F)c(F)c6F)c6nc(c(-c7c(F)c(F)c(F)c(F)c7F)c7ccc4[nH]7)C=C6)C=C5)cc3)o2)CCC[NH2+]C1
REMARK SMILES IDX 16 1 15 2 14 3 13 4 11 5 12 6 10 8 7 9 8 10 86 11 9 12 6 13
REMARK SMILES IDX 5 14 3 15 4 16 2 18 1 19 87 20 91 21 88 22 90 23 89 24 17 27
REMARK SMILES IDX 18 28 19 29 20 30 21 31 22 33 23 34 24 35 85 36 25 37 84 38
REMARK SMILES IDX 26 39 27 40 28 41 78 42 29 43 83 44 77 45 79 46 30 47 82 48
REMARK SMILES IDX 76 49 75 50 31 52 63 53 43 54 62 55 44 56 47 57 61 58 80 59
REMARK SMILES IDX 45 60 46 61 60 63 81 64 48 65 32 66 33 67 41 68 34 69 35 70
REMARK SMILES IDX 39 71 42 72 36 73 37 74 40 75 38 76 64 77 65 78 73 79 66 80
REMARK SMILES IDX 67 81 71 82 74 83 68 84 69 85 72 86 70 87 49 88 50 89 58 90
REMARK SMILES IDX 51 91 52 92 56 93 59 94 53 95 54 96 57 97 55 98
REMARK H PARENT 13 7 5 17 90 25 90 26 20 32 79 51 47 62
REMARK Flexibility Score: inf
ROOT
ATOM      1  C   UNL A   1      35.281  33.284  28.000  1.00  0.00     0.002 C 
ENDROOT
BRANCH   1   2
ATOM      2  C   UNL A   1      35.694  31.811  28.109  1.00  0.00     0.021 C 
BRANCH   2   3
ATOM      3  C   UNL A   1      34.599  30.839  27.672  1.00  0.00     0.116 C 
BRANCH   3   4
ATOM      4  N   UNL A   1      33.369  31.528  27.360  1.00  0.00    -0.349 N 
ATOM      5  C   UNL A   1      32.148  31.097  26.895  1.00  0.00     0.286 C 
ATOM      6  O   UNL A   1      31.329  32.000  26.696  1.00  0.00    -0.266 OA
ATOM      7  H   UNL A   1      33.413  32.500  27.510  1.00  0.00     0.163 HD
BRANCH   5   8
ATOM      8  C   UNL A   1      31.841  29.693  26.659  1.00  0.00     0.191 A 
ATOM      9  C   UNL A   1      31.103  28.051  25.349  1.00  0.00     0.124 A 
ATOM     10  C   UNL A   1      31.402  27.476  26.561  1.00  0.00     0.048 A 
ATOM     11  O   UNL A   1      31.385  29.382  25.393  1.00  0.00    -0.454 OA
ATOM     12  C   UNL A   1      31.863  28.521  27.396  1.00  0.00     0.056 A 
BRANCH   9  13
ATOM     13  C   UNL A   1      30.563  27.510  24.074  1.00  0.00     0.191 C 
BRANCH  13  14
ATOM     14  N   UNL A   1      30.887  28.428  22.996  1.00  0.00    -0.348 N 
ATOM     15  C   UNL A   1      30.204  29.310  22.240  1.00  0.00     0.232 C 
ATOM     16  O   UNL A   1      30.846  29.704  21.251  1.00  0.00    -0.274 OA
ATOM     17  H   UNL A   1      31.842  28.398  22.758  1.00  0.00     0.163 HD
BRANCH  15  18
ATOM     18  C   UNL A   1      28.761  29.833  22.452  1.00  0.00     0.095 C 
ATOM     19  C   UNL A   1      27.957  28.562  22.863  1.00  0.00     0.028 C 
ATOM     20  C   UNL A   1      28.712  30.801  23.653  1.00  0.00     0.028 C 
ATOM     21  C   UNL A   1      28.026  30.453  21.253  1.00  0.00     0.277 C 
ATOM     22  C   UNL A   1      29.166  32.203  23.274  1.00  0.00     0.063 C 
ATOM     23  N   UNL A   1      28.386  31.836  20.944  1.00  0.00    -0.345 N 
ATOM     24  C   UNL A   1      28.382  32.741  22.085  1.00  0.00     0.260 C 
ATOM     25  H   UNL A   1      29.324  31.837  20.543  1.00  0.00     0.346 HD
ATOM     26  H   UNL A   1      27.672  32.181  20.302  1.00  0.00     0.346 HD
ENDBRANCH  15  18
ENDBRANCH  13  14
ENDBRANCH   9  13
ENDBRANCH   5   8
ENDBRANCH   3   4
ENDBRANCH   2   3
ENDBRANCH   1   2
BRANCH   1  27
ATOM     27  C   UNL A   1      34.737  33.905  29.294  1.00  0.00     0.002 C 
BRANCH  27  28
ATOM     28  C   UNL A   1      33.383  34.606  29.161  1.00  0.00     0.021 C 
BRANCH  28  29
ATOM     29  C   UNL A   1      33.391  36.069  29.590  1.00  0.00     0.116 C 
BRANCH  29  30
ATOM     30  N   UNL A   1      32.517  36.300  30.729  1.00  0.00    -0.352 N 
ATOM     31  C   UNL A   1      32.575  35.775  31.995  1.00  0.00     0.251 C 
ATOM     32  H   UNL A   1      31.774  36.926  30.568  1.00  0.00     0.163 HD
ATOM     33  O   UNL A   1      31.625  35.896  32.759  1.00  0.00    -0.269 OA
BRANCH  31  34
ATOM     34  C   UNL A   1      33.786  35.052  32.435  1.00  0.00     0.039 A 
ATOM     35  C   UNL A   1      33.663  33.732  32.875  1.00  0.00     0.014 A 
ATOM     36  C   UNL A   1      35.034  35.682  32.436  1.00  0.00     0.014 A 
ATOM     37  C   UNL A   1      34.801  33.027  33.269  1.00  0.00     0.010 A 
ATOM     38  C   UNL A   1      36.176  34.955  32.752  1.00  0.00     0.010 A 
ATOM     39  C   UNL A   1      36.071  33.623  33.182  1.00  0.00    -0.014 A 
BRANCH  39  40
ATOM     40  C   UNL A   1      37.298  32.872  33.546  1.00  0.00     0.031 A 
ATOM     41  C   UNL A   1      38.016  33.174  34.830  1.00  0.00     0.074 A 
ATOM     42  C   UNL A   1      37.799  31.963  32.689  1.00  0.00     0.049 A 
ATOM     43  N   UNL A   1      39.132  32.672  35.294  1.00  0.00    -0.248 NA
ATOM     44  C   UNL A   1      37.413  34.200  35.697  1.00  0.00     0.031 C 
ATOM     45  C   UNL A   1      37.220  31.618  31.391  1.00  0.00     0.029 A 
ATOM     46  N   UNL A   1      38.917  31.171  32.775  1.00  0.00    -0.354 N 
ATOM     47  C   UNL A   1      39.370  33.328  36.496  1.00  0.00     0.074 A 
ATOM     48  C   UNL A   1      38.318  34.307  36.658  1.00  0.00     0.031 C 
ATOM     49  C   UNL A   1      37.971  30.669  30.812  1.00  0.00     0.029 A 
ATOM     50  C   UNL A   1      39.107  30.368  31.678  1.00  0.00     0.049 A 
ATOM     51  H   UNL A   1      39.524  31.179  33.550  1.00  0.00     0.167 HD
ATOM     52  C   UNL A   1      40.362  33.114  37.393  1.00  0.00     0.037 A 
ATOM     53  C   UNL A   1      40.093  29.494  31.399  1.00  0.00     0.037 A 
ATOM     54  C   UNL A   1      41.399  32.128  37.231  1.00  0.00     0.049 A 
ATOM     55  C   UNL A   1      41.193  29.285  32.403  1.00  0.00     0.074 A 
ATOM     56  C   UNL A   1      42.417  31.793  38.105  1.00  0.00     0.029 A 
ATOM     57  N   UNL A   1      41.554  31.323  36.110  1.00  0.00    -0.354 N 
ATOM     58  N   UNL A   1      41.369  29.857  33.569  1.00  0.00    -0.248 NA
ATOM     59  C   UNL A   1      42.227  28.300  32.056  1.00  0.00     0.031 C 
ATOM     60  C   UNL A   1      43.222  30.828  37.490  1.00  0.00     0.029 A 
ATOM     61  C   UNL A   1      42.669  30.513  36.259  1.00  0.00     0.049 A 
ATOM     62  H   UNL A   1      40.960  31.327  35.325  1.00  0.00     0.167 HD
ATOM     63  C   UNL A   1      42.514  29.284  34.108  1.00  0.00     0.074 A 
ATOM     64  C   UNL A   1      42.982  28.309  33.145  1.00  0.00     0.031 C 
ATOM     65  C   UNL A   1      43.122  29.543  35.292  1.00  0.00     0.037 A 
BRANCH  52  66
ATOM     66  C   UNL A   1      40.374  33.971  38.628  1.00  0.00     0.064 A 
ATOM     67  C   UNL A   1      41.152  35.137  38.713  1.00  0.00     0.173 A 
ATOM     68  C   UNL A   1      39.585  33.631  39.739  1.00  0.00     0.173 A 
ATOM     69  F   UNL A   1      41.932  35.503  37.685  1.00  0.00    -0.203 F 
ATOM     70  C   UNL A   1      41.172  35.905  39.874  1.00  0.00     0.198 A 
ATOM     71  C   UNL A   1      39.580  34.422  40.885  1.00  0.00     0.198 A 
ATOM     72  F   UNL A   1      38.816  32.532  39.712  1.00  0.00    -0.203 F 
ATOM     73  F   UNL A   1      41.974  36.977  39.952  1.00  0.00    -0.200 F 
ATOM     74  C   UNL A   1      40.382  35.551  40.957  1.00  0.00     0.200 A 
ATOM     75  F   UNL A   1      38.804  34.086  41.925  1.00  0.00    -0.200 F 
ATOM     76  F   UNL A   1      40.401  36.292  42.073  1.00  0.00    -0.200 F 
ENDBRANCH  52  66
BRANCH  53  77
ATOM     77  C   UNL A   1      40.066  28.736  30.120  1.00  0.00     0.064 A 
ATOM     78  C   UNL A   1      40.662  29.254  28.963  1.00  0.00     0.173 A 
ATOM     79  C   UNL A   1      39.459  27.474  30.033  1.00  0.00     0.173 A 
ATOM     80  F   UNL A   1      41.239  30.464  28.991  1.00  0.00    -0.203 F 
ATOM     81  C   UNL A   1      40.637  28.547  27.762  1.00  0.00     0.198 A 
ATOM     82  C   UNL A   1      39.460  26.755  28.840  1.00  0.00     0.198 A 
ATOM     83  F   UNL A   1      38.880  26.930  31.114  1.00  0.00    -0.203 F 
ATOM     84  F   UNL A   1      41.177  29.085  26.660  1.00  0.00    -0.200 F 
ATOM     85  C   UNL A   1      40.042  27.296  27.703  1.00  0.00     0.200 A 
ATOM     86  F   UNL A   1      38.901  25.538  28.793  1.00  0.00    -0.200 F 
ATOM     87  F   UNL A   1      40.027  26.612  26.551  1.00  0.00    -0.200 F 
ENDBRANCH  53  77
BRANCH  65  88
ATOM     88  C   UNL A   1      44.340  28.732  35.634  1.00  0.00     0.064 A 
ATOM     89  C   UNL A   1      45.629  29.139  35.258  1.00  0.00     0.173 A 
ATOM     90  C   UNL A   1      44.217  27.553  36.384  1.00  0.00     0.173 A 
ATOM     91  F   UNL A   1      45.799  30.252  34.527  1.00  0.00    -0.203 F 
ATOM     92  C   UNL A   1      46.745  28.380  35.596  1.00  0.00     0.198 A 
ATOM     93  C   UNL A   1      45.339  26.815  36.749  1.00  0.00     0.198 A 
ATOM     94  F   UNL A   1      43.009  27.122  36.776  1.00  0.00    -0.203 F 
ATOM     95  F   UNL A   1      47.962  28.761  35.180  1.00  0.00    -0.200 F 
ATOM     96  C   UNL A   1      46.601  27.224  36.348  1.00  0.00     0.200 A 
ATOM     97  F   UNL A   1      45.198  25.707  37.490  1.00  0.00    -0.200 F 
ATOM     98  F   UNL A   1      47.679  26.499  36.679  1.00  0.00    -0.200 F 
ENDBRANCH  65  88
ENDBRANCH  39  40
ENDBRANCH  31  34
ENDBRANCH  29  30
ENDBRANCH  28  29
ENDBRANCH  27  28
ENDBRANCH   1  27
TORSDOF 16
ENDMDL
MODEL 3
REMARK VINA RESULT:     -11.8      3.897      8.226
REMARK SMILES C[C@]1(C(=O)NCc2ccc(C(=O)NCCCCCCNC(=O)c3ccc(-c4c5nc(c(-c6c(F)c(F)c(F)c(F)c6F)c6ccc([nH]6)c(-c6c(F)c(F)c(F)c(F)c6F)c6nc(c(-c7c(F)c(F)c(F)c(F)c7F)c7ccc4[nH]7)C=C6)C=C5)cc3)o2)CCC[NH2+]C1
REMARK SMILES IDX 16 1 15 2 14 3 13 4 11 5 12 6 10 8 7 9 8 10 86 11 9 12 6 13
REMARK SMILES IDX 5 14 3 15 4 16 2 18 1 19 87 20 91 21 88 22 90 23 89 24 17 27
REMARK SMILES IDX 18 28 19 29 20 30 21 31 22 33 23 34 24 35 85 36 25 37 84 38
REMARK SMILES IDX 26 39 27 40 28 41 78 42 29 43 83 44 77 45 79 46 30 47 82 48
REMARK SMILES IDX 76 49 75 50 31 52 63 53 43 54 62 55 44 56 47 57 61 58 80 59
REMARK SMILES IDX 45 60 46 61 60 63 81 64 48 65 32 66 33 67 41 68 34 69 35 70
REMARK SMILES IDX 39 71 42 72 36 73 37 74 40 75 38 76 64 77 65 78 73 79 66 80
REMARK SMILES IDX 67 81 71 82 74 83 68 84 69 85 72 86 70 87 49 88 50 89 58 90
REMARK SMILES IDX 51 91 52 92 56 93 59 94 53 95 54 96 57 97 55 98
REMARK H PARENT 13 7 5 17 90 25 90 26 20 32 79 51 47 62
REMARK Flexibility Score: inf
ROOT
ATOM      1  C   UNL A   1      34.385  22.061  23.755  1.00  0.00     0.002 C 
ENDROOT
BRANCH   1   2
ATOM      2  C   UNL A   1      34.003  21.011  24.806  1.00  0.00     0.021 C 
BRANCH   2   3
ATOM      3  C   UNL A   1      32.503  20.726  24.862  1.00  0.00     0.116 C 
BRANCH   3   4
ATOM      4  N   UNL A   1      31.864  21.444  25.939  1.00  0.00    -0.349 N 
ATOM      5  C   UNL A   1      31.415  22.740  26.062  1.00  0.00     0.286 C 
ATOM      6  O   UNL A   1      30.954  23.017  27.173  1.00  0.00    -0.266 OA
ATOM      7  H   UNL A   1      31.720  20.899  26.745  1.00  0.00     0.163 HD
BRANCH   5   8
ATOM      8  C   UNL A   1      31.473  23.704  24.973  1.00  0.00     0.191 A 
ATOM      9  C   UNL A   1      32.396  25.470  23.977  1.00  0.00     0.124 A 
ATOM     10  C   UNL A   1      31.320  25.106  23.202  1.00  0.00     0.048 A 
ATOM     11  O   UNL A   1      32.508  24.618  25.033  1.00  0.00    -0.454 OA
ATOM     12  C   UNL A   1      30.729  23.989  23.840  1.00  0.00     0.056 A 
BRANCH   9  13
ATOM     13  C   UNL A   1      33.400  26.560  23.871  1.00  0.00     0.191 C 
BRANCH  13  14
ATOM     14  N   UNL A   1      32.711  27.839  23.854  1.00  0.00    -0.348 N 
ATOM     15  C   UNL A   1      32.154  28.649  24.777  1.00  0.00     0.232 C 
ATOM     16  O   UNL A   1      31.444  29.538  24.278  1.00  0.00    -0.274 OA
ATOM     17  H   UNL A   1      32.631  28.205  22.943  1.00  0.00     0.163 HD
BRANCH  15  18
ATOM     18  C   UNL A   1      32.280  28.568  26.319  1.00  0.00     0.095 C 
ATOM     19  C   UNL A   1      31.275  27.447  26.720  1.00  0.00     0.028 C 
ATOM     20  C   UNL A   1      33.687  28.071  26.717  1.00  0.00     0.028 C 
ATOM     21  C   UNL A   1      31.913  29.810  27.147  1.00  0.00     0.277 C 
ATOM     22  C   UNL A   1      34.716  29.191  26.689  1.00  0.00     0.063 C 
ATOM     23  N   UNL A   1      32.940  30.849  27.207  1.00  0.00    -0.345 N 
ATOM     24  C   UNL A   1      34.275  30.374  27.540  1.00  0.00     0.260 C 
ATOM     25  H   UNL A   1      32.984  31.303  26.295  1.00  0.00     0.346 HD
ATOM     26  H   UNL A   1      32.664  31.480  27.959  1.00  0.00     0.346 HD
ENDBRANCH  15  18
ENDBRANCH  13  14
ENDBRANCH   9  13
ENDBRANCH   5   8
ENDBRANCH   3   4
ENDBRANCH   2   3
ENDBRANCH   1   2
BRANCH   1  27
ATOM     27  C   UNL A   1      35.849  22.520  23.797  1.00  0.00     0.002 C 
BRANCH  27  28
ATOM     28  C   UNL A   1      36.123  23.738  24.683  1.00  0.00     0.021 C 
BRANCH  28  29
ATOM     29  C   UNL A   1      36.563  23.393  26.102  1.00  0.00     0.116 C 
BRANCH  29  30
ATOM     30  N   UNL A   1      37.728  22.523  26.106  1.00  0.00    -0.352 N 
ATOM     31  C   UNL A   1      39.046  22.829  26.328  1.00  0.00     0.251 C 
ATOM     32  H   UNL A   1      37.542  21.573  25.924  1.00  0.00     0.163 HD
ATOM     33  O   UNL A   1      39.923  22.015  26.063  1.00  0.00    -0.269 OA
BRANCH  31  34
ATOM     34  C   UNL A   1      39.410  24.150  26.880  1.00  0.00     0.039 A 
ATOM     35  C   UNL A   1      39.114  24.429  28.217  1.00  0.00     0.014 A 
ATOM     36  C   UNL A   1      40.020  25.118  26.077  1.00  0.00     0.014 A 
ATOM     37  C   UNL A   1      39.475  25.662  28.761  1.00  0.00     0.010 A 
ATOM     38  C   UNL A   1      40.451  26.314  26.640  1.00  0.00     0.010 A 
ATOM     39  C   UNL A   1      40.174  26.603  27.985  1.00  0.00    -0.014 A 
BRANCH  39  40
ATOM     40  C   UNL A   1      40.613  27.898  28.561  1.00  0.00     0.031 A 
ATOM     41  C   UNL A   1      42.046  28.099  28.964  1.00  0.00     0.074 A 
ATOM     42  C   UNL A   1      39.707  28.870  28.778  1.00  0.00     0.049 A 
ATOM     43  N   UNL A   1      42.608  29.132  29.539  1.00  0.00    -0.248 NA
ATOM     44  C   UNL A   1      42.965  26.977  28.715  1.00  0.00     0.031 C 
ATOM     45  C   UNL A   1      38.279  28.775  28.473  1.00  0.00     0.029 A 
ATOM     46  N   UNL A   1      39.849  30.123  29.317  1.00  0.00    -0.354 N 
ATOM     47  C   UNL A   1      43.939  28.780  29.730  1.00  0.00     0.074 A 
ATOM     48  C   UNL A   1      44.085  27.416  29.269  1.00  0.00     0.031 C 
ATOM     49  C   UNL A   1      37.681  29.929  28.808  1.00  0.00     0.029 A 
ATOM     50  C   UNL A   1      38.673  30.828  29.387  1.00  0.00     0.049 A 
ATOM     51  H   UNL A   1      40.713  30.483  29.623  1.00  0.00     0.167 HD
ATOM     52  C   UNL A   1      44.951  29.534  30.222  1.00  0.00     0.037 A 
ATOM     53  C   UNL A   1      38.423  32.059  29.874  1.00  0.00     0.037 A 
ATOM     54  C   UNL A   1      44.800  30.895  30.667  1.00  0.00     0.049 A 
ATOM     55  C   UNL A   1      39.560  32.872  30.430  1.00  0.00     0.074 A 
ATOM     56  C   UNL A   1      45.771  31.765  31.130  1.00  0.00     0.029 A 
ATOM     57  N   UNL A   1      43.594  31.581  30.713  1.00  0.00    -0.354 N 
ATOM     58  N   UNL A   1      40.827  32.557  30.539  1.00  0.00    -0.248 NA
ATOM     59  C   UNL A   1      39.231  34.217  30.923  1.00  0.00     0.031 C 
ATOM     60  C   UNL A   1      45.145  32.956  31.511  1.00  0.00     0.029 A 
ATOM     61  C   UNL A   1      43.793  32.855  31.224  1.00  0.00     0.049 A 
ATOM     62  H   UNL A   1      42.726  31.218  30.426  1.00  0.00     0.167 HD
ATOM     63  C   UNL A   1      41.453  33.670  31.085  1.00  0.00     0.074 A 
ATOM     64  C   UNL A   1      40.426  34.674  31.270  1.00  0.00     0.031 C 
ATOM     65  C   UNL A   1      42.760  33.845  31.402  1.00  0.00     0.037 A 
BRANCH  52  66
ATOM     66  C   UNL A   1      46.309  28.896  30.310  1.00  0.00     0.064 A 
ATOM     67  C   UNL A   1      47.221  28.947  29.243  1.00  0.00     0.173 A 
ATOM     68  C   UNL A   1      46.713  28.237  31.482  1.00  0.00     0.173 A 
ATOM     69  F   UNL A   1      46.884  29.555  28.096  1.00  0.00    -0.203 F 
ATOM     70  C   UNL A   1      48.465  28.328  29.331  1.00  0.00     0.198 A 
ATOM     71  C   UNL A   1      47.972  27.651  31.579  1.00  0.00     0.198 A 
ATOM     72  F   UNL A   1      45.886  28.163  32.536  1.00  0.00    -0.203 F 
ATOM     73  F   UNL A   1      49.291  28.335  28.275  1.00  0.00    -0.200 F 
ATOM     74  C   UNL A   1      48.842  27.685  30.500  1.00  0.00     0.200 A 
ATOM     75  F   UNL A   1      48.340  27.043  32.715  1.00  0.00    -0.200 F 
ATOM     76  F   UNL A   1      50.040  27.091  30.584  1.00  0.00    -0.200 F 
ENDBRANCH  52  66
BRANCH  53  77
ATOM     77  C   UNL A   1      37.039  32.601  29.832  1.00  0.00     0.064 A 
ATOM     78  C   UNL A   1      36.580  33.317  28.719  1.00  0.00     0.173 A 
ATOM     79  C   UNL A   1      36.145  32.402  30.894  1.00  0.00     0.173 A 
ATOM     80  F   UNL A   1      37.403  33.550  27.685  1.00  0.00    -0.203 F 
ATOM     81  C   UNL A   1      35.284  33.829  28.676  1.00  0.00     0.198 A 
ATOM     82  C   UNL A   1      34.840  32.888  30.838  1.00  0.00     0.198 A 
ATOM     83  F   UNL A   1      36.533  31.716  31.980  1.00  0.00    -0.203 F 
ATOM     84  F   UNL A   1      34.885  34.546  27.617  1.00  0.00    -0.200 F 
ATOM     85  C   UNL A   1      34.413  33.608  29.732  1.00  0.00     0.200 A 
ATOM     86  F   UNL A   1      33.997  32.655  31.853  1.00  0.00    -0.200 F 
ATOM     87  F   UNL A   1      33.165  34.091  29.687  1.00  0.00    -0.200 F 
ENDBRANCH  53  77
BRANCH  65  88
ATOM     88  C   UNL A   1      43.164  35.185  31.948  1.00  0.00     0.064 A 
ATOM     89  C   UNL A   1      43.087  35.480  33.318  1.00  0.00     0.173 A 
ATOM     90  C   UNL A   1      43.673  36.174  31.092  1.00  0.00     0.173 A 
ATOM     91  F   UNL A   1      42.593  34.574  34.176  1.00  0.00    -0.203 F 
ATOM     92  C   UNL A   1      43.478  36.724  33.805  1.00  0.00     0.198 A 
ATOM     93  C   UNL A   1      44.095  37.404  31.589  1.00  0.00     0.198 A 
ATOM     94  F   UNL A   1      43.775  35.942  29.775  1.00  0.00    -0.203 F 
ATOM     95  F   UNL A   1      43.346  37.001  35.110  1.00  0.00    -0.200 F 
ATOM     96  C   UNL A   1      43.990  37.681  32.942  1.00  0.00     0.200 A 
ATOM     97  F   UNL A   1      44.605  38.321  30.755  1.00  0.00    -0.200 F 
ATOM     98  F   UNL A   1      44.374  38.875  33.415  1.00  0.00    -0.200 F 
ENDBRANCH  65  88
ENDBRANCH  39  40
ENDBRANCH  31  34
ENDBRANCH  29  30
ENDBRANCH  28  29
ENDBRANCH  27  28
ENDBRANCH   1  27
TORSDOF 16
ENDMDL
