MODEL 1
REMARK VINA RESULT:     -12.7      0.000      0.000
REMARK SMILES O=C(NCCCCCCNC(=O)c1ccccc1/C=C1\SC(=S)N(Cc2ccccc2)C1=O)c1ccc(-c2c3nc(c(-c4c(F)c(F)c(F)c(F)c4F)c4ccc([nH]4)c(-c4c(F)c(F)c(F)c(F)c4F)c4nc(c(-c5c(F)c(F)c(F)c(F)c5F)c5ccc2[nH]5)C=C4)C=C3)cc1
REMARK SMILES IDX 7 1 6 2 5 3 4 4 3 5 1 6 2 7 34 9 35 10 96 11 36 12 95 13
REMARK SMILES IDX 37 14 38 15 39 16 89 17 40 18 94 19 88 20 90 21 41 22 93 23
REMARK SMILES IDX 87 24 86 25 42 27 74 28 54 29 73 30 55 31 58 32 72 33 91 34
REMARK SMILES IDX 56 35 57 36 71 38 92 39 59 40 43 41 44 42 52 43 45 44 46 45
REMARK SMILES IDX 50 46 53 47 47 48 48 49 51 50 49 51 75 52 76 53 84 54 77 55
REMARK SMILES IDX 78 56 82 57 85 58 79 59 80 60 83 61 81 62 60 63 61 64 69 65
REMARK SMILES IDX 62 66 63 67 67 68 70 69 64 70 65 71 68 72 66 73 8 74 9 75
REMARK SMILES IDX 10 76 11 77 12 79 13 80 14 81 18 82 15 83 17 84 16 85 19 86
REMARK SMILES IDX 20 87 21 88 32 89 22 90 24 91 33 92 23 93 25 94 26 95 27 96
REMARK SMILES IDX 31 97 28 98 30 99 29 100
REMARK H PARENT 3 8 90 26 58 37 10 78
REMARK Flexibility Score: inf
ROOT
ATOM      1  C   UNL A   1      32.599  29.944  27.258  1.00  0.00     0.002 C 
ENDROOT
BRANCH   1   2
ATOM      2  C   UNL A   1      31.575  30.654  26.366  1.00  0.00     0.002 C 
BRANCH   2   3
ATOM      3  C   UNL A   1      31.422  32.159  26.580  1.00  0.00     0.021 C 
BRANCH   3   4
ATOM      4  C   UNL A   1      32.672  32.888  27.054  1.00  0.00     0.116 C 
BRANCH   4   5
ATOM      5  N   UNL A   1      32.399  34.201  27.613  1.00  0.00    -0.352 N 
ATOM      6  O   UNL A   1      32.594  35.922  29.063  1.00  0.00    -0.269 OA
ATOM      7  C   UNL A   1      33.025  34.849  28.651  1.00  0.00     0.251 C 
ATOM      8  H   UNL A   1      31.662  34.697  27.188  1.00  0.00     0.163 HD
BRANCH   7   9
ATOM      9  C   UNL A   1      34.207  34.235  29.299  1.00  0.00     0.039 A 
ATOM     10  C   UNL A   1      35.502  34.607  28.932  1.00  0.00     0.014 A 
ATOM     11  C   UNL A   1      34.011  33.275  30.297  1.00  0.00     0.014 A 
ATOM     12  C   UNL A   1      36.593  33.926  29.459  1.00  0.00     0.010 A 
ATOM     13  C   UNL A   1      35.112  32.648  30.887  1.00  0.00     0.010 A 
ATOM     14  C   UNL A   1      36.413  32.947  30.452  1.00  0.00    -0.014 A 
BRANCH  14  15
ATOM     15  C   UNL A   1      37.603  32.300  31.059  1.00  0.00     0.031 A 
ATOM     16  C   UNL A   1      38.072  32.666  32.439  1.00  0.00     0.074 A 
ATOM     17  C   UNL A   1      38.243  31.344  30.360  1.00  0.00     0.049 A 
ATOM     18  N   UNL A   1      39.077  32.180  33.125  1.00  0.00    -0.248 NA
ATOM     19  C   UNL A   1      37.320  33.717  33.142  1.00  0.00     0.031 C 
ATOM     20  C   UNL A   1      37.886  30.913  29.005  1.00  0.00     0.029 A 
ATOM     21  N   UNL A   1      39.311  30.549  30.689  1.00  0.00    -0.354 N 
ATOM     22  C   UNL A   1      39.085  32.868  34.332  1.00  0.00     0.074 A 
ATOM     23  C   UNL A   1      38.004  33.828  34.274  1.00  0.00     0.031 C 
ATOM     24  C   UNL A   1      38.692  29.908  28.636  1.00  0.00     0.029 A 
ATOM     25  C   UNL A   1      39.658  29.661  29.700  1.00  0.00     0.049 A 
ATOM     26  H   UNL A   1      39.784  30.611  31.550  1.00  0.00     0.167 HD
ATOM     27  C   UNL A   1      39.912  32.701  35.393  1.00  0.00     0.037 A 
ATOM     28  C   UNL A   1      40.654  28.758  29.649  1.00  0.00     0.037 A 
ATOM     29  C   UNL A   1      40.985  31.740  35.445  1.00  0.00     0.049 A 
ATOM     30  C   UNL A   1      41.571  28.617  30.829  1.00  0.00     0.074 A 
ATOM     31  C   UNL A   1      41.870  31.488  36.480  1.00  0.00     0.029 A 
ATOM     32  N   UNL A   1      41.320  30.873  34.415  1.00  0.00    -0.354 N 
ATOM     33  N   UNL A   1      41.549  29.254  31.975  1.00  0.00    -0.248 NA
ATOM     34  C   UNL A   1      42.653  27.632  30.709  1.00  0.00     0.031 C 
ATOM     35  C   UNL A   1      42.764  30.495  36.062  1.00  0.00     0.029 A 
ATOM     36  C   UNL A   1      42.408  30.096  34.784  1.00  0.00     0.049 A 
ATOM     37  H   UNL A   1      40.854  30.816  33.549  1.00  0.00     0.167 HD
ATOM     38  C   UNL A   1      42.600  28.737  32.717  1.00  0.00     0.074 A 
ATOM     39  C   UNL A   1      43.225  27.717  31.901  1.00  0.00     0.031 C 
ATOM     40  C   UNL A   1      43.015  29.083  33.960  1.00  0.00     0.037 A 
BRANCH  27  41
ATOM     41  C   UNL A   1      39.697  33.582  36.590  1.00  0.00     0.064 A 
ATOM     42  C   UNL A   1      40.332  34.828  36.706  1.00  0.00     0.173 A 
ATOM     43  C   UNL A   1      38.804  33.205  37.604  1.00  0.00     0.173 A 
ATOM     44  F   UNL A   1      41.202  35.234  35.769  1.00  0.00    -0.203 F 
ATOM     45  C   UNL A   1      40.095  35.653  37.803  1.00  0.00     0.198 A 
ATOM     46  C   UNL A   1      38.550  34.044  38.687  1.00  0.00     0.198 A 
ATOM     47  F   UNL A   1      38.165  32.027  37.538  1.00  0.00    -0.203 F 
ATOM     48  F   UNL A   1      40.742  36.823  37.912  1.00  0.00    -0.200 F 
ATOM     49  C   UNL A   1      39.200  35.264  38.788  1.00  0.00     0.200 A 
ATOM     50  F   UNL A   1      37.675  33.671  39.630  1.00  0.00    -0.200 F 
ATOM     51  F   UNL A   1      38.966  36.064  39.838  1.00  0.00    -0.200 F 
ENDBRANCH  27  41
BRANCH  28  52
ATOM     52  C   UNL A   1      40.831  27.923  28.433  1.00  0.00     0.064 A 
ATOM     53  C   UNL A   1      41.642  28.353  27.374  1.00  0.00     0.173 A 
ATOM     54  C   UNL A   1      40.194  26.679  28.307  1.00  0.00     0.173 A 
ATOM     55  F   UNL A   1      42.256  29.543  27.439  1.00  0.00    -0.203 F 
ATOM     56  C   UNL A   1      41.794  27.577  26.226  1.00  0.00     0.198 A 
ATOM     57  C   UNL A   1      40.372  25.891  27.174  1.00  0.00     0.198 A 
ATOM     58  F   UNL A   1      39.412  26.222  29.296  1.00  0.00    -0.203 F 
ATOM     59  F   UNL A   1      42.539  28.030  25.209  1.00  0.00    -0.200 F 
ATOM     60  C   UNL A   1      41.165  26.345  26.130  1.00  0.00     0.200 A 
ATOM     61  F   UNL A   1      39.777  24.694  27.093  1.00  0.00    -0.200 F 
ATOM     62  F   UNL A   1      41.318  25.596  25.029  1.00  0.00    -0.200 F 
ENDBRANCH  28  52
BRANCH  40  63
ATOM     63  C   UNL A   1      44.185  28.326  34.520  1.00  0.00     0.064 A 
ATOM     64  C   UNL A   1      45.500  28.791  34.367  1.00  0.00     0.173 A 
ATOM     65  C   UNL A   1      43.985  27.133  35.228  1.00  0.00     0.173 A 
ATOM     66  F   UNL A   1      45.742  29.917  33.681  1.00  0.00    -0.203 F 
ATOM     67  C   UNL A   1      46.575  28.071  34.879  1.00  0.00     0.198 A 
ATOM     68  C   UNL A   1      45.062  26.430  35.763  1.00  0.00     0.198 A 
ATOM     69  F   UNL A   1      42.747  26.650  35.405  1.00  0.00    -0.203 F 
ATOM     70  F   UNL A   1      47.827  28.504  34.675  1.00  0.00    -0.200 F 
ATOM     71  C   UNL A   1      46.355  26.895  35.581  1.00  0.00     0.200 A 
ATOM     72  F   UNL A   1      44.846  25.300  36.450  1.00  0.00    -0.200 F 
ATOM     73  F   UNL A   1      47.392  26.203  36.073  1.00  0.00    -0.200 F 
ENDBRANCH  40  63
ENDBRANCH  14  15
ENDBRANCH   7   9
ENDBRANCH   4   5
ENDBRANCH   3   4
ENDBRANCH   2   3
ENDBRANCH   1   2
BRANCH   1  74
ATOM     74  C   UNL A   1      33.858  29.404  26.566  1.00  0.00     0.021 C 
BRANCH  74  75
ATOM     75  C   UNL A   1      33.641  28.204  25.651  1.00  0.00     0.116 C 
BRANCH  75  76
ATOM     76  N   UNL A   1      34.063  28.449  24.285  1.00  0.00    -0.352 N 
ATOM     77  C   UNL A   1      33.325  28.444  23.129  1.00  0.00     0.251 C 
ATOM     78  H   UNL A   1      35.021  28.647  24.171  1.00  0.00     0.163 HD
ATOM     79  O   UNL A   1      33.892  28.594  22.050  1.00  0.00    -0.269 OA
BRANCH  77  80
ATOM     80  C   UNL A   1      31.860  28.215  23.152  1.00  0.00     0.047 A 
ATOM     81  C   UNL A   1      31.060  29.366  23.204  1.00  0.00     0.014 A 
ATOM     82  C   UNL A   1      31.264  26.937  23.159  1.00  0.00    -0.012 A 
ATOM     83  C   UNL A   1      29.671  29.255  23.209  1.00  0.00     0.001 A 
ATOM     84  C   UNL A   1      29.866  26.843  23.161  1.00  0.00     0.009 A 
ATOM     85  C   UNL A   1      29.075  27.996  23.183  1.00  0.00     0.001 A 
BRANCH  82  86
ATOM     86  C   UNL A   1      32.037  25.699  23.031  1.00  0.00     0.030 C 
ATOM     87  C   UNL A   1      32.366  24.829  23.994  1.00  0.00     0.081 C 
ATOM     88  S   UNL A   1      31.800  24.706  25.600  1.00  0.00    -0.054 SA
ATOM     89  C   UNL A   1      33.457  23.855  23.754  1.00  0.00     0.266 C 
ATOM     90  C   UNL A   1      32.874  23.353  25.967  1.00  0.00     0.148 C 
ATOM     91  N   UNL A   1      33.653  23.061  24.866  1.00  0.00    -0.288 N 
ATOM     92  O   UNL A   1      34.134  23.860  22.732  1.00  0.00    -0.268 OA
ATOM     93  S   UNL A   1      32.881  22.613  27.462  1.00  0.00    -0.052 S 
BRANCH  91  94
ATOM     94  C   UNL A   1      34.713  22.054  24.821  1.00  0.00     0.163 C 
BRANCH  94  95
ATOM     95  C   UNL A   1      34.183  20.676  24.488  1.00  0.00    -0.028 A 
ATOM     96  C   UNL A   1      34.931  19.528  24.774  1.00  0.00     0.005 A 
ATOM     97  C   UNL A   1      32.911  20.525  23.910  1.00  0.00     0.005 A 
ATOM     98  C   UNL A   1      34.415  18.261  24.494  1.00  0.00     0.000 A 
ATOM     99  C   UNL A   1      32.390  19.260  23.647  1.00  0.00     0.000 A 
ATOM    100  C   UNL A   1      33.144  18.126  23.938  1.00  0.00     0.000 A 
ENDBRANCH  94  95
ENDBRANCH  91  94
ENDBRANCH  82  86
ENDBRANCH  77  80
ENDBRANCH  75  76
ENDBRANCH  74  75
ENDBRANCH   1  74
TORSDOF 16
ENDMDL
MODEL 2
REMARK VINA RESULT:     -12.7      0.248      1.704
REMARK SMILES O=C(NCCCCCCNC(=O)c1ccccc1/C=C1\SC(=S)N(Cc2ccccc2)C1=O)c1ccc(-c2c3nc(c(-c4c(F)c(F)c(F)c(F)c4F)c4ccc([nH]4)c(-c4c(F)c(F)c(F)c(F)c4F)c4nc(c(-c5c(F)c(F)c(F)c(F)c5F)c5ccc2[nH]5)C=C4)C=C3)cc1
REMARK SMILES IDX 7 1 6 2 5 3 4 4 3 5 1 6 2 7 34 9 35 10 96 11 36 12 95 13
REMARK SMILES IDX 37 14 38 15 39 16 89 17 40 18 94 19 88 20 90 21 41 22 93 23
REMARK SMILES IDX 87 24 86 25 42 27 74 28 54 29 73 30 55 31 58 32 72 33 91 34
REMARK SMILES IDX 56 35 57 36 71 38 92 39 59 40 43 41 44 42 52 43 45 44 46 45
REMARK SMILES IDX 50 46 53 47 47 48 48 49 51 50 49 51 75 52 76 53 84 54 77 55
REMARK SMILES IDX 78 56 82 57 85 58 79 59 80 60 83 61 81 62 60 63 61 64 69 65
REMARK SMILES IDX 62 66 63 67 67 68 70 69 64 70 65 71 68 72 66 73 8 74 9 75
REMARK SMILES IDX 10 76 11 77 12 79 13 80 14 81 18 82 15 83 17 84 16 85 19 86
REMARK SMILES IDX 20 87 21 88 32 89 22 90 24 91 33 92 23 93 25 94 26 95 27 96
REMARK SMILES IDX 31 97 28 98 30 99 29 100
REMARK H PARENT 3 8 90 26 58 37 10 78
REMARK Flexibility Score: inf
ROOT
ATOM      1  C   UNL A   1      33.688  30.199  27.412  1.00  0.00     0.002 C 
ENDROOT
BRANCH   1   2
ATOM      2  C   UNL A   1      32.195  30.305  27.081  1.00  0.00     0.002 C 
BRANCH   2   3
ATOM      3  C   UNL A   1      31.637  31.720  26.928  1.00  0.00     0.021 C 
BRANCH   3   4
ATOM      4  C   UNL A   1      32.671  32.817  26.716  1.00  0.00     0.116 C 
BRANCH   4   5
ATOM      5  N   UNL A   1      32.365  34.047  27.427  1.00  0.00    -0.352 N 
ATOM      6  O   UNL A   1      32.516  35.587  29.071  1.00  0.00    -0.269 OA
ATOM      7  C   UNL A   1      32.975  34.583  28.536  1.00  0.00     0.251 C 
ATOM      8  H   UNL A   1      31.613  34.570  27.064  1.00  0.00     0.163 HD
BRANCH   7   9
ATOM      9  C   UNL A   1      34.175  33.929  29.107  1.00  0.00     0.039 A 
ATOM     10  C   UNL A   1      34.057  32.827  29.957  1.00  0.00     0.014 A 
ATOM     11  C   UNL A   1      35.440  34.426  28.778  1.00  0.00     0.014 A 
ATOM     12  C   UNL A   1      35.186  32.313  30.584  1.00  0.00     0.010 A 
ATOM     13  C   UNL A   1      36.583  33.855  29.345  1.00  0.00     0.010 A 
ATOM     14  C   UNL A   1      36.464  32.812  30.276  1.00  0.00    -0.014 A 
BRANCH  14  15
ATOM     15  C   UNL A   1      37.658  32.183  30.894  1.00  0.00     0.031 A 
ATOM     16  C   UNL A   1      38.117  32.566  32.272  1.00  0.00     0.074 A 
ATOM     17  C   UNL A   1      38.312  31.228  30.205  1.00  0.00     0.049 A 
ATOM     18  N   UNL A   1      39.125  32.097  32.966  1.00  0.00    -0.248 NA
ATOM     19  C   UNL A   1      37.351  33.614  32.963  1.00  0.00     0.031 C 
ATOM     20  C   UNL A   1      37.966  30.782  28.853  1.00  0.00     0.029 A 
ATOM     21  N   UNL A   1      39.388  30.449  30.545  1.00  0.00    -0.354 N 
ATOM     22  C   UNL A   1      39.120  32.795  34.167  1.00  0.00     0.074 A 
ATOM     23  C   UNL A   1      38.028  33.743  34.097  1.00  0.00     0.031 C 
ATOM     24  C   UNL A   1      38.785  29.783  28.496  1.00  0.00     0.029 A 
ATOM     25  C   UNL A   1      39.749  29.557  29.566  1.00  0.00     0.049 A 
ATOM     26  H   UNL A   1      39.857  30.523  31.408  1.00  0.00     0.167 HD
ATOM     27  C   UNL A   1      39.944  32.647  35.234  1.00  0.00     0.037 A 
ATOM     28  C   UNL A   1      40.755  28.664  29.527  1.00  0.00     0.037 A 
ATOM     29  C   UNL A   1      41.027  31.698  35.299  1.00  0.00     0.049 A 
ATOM     30  C   UNL A   1      41.669  28.543  30.712  1.00  0.00     0.074 A 
ATOM     31  C   UNL A   1      41.910  31.465  36.339  1.00  0.00     0.029 A 
ATOM     32  N   UNL A   1      41.377  30.826  34.277  1.00  0.00    -0.354 N 
ATOM     33  N   UNL A   1      41.634  29.190  31.852  1.00  0.00    -0.248 NA
ATOM     34  C   UNL A   1      42.763  27.569  30.605  1.00  0.00     0.031 C 
ATOM     35  C   UNL A   1      42.818  30.479  35.934  1.00  0.00     0.029 A 
ATOM     36  C   UNL A   1      42.472  30.065  34.658  1.00  0.00     0.049 A 
ATOM     37  H   UNL A   1      40.915  30.757  33.410  1.00  0.00     0.167 HD
ATOM     38  C   UNL A   1      42.688  28.691  32.603  1.00  0.00     0.074 A 
ATOM     39  C   UNL A   1      43.328  27.671  31.798  1.00  0.00     0.031 C 
ATOM     40  C   UNL A   1      43.094  29.052  33.845  1.00  0.00     0.037 A 
BRANCH  27  41
ATOM     41  C   UNL A   1      39.714  33.535  36.422  1.00  0.00     0.064 A 
ATOM     42  C   UNL A   1      40.302  34.806  36.512  1.00  0.00     0.173 A 
ATOM     43  C   UNL A   1      38.852  33.138  37.456  1.00  0.00     0.173 A 
ATOM     44  F   UNL A   1      41.141  35.232  35.556  1.00  0.00    -0.203 F 
ATOM     45  C   UNL A   1      40.051  35.637  37.602  1.00  0.00     0.198 A 
ATOM     46  C   UNL A   1      38.583  33.982  38.531  1.00  0.00     0.198 A 
ATOM     47  F   UNL A   1      38.258  31.936  37.415  1.00  0.00    -0.203 F 
ATOM     48  F   UNL A   1      40.653  36.831  37.685  1.00  0.00    -0.200 F 
ATOM     49  C   UNL A   1      39.187  35.227  38.606  1.00  0.00     0.200 A 
ATOM     50  F   UNL A   1      37.737  33.589  39.493  1.00  0.00    -0.200 F 
ATOM     51  F   UNL A   1      38.939  36.032  39.649  1.00  0.00    -0.200 F 
ENDBRANCH  27  41
BRANCH  28  52
ATOM     52  C   UNL A   1      40.947  27.821  28.318  1.00  0.00     0.064 A 
ATOM     53  C   UNL A   1      40.355  26.555  28.219  1.00  0.00     0.173 A 
ATOM     54  C   UNL A   1      41.725  28.267  27.239  1.00  0.00     0.173 A 
ATOM     55  F   UNL A   1      39.618  26.078  29.233  1.00  0.00    -0.203 F 
ATOM     56  C   UNL A   1      40.549  25.759  27.092  1.00  0.00     0.198 A 
ATOM     57  C   UNL A   1      41.892  27.483  26.101  1.00  0.00     0.198 A 
ATOM     58  F   UNL A   1      42.309  29.474  27.285  1.00  0.00    -0.203 F 
ATOM     59  F   UNL A   1      40.009  24.533  27.040  1.00  0.00    -0.200 F 
ATOM     60  C   UNL A   1      41.312  26.226  26.032  1.00  0.00     0.200 A 
ATOM     61  F   UNL A   1      42.615  27.946  25.072  1.00  0.00    -0.200 F 
ATOM     62  F   UNL A   1      41.492  25.462  24.945  1.00  0.00    -0.200 F 
ENDBRANCH  28  52
BRANCH  40  63
ATOM     63  C   UNL A   1      44.270  28.313  34.416  1.00  0.00     0.064 A 
ATOM     64  C   UNL A   1      44.109  27.117  35.131  1.00  0.00     0.173 A 
ATOM     65  C   UNL A   1      45.571  28.801  34.231  1.00  0.00     0.173 A 
ATOM     66  F   UNL A   1      42.882  26.622  35.349  1.00  0.00    -0.203 F 
ATOM     67  C   UNL A   1      45.208  26.453  35.666  1.00  0.00     0.198 A 
ATOM     68  C   UNL A   1      46.671  28.118  34.744  1.00  0.00     0.198 A 
ATOM     69  F   UNL A   1      45.778  29.938  33.551  1.00  0.00    -0.203 F 
ATOM     70  F   UNL A   1      45.027  25.340  36.392  1.00  0.00    -0.200 F 
ATOM     71  C   UNL A   1      46.488  26.949  35.467  1.00  0.00     0.200 A 
ATOM     72  F   UNL A   1      47.907  28.594  34.543  1.00  0.00    -0.200 F 
ATOM     73  F   UNL A   1      47.544  26.307  35.985  1.00  0.00    -0.200 F 
ENDBRANCH  40  63
ENDBRANCH  14  15
ENDBRANCH   7   9
ENDBRANCH   4   5
ENDBRANCH   3   4
ENDBRANCH   2   3
ENDBRANCH   1   2
BRANCH   1  74
ATOM     74  C   UNL A   1      34.449  29.022  26.787  1.00  0.00     0.021 C 
BRANCH  74  75
ATOM     75  C   UNL A   1      33.669  28.205  25.763  1.00  0.00     0.116 C 
BRANCH  75  76
ATOM     76  N   UNL A   1      34.102  28.442  24.399  1.00  0.00    -0.352 N 
ATOM     77  C   UNL A   1      33.370  28.443  23.238  1.00  0.00     0.251 C 
ATOM     78  H   UNL A   1      35.062  28.630  24.290  1.00  0.00     0.163 HD
ATOM     79  O   UNL A   1      33.945  28.585  22.163  1.00  0.00    -0.269 OA
BRANCH  77  80
ATOM     80  C   UNL A   1      31.903  28.230  23.253  1.00  0.00     0.047 A 
ATOM     81  C   UNL A   1      31.116  29.388  23.328  1.00  0.00     0.014 A 
ATOM     82  C   UNL A   1      31.293  26.959  23.232  1.00  0.00    -0.012 A 
ATOM     83  C   UNL A   1      29.725  29.293  23.327  1.00  0.00     0.001 A 
ATOM     84  C   UNL A   1      29.894  26.880  23.229  1.00  0.00     0.009 A 
ATOM     85  C   UNL A   1      29.116  28.041  23.274  1.00  0.00     0.001 A 
BRANCH  82  86
ATOM     86  C   UNL A   1      32.052  25.715  23.080  1.00  0.00     0.030 C 
ATOM     87  C   UNL A   1      32.396  24.837  24.030  1.00  0.00     0.081 C 
ATOM     88  S   UNL A   1      31.867  24.710  25.648  1.00  0.00    -0.054 SA
ATOM     89  C   UNL A   1      33.474  23.855  23.759  1.00  0.00     0.266 C 
ATOM     90  C   UNL A   1      32.939  23.346  25.983  1.00  0.00     0.148 C 
ATOM     91  N   UNL A   1      33.689  23.054  24.863  1.00  0.00    -0.288 N 
ATOM     92  O   UNL A   1      34.127  23.861  22.722  1.00  0.00    -0.268 OA
ATOM     93  S   UNL A   1      32.974  22.598  27.474  1.00  0.00    -0.052 S 
BRANCH  91  94
ATOM     94  C   UNL A   1      34.740  22.039  24.788  1.00  0.00     0.163 C 
BRANCH  94  95
ATOM     95  C   UNL A   1      34.183  20.655  24.530  1.00  0.00    -0.028 A 
ATOM     96  C   UNL A   1      32.887  20.482  24.030  1.00  0.00     0.005 A 
ATOM     97  C   UNL A   1      34.974  19.517  24.762  1.00  0.00     0.005 A 
ATOM     98  C   UNL A   1      32.398  19.201  23.764  1.00  0.00     0.000 A 
ATOM     99  C   UNL A   1      34.491  18.241  24.478  1.00  0.00     0.000 A 
ATOM    100  C   UNL A   1      33.201  18.083  23.981  1.00  0.00     0.000 A 
ENDBRANCH  94  95
ENDBRANCH  91  94
ENDBRANCH  82  86
ENDBRANCH  77  80
ENDBRANCH  75  76
ENDBRANCH  74  75
ENDBRANCH   1  74
TORSDOF 16
ENDMDL
MODEL 3
REMARK VINA RESULT:     -12.5      0.367      7.067
REMARK SMILES O=C(NCCCCCCNC(=O)c1ccccc1/C=C1\SC(=S)N(Cc2ccccc2)C1=O)c1ccc(-c2c3nc(c(-c4c(F)c(F)c(F)c(F)c4F)c4ccc([nH]4)c(-c4c(F)c(F)c(F)c(F)c4F)c4nc(c(-c5c(F)c(F)c(F)c(F)c5F)c5ccc2[nH]5)C=C4)C=C3)cc1
REMARK SMILES IDX 7 1 6 2 5 3 4 4 3 5 1 6 2 7 34 9 35 10 96 11 36 12 95 13
REMARK SMILES IDX 37 14 38 15 39 16 89 17 40 18 94 19 88 20 90 21 41 22 93 23
REMARK SMILES IDX 87 24 86 25 42 27 74 28 54 29 73 30 55 31 58 32 72 33 91 34
REMARK SMILES IDX 56 35 57 36 71 38 92 39 59 40 43 41 44 42 52 43 45 44 46 45
REMARK SMILES IDX 50 46 53 47 47 48 48 49 51 50 49 51 75 52 76 53 84 54 77 55
REMARK SMILES IDX 78 56 82 57 85 58 79 59 80 60 83 61 81 62 60 63 61 64 69 65
REMARK SMILES IDX 62 66 63 67 67 68 70 69 64 70 65 71 68 72 66 73 8 74 9 75
REMARK SMILES IDX 10 76 11 77 12 79 13 80 14 81 18 82 15 83 17 84 16 85 19 86
REMARK SMILES IDX 20 87 21 88 32 89 22 90 24 91 33 92 23 93 25 94 26 95 27 96
REMARK SMILES IDX 31 97 28 98 30 99 29 100
REMARK H PARENT 3 8 90 26 58 37 10 78
REMARK Flexibility Score: inf
ROOT
ATOM      1  C   UNL A   1      33.264  30.300  26.673  1.00  0.00     0.002 C 
ENDROOT
BRANCH   1   2
ATOM      2  C   UNL A   1      31.784  30.686  26.763  1.00  0.00     0.002 C 
BRANCH   2   3
ATOM      3  C   UNL A   1      31.482  32.180  26.876  1.00  0.00     0.021 C 
BRANCH   3   4
ATOM      4  C   UNL A   1      32.697  33.096  26.931  1.00  0.00     0.116 C 
BRANCH   4   5
ATOM      5  N   UNL A   1      32.448  34.347  27.626  1.00  0.00    -0.352 N 
ATOM      6  O   UNL A   1      32.648  35.887  29.266  1.00  0.00    -0.269 OA
ATOM      7  C   UNL A   1      33.058  34.852  28.750  1.00  0.00     0.251 C 
ATOM      8  H   UNL A   1      31.742  34.914  27.238  1.00  0.00     0.163 HD
BRANCH   7   9
ATOM      9  C   UNL A   1      34.197  34.127  29.360  1.00  0.00     0.039 A 
ATOM     10  C   UNL A   1      33.985  33.104  30.285  1.00  0.00     0.014 A 
ATOM     11  C   UNL A   1      35.500  34.478  28.991  1.00  0.00     0.014 A 
ATOM     12  C   UNL A   1      35.068  32.529  30.942  1.00  0.00     0.010 A 
ATOM     13  C   UNL A   1      36.590  33.842  29.591  1.00  0.00     0.010 A 
ATOM     14  C   UNL A   1      36.383  32.881  30.593  1.00  0.00    -0.014 A 
BRANCH  14  15
ATOM     15  C   UNL A   1      37.519  32.186  31.248  1.00  0.00     0.031 A 
ATOM     16  C   UNL A   1      38.281  31.100  30.543  1.00  0.00     0.074 A 
ATOM     17  C   UNL A   1      37.883  32.572  32.486  1.00  0.00     0.049 A 
ATOM     18  N   UNL A   1      39.313  30.409  30.963  1.00  0.00    -0.248 NA
ATOM     19  C   UNL A   1      37.828  30.735  29.192  1.00  0.00     0.031 C 
ATOM     20  C   UNL A   1      37.209  33.607  33.275  1.00  0.00     0.029 A 
ATOM     21  N   UNL A   1      38.911  32.158  33.293  1.00  0.00    -0.354 N 
ATOM     22  C   UNL A   1      39.626  29.527  29.937  1.00  0.00     0.074 A 
ATOM     23  C   UNL A   1      38.656  29.745  28.886  1.00  0.00     0.031 C 
ATOM     24  C   UNL A   1      37.864  33.775  34.432  1.00  0.00     0.029 A 
ATOM     25  C   UNL A   1      38.967  32.823  34.493  1.00  0.00     0.049 A 
ATOM     26  H   UNL A   1      39.547  31.451  33.037  1.00  0.00     0.167 HD
ATOM     27  C   UNL A   1      40.638  28.627  29.877  1.00  0.00     0.037 A 
ATOM     28  C   UNL A   1      39.805  32.673  35.536  1.00  0.00     0.037 A 
ATOM     29  C   UNL A   1      41.603  28.417  30.927  1.00  0.00     0.049 A 
ATOM     30  C   UNL A   1      40.898  31.648  35.451  1.00  0.00     0.074 A 
ATOM     31  C   UNL A   1      42.672  27.537  30.955  1.00  0.00     0.029 A 
ATOM     32  N   UNL A   1      41.614  29.094  32.139  1.00  0.00    -0.354 N 
ATOM     33  N   UNL A   1      41.199  30.841  34.463  1.00  0.00    -0.248 NA
ATOM     34  C   UNL A   1      41.768  31.513  36.626  1.00  0.00     0.031 C 
ATOM     35  C   UNL A   1      43.306  27.654  32.198  1.00  0.00     0.029 A 
ATOM     36  C   UNL A   1      42.661  28.640  32.926  1.00  0.00     0.049 A 
ATOM     37  H   UNL A   1      40.973  29.794  32.400  1.00  0.00     0.167 HD
ATOM     38  C   UNL A   1      42.300  30.114  34.890  1.00  0.00     0.074 A 
ATOM     39  C   UNL A   1      42.629  30.593  36.216  1.00  0.00     0.031 C 
ATOM     40  C   UNL A   1      42.975  29.131  34.243  1.00  0.00     0.037 A 
BRANCH  27  41
ATOM     41  C   UNL A   1      40.756  27.791  28.635  1.00  0.00     0.064 A 
ATOM     42  C   UNL A   1      40.038  26.594  28.486  1.00  0.00     0.173 A 
ATOM     43  C   UNL A   1      41.549  28.217  27.559  1.00  0.00     0.173 A 
ATOM     44  F   UNL A   1      39.272  26.136  29.488  1.00  0.00    -0.203 F 
ATOM     45  C   UNL A   1      40.126  25.847  27.314  1.00  0.00     0.198 A 
ATOM     46  C   UNL A   1      41.614  27.481  26.378  1.00  0.00     0.198 A 
ATOM     47  F   UNL A   1      42.249  29.358  27.646  1.00  0.00    -0.203 F 
ATOM     48  F   UNL A   1      39.462  24.688  27.208  1.00  0.00    -0.200 F 
ATOM     49  C   UNL A   1      40.908  26.295  26.259  1.00  0.00     0.200 A 
ATOM     50  F   UNL A   1      42.359  27.923  25.356  1.00  0.00    -0.200 F 
ATOM     51  F   UNL A   1      40.983  25.579  25.128  1.00  0.00    -0.200 F 
ENDBRANCH  27  41
BRANCH  28  52
ATOM     52  C   UNL A   1      39.632  33.516  36.747  1.00  0.00     0.064 A 
ATOM     53  C   UNL A   1      40.303  34.739  36.878  1.00  0.00     0.173 A 
ATOM     54  C   UNL A   1      38.793  33.114  37.797  1.00  0.00     0.173 A 
ATOM     55  F   UNL A   1      41.131  35.157  35.910  1.00  0.00    -0.203 F 
ATOM     56  C   UNL A   1      40.153  35.521  38.022  1.00  0.00     0.198 A 
ATOM     57  C   UNL A   1      38.620  33.911  38.925  1.00  0.00     0.198 A 
ATOM     58  F   UNL A   1      38.125  31.954  37.717  1.00  0.00    -0.203 F 
ATOM     59  F   UNL A   1      40.840  36.665  38.143  1.00  0.00    -0.200 F 
ATOM     60  C   UNL A   1      39.307  35.110  39.041  1.00  0.00     0.200 A 
ATOM     61  F   UNL A   1      37.788  33.518  39.899  1.00  0.00    -0.200 F 
ATOM     62  F   UNL A   1      39.159  35.865  40.138  1.00  0.00    -0.200 F 
ENDBRANCH  28  52
BRANCH  40  63
ATOM     63  C   UNL A   1      44.152  28.534  34.957  1.00  0.00     0.064 A 
ATOM     64  C   UNL A   1      45.441  29.071  34.823  1.00  0.00     0.173 A 
ATOM     65  C   UNL A   1      43.985  27.422  35.794  1.00  0.00     0.173 A 
ATOM     66  F   UNL A   1      45.654  30.122  34.018  1.00  0.00    -0.203 F 
ATOM     67  C   UNL A   1      46.525  28.496  35.480  1.00  0.00     0.198 A 
ATOM     68  C   UNL A   1      45.067  26.867  36.472  1.00  0.00     0.198 A 
ATOM     69  F   UNL A   1      42.772  26.875  35.959  1.00  0.00    -0.203 F 
ATOM     70  F   UNL A   1      47.757  28.991  35.296  1.00  0.00    -0.200 F 
ATOM     71  C   UNL A   1      46.337  27.399  36.308  1.00  0.00     0.200 A 
ATOM     72  F   UNL A   1      44.881  25.814  37.279  1.00  0.00    -0.200 F 
ATOM     73  F   UNL A   1      47.383  26.847  36.939  1.00  0.00    -0.200 F 
ENDBRANCH  40  63
ENDBRANCH  14  15
ENDBRANCH   7   9
ENDBRANCH   4   5
ENDBRANCH   3   4
ENDBRANCH   2   3
ENDBRANCH   1   2
BRANCH   1  74
ATOM     74  C   UNL A   1      33.633  28.878  27.117  1.00  0.00     0.021 C 
BRANCH  74  75
ATOM     75  C   UNL A   1      33.508  27.802  26.044  1.00  0.00     0.116 C 
BRANCH  75  76
ATOM     76  N   UNL A   1      34.043  28.214  24.761  1.00  0.00    -0.352 N 
ATOM     77  C   UNL A   1      33.403  28.372  23.558  1.00  0.00     0.251 C 
ATOM     78  H   UNL A   1      35.008  28.409  24.752  1.00  0.00     0.163 HD
ATOM     79  O   UNL A   1      34.058  28.652  22.558  1.00  0.00    -0.269 OA
BRANCH  77  80
ATOM     80  C   UNL A   1      31.939  28.168  23.433  1.00  0.00     0.047 A 
ATOM     81  C   UNL A   1      31.150  29.326  23.495  1.00  0.00     0.014 A 
ATOM     82  C   UNL A   1      31.332  26.903  23.295  1.00  0.00    -0.012 A 
ATOM     83  C   UNL A   1      29.765  29.239  23.367  1.00  0.00     0.001 A 
ATOM     84  C   UNL A   1      29.938  26.833  23.164  1.00  0.00     0.009 A 
ATOM     85  C   UNL A   1      29.161  27.995  23.198  1.00  0.00     0.001 A 
BRANCH  82  86
ATOM     86  C   UNL A   1      32.100  25.664  23.148  1.00  0.00     0.030 C 
ATOM     87  C   UNL A   1      32.419  24.774  24.096  1.00  0.00     0.081 C 
ATOM     88  S   UNL A   1      31.843  24.624  25.697  1.00  0.00    -0.054 SA
ATOM     89  C   UNL A   1      33.507  23.800  23.844  1.00  0.00     0.266 C 
ATOM     90  C   UNL A   1      32.909  23.260  26.045  1.00  0.00     0.148 C 
ATOM     91  N   UNL A   1      33.693  22.984  24.943  1.00  0.00    -0.288 N 
ATOM     92  O   UNL A   1      34.190  23.821  22.827  1.00  0.00    -0.268 OA
ATOM     93  S   UNL A   1      32.903  22.492  27.526  1.00  0.00    -0.052 S 
BRANCH  91  94
ATOM     94  C   UNL A   1      34.749  21.974  24.886  1.00  0.00     0.163 C 
BRANCH  94  95
ATOM     95  C   UNL A   1      34.210  20.599  24.555  1.00  0.00    -0.028 A 
ATOM     96  C   UNL A   1      34.962  19.448  24.821  1.00  0.00     0.005 A 
ATOM     97  C   UNL A   1      32.927  20.453  24.001  1.00  0.00     0.005 A 
ATOM     98  C   UNL A   1      34.438  18.183  24.543  1.00  0.00     0.000 A 
ATOM     99  C   UNL A   1      32.400  19.190  23.741  1.00  0.00     0.000 A 
ATOM    100  C   UNL A   1      33.157  18.054  24.011  1.00  0.00     0.000 A 
ENDBRANCH  94  95
ENDBRANCH  91  94
ENDBRANCH  82  86
ENDBRANCH  77  80
ENDBRANCH  75  76
ENDBRANCH  74  75
ENDBRANCH   1  74
TORSDOF 16
ENDMDL
