MODEL 1
REMARK VINA RESULT:     -12.2      0.000      0.000
REMARK SMILES C[C@H]1C[N@H+]2CCC[C@@H]2CN1c1cc(Cl)ccc1C(=O)NCCCCCCNC(=O)c1ccc(-c2c3nc(c(-c4c(F)c(F)c(F)c(F)c4F)c4ccc([nH]4)c(-c4c(F)c(F)c(F)c(F)c4F)c4nc(c(-c5c(F)c(F)c(F)c(F)c5F)c5ccc2[nH]5)C=C4)C=C3)cc1
REMARK SMILES IDX 24 1 23 2 22 3 21 4 20 5 18 6 19 7 17 9 11 10 12 11 13 12
REMARK SMILES IDX 16 13 14 14 15 15 10 16 1 17 2 18 3 19 4 20 9 21 5 22 8 23
REMARK SMILES IDX 6 25 7 26 25 27 26 28 27 29 28 30 29 32 30 33 31 34 92 35
REMARK SMILES IDX 32 36 91 37 33 38 34 39 35 40 85 41 36 42 90 43 84 44 86 45
REMARK SMILES IDX 37 46 89 47 83 48 82 49 38 51 70 52 50 53 69 54 51 55 54 56
REMARK SMILES IDX 68 57 87 58 52 59 53 60 67 62 88 63 55 64 39 65 40 66 48 67
REMARK SMILES IDX 41 68 42 69 46 70 49 71 43 72 44 73 47 74 45 75 71 76 72 77
REMARK SMILES IDX 80 78 73 79 74 80 78 81 81 82 75 83 76 84 79 85 77 86 56 87
REMARK SMILES IDX 57 88 65 89 58 90 59 91 63 92 66 93 60 94 61 95 64 96 62 97
REMARK H PARENT 20 8 4 24 27 31 86 50 54 61
REMARK Flexibility Score: inf
ROOT
ATOM      1  C   UNL A   1      31.651  27.639  25.789  1.00  0.00     0.002 C 
ENDROOT
BRANCH   1   2
ATOM      2  C   UNL A   1      33.065  27.218  26.214  1.00  0.00     0.002 C 
BRANCH   2   3
ATOM      3  C   UNL A   1      33.938  26.460  25.201  1.00  0.00     0.021 C 
BRANCH   3   4
ATOM      4  C   UNL A   1      33.609  26.628  23.717  1.00  0.00     0.116 C 
BRANCH   4   5
ATOM      5  N   UNL A   1      33.896  25.480  22.887  1.00  0.00    -0.352 N 
ATOM      6  C   UNL A   1      33.395  24.203  22.976  1.00  0.00     0.253 C 
ATOM      7  O   UNL A   1      33.729  23.387  22.106  1.00  0.00    -0.269 OA
ATOM      8  H   UNL A   1      34.539  25.634  22.157  1.00  0.00     0.163 HD
BRANCH   6   9
ATOM      9  C   UNL A   1      32.531  23.722  24.094  1.00  0.00     0.063 A 
ATOM     10  C   UNL A   1      32.966  22.931  25.186  1.00  0.00     0.052 A 
ATOM     11  C   UNL A   1      32.024  22.632  26.193  1.00  0.00     0.047 A 
ATOM     12  C   UNL A   1      30.710  23.100  26.131  1.00  0.00     0.043 A 
ATOM     13  C   UNL A   1      31.208  24.209  24.061  1.00  0.00     0.017 A 
ATOM     14  Cl  UNL A   1      29.604  22.710  27.390  1.00  0.00    -0.084 Cl
ATOM     15  C   UNL A   1      30.298  23.896  25.072  1.00  0.00     0.021 A 
BRANCH  10  16
ATOM     16  N   UNL A   1      34.292  22.518  25.334  1.00  0.00    -0.357 N 
ATOM     17  C   UNL A   1      34.026  20.206  24.363  1.00  0.00     0.037 C 
ATOM     18  C   UNL A   1      34.690  21.079  25.439  1.00  0.00     0.134 C 
ATOM     19  C   UNL A   1      36.248  20.921  25.281  1.00  0.00     0.287 C 
ATOM     20  N   UNL A   1      37.021  21.876  26.083  1.00  0.00    -0.329 N 
ATOM     21  C   UNL A   1      35.097  23.433  26.189  1.00  0.00     0.182 C 
ATOM     22  C   UNL A   1      38.459  21.899  25.824  1.00  0.00     0.262 C 
ATOM     23  C   UNL A   1      36.566  23.252  25.813  1.00  0.00     0.203 C 
ATOM     24  H   UNL A   1      36.865  21.561  27.040  1.00  0.00     0.348 HD
ATOM     25  C   UNL A   1      38.885  23.321  26.216  1.00  0.00     0.068 C 
ATOM     26  C   UNL A   1      37.589  24.039  26.600  1.00  0.00     0.073 C 
ENDBRANCH  10  16
ENDBRANCH   6   9
ENDBRANCH   4   5
ENDBRANCH   3   4
ENDBRANCH   2   3
ENDBRANCH   1   2
BRANCH   1  27
ATOM     27  C   UNL A   1      31.384  29.139  25.628  1.00  0.00     0.021 C 
BRANCH  27  28
ATOM     28  C   UNL A   1      32.610  30.034  25.462  1.00  0.00     0.116 C 
BRANCH  28  29
ATOM     29  N   UNL A   1      32.475  31.311  26.146  1.00  0.00    -0.352 N 
ATOM     30  C   UNL A   1      33.186  31.962  27.123  1.00  0.00     0.251 C 
ATOM     31  H   UNL A   1      31.695  31.827  25.837  1.00  0.00     0.163 HD
ATOM     32  O   UNL A   1      32.690  33.007  27.563  1.00  0.00    -0.269 OA
BRANCH  30  33
ATOM     33  C   UNL A   1      34.492  31.515  27.695  1.00  0.00     0.039 A 
ATOM     34  C   UNL A   1      34.610  30.156  28.045  1.00  0.00     0.014 A 
ATOM     35  C   UNL A   1      35.550  32.361  28.027  1.00  0.00     0.014 A 
ATOM     36  C   UNL A   1      35.747  29.664  28.706  1.00  0.00     0.010 A 
ATOM     37  C   UNL A   1      36.722  31.855  28.615  1.00  0.00     0.010 A 
ATOM     38  C   UNL A   1      36.825  30.507  28.996  1.00  0.00    -0.014 A 
BRANCH  38  39
ATOM     39  C   UNL A   1      38.015  30.028  29.765  1.00  0.00     0.031 A 
ATOM     40  C   UNL A   1      38.228  30.479  31.192  1.00  0.00     0.074 A 
ATOM     41  C   UNL A   1      38.931  29.220  29.193  1.00  0.00     0.049 A 
ATOM     42  N   UNL A   1      39.248  30.271  31.990  1.00  0.00    -0.248 NA
ATOM     43  C   UNL A   1      37.164  31.298  31.794  1.00  0.00     0.031 C 
ATOM     44  C   UNL A   1      38.879  28.713  27.823  1.00  0.00     0.029 A 
ATOM     45  N   UNL A   1      40.097  28.690  29.698  1.00  0.00    -0.354 N 
ATOM     46  C   UNL A   1      38.969  30.969  33.160  1.00  0.00     0.074 A 
ATOM     47  C   UNL A   1      37.698  31.630  32.960  1.00  0.00     0.031 C 
ATOM     48  C   UNL A   1      39.951  27.933  27.600  1.00  0.00     0.029 A 
ATOM     49  C   UNL A   1      40.788  27.914  28.797  1.00  0.00     0.049 A 
ATOM     50  H   UNL A   1      40.409  28.851  30.617  1.00  0.00     0.167 HD
ATOM     51  C   UNL A   1      39.692  31.042  34.303  1.00  0.00     0.037 A 
ATOM     52  C   UNL A   1      41.965  27.266  28.916  1.00  0.00     0.037 A 
ATOM     53  C   UNL A   1      40.916  30.324  34.546  1.00  0.00     0.049 A 
ATOM     54  C   UNL A   1      42.729  27.333  30.213  1.00  0.00     0.074 A 
ATOM     55  C   UNL A   1      41.671  30.275  35.707  1.00  0.00     0.029 A 
ATOM     56  N   UNL A   1      41.554  29.515  33.620  1.00  0.00    -0.354 N 
ATOM     57  N   UNL A   1      42.427  27.962  31.322  1.00  0.00    -0.248 NA
ATOM     58  C   UNL A   1      43.999  26.592  30.274  1.00  0.00     0.031 C 
ATOM     59  C   UNL A   1      42.784  29.460  35.473  1.00  0.00     0.029 A 
ATOM     60  C   UNL A   1      42.700  28.972  34.180  1.00  0.00     0.049 A 
ATOM     61  H   UNL A   1      41.241  29.352  32.701  1.00  0.00     0.167 HD
ATOM     62  C   UNL A   1      43.445  27.662  32.219  1.00  0.00     0.074 A 
ATOM     63  C   UNL A   1      44.370  26.789  31.531  1.00  0.00     0.031 C 
ATOM     64  C   UNL A   1      43.598  28.078  33.499  1.00  0.00     0.037 A 
BRANCH  51  65
ATOM     65  C   UNL A   1      39.182  31.928  35.403  1.00  0.00     0.064 A 
ATOM     66  C   UNL A   1      38.370  31.434  36.433  1.00  0.00     0.173 A 
ATOM     67  C   UNL A   1      39.570  33.277  35.463  1.00  0.00     0.173 A 
ATOM     68  F   UNL A   1      37.964  30.156  36.418  1.00  0.00    -0.203 F 
ATOM     69  C   UNL A   1      37.947  32.261  37.471  1.00  0.00     0.198 A 
ATOM     70  C   UNL A   1      39.169  34.093  36.515  1.00  0.00     0.198 A 
ATOM     71  F   UNL A   1      40.356  33.797  34.507  1.00  0.00    -0.203 F 
ATOM     72  F   UNL A   1      37.139  31.776  38.424  1.00  0.00    -0.200 F 
ATOM     73  C   UNL A   1      38.353  33.586  37.515  1.00  0.00     0.200 A 
ATOM     74  F   UNL A   1      39.573  35.370  36.566  1.00  0.00    -0.200 F 
ATOM     75  F   UNL A   1      37.955  34.376  38.522  1.00  0.00    -0.200 F 
ENDBRANCH  51  65
BRANCH  52  76
ATOM     76  C   UNL A   1      42.501  26.473  27.778  1.00  0.00     0.064 A 
ATOM     77  C   UNL A   1      43.394  27.046  26.862  1.00  0.00     0.173 A 
ATOM     78  C   UNL A   1      42.103  25.147  27.559  1.00  0.00     0.173 A 
ATOM     79  F   UNL A   1      43.782  28.321  27.014  1.00  0.00    -0.203 F 
ATOM     80  C   UNL A   1      43.847  26.332  25.755  1.00  0.00     0.198 A 
ATOM     81  C   UNL A   1      42.579  24.424  26.466  1.00  0.00     0.198 A 
ATOM     82  F   UNL A   1      41.248  24.553  28.405  1.00  0.00    -0.203 F 
ATOM     83  F   UNL A   1      44.655  26.923  24.863  1.00  0.00    -0.200 F 
ATOM     84  C   UNL A   1      43.442  25.021  25.559  1.00  0.00     0.200 A 
ATOM     85  F   UNL A   1      42.191  23.154  26.285  1.00  0.00    -0.200 F 
ATOM     86  F   UNL A   1      43.873  24.336  24.491  1.00  0.00    -0.200 F 
ENDBRANCH  52  76
BRANCH  64  87
ATOM     87  C   UNL A   1      44.775  27.549  34.265  1.00  0.00     0.064 A 
ATOM     88  C   UNL A   1      44.737  26.304  34.907  1.00  0.00     0.173 A 
ATOM     89  C   UNL A   1      45.969  28.283  34.322  1.00  0.00     0.173 A 
ATOM     90  F   UNL A   1      43.613  25.571  34.893  1.00  0.00    -0.203 F 
ATOM     91  C   UNL A   1      45.845  25.822  35.598  1.00  0.00     0.198 A 
ATOM     92  C   UNL A   1      47.085  27.787  34.992  1.00  0.00     0.198 A 
ATOM     93  F   UNL A   1      46.060  29.478  33.719  1.00  0.00    -0.203 F 
ATOM     94  F   UNL A   1      45.774  24.647  36.241  1.00  0.00    -0.200 F 
ATOM     95  C   UNL A   1      47.020  26.560  35.635  1.00  0.00     0.200 A 
ATOM     96  F   UNL A   1      48.221  28.496  35.017  1.00  0.00    -0.200 F 
ATOM     97  F   UNL A   1      48.087  26.091  36.296  1.00  0.00    -0.200 F 
ENDBRANCH  64  87
ENDBRANCH  38  39
ENDBRANCH  30  33
ENDBRANCH  28  29
ENDBRANCH  27  28
ENDBRANCH   1  27
TORSDOF 14
ENDMDL
MODEL 2
REMARK VINA RESULT:     -12.2      2.853      4.062
REMARK SMILES C[C@H]1C[N@H+]2CCC[C@@H]2CN1c1cc(Cl)ccc1C(=O)NCCCCCCNC(=O)c1ccc(-c2c3nc(c(-c4c(F)c(F)c(F)c(F)c4F)c4ccc([nH]4)c(-c4c(F)c(F)c(F)c(F)c4F)c4nc(c(-c5c(F)c(F)c(F)c(F)c5F)c5ccc2[nH]5)C=C4)C=C3)cc1
REMARK SMILES IDX 24 1 23 2 22 3 21 4 20 5 18 6 19 7 17 9 11 10 12 11 13 12
REMARK SMILES IDX 16 13 14 14 15 15 10 16 1 17 2 18 3 19 4 20 9 21 5 22 8 23
REMARK SMILES IDX 6 25 7 26 25 27 26 28 27 29 28 30 29 32 30 33 31 34 92 35
REMARK SMILES IDX 32 36 91 37 33 38 34 39 35 40 85 41 36 42 90 43 84 44 86 45
REMARK SMILES IDX 37 46 89 47 83 48 82 49 38 51 70 52 50 53 69 54 51 55 54 56
REMARK SMILES IDX 68 57 87 58 52 59 53 60 67 62 88 63 55 64 39 65 40 66 48 67
REMARK SMILES IDX 41 68 42 69 46 70 49 71 43 72 44 73 47 74 45 75 71 76 72 77
REMARK SMILES IDX 80 78 73 79 74 80 78 81 81 82 75 83 76 84 79 85 77 86 56 87
REMARK SMILES IDX 57 88 65 89 58 90 59 91 63 92 66 93 60 94 61 95 64 96 62 97
REMARK H PARENT 20 8 4 24 27 31 86 50 54 61
REMARK Flexibility Score: inf
ROOT
ATOM      1  C   UNL A   1      31.412  27.769  25.714  1.00  0.00     0.002 C 
ENDROOT
BRANCH   1   2
ATOM      2  C   UNL A   1      31.709  28.495  24.394  1.00  0.00     0.002 C 
BRANCH   2   3
ATOM      3  C   UNL A   1      32.778  27.906  23.460  1.00  0.00     0.021 C 
BRANCH   3   4
ATOM      4  C   UNL A   1      33.682  26.807  24.022  1.00  0.00     0.116 C 
BRANCH   4   5
ATOM      5  N   UNL A   1      33.955  25.711  23.121  1.00  0.00    -0.352 N 
ATOM      6  C   UNL A   1      33.420  24.444  23.114  1.00  0.00     0.253 C 
ATOM      7  O   UNL A   1      33.749  23.680  22.196  1.00  0.00    -0.269 OA
ATOM      8  H   UNL A   1      34.615  25.896  22.414  1.00  0.00     0.163 HD
BRANCH   6   9
ATOM      9  C   UNL A   1      32.523  23.913  24.182  1.00  0.00     0.063 A 
ATOM     10  C   UNL A   1      32.908  23.006  25.202  1.00  0.00     0.052 A 
ATOM     11  C   UNL A   1      31.943  22.669  26.174  1.00  0.00     0.047 A 
ATOM     12  C   UNL A   1      30.655  23.209  26.149  1.00  0.00     0.043 A 
ATOM     13  C   UNL A   1      31.227  24.469  24.188  1.00  0.00     0.017 A 
ATOM     14  Cl  UNL A   1      29.520  22.767  27.364  1.00  0.00    -0.084 Cl
ATOM     15  C   UNL A   1      30.294  24.116  25.164  1.00  0.00     0.021 A 
BRANCH  10  16
ATOM     16  N   UNL A   1      34.209  22.513  25.317  1.00  0.00    -0.357 N 
ATOM     17  C   UNL A   1      33.751  20.178  24.480  1.00  0.00     0.037 C 
ATOM     18  C   UNL A   1      34.517  21.058  25.481  1.00  0.00     0.134 C 
ATOM     19  C   UNL A   1      36.053  20.787  25.268  1.00  0.00     0.287 C 
ATOM     20  N   UNL A   1      36.921  21.727  25.987  1.00  0.00    -0.329 N 
ATOM     21  C   UNL A   1      35.108  23.412  26.090  1.00  0.00     0.182 C 
ATOM     22  C   UNL A   1      38.344  21.640  25.670  1.00  0.00     0.262 C 
ATOM     23  C   UNL A   1      36.544  23.115  25.664  1.00  0.00     0.203 C 
ATOM     24  H   UNL A   1      36.786  21.471  26.965  1.00  0.00     0.348 HD
ATOM     25  C   UNL A   1      38.878  23.048  25.969  1.00  0.00     0.068 C 
ATOM     26  C   UNL A   1      37.650  23.869  26.367  1.00  0.00     0.073 C 
ENDBRANCH  10  16
ENDBRANCH   6   9
ENDBRANCH   4   5
ENDBRANCH   3   4
ENDBRANCH   2   3
ENDBRANCH   1   2
BRANCH   1  27
ATOM     27  C   UNL A   1      31.779  28.495  27.012  1.00  0.00     0.021 C 
BRANCH  27  28
ATOM     28  C   UNL A   1      33.263  28.773  27.240  1.00  0.00     0.116 C 
BRANCH  28  29
ATOM     29  N   UNL A   1      33.515  30.111  27.752  1.00  0.00    -0.352 N 
ATOM     30  C   UNL A   1      34.594  30.738  28.324  1.00  0.00     0.251 C 
ATOM     31  H   UNL A   1      32.732  30.703  27.669  1.00  0.00     0.163 HD
ATOM     32  O   UNL A   1      34.400  31.877  28.767  1.00  0.00    -0.269 OA
BRANCH  30  33
ATOM     33  C   UNL A   1      35.966  30.162  28.459  1.00  0.00     0.039 A 
ATOM     34  C   UNL A   1      36.300  29.577  29.696  1.00  0.00     0.014 A 
ATOM     35  C   UNL A   1      36.977  30.275  27.505  1.00  0.00     0.014 A 
ATOM     36  C   UNL A   1      37.601  29.123  29.967  1.00  0.00     0.010 A 
ATOM     37  C   UNL A   1      38.258  29.747  27.745  1.00  0.00     0.010 A 
ATOM     38  C   UNL A   1      38.600  29.196  28.990  1.00  0.00    -0.014 A 
BRANCH  38  39
ATOM     39  C   UNL A   1      40.011  28.791  29.274  1.00  0.00     0.031 A 
ATOM     40  C   UNL A   1      40.913  29.696  30.083  1.00  0.00     0.074 A 
ATOM     41  C   UNL A   1      40.512  27.635  28.790  1.00  0.00     0.049 A 
ATOM     42  N   UNL A   1      42.193  29.583  30.343  1.00  0.00    -0.248 NA
ATOM     43  C   UNL A   1      40.298  30.906  30.651  1.00  0.00     0.031 C 
ATOM     44  C   UNL A   1      39.778  26.665  27.981  1.00  0.00     0.029 A 
ATOM     45  N   UNL A   1      41.770  27.088  28.904  1.00  0.00    -0.354 N 
ATOM     46  C   UNL A   1      42.542  30.723  31.058  1.00  0.00     0.074 A 
ATOM     47  C   UNL A   1      41.346  31.530  31.169  1.00  0.00     0.031 C 
ATOM     48  C   UNL A   1      40.589  25.634  27.685  1.00  0.00     0.029 A 
ATOM     49  C   UNL A   1      41.912  25.886  28.250  1.00  0.00     0.049 A 
ATOM     50  H   UNL A   1      42.501  27.515  29.406  1.00  0.00     0.167 HD
ATOM     51  C   UNL A   1      43.740  31.063  31.591  1.00  0.00     0.037 A 
ATOM     52  C   UNL A   1      42.985  25.082  28.113  1.00  0.00     0.037 A 
ATOM     53  C   UNL A   1      44.915  30.232  31.562  1.00  0.00     0.049 A 
ATOM     54  C   UNL A   1      44.296  25.466  28.749  1.00  0.00     0.074 A 
ATOM     55  C   UNL A   1      46.149  30.463  32.149  1.00  0.00     0.029 A 
ATOM     56  N   UNL A   1      44.999  29.005  30.925  1.00  0.00    -0.354 N 
ATOM     57  N   UNL A   1      44.594  26.526  29.459  1.00  0.00    -0.248 NA
ATOM     58  C   UNL A   1      45.421  24.535  28.569  1.00  0.00     0.031 C 
ATOM     59  C   UNL A   1      46.990  29.388  31.842  1.00  0.00     0.029 A 
ATOM     60  C   UNL A   1      46.267  28.471  31.097  1.00  0.00     0.049 A 
ATOM     61  H   UNL A   1      44.268  28.576  30.426  1.00  0.00     0.167 HD
ATOM     62  C   UNL A   1      45.921  26.371  29.838  1.00  0.00     0.074 A 
ATOM     63  C   UNL A   1      46.372  25.111  29.289  1.00  0.00     0.031 C 
ATOM     64  C   UNL A   1      46.697  27.202  30.575  1.00  0.00     0.037 A 
BRANCH  51  65
ATOM     65  C   UNL A   1      43.854  32.398  32.270  1.00  0.00     0.064 A 
ATOM     66  C   UNL A   1      44.228  33.553  31.570  1.00  0.00     0.173 A 
ATOM     67  C   UNL A   1      43.517  32.532  33.627  1.00  0.00     0.173 A 
ATOM     68  F   UNL A   1      44.567  33.477  30.275  1.00  0.00    -0.203 F 
ATOM     69  C   UNL A   1      44.280  34.791  32.207  1.00  0.00     0.198 A 
ATOM     70  C   UNL A   1      43.544  33.774  34.253  1.00  0.00     0.198 A 
ATOM     71  F   UNL A   1      43.143  31.459  34.340  1.00  0.00    -0.203 F 
ATOM     72  F   UNL A   1      44.677  35.875  31.527  1.00  0.00    -0.200 F 
ATOM     73  C   UNL A   1      43.931  34.902  33.544  1.00  0.00     0.200 A 
ATOM     74  F   UNL A   1      43.192  33.883  35.542  1.00  0.00    -0.200 F 
ATOM     75  F   UNL A   1      43.970  36.096  34.152  1.00  0.00    -0.200 F 
ENDBRANCH  51  65
BRANCH  52  76
ATOM     76  C   UNL A   1      42.875  23.809  27.352  1.00  0.00     0.064 A 
ATOM     77  C   UNL A   1      42.384  22.647  27.964  1.00  0.00     0.173 A 
ATOM     78  C   UNL A   1      43.294  23.716  26.017  1.00  0.00     0.173 A 
ATOM     79  F   UNL A   1      41.998  22.680  29.248  1.00  0.00    -0.203 F 
ATOM     80  C   UNL A   1      42.343  21.435  27.279  1.00  0.00     0.198 A 
ATOM     81  C   UNL A   1      43.225  22.509  25.324  1.00  0.00     0.198 A 
ATOM     82  F   UNL A   1      43.774  24.798  25.386  1.00  0.00    -0.203 F 
ATOM     83  F   UNL A   1      41.923  20.327  27.907  1.00  0.00    -0.200 F 
ATOM     84  C   UNL A   1      42.760  21.366  25.959  1.00  0.00     0.200 A 
ATOM     85  F   UNL A   1      43.623  22.449  24.045  1.00  0.00    -0.200 F 
ATOM     86  F   UNL A   1      42.726  20.199  25.302  1.00  0.00    -0.200 F 
ENDBRANCH  52  76
BRANCH  64  87
ATOM     87  C   UNL A   1      48.095  26.754  30.886  1.00  0.00     0.064 A 
ATOM     88  C   UNL A   1      48.379  25.940  31.991  1.00  0.00     0.173 A 
ATOM     89  C   UNL A   1      49.157  27.112  30.042  1.00  0.00     0.173 A 
ATOM     90  F   UNL A   1      47.400  25.582  32.835  1.00  0.00    -0.203 F 
ATOM     91  C   UNL A   1      49.680  25.519  32.253  1.00  0.00     0.198 A 
ATOM     92  C   UNL A   1      50.453  26.668  30.292  1.00  0.00     0.198 A 
ATOM     93  F   UNL A   1      48.937  27.884  28.967  1.00  0.00    -0.203 F 
ATOM     94  F   UNL A   1      49.936  24.776  33.339  1.00  0.00    -0.200 F 
ATOM     95  C   UNL A   1      50.715  25.878  31.400  1.00  0.00     0.200 A 
ATOM     96  F   UNL A   1      51.448  27.006  29.461  1.00  0.00    -0.200 F 
ATOM     97  F   UNL A   1      51.965  25.467  31.652  1.00  0.00    -0.200 F 
ENDBRANCH  64  87
ENDBRANCH  38  39
ENDBRANCH  30  33
ENDBRANCH  28  29
ENDBRANCH  27  28
ENDBRANCH   1  27
TORSDOF 14
ENDMDL
MODEL 3
REMARK VINA RESULT:     -12.0      1.922      3.309
REMARK SMILES C[C@H]1C[N@H+]2CCC[C@@H]2CN1c1cc(Cl)ccc1C(=O)NCCCCCCNC(=O)c1ccc(-c2c3nc(c(-c4c(F)c(F)c(F)c(F)c4F)c4ccc([nH]4)c(-c4c(F)c(F)c(F)c(F)c4F)c4nc(c(-c5c(F)c(F)c(F)c(F)c5F)c5ccc2[nH]5)C=C4)C=C3)cc1
REMARK SMILES IDX 24 1 23 2 22 3 21 4 20 5 18 6 19 7 17 9 11 10 12 11 13 12
REMARK SMILES IDX 16 13 14 14 15 15 10 16 1 17 2 18 3 19 4 20 9 21 5 22 8 23
REMARK SMILES IDX 6 25 7 26 25 27 26 28 27 29 28 30 29 32 30 33 31 34 92 35
REMARK SMILES IDX 32 36 91 37 33 38 34 39 35 40 85 41 36 42 90 43 84 44 86 45
REMARK SMILES IDX 37 46 89 47 83 48 82 49 38 51 70 52 50 53 69 54 51 55 54 56
REMARK SMILES IDX 68 57 87 58 52 59 53 60 67 62 88 63 55 64 39 65 40 66 48 67
REMARK SMILES IDX 41 68 42 69 46 70 49 71 43 72 44 73 47 74 45 75 71 76 72 77
REMARK SMILES IDX 80 78 73 79 74 80 78 81 81 82 75 83 76 84 79 85 77 86 56 87
REMARK SMILES IDX 57 88 65 89 58 90 59 91 63 92 66 93 60 94 61 95 64 96 62 97
REMARK H PARENT 20 8 4 24 27 31 86 50 54 61
REMARK Flexibility Score: inf
ROOT
ATOM      1  C   UNL A   1      32.089  30.522  26.754  1.00  0.00     0.002 C 
ENDROOT
BRANCH   1   2
ATOM      2  C   UNL A   1      33.522  30.282  27.250  1.00  0.00     0.002 C 
BRANCH   2   3
ATOM      3  C   UNL A   1      34.244  29.000  26.805  1.00  0.00     0.021 C 
BRANCH   3   4
ATOM      4  C   UNL A   1      33.545  28.116  25.771  1.00  0.00     0.116 C 
BRANCH   4   5
ATOM      5  N   UNL A   1      34.027  28.252  24.415  1.00  0.00    -0.352 N 
ATOM      6  C   UNL A   1      33.307  28.411  23.255  1.00  0.00     0.253 C 
ATOM      7  O   UNL A   1      33.935  28.581  22.200  1.00  0.00    -0.269 OA
ATOM      8  H   UNL A   1      35.005  28.226  24.307  1.00  0.00     0.163 HD
BRANCH   6   9
ATOM      9  C   UNL A   1      31.819  28.324  23.178  1.00  0.00     0.063 A 
ATOM     10  C   UNL A   1      31.057  27.137  23.325  1.00  0.00     0.052 A 
ATOM     11  C   UNL A   1      29.651  27.255  23.297  1.00  0.00     0.047 A 
ATOM     12  C   UNL A   1      29.022  28.492  23.141  1.00  0.00     0.043 A 
ATOM     13  C   UNL A   1      31.165  29.567  23.048  1.00  0.00     0.017 A 
ATOM     14  Cl  UNL A   1      27.303  28.578  23.120  1.00  0.00    -0.084 Cl
ATOM     15  C   UNL A   1      29.773  29.652  23.024  1.00  0.00     0.021 A 
BRANCH  10  16
ATOM     16  N   UNL A   1      31.643  25.894  23.574  1.00  0.00    -0.357 N 
ATOM     17  C   UNL A   1      32.521  25.474  21.248  1.00  0.00     0.037 C 
ATOM     18  C   UNL A   1      31.872  24.873  22.504  1.00  0.00     0.134 C 
ATOM     19  C   UNL A   1      32.818  23.728  23.024  1.00  0.00     0.287 C 
ATOM     20  N   UNL A   1      32.453  23.218  24.350  1.00  0.00    -0.329 N 
ATOM     21  C   UNL A   1      31.251  25.317  24.888  1.00  0.00     0.182 C 
ATOM     22  C   UNL A   1      33.408  22.295  24.958  1.00  0.00     0.262 C 
ATOM     23  C   UNL A   1      32.340  24.332  25.309  1.00  0.00     0.203 C 
ATOM     24  H   UNL A   1      31.579  22.720  24.179  1.00  0.00     0.348 HD
ATOM     25  C   UNL A   1      33.178  22.461  26.467  1.00  0.00     0.068 C 
ATOM     26  C   UNL A   1      32.129  23.566  26.596  1.00  0.00     0.073 C 
ENDBRANCH  10  16
ENDBRANCH   6   9
ENDBRANCH   4   5
ENDBRANCH   3   4
ENDBRANCH   2   3
ENDBRANCH   1   2
BRANCH   1  27
ATOM     27  C   UNL A   1      31.454  31.879  27.072  1.00  0.00     0.021 C 
BRANCH  27  28
ATOM     28  C   UNL A   1      32.156  33.109  26.501  1.00  0.00     0.116 C 
BRANCH  28  29
ATOM     29  N   UNL A   1      32.247  34.203  27.455  1.00  0.00    -0.352 N 
ATOM     30  C   UNL A   1      33.061  34.487  28.523  1.00  0.00     0.251 C 
ATOM     31  H   UNL A   1      31.570  34.901  27.297  1.00  0.00     0.163 HD
ATOM     32  O   UNL A   1      32.756  35.475  29.202  1.00  0.00    -0.269 OA
BRANCH  30  33
ATOM     33  C   UNL A   1      34.267  33.705  28.932  1.00  0.00     0.039 A 
ATOM     34  C   UNL A   1      34.049  32.513  29.649  1.00  0.00     0.014 A 
ATOM     35  C   UNL A   1      35.585  34.130  28.773  1.00  0.00     0.014 A 
ATOM     36  C   UNL A   1      35.115  31.774  30.188  1.00  0.00     0.010 A 
ATOM     37  C   UNL A   1      36.658  33.349  29.240  1.00  0.00     0.010 A 
ATOM     38  C   UNL A   1      36.439  32.180  29.985  1.00  0.00    -0.014 A 
BRANCH  38  39
ATOM     39  C   UNL A   1      37.588  31.456  30.610  1.00  0.00     0.031 A 
ATOM     40  C   UNL A   1      37.979  31.743  32.042  1.00  0.00     0.074 A 
ATOM     41  C   UNL A   1      38.315  30.566  29.902  1.00  0.00     0.049 A 
ATOM     42  N   UNL A   1      39.007  31.310  32.730  1.00  0.00    -0.248 NA
ATOM     43  C   UNL A   1      37.110  32.664  32.793  1.00  0.00     0.031 C 
ATOM     44  C   UNL A   1      38.078  30.193  28.509  1.00  0.00     0.029 A 
ATOM     45  N   UNL A   1      39.413  29.818  30.263  1.00  0.00    -0.354 N 
ATOM     46  C   UNL A   1      38.935  31.940  33.967  1.00  0.00     0.074 A 
ATOM     47  C   UNL A   1      37.777  32.806  33.929  1.00  0.00     0.031 C 
ATOM     48  C   UNL A   1      38.988  29.277  28.137  1.00  0.00     0.029 A 
ATOM     49  C   UNL A   1      39.898  29.024  29.251  1.00  0.00     0.049 A 
ATOM     50  H   UNL A   1      39.815  29.849  31.161  1.00  0.00     0.167 HD
ATOM     51  C   UNL A   1      39.743  31.799  35.046  1.00  0.00     0.037 A 
ATOM     52  C   UNL A   1      40.959  28.192  29.218  1.00  0.00     0.037 A 
ATOM     53  C   UNL A   1      40.848  30.879  35.127  1.00  0.00     0.049 A 
ATOM     54  C   UNL A   1      41.819  28.026  30.445  1.00  0.00     0.074 A 
ATOM     55  C   UNL A   1      41.670  30.613  36.211  1.00  0.00     0.029 A 
ATOM     56  N   UNL A   1      41.275  30.064  34.092  1.00  0.00    -0.354 N 
ATOM     57  N   UNL A   1      41.708  28.596  31.619  1.00  0.00    -0.248 NA
ATOM     58  C   UNL A   1      42.952  27.093  30.340  1.00  0.00     0.031 C 
ATOM     59  C   UNL A   1      42.614  29.658  35.821  1.00  0.00     0.029 A 
ATOM     60  C   UNL A   1      42.355  29.301  34.508  1.00  0.00     0.049 A 
ATOM     61  H   UNL A   1      40.872  30.031  33.195  1.00  0.00     0.167 HD
ATOM     62  C   UNL A   1      42.727  28.065  32.399  1.00  0.00     0.074 A 
ATOM     63  C   UNL A   1      43.443  27.120  31.571  1.00  0.00     0.031 C 
ATOM     64  C   UNL A   1      43.041  28.340  33.688  1.00  0.00     0.037 A 
BRANCH  51  65
ATOM     65  C   UNL A   1      39.468  32.656  36.247  1.00  0.00     0.064 A 
ATOM     66  C   UNL A   1      40.117  33.883  36.444  1.00  0.00     0.173 A 
ATOM     67  C   UNL A   1      38.488  32.274  37.179  1.00  0.00     0.173 A 
ATOM     68  F   UNL A   1      41.065  34.290  35.588  1.00  0.00    -0.203 F 
ATOM     69  C   UNL A   1      39.811  34.687  37.540  1.00  0.00     0.198 A 
ATOM     70  C   UNL A   1      38.167  33.092  38.257  1.00  0.00     0.198 A 
ATOM     71  F   UNL A   1      37.831  31.114  37.031  1.00  0.00    -0.203 F 
ATOM     72  F   UNL A   1      40.471  35.838  37.729  1.00  0.00    -0.200 F 
ATOM     73  C   UNL A   1      38.832  34.295  38.441  1.00  0.00     0.200 A 
ATOM     74  F   UNL A   1      37.210  32.719  39.119  1.00  0.00    -0.200 F 
ATOM     75  F   UNL A   1      38.531  35.076  39.487  1.00  0.00    -0.200 F 
ENDBRANCH  51  65
BRANCH  52  76
ATOM     76  C   UNL A   1      41.272  27.425  27.983  1.00  0.00     0.064 A 
ATOM     77  C   UNL A   1      40.786  26.122  27.805  1.00  0.00     0.173 A 
ATOM     78  C   UNL A   1      42.093  27.958  26.980  1.00  0.00     0.173 A 
ATOM     79  F   UNL A   1      40.021  25.559  28.752  1.00  0.00    -0.203 F 
ATOM     80  C   UNL A   1      41.132  25.371  26.684  1.00  0.00     0.198 A 
ATOM     81  C   UNL A   1      42.414  27.216  25.844  1.00  0.00     0.198 A 
ATOM     82  F   UNL A   1      42.586  29.200  27.103  1.00  0.00    -0.203 F 
ATOM     83  F   UNL A   1      40.700  24.108  26.567  1.00  0.00    -0.200 F 
ATOM     84  C   UNL A   1      41.943  25.920  25.702  1.00  0.00     0.200 A 
ATOM     85  F   UNL A   1      43.193  27.753  24.894  1.00  0.00    -0.200 F 
ATOM     86  F   UNL A   1      42.280  25.196  24.627  1.00  0.00    -0.200 F 
ENDBRANCH  52  76
BRANCH  64  87
ATOM     87  C   UNL A   1      44.170  27.569  34.307  1.00  0.00     0.064 A 
ATOM     88  C   UNL A   1      43.968  26.316  34.903  1.00  0.00     0.173 A 
ATOM     89  C   UNL A   1      45.478  28.075  34.267  1.00  0.00     0.173 A 
ATOM     90  F   UNL A   1      42.733  25.797  34.978  1.00  0.00    -0.203 F 
ATOM     91  C   UNL A   1      45.030  25.608  35.456  1.00  0.00     0.198 A 
ATOM     92  C   UNL A   1      46.543  27.352  34.798  1.00  0.00     0.198 A 
ATOM     93  F   UNL A   1      45.726  29.266  33.703  1.00  0.00    -0.203 F 
ATOM     94  F   UNL A   1      44.808  24.431  36.058  1.00  0.00    -0.200 F 
ATOM     95  C   UNL A   1      46.318  26.123  35.398  1.00  0.00     0.200 A 
ATOM     96  F   UNL A   1      47.787  27.846  34.731  1.00  0.00    -0.200 F 
ATOM     97  F   UNL A   1      47.340  25.436  35.926  1.00  0.00    -0.200 F 
ENDBRANCH  64  87
ENDBRANCH  38  39
ENDBRANCH  30  33
ENDBRANCH  28  29
ENDBRANCH  27  28
ENDBRANCH   1  27
TORSDOF 14
ENDMDL
