MODEL 1
REMARK VINA RESULT:     -11.3      0.000      0.000
REMARK SMILES C[C@H](C(=O)NCCCCCCNC(=O)c1ccc(-c2c3nc(c(-c4c(F)c(F)c(F)c(F)c4F)c4ccc([nH]4)c(-c4c(F)c(F)c(F)c(F)c4F)c4nc(c(-c5c(F)c(F)c(F)c(F)c5F)c5ccc2[nH]5)C=C4)C=C3)cc1)[C@@H](C)[NH2+]Cc1ccc(F)c(F)c1
REMARK SMILES IDX 7 1 6 2 5 3 3 4 4 5 2 7 1 8 78 9 79 10 80 11 81 14 82 15
REMARK SMILES IDX 83 16 89 17 84 18 87 19 85 20 88 21 86 22 8 23 9 24 10 25
REMARK SMILES IDX 11 26 12 27 13 28 14 30 15 31 16 32 77 33 17 34 76 35 18 36
REMARK SMILES IDX 19 37 20 38 70 39 21 40 75 41 69 42 71 43 22 44 74 45 68 46
REMARK SMILES IDX 67 47 23 49 55 50 35 51 54 52 36 53 39 54 53 55 72 56 37 57
REMARK SMILES IDX 38 58 52 60 73 61 40 62 24 63 25 64 33 65 26 66 27 67 31 68
REMARK SMILES IDX 34 69 28 70 29 71 32 72 30 73 56 74 57 75 65 76 58 77 59 78
REMARK SMILES IDX 63 79 66 80 60 81 61 82 64 83 62 84 41 85 42 86 50 87 43 88
REMARK SMILES IDX 44 89 48 90 51 91 45 92 46 93 49 94 47 95
REMARK H PARENT 5 6 80 12 80 13 12 29 71 48 39 59
REMARK Flexibility Score: inf
ROOT
ATOM      1  C   UNL A   1      35.196  31.931  27.851  1.00  0.00     0.021 C 
ENDROOT
BRANCH   1   2
ATOM      2  C   UNL A   1      35.001  30.418  27.864  1.00  0.00     0.116 C 
BRANCH   2   3
ATOM      3  N   UNL A   1      33.608  30.015  27.764  1.00  0.00    -0.356 N 
ATOM      4  C   UNL A   1      32.909  29.217  26.917  1.00  0.00     0.228 C 
ATOM      5  O   UNL A   1      31.734  29.000  27.245  1.00  0.00    -0.275 OA
ATOM      6  H   UNL A   1      33.046  30.411  28.468  1.00  0.00     0.163 HD
BRANCH   4   7
ATOM      7  C   UNL A   1      33.420  28.650  25.581  1.00  0.00     0.133 C 
ATOM      8  C   UNL A   1      33.513  27.129  25.724  1.00  0.00     0.024 C 
BRANCH   7   9
ATOM      9  C   UNL A   1      32.698  29.116  24.300  1.00  0.00     0.191 C 
ATOM     10  C   UNL A   1      32.403  27.905  23.396  1.00  0.00     0.076 C 
BRANCH   9  11
ATOM     11  N   UNL A   1      31.471  29.890  24.599  1.00  0.00    -0.340 N 
ATOM     12  H   UNL A   1      31.586  30.829  24.218  1.00  0.00     0.346 HD
ATOM     13  H   UNL A   1      31.362  29.885  25.613  1.00  0.00     0.346 HD
BRANCH  11  14
ATOM     14  C   UNL A   1      30.239  29.312  24.038  1.00  0.00     0.297 C 
BRANCH  14  15
ATOM     15  C   UNL A   1      29.405  30.311  23.269  1.00  0.00     0.009 A 
ATOM     16  C   UNL A   1      28.854  29.960  22.025  1.00  0.00     0.013 A 
ATOM     17  C   UNL A   1      29.284  31.636  23.722  1.00  0.00     0.052 A 
ATOM     18  C   UNL A   1      28.257  30.931  21.217  1.00  0.00     0.043 A 
ATOM     19  C   UNL A   1      28.699  32.597  22.904  1.00  0.00     0.159 A 
ATOM     20  C   UNL A   1      28.201  32.250  21.655  1.00  0.00     0.158 A 
ATOM     21  F   UNL A   1      28.673  33.874  23.311  1.00  0.00    -0.204 F 
ATOM     22  F   UNL A   1      27.688  33.188  20.848  1.00  0.00    -0.204 F 
ENDBRANCH  14  15
ENDBRANCH  11  14
ENDBRANCH   9  11
ENDBRANCH   7   9
ENDBRANCH   4   7
ENDBRANCH   2   3
ENDBRANCH   1   2
BRANCH   1  23
ATOM     23  C   UNL A   1      34.568  32.693  29.016  1.00  0.00     0.002 C 
BRANCH  23  24
ATOM     24  C   UNL A   1      34.589  34.220  28.899  1.00  0.00     0.002 C 
BRANCH  24  25
ATOM     25  C   UNL A   1      33.229  34.922  28.983  1.00  0.00     0.021 C 
BRANCH  25  26
ATOM     26  C   UNL A   1      33.221  36.284  29.675  1.00  0.00     0.116 C 
BRANCH  26  27
ATOM     27  N   UNL A   1      32.412  36.302  30.881  1.00  0.00    -0.352 N 
ATOM     28  C   UNL A   1      32.595  35.671  32.085  1.00  0.00     0.251 C 
ATOM     29  H   UNL A   1      31.599  36.855  30.825  1.00  0.00     0.163 HD
ATOM     30  O   UNL A   1      31.709  35.721  32.934  1.00  0.00    -0.269 OA
BRANCH  28  31
ATOM     31  C   UNL A   1      33.833  34.909  32.372  1.00  0.00     0.039 A 
ATOM     32  C   UNL A   1      35.054  35.589  32.311  1.00  0.00     0.014 A 
ATOM     33  C   UNL A   1      33.817  33.539  32.651  1.00  0.00     0.014 A 
ATOM     34  C   UNL A   1      36.247  34.912  32.580  1.00  0.00     0.010 A 
ATOM     35  C   UNL A   1      35.002  32.877  32.980  1.00  0.00     0.010 A 
ATOM     36  C   UNL A   1      36.229  33.556  32.948  1.00  0.00    -0.014 A 
BRANCH  36  37
ATOM     37  C   UNL A   1      37.490  32.859  33.313  1.00  0.00     0.031 A 
ATOM     38  C   UNL A   1      38.195  33.163  34.604  1.00  0.00     0.074 A 
ATOM     39  C   UNL A   1      38.015  31.959  32.458  1.00  0.00     0.049 A 
ATOM     40  N   UNL A   1      39.300  32.650  35.085  1.00  0.00    -0.248 NA
ATOM     41  C   UNL A   1      37.593  34.195  35.462  1.00  0.00     0.031 C 
ATOM     42  C   UNL A   1      37.459  31.615  31.148  1.00  0.00     0.029 A 
ATOM     43  N   UNL A   1      39.135  31.170  32.560  1.00  0.00    -0.354 N 
ATOM     44  C   UNL A   1      39.521  33.290  36.298  1.00  0.00     0.074 A 
ATOM     45  C   UNL A   1      38.471  34.273  36.453  1.00  0.00     0.031 C 
ATOM     46  C   UNL A   1      38.226  30.673  30.578  1.00  0.00     0.029 A 
ATOM     47  C   UNL A   1      39.340  30.363  31.469  1.00  0.00     0.049 A 
ATOM     48  H   UNL A   1      39.732  31.183  33.342  1.00  0.00     0.167 HD
ATOM     49  C   UNL A   1      40.496  33.060  37.212  1.00  0.00     0.037 A 
ATOM     50  C   UNL A   1      40.317  29.471  31.214  1.00  0.00     0.037 A 
ATOM     51  C   UNL A   1      41.538  32.077  37.062  1.00  0.00     0.049 A 
ATOM     52  C   UNL A   1      41.380  29.230  32.250  1.00  0.00     0.074 A 
ATOM     53  C   UNL A   1      42.552  31.751  37.947  1.00  0.00     0.029 A 
ATOM     54  N   UNL A   1      41.697  31.258  35.954  1.00  0.00    -0.354 N 
ATOM     55  N   UNL A   1      41.541  29.798  33.421  1.00  0.00    -0.248 NA
ATOM     56  C   UNL A   1      42.392  28.211  31.935  1.00  0.00     0.031 C 
ATOM     57  C   UNL A   1      43.346  30.759  37.359  1.00  0.00     0.029 A 
ATOM     58  C   UNL A   1      42.801  30.436  36.128  1.00  0.00     0.049 A 
ATOM     59  H   UNL A   1      41.115  31.260  35.161  1.00  0.00     0.167 HD
ATOM     60  C   UNL A   1      42.654  29.194  33.988  1.00  0.00     0.074 A 
ATOM     61  C   UNL A   1      43.114  28.196  33.046  1.00  0.00     0.031 C 
ATOM     62  C   UNL A   1      43.247  29.447  35.180  1.00  0.00     0.037 A 
BRANCH  49  63
ATOM     63  C   UNL A   1      40.472  33.878  38.470  1.00  0.00     0.064 A 
ATOM     64  C   UNL A   1      41.239  35.047  38.596  1.00  0.00     0.173 A 
ATOM     65  C   UNL A   1      39.636  33.525  39.540  1.00  0.00     0.173 A 
ATOM     66  F   UNL A   1      42.063  35.423  37.605  1.00  0.00    -0.203 F 
ATOM     67  C   UNL A   1      41.188  35.818  39.754  1.00  0.00     0.198 A 
ATOM     68  C   UNL A   1      39.566  34.315  40.686  1.00  0.00     0.198 A 
ATOM     69  F   UNL A   1      38.876  32.422  39.471  1.00  0.00    -0.203 F 
ATOM     70  F   UNL A   1      41.961  36.907  39.865  1.00  0.00    -0.200 F 
ATOM     71  C   UNL A   1      40.345  35.457  40.794  1.00  0.00     0.200 A 
ATOM     72  F   UNL A   1      38.742  33.971  41.685  1.00  0.00    -0.200 F 
ATOM     73  F   UNL A   1      40.289  36.207  41.903  1.00  0.00    -0.200 F 
ENDBRANCH  49  63
BRANCH  50  74
ATOM     74  C   UNL A   1      40.324  28.724  29.929  1.00  0.00     0.064 A 
ATOM     75  C   UNL A   1      41.007  29.216  28.809  1.00  0.00     0.173 A 
ATOM     76  C   UNL A   1      39.633  27.511  29.791  1.00  0.00     0.173 A 
ATOM     77  F   UNL A   1      41.665  30.383  28.886  1.00  0.00    -0.203 F 
ATOM     78  C   UNL A   1      40.978  28.538  27.593  1.00  0.00     0.198 A 
ATOM     79  C   UNL A   1      39.629  26.818  28.583  1.00  0.00     0.198 A 
ATOM     80  F   UNL A   1      38.968  26.995  30.835  1.00  0.00    -0.203 F 
ATOM     81  F   UNL A   1      41.596  29.058  26.524  1.00  0.00    -0.200 F 
ATOM     82  C   UNL A   1      40.293  27.337  27.482  1.00  0.00     0.200 A 
ATOM     83  F   UNL A   1      38.978  25.652  28.484  1.00  0.00    -0.200 F 
ATOM     84  F   UNL A   1      40.265  26.685  26.311  1.00  0.00    -0.200 F 
ENDBRANCH  50  74
BRANCH  62  85
ATOM     85  C   UNL A   1      44.445  28.616  35.537  1.00  0.00     0.064 A 
ATOM     86  C   UNL A   1      44.316  27.403  36.229  1.00  0.00     0.173 A 
ATOM     87  C   UNL A   1      45.733  29.031  35.171  1.00  0.00     0.173 A 
ATOM     88  F   UNL A   1      43.106  26.971  36.614  1.00  0.00    -0.203 F 
ATOM     89  C   UNL A   1      45.438  26.652  36.572  1.00  0.00     0.198 A 
ATOM     90  C   UNL A   1      46.851  28.263  35.489  1.00  0.00     0.198 A 
ATOM     91  F   UNL A   1      45.912  30.180  34.503  1.00  0.00    -0.203 F 
ATOM     92  F   UNL A   1      45.295  25.525  37.283  1.00  0.00    -0.200 F 
ATOM     93  C   UNL A   1      46.702  27.080  36.198  1.00  0.00     0.200 A 
ATOM     94  F   UNL A   1      48.072  28.672  35.117  1.00  0.00    -0.200 F 
ATOM     95  F   UNL A   1      47.781  26.356  36.530  1.00  0.00    -0.200 F 
ENDBRANCH  62  85
ENDBRANCH  36  37
ENDBRANCH  28  31
ENDBRANCH  26  27
ENDBRANCH  25  26
ENDBRANCH  24  25
ENDBRANCH  23  24
ENDBRANCH   1  23
TORSDOF 17
ENDMDL
MODEL 2
REMARK VINA RESULT:     -11.3      0.316      2.040
REMARK SMILES C[C@H](C(=O)NCCCCCCNC(=O)c1ccc(-c2c3nc(c(-c4c(F)c(F)c(F)c(F)c4F)c4ccc([nH]4)c(-c4c(F)c(F)c(F)c(F)c4F)c4nc(c(-c5c(F)c(F)c(F)c(F)c5F)c5ccc2[nH]5)C=C4)C=C3)cc1)[C@@H](C)[NH2+]Cc1ccc(F)c(F)c1
REMARK SMILES IDX 7 1 6 2 5 3 3 4 4 5 2 7 1 8 78 9 79 10 80 11 81 14 82 15
REMARK SMILES IDX 83 16 89 17 84 18 87 19 85 20 88 21 86 22 8 23 9 24 10 25
REMARK SMILES IDX 11 26 12 27 13 28 14 30 15 31 16 32 77 33 17 34 76 35 18 36
REMARK SMILES IDX 19 37 20 38 70 39 21 40 75 41 69 42 71 43 22 44 74 45 68 46
REMARK SMILES IDX 67 47 23 49 55 50 35 51 54 52 36 53 39 54 53 55 72 56 37 57
REMARK SMILES IDX 38 58 52 60 73 61 40 62 24 63 25 64 33 65 26 66 27 67 31 68
REMARK SMILES IDX 34 69 28 70 29 71 32 72 30 73 56 74 57 75 65 76 58 77 59 78
REMARK SMILES IDX 63 79 66 80 60 81 61 82 64 83 62 84 41 85 42 86 50 87 43 88
REMARK SMILES IDX 44 89 48 90 51 91 45 92 46 93 49 94 47 95
REMARK H PARENT 5 6 80 12 80 13 12 29 71 48 39 59
REMARK Flexibility Score: inf
ROOT
ATOM      1  C   UNL A   1      35.502  31.957  28.118  1.00  0.00     0.021 C 
ENDROOT
BRANCH   1   2
ATOM      2  C   UNL A   1      35.076  30.571  27.644  1.00  0.00     0.116 C 
BRANCH   2   3
ATOM      3  N   UNL A   1      33.637  30.425  27.506  1.00  0.00    -0.356 N 
ATOM      4  C   UNL A   1      32.829  29.645  26.741  1.00  0.00     0.228 C 
ATOM      5  O   UNL A   1      31.622  29.709  27.012  1.00  0.00    -0.275 OA
ATOM      6  H   UNL A   1      33.134  31.029  28.099  1.00  0.00     0.163 HD
BRANCH   4   7
ATOM      7  C   UNL A   1      33.274  28.782  25.548  1.00  0.00     0.133 C 
ATOM      8  C   UNL A   1      33.889  27.496  26.104  1.00  0.00     0.024 C 
BRANCH   7   9
ATOM      9  C   UNL A   1      32.238  28.548  24.428  1.00  0.00     0.191 C 
ATOM     10  C   UNL A   1      31.506  27.214  24.663  1.00  0.00     0.076 C 
BRANCH   9  11
ATOM     11  N   UNL A   1      31.290  29.678  24.297  1.00  0.00    -0.340 N 
ATOM     12  H   UNL A   1      31.642  30.307  23.575  1.00  0.00     0.346 HD
ATOM     13  H   UNL A   1      31.234  30.120  25.214  1.00  0.00     0.346 HD
BRANCH  11  14
ATOM     14  C   UNL A   1      29.920  29.281  23.934  1.00  0.00     0.297 C 
BRANCH  14  15
ATOM     15  C   UNL A   1      29.171  30.346  23.169  1.00  0.00     0.009 A 
ATOM     16  C   UNL A   1      28.590  30.044  21.925  1.00  0.00     0.013 A 
ATOM     17  C   UNL A   1      29.160  31.676  23.624  1.00  0.00     0.052 A 
ATOM     18  C   UNL A   1      28.074  31.062  21.120  1.00  0.00     0.043 A 
ATOM     19  C   UNL A   1      28.654  32.683  22.808  1.00  0.00     0.159 A 
ATOM     20  C   UNL A   1      28.128  32.380  21.559  1.00  0.00     0.158 A 
ATOM     21  F   UNL A   1      28.735  33.958  23.217  1.00  0.00    -0.204 F 
ATOM     22  F   UNL A   1      27.692  33.358  20.755  1.00  0.00    -0.204 F 
ENDBRANCH  14  15
ENDBRANCH  11  14
ENDBRANCH   9  11
ENDBRANCH   7   9
ENDBRANCH   4   7
ENDBRANCH   2   3
ENDBRANCH   1   2
BRANCH   1  23
ATOM     23  C   UNL A   1      34.453  32.742  28.904  1.00  0.00     0.002 C 
BRANCH  23  24
ATOM     24  C   UNL A   1      34.624  34.264  28.902  1.00  0.00     0.002 C 
BRANCH  24  25
ATOM     25  C   UNL A   1      33.334  35.087  28.827  1.00  0.00     0.021 C 
BRANCH  25  26
ATOM     26  C   UNL A   1      33.284  36.335  29.708  1.00  0.00     0.116 C 
BRANCH  26  27
ATOM     27  N   UNL A   1      32.352  36.210  30.814  1.00  0.00    -0.352 N 
ATOM     28  C   UNL A   1      32.475  35.554  32.013  1.00  0.00     0.251 C 
ATOM     29  H   UNL A   1      31.492  36.671  30.683  1.00  0.00     0.163 HD
ATOM     30  O   UNL A   1      31.502  35.468  32.757  1.00  0.00    -0.269 OA
BRANCH  28  31
ATOM     31  C   UNL A   1      33.754  34.924  32.415  1.00  0.00     0.039 A 
ATOM     32  C   UNL A   1      33.724  33.600  32.866  1.00  0.00     0.014 A 
ATOM     33  C   UNL A   1      34.965  35.622  32.401  1.00  0.00     0.014 A 
ATOM     34  C   UNL A   1      34.907  32.964  33.250  1.00  0.00     0.010 A 
ATOM     35  C   UNL A   1      36.155  34.967  32.725  1.00  0.00     0.010 A 
ATOM     36  C   UNL A   1      36.139  33.632  33.154  1.00  0.00    -0.014 A 
BRANCH  36  37
ATOM     37  C   UNL A   1      37.405  32.927  33.485  1.00  0.00     0.031 A 
ATOM     38  C   UNL A   1      38.151  33.234  34.754  1.00  0.00     0.074 A 
ATOM     39  C   UNL A   1      37.899  32.019  32.620  1.00  0.00     0.049 A 
ATOM     40  N   UNL A   1      39.265  32.715  35.205  1.00  0.00    -0.248 NA
ATOM     41  C   UNL A   1      37.581  34.275  35.623  1.00  0.00     0.031 C 
ATOM     42  C   UNL A   1      37.302  31.672  31.330  1.00  0.00     0.029 A 
ATOM     43  N   UNL A   1      39.015  31.223  32.694  1.00  0.00    -0.354 N 
ATOM     44  C   UNL A   1      39.527  33.360  36.407  1.00  0.00     0.074 A 
ATOM     45  C   UNL A   1      38.488  34.352  36.587  1.00  0.00     0.031 C 
ATOM     46  C   UNL A   1      38.046  30.721  30.742  1.00  0.00     0.029 A 
ATOM     47  C   UNL A   1      39.183  30.408  31.602  1.00  0.00     0.049 A 
ATOM     48  H   UNL A   1      39.636  31.236  33.458  1.00  0.00     0.167 HD
ATOM     49  C   UNL A   1      40.526  33.129  37.293  1.00  0.00     0.037 A 
ATOM     50  C   UNL A   1      40.145  29.508  31.323  1.00  0.00     0.037 A 
ATOM     51  C   UNL A   1      41.556  32.137  37.118  1.00  0.00     0.049 A 
ATOM     52  C   UNL A   1      41.237  29.265  32.329  1.00  0.00     0.074 A 
ATOM     53  C   UNL A   1      42.593  31.809  37.975  1.00  0.00     0.029 A 
ATOM     54  N   UNL A   1      41.677  31.312  36.010  1.00  0.00    -0.354 N 
ATOM     55  N   UNL A   1      41.436  29.838  33.491  1.00  0.00    -0.248 NA
ATOM     56  C   UNL A   1      42.232  28.237  31.990  1.00  0.00     0.031 C 
ATOM     57  C   UNL A   1      43.363  30.808  37.370  1.00  0.00     0.029 A 
ATOM     58  C   UNL A   1      42.780  30.482  36.157  1.00  0.00     0.049 A 
ATOM     59  H   UNL A   1      41.072  31.313  35.235  1.00  0.00     0.167 HD
ATOM     60  C   UNL A   1      42.561  29.229  34.029  1.00  0.00     0.074 A 
ATOM     61  C   UNL A   1      42.986  28.223  33.080  1.00  0.00     0.031 C 
ATOM     62  C   UNL A   1      43.191  29.485  35.202  1.00  0.00     0.037 A 
BRANCH  49  63
ATOM     63  C   UNL A   1      40.545  33.953  38.547  1.00  0.00     0.064 A 
ATOM     64  C   UNL A   1      39.843  33.551  39.695  1.00  0.00     0.173 A 
ATOM     65  C   UNL A   1      41.312  35.125  38.625  1.00  0.00     0.173 A 
ATOM     66  F   UNL A   1      39.086  32.443  39.669  1.00  0.00    -0.203 F 
ATOM     67  C   UNL A   1      39.891  34.303  40.865  1.00  0.00     0.198 A 
ATOM     68  C   UNL A   1      41.380  35.860  39.807  1.00  0.00     0.198 A 
ATOM     69  F   UNL A   1      42.008  35.551  37.561  1.00  0.00    -0.203 F 
ATOM     70  F   UNL A   1      39.179  33.920  41.935  1.00  0.00    -0.200 F 
ATOM     71  C   UNL A   1      40.665  35.451  40.924  1.00  0.00     0.200 A 
ATOM     72  F   UNL A   1      42.139  36.963  39.866  1.00  0.00    -0.200 F 
ATOM     73  F   UNL A   1      40.719  36.168  42.054  1.00  0.00    -0.200 F 
ENDBRANCH  49  63
BRANCH  50  74
ATOM     74  C   UNL A   1      40.109  28.754  30.044  1.00  0.00     0.064 A 
ATOM     75  C   UNL A   1      39.481  27.504  29.958  1.00  0.00     0.173 A 
ATOM     76  C   UNL A   1      40.717  29.260  28.885  1.00  0.00     0.173 A 
ATOM     77  F   UNL A   1      38.904  26.969  31.044  1.00  0.00    -0.203 F 
ATOM     78  C   UNL A   1      39.485  26.777  28.769  1.00  0.00     0.198 A 
ATOM     79  C   UNL A   1      40.694  28.546  27.689  1.00  0.00     0.198 A 
ATOM     80  F   UNL A   1      41.326  30.455  28.913  1.00  0.00    -0.203 F 
ATOM     81  F   UNL A   1      38.924  25.561  28.730  1.00  0.00    -0.200 F 
ATOM     82  C   UNL A   1      40.087  27.301  27.635  1.00  0.00     0.200 A 
ATOM     83  F   UNL A   1      41.264  29.061  26.592  1.00  0.00    -0.200 F 
ATOM     84  F   UNL A   1      40.091  26.600  26.492  1.00  0.00    -0.200 F 
ENDBRANCH  50  74
BRANCH  62  85
ATOM     85  C   UNL A   1      44.392  28.647  35.528  1.00  0.00     0.064 A 
ATOM     86  C   UNL A   1      45.684  29.036  35.146  1.00  0.00     0.173 A 
ATOM     87  C   UNL A   1      44.252  27.449  36.243  1.00  0.00     0.173 A 
ATOM     88  F   UNL A   1      45.869  30.167  34.448  1.00  0.00    -0.203 F 
ATOM     89  C   UNL A   1      46.788  28.239  35.438  1.00  0.00     0.198 A 
ATOM     90  C   UNL A   1      45.361  26.668  36.560  1.00  0.00     0.198 A 
ATOM     91  F   UNL A   1      43.039  27.033  36.638  1.00  0.00    -0.203 F 
ATOM     92  F   UNL A   1      48.006  28.603  35.013  1.00  0.00    -0.200 F 
ATOM     93  C   UNL A   1      46.626  27.060  36.147  1.00  0.00     0.200 A 
ATOM     94  F   UNL A   1      45.204  25.534  37.255  1.00  0.00    -0.200 F 
ATOM     95  F   UNL A   1      47.690  26.293  36.426  1.00  0.00    -0.200 F 
ENDBRANCH  62  85
ENDBRANCH  36  37
ENDBRANCH  28  31
ENDBRANCH  26  27
ENDBRANCH  25  26
ENDBRANCH  24  25
ENDBRANCH  23  24
ENDBRANCH   1  23
TORSDOF 17
ENDMDL
MODEL 3
REMARK VINA RESULT:     -11.0      1.045      7.360
REMARK SMILES C[C@H](C(=O)NCCCCCCNC(=O)c1ccc(-c2c3nc(c(-c4c(F)c(F)c(F)c(F)c4F)c4ccc([nH]4)c(-c4c(F)c(F)c(F)c(F)c4F)c4nc(c(-c5c(F)c(F)c(F)c(F)c5F)c5ccc2[nH]5)C=C4)C=C3)cc1)[C@@H](C)[NH2+]Cc1ccc(F)c(F)c1
REMARK SMILES IDX 7 1 6 2 5 3 3 4 4 5 2 7 1 8 78 9 79 10 80 11 81 14 82 15
REMARK SMILES IDX 83 16 89 17 84 18 87 19 85 20 88 21 86 22 8 23 9 24 10 25
REMARK SMILES IDX 11 26 12 27 13 28 14 30 15 31 16 32 77 33 17 34 76 35 18 36
REMARK SMILES IDX 19 37 20 38 70 39 21 40 75 41 69 42 71 43 22 44 74 45 68 46
REMARK SMILES IDX 67 47 23 49 55 50 35 51 54 52 36 53 39 54 53 55 72 56 37 57
REMARK SMILES IDX 38 58 52 60 73 61 40 62 24 63 25 64 33 65 26 66 27 67 31 68
REMARK SMILES IDX 34 69 28 70 29 71 32 72 30 73 56 74 57 75 65 76 58 77 59 78
REMARK SMILES IDX 63 79 66 80 60 81 61 82 64 83 62 84 41 85 42 86 50 87 43 88
REMARK SMILES IDX 44 89 48 90 51 91 45 92 46 93 49 94 47 95
REMARK H PARENT 5 6 80 12 80 13 12 29 71 48 39 59
REMARK Flexibility Score: inf
ROOT
ATOM      1  C   UNL A   1      35.694  31.681  28.151  1.00  0.00     0.021 C 
ENDROOT
BRANCH   1   2
ATOM      2  C   UNL A   1      35.163  30.352  27.621  1.00  0.00     0.116 C 
BRANCH   2   3
ATOM      3  N   UNL A   1      34.022  30.500  26.735  1.00  0.00    -0.356 N 
ATOM      4  C   UNL A   1      32.949  29.724  26.429  1.00  0.00     0.228 C 
ATOM      5  O   UNL A   1      32.094  30.263  25.714  1.00  0.00    -0.275 OA
ATOM      6  H   UNL A   1      34.028  31.353  26.244  1.00  0.00     0.163 HD
BRANCH   4   7
ATOM      7  C   UNL A   1      32.763  28.247  26.819  1.00  0.00     0.133 C 
ATOM      8  C   UNL A   1      31.438  28.128  27.576  1.00  0.00     0.024 C 
BRANCH   7   9
ATOM      9  C   UNL A   1      32.942  27.200  25.700  1.00  0.00     0.191 C 
ATOM     10  C   UNL A   1      32.381  25.842  26.160  1.00  0.00     0.076 C 
BRANCH   9  11
ATOM     11  N   UNL A   1      32.340  27.637  24.421  1.00  0.00    -0.340 N 
ATOM     12  H   UNL A   1      32.997  27.427  23.670  1.00  0.00     0.346 HD
ATOM     13  H   UNL A   1      32.151  28.636  24.513  1.00  0.00     0.346 HD
BRANCH  11  14
ATOM     14  C   UNL A   1      31.055  26.992  24.103  1.00  0.00     0.297 C 
BRANCH  14  15
ATOM     15  C   UNL A   1      30.118  27.879  23.317  1.00  0.00     0.009 A 
ATOM     16  C   UNL A   1      30.629  28.942  22.552  1.00  0.00     0.013 A 
ATOM     17  C   UNL A   1      28.726  27.736  23.446  1.00  0.00     0.052 A 
ATOM     18  C   UNL A   1      29.767  29.885  21.988  1.00  0.00     0.043 A 
ATOM     19  C   UNL A   1      27.877  28.688  22.890  1.00  0.00     0.159 A 
ATOM     20  C   UNL A   1      28.395  29.763  22.178  1.00  0.00     0.158 A 
ATOM     21  F   UNL A   1      26.557  28.589  23.099  1.00  0.00    -0.204 F 
ATOM     22  F   UNL A   1      27.578  30.706  21.691  1.00  0.00    -0.204 F 
ENDBRANCH  14  15
ENDBRANCH  11  14
ENDBRANCH   9  11
ENDBRANCH   7   9
ENDBRANCH   4   7
ENDBRANCH   2   3
ENDBRANCH   1   2
BRANCH   1  23
ATOM     23  C   UNL A   1      34.744  32.462  29.057  1.00  0.00     0.002 C 
BRANCH  23  24
ATOM     24  C   UNL A   1      34.796  33.987  28.916  1.00  0.00     0.002 C 
BRANCH  24  25
ATOM     25  C   UNL A   1      33.444  34.702  28.829  1.00  0.00     0.021 C 
BRANCH  25  26
ATOM     26  C   UNL A   1      33.362  36.064  29.516  1.00  0.00     0.116 C 
BRANCH  26  27
ATOM     27  N   UNL A   1      32.419  36.085  30.621  1.00  0.00    -0.352 N 
ATOM     28  C   UNL A   1      32.513  35.555  31.882  1.00  0.00     0.251 C 
ATOM     29  H   UNL A   1      31.574  36.556  30.433  1.00  0.00     0.163 HD
ATOM     30  O   UNL A   1      31.534  35.577  32.622  1.00  0.00    -0.269 OA
BRANCH  28  31
ATOM     31  C   UNL A   1      33.770  34.932  32.361  1.00  0.00     0.039 A 
ATOM     32  C   UNL A   1      33.704  33.639  32.890  1.00  0.00     0.014 A 
ATOM     33  C   UNL A   1      34.992  35.610  32.341  1.00  0.00     0.014 A 
ATOM     34  C   UNL A   1      34.865  33.010  33.348  1.00  0.00     0.010 A 
ATOM     35  C   UNL A   1      36.161  34.959  32.741  1.00  0.00     0.010 A 
ATOM     36  C   UNL A   1      36.110  33.652  33.249  1.00  0.00    -0.014 A 
BRANCH  36  37
ATOM     37  C   UNL A   1      37.354  32.951  33.660  1.00  0.00     0.031 A 
ATOM     38  C   UNL A   1      37.996  31.927  32.766  1.00  0.00     0.074 A 
ATOM     39  C   UNL A   1      37.895  33.224  34.864  1.00  0.00     0.049 A 
ATOM     40  N   UNL A   1      39.082  31.222  32.962  1.00  0.00    -0.248 NA
ATOM     41  C   UNL A   1      37.319  31.642  31.492  1.00  0.00     0.031 C 
ATOM     42  C   UNL A   1      37.339  34.153  35.848  1.00  0.00     0.029 A 
ATOM     43  N   UNL A   1      39.032  32.745  35.467  1.00  0.00    -0.354 N 
ATOM     44  C   UNL A   1      39.221  30.417  31.839  1.00  0.00     0.074 A 
ATOM     45  C   UNL A   1      38.076  30.675  30.992  1.00  0.00     0.031 C 
ATOM     46  C   UNL A   1      38.145  34.192  36.921  1.00  0.00     0.029 A 
ATOM     47  C   UNL A   1      39.260  33.274  36.713  1.00  0.00     0.049 A 
ATOM     48  H   UNL A   1      39.628  32.084  35.044  1.00  0.00     0.167 HD
ATOM     49  C   UNL A   1      40.225  29.560  31.529  1.00  0.00     0.037 A 
ATOM     50  C   UNL A   1      40.256  33.047  37.589  1.00  0.00     0.037 A 
ATOM     51  C   UNL A   1      41.369  29.308  32.368  1.00  0.00     0.049 A 
ATOM     52  C   UNL A   1      41.363  32.099  37.216  1.00  0.00     0.074 A 
ATOM     53  C   UNL A   1      42.451  28.481  32.126  1.00  0.00     0.029 A 
ATOM     54  N   UNL A   1      41.577  29.885  33.612  1.00  0.00    -0.354 N 
ATOM     55  N   UNL A   1      41.514  31.392  36.122  1.00  0.00    -0.248 NA
ATOM     56  C   UNL A   1      42.447  31.929  38.193  1.00  0.00     0.031 C 
ATOM     57  C   UNL A   1      43.300  28.530  33.238  1.00  0.00     0.029 A 
ATOM     58  C   UNL A   1      42.767  29.422  34.154  1.00  0.00     0.049 A 
ATOM     59  H   UNL A   1      40.972  30.528  34.046  1.00  0.00     0.167 HD
ATOM     60  C   UNL A   1      42.714  30.711  36.270  1.00  0.00     0.074 A 
ATOM     61  C   UNL A   1      43.265  31.110  37.548  1.00  0.00     0.031 C 
ATOM     62  C   UNL A   1      43.304  29.828  35.428  1.00  0.00     0.037 A 
BRANCH  49  63
ATOM     63  C   UNL A   1      40.142  28.842  30.214  1.00  0.00     0.064 A 
ATOM     64  C   UNL A   1      40.724  29.376  29.053  1.00  0.00     0.173 A 
ATOM     65  C   UNL A   1      39.525  27.586  30.119  1.00  0.00     0.173 A 
ATOM     66  F   UNL A   1      41.318  30.579  29.088  1.00  0.00    -0.203 F 
ATOM     67  C   UNL A   1      40.672  28.689  27.843  1.00  0.00     0.198 A 
ATOM     68  C   UNL A   1      39.499  26.889  28.913  1.00  0.00     0.198 A 
ATOM     69  F   UNL A   1      38.959  27.026  31.198  1.00  0.00    -0.203 F 
ATOM     70  F   UNL A   1      41.200  29.239  26.740  1.00  0.00    -0.200 F 
ATOM     71  C   UNL A   1      40.068  27.444  27.775  1.00  0.00     0.200 A 
ATOM     72  F   UNL A   1      38.926  25.679  28.851  1.00  0.00    -0.200 F 
ATOM     73  F   UNL A   1      40.028  26.779  26.612  1.00  0.00    -0.200 F 
ENDBRANCH  49  63
BRANCH  50  74
ATOM     74  C   UNL A   1      40.266  33.746  38.901  1.00  0.00     0.064 A 
ATOM     75  C   UNL A   1      41.042  34.895  39.103  1.00  0.00     0.173 A 
ATOM     76  C   UNL A   1      39.512  33.269  39.983  1.00  0.00     0.173 A 
ATOM     77  F   UNL A   1      41.796  35.378  38.104  1.00  0.00    -0.203 F 
ATOM     78  C   UNL A   1      41.084  35.525  40.345  1.00  0.00     0.198 A 
ATOM     79  C   UNL A   1      39.532  33.917  41.216  1.00  0.00     0.198 A 
ATOM     80  F   UNL A   1      38.748  32.175  39.840  1.00  0.00    -0.203 F 
ATOM     81  F   UNL A   1      41.876  36.591  40.525  1.00  0.00    -0.200 F 
ATOM     82  C   UNL A   1      40.326  35.038  41.399  1.00  0.00     0.200 A 
ATOM     83  F   UNL A   1      38.787  33.452  42.228  1.00  0.00    -0.200 F 
ATOM     84  F   UNL A   1      40.368  35.645  42.593  1.00  0.00    -0.200 F 
ENDBRANCH  50  74
BRANCH  62  85
ATOM     85  C   UNL A   1      44.622  29.254  35.855  1.00  0.00     0.064 A 
ATOM     86  C   UNL A   1      44.700  28.060  36.586  1.00  0.00     0.173 A 
ATOM     87  C   UNL A   1      45.822  29.897  35.517  1.00  0.00     0.173 A 
ATOM     88  F   UNL A   1      43.580  27.415  36.946  1.00  0.00    -0.203 F 
ATOM     89  C   UNL A   1      45.930  27.549  36.994  1.00  0.00     0.198 A 
ATOM     90  C   UNL A   1      47.052  29.368  35.901  1.00  0.00     0.198 A 
ATOM     91  F   UNL A   1      45.804  31.039  34.813  1.00  0.00    -0.203 F 
ATOM     92  F   UNL A   1      45.977  26.437  37.741  1.00  0.00    -0.200 F 
ATOM     93  C   UNL A   1      47.103  28.200  36.647  1.00  0.00     0.200 A 
ATOM     94  F   UNL A   1      48.186  29.992  35.555  1.00  0.00    -0.200 F 
ATOM     95  F   UNL A   1      48.286  27.707  37.041  1.00  0.00    -0.200 F 
ENDBRANCH  62  85
ENDBRANCH  36  37
ENDBRANCH  28  31
ENDBRANCH  26  27
ENDBRANCH  25  26
ENDBRANCH  24  25
ENDBRANCH  23  24
ENDBRANCH   1  23
TORSDOF 17
ENDMDL
