MODEL 1
REMARK VINA RESULT:     -11.7      0.000      0.000
REMARK SMILES CSCC[C@H](NC(=O)Cc1c(C)c2cc(Cl)c(O)cc2oc1=O)C(=O)NCCCCCCNC(=O)c1ccc(-c2c3nc(c(-c4c(F)c(F)c(F)c(F)c4F)c4ccc([nH]4)c(-c4c(F)c(F)c(F)c(F)c4F)c4nc(c(-c5c(F)c(F)c(F)c(F)c5F)c5ccc2[nH]5)C=C4)C=C3)cc1
REMARK SMILES IDX 28 1 27 2 26 3 24 4 25 5 5 7 4 8 3 9 2 10 1 11 6 12 7 13
REMARK SMILES IDX 8 15 9 16 10 17 11 18 22 19 12 20 13 21 21 22 23 23 14 24
REMARK SMILES IDX 20 25 15 26 19 27 16 28 17 29 18 30 29 32 30 33 31 34 32 35
REMARK SMILES IDX 33 36 34 37 35 39 36 40 37 41 98 42 38 43 97 44 39 45 40 46
REMARK SMILES IDX 41 47 91 48 42 49 96 50 90 51 92 52 43 53 95 54 89 55 88 56
REMARK SMILES IDX 44 58 76 59 56 60 75 61 57 62 60 63 74 64 93 65 58 66 59 67
REMARK SMILES IDX 73 69 94 70 61 71 45 72 46 73 54 74 47 75 48 76 52 77 55 78
REMARK SMILES IDX 49 79 50 80 53 81 51 82 77 83 78 84 86 85 79 86 80 87 84 88
REMARK SMILES IDX 87 89 81 90 82 91 85 92 83 93 62 94 63 95 71 96 64 97 65 98
REMARK SMILES IDX 69 99 72 100 66 101 67 102 70 103 68 104
REMARK H PARENT 26 6 6 14 18 31 33 38 92 57 60 68
REMARK Flexibility Score: inf
ROOT
ATOM      1  C   UNL A   1      34.770  29.268  27.197  1.00  0.00     0.021 C 
ENDROOT
BRANCH   1   2
ATOM      2  C   UNL A   1      34.008  28.240  26.361  1.00  0.00     0.116 C 
BRANCH   2   3
ATOM      3  N   UNL A   1      34.127  28.386  24.928  1.00  0.00    -0.354 N 
ATOM      4  C   UNL A   1      33.130  28.582  24.011  1.00  0.00     0.242 C 
ATOM      5  O   UNL A   1      33.430  29.231  23.002  1.00  0.00    -0.273 OA
ATOM      6  H   UNL A   1      35.041  28.336  24.564  1.00  0.00     0.163 HD
BRANCH   4   7
ATOM      7  C   UNL A   1      31.655  28.089  24.202  1.00  0.00     0.172 C 
BRANCH   7   8
ATOM      8  C   UNL A   1      30.648  29.172  23.811  1.00  0.00     0.046 C 
BRANCH   8   9
ATOM      9  C   UNL A   1      29.906  28.907  22.492  1.00  0.00     0.072 C 
BRANCH   9  10
ATOM     10  S   UNL A   1      29.046  30.391  21.845  1.00  0.00    -0.165 SA
ATOM     11  C   UNL A   1      27.701  30.558  23.048  1.00  0.00     0.085 C 
ENDBRANCH   9  10
ENDBRANCH   8   9
ENDBRANCH   7   8
BRANCH   7  12
ATOM     12  N   UNL A   1      31.392  27.291  25.410  1.00  0.00    -0.344 N 
ATOM     13  C   UNL A   1      31.219  26.000  25.781  1.00  0.00     0.225 C 
ATOM     14  H   UNL A   1      31.319  27.881  26.196  1.00  0.00     0.164 HD
ATOM     15  O   UNL A   1      31.201  25.809  27.004  1.00  0.00    -0.275 OA
BRANCH  13  16
ATOM     16  C   UNL A   1      31.084  24.801  24.830  1.00  0.00     0.143 C 
BRANCH  16  17
ATOM     17  C   UNL A   1      31.918  23.592  25.184  1.00  0.00     0.051 A 
ATOM     18  C   UNL A   1      33.265  23.482  25.104  1.00  0.00    -0.029 A 
ATOM     19  C   UNL A   1      31.144  22.455  25.729  1.00  0.00     0.340 A 
ATOM     20  C   UNL A   1      34.186  24.640  24.833  1.00  0.00     0.046 C 
ATOM     21  C   UNL A   1      33.878  22.135  25.188  1.00  0.00     0.023 A 
ATOM     22  O   UNL A   1      31.672  21.198  25.518  1.00  0.00    -0.422 OA
ATOM     23  O   UNL A   1      30.047  22.599  26.255  1.00  0.00    -0.246 OA
ATOM     24  C   UNL A   1      35.249  21.872  25.083  1.00  0.00     0.036 A 
ATOM     25  C   UNL A   1      33.030  21.033  25.236  1.00  0.00     0.142 A 
ATOM     26  C   UNL A   1      35.720  20.557  24.947  1.00  0.00     0.083 A 
ATOM     27  C   UNL A   1      33.468  19.719  25.060  1.00  0.00     0.095 A 
ATOM     28  Cl  UNL A   1      37.422  20.299  24.821  1.00  0.00    -0.080 Cl
ATOM     29  C   UNL A   1      34.824  19.487  24.889  1.00  0.00     0.137 A 
BRANCH  29  30
ATOM     30  O   UNL A   1      35.273  18.214  24.673  1.00  0.00    -0.506 OA
ATOM     31  H   UNL A   1      34.704  17.577  24.286  1.00  0.00     0.293 HD
ENDBRANCH  29  30
ENDBRANCH  16  17
ENDBRANCH  13  16
ENDBRANCH   7  12
ENDBRANCH   4   7
ENDBRANCH   2   3
ENDBRANCH   1   2
BRANCH   1  32
ATOM     32  C   UNL A   1      33.976  30.521  27.604  1.00  0.00     0.002 C 
BRANCH  32  33
ATOM     33  C   UNL A   1      32.481  30.560  27.253  1.00  0.00     0.002 C 
BRANCH  33  34
ATOM     34  C   UNL A   1      31.834  31.941  27.162  1.00  0.00     0.021 C 
BRANCH  34  35
ATOM     35  C   UNL A   1      32.757  33.103  26.835  1.00  0.00     0.116 C 
BRANCH  35  36
ATOM     36  N   UNL A   1      32.440  34.304  27.590  1.00  0.00    -0.352 N 
ATOM     37  C   UNL A   1      32.974  34.812  28.752  1.00  0.00     0.251 C 
ATOM     38  H   UNL A   1      31.718  34.849  27.203  1.00  0.00     0.163 HD
ATOM     39  O   UNL A   1      32.424  35.770  29.291  1.00  0.00    -0.269 OA
BRANCH  37  40
ATOM     40  C   UNL A   1      34.178  34.218  29.385  1.00  0.00     0.039 A 
ATOM     41  C   UNL A   1      35.469  34.609  29.030  1.00  0.00     0.014 A 
ATOM     42  C   UNL A   1      34.010  33.271  30.405  1.00  0.00     0.014 A 
ATOM     43  C   UNL A   1      36.572  33.938  29.553  1.00  0.00     0.010 A 
ATOM     44  C   UNL A   1      35.124  32.673  31.008  1.00  0.00     0.010 A 
ATOM     45  C   UNL A   1      36.418  32.970  30.558  1.00  0.00    -0.014 A 
BRANCH  45  46
ATOM     46  C   UNL A   1      37.622  32.305  31.128  1.00  0.00     0.031 A 
ATOM     47  C   UNL A   1      38.096  32.621  32.523  1.00  0.00     0.074 A 
ATOM     48  C   UNL A   1      38.261  31.363  30.404  1.00  0.00     0.049 A 
ATOM     49  N   UNL A   1      39.121  32.134  33.178  1.00  0.00    -0.248 NA
ATOM     50  C   UNL A   1      37.322  33.616  33.282  1.00  0.00     0.031 C 
ATOM     51  C   UNL A   1      37.894  30.954  29.047  1.00  0.00     0.029 A 
ATOM     52  N   UNL A   1      39.325  30.553  30.714  1.00  0.00    -0.354 N 
ATOM     53  C   UNL A   1      39.123  32.771  34.413  1.00  0.00     0.074 A 
ATOM     54  C   UNL A   1      38.018  33.704  34.407  1.00  0.00     0.031 C 
ATOM     55  C   UNL A   1      38.667  29.925  28.671  1.00  0.00     0.029 A 
ATOM     56  C   UNL A   1      39.635  29.649  29.726  1.00  0.00     0.049 A 
ATOM     57  H   UNL A   1      39.820  30.614  31.563  1.00  0.00     0.167 HD
ATOM     58  C   UNL A   1      39.961  32.581  35.461  1.00  0.00     0.037 A 
ATOM     59  C   UNL A   1      40.598  28.710  29.668  1.00  0.00     0.037 A 
ATOM     60  C   UNL A   1      41.045  31.633  35.475  1.00  0.00     0.049 A 
ATOM     61  C   UNL A   1      41.545  28.559  30.824  1.00  0.00     0.074 A 
ATOM     62  C   UNL A   1      41.948  31.370  36.491  1.00  0.00     0.029 A 
ATOM     63  N   UNL A   1      41.369  30.784  34.426  1.00  0.00    -0.354 N 
ATOM     64  N   UNL A   1      41.546  29.183  31.976  1.00  0.00    -0.248 NA
ATOM     65  C   UNL A   1      42.636  27.587  30.664  1.00  0.00     0.031 C 
ATOM     66  C   UNL A   1      42.839  30.390  36.044  1.00  0.00     0.029 A 
ATOM     67  C   UNL A   1      42.466  30.009  34.766  1.00  0.00     0.049 A 
ATOM     68  H   UNL A   1      40.889  30.740  33.567  1.00  0.00     0.167 HD
ATOM     69  C   UNL A   1      42.626  28.675  32.682  1.00  0.00     0.074 A 
ATOM     70  C   UNL A   1      43.245  27.673  31.838  1.00  0.00     0.031 C 
ATOM     71  C   UNL A   1      43.070  29.015  33.916  1.00  0.00     0.037 A 
BRANCH  58  72
ATOM     72  C   UNL A   1      39.747  33.414  36.692  1.00  0.00     0.064 A 
ATOM     73  C   UNL A   1      40.415  34.633  36.878  1.00  0.00     0.173 A 
ATOM     74  C   UNL A   1      38.808  33.027  37.660  1.00  0.00     0.173 A 
ATOM     75  F   UNL A   1      41.330  35.044  35.986  1.00  0.00    -0.203 F 
ATOM     76  C   UNL A   1      40.160  35.428  37.992  1.00  0.00     0.198 A 
ATOM     77  C   UNL A   1      38.535  33.836  38.760  1.00  0.00     0.198 A 
ATOM     78  F   UNL A   1      38.134  31.874  37.526  1.00  0.00    -0.203 F 
ATOM     79  F   UNL A   1      40.832  36.575  38.164  1.00  0.00    -0.200 F 
ATOM     80  C   UNL A   1      39.215  35.034  38.927  1.00  0.00     0.200 A 
ATOM     81  F   UNL A   1      37.612  33.461  39.655  1.00  0.00    -0.200 F 
ATOM     82  F   UNL A   1      38.958  35.808  39.991  1.00  0.00    -0.200 F 
ENDBRANCH  58  72
BRANCH  59  83
ATOM     83  C   UNL A   1      40.706  27.839  28.468  1.00  0.00     0.064 A 
ATOM     84  C   UNL A   1      40.053  26.601  28.417  1.00  0.00     0.173 A 
ATOM     85  C   UNL A   1      41.443  28.235  27.342  1.00  0.00     0.173 A 
ATOM     86  F   UNL A   1      39.356  26.168  29.478  1.00  0.00    -0.203 F 
ATOM     87  C   UNL A   1      40.131  25.791  27.285  1.00  0.00     0.198 A 
ATOM     88  C   UNL A   1      41.497  27.439  26.200  1.00  0.00     0.198 A 
ATOM     89  F   UNL A   1      42.088  29.410  27.339  1.00  0.00    -0.203 F 
ATOM     90  F   UNL A   1      39.523  24.598  27.275  1.00  0.00    -0.200 F 
ATOM     91  C   UNL A   1      40.845  26.214  26.174  1.00  0.00     0.200 A 
ATOM     92  F   UNL A   1      42.174  27.859  25.123  1.00  0.00    -0.200 F 
ATOM     93  F   UNL A   1      40.909  25.443  25.081  1.00  0.00    -0.200 F 
ENDBRANCH  59  83
BRANCH  71  94
ATOM     94  C   UNL A   1      44.275  28.293  34.440  1.00  0.00     0.064 A 
ATOM     95  C   UNL A   1      45.566  28.815  34.278  1.00  0.00     0.173 A 
ATOM     96  C   UNL A   1      44.132  27.100  35.166  1.00  0.00     0.173 A 
ATOM     97  F   UNL A   1      45.755  29.944  33.578  1.00  0.00    -0.203 F 
ATOM     98  C   UNL A   1      46.673  28.161  34.812  1.00  0.00     0.198 A 
ATOM     99  C   UNL A   1      45.238  26.464  35.721  1.00  0.00     0.198 A 
ATOM    100  F   UNL A   1      42.916  26.565  35.353  1.00  0.00    -0.203 F 
ATOM    101  F   UNL A   1      47.901  28.659  34.617  1.00  0.00    -0.200 F 
ATOM    102  C   UNL A   1      46.507  26.993  35.540  1.00  0.00     0.200 A 
ATOM    103  F   UNL A   1      45.075  25.343  36.435  1.00  0.00    -0.200 F 
ATOM    104  F   UNL A   1      47.573  26.373  36.065  1.00  0.00    -0.200 F 
ENDBRANCH  71  94
ENDBRANCH  45  46
ENDBRANCH  37  40
ENDBRANCH  35  36
ENDBRANCH  34  35
ENDBRANCH  33  34
ENDBRANCH  32  33
ENDBRANCH   1  32
TORSDOF 20
ENDMDL
MODEL 2
REMARK VINA RESULT:     -11.6      1.957      2.830
REMARK SMILES CSCC[C@H](NC(=O)Cc1c(C)c2cc(Cl)c(O)cc2oc1=O)C(=O)NCCCCCCNC(=O)c1ccc(-c2c3nc(c(-c4c(F)c(F)c(F)c(F)c4F)c4ccc([nH]4)c(-c4c(F)c(F)c(F)c(F)c4F)c4nc(c(-c5c(F)c(F)c(F)c(F)c5F)c5ccc2[nH]5)C=C4)C=C3)cc1
REMARK SMILES IDX 28 1 27 2 26 3 24 4 25 5 5 7 4 8 3 9 2 10 1 11 6 12 7 13
REMARK SMILES IDX 8 15 9 16 10 17 11 18 22 19 12 20 13 21 21 22 23 23 14 24
REMARK SMILES IDX 20 25 15 26 19 27 16 28 17 29 18 30 29 32 30 33 31 34 32 35
REMARK SMILES IDX 33 36 34 37 35 39 36 40 37 41 98 42 38 43 97 44 39 45 40 46
REMARK SMILES IDX 41 47 91 48 42 49 96 50 90 51 92 52 43 53 95 54 89 55 88 56
REMARK SMILES IDX 44 58 76 59 56 60 75 61 57 62 60 63 74 64 93 65 58 66 59 67
REMARK SMILES IDX 73 69 94 70 61 71 45 72 46 73 54 74 47 75 48 76 52 77 55 78
REMARK SMILES IDX 49 79 50 80 53 81 51 82 77 83 78 84 86 85 79 86 80 87 84 88
REMARK SMILES IDX 87 89 81 90 82 91 85 92 83 93 62 94 63 95 71 96 64 97 65 98
REMARK SMILES IDX 69 99 72 100 66 101 67 102 70 103 68 104
REMARK H PARENT 26 6 6 14 18 31 33 38 92 57 60 68
REMARK Flexibility Score: inf
ROOT
ATOM      1  C   UNL A   1      35.197  31.095  27.690  1.00  0.00     0.021 C 
ENDROOT
BRANCH   1   2
ATOM      2  C   UNL A   1      34.522  29.736  27.502  1.00  0.00     0.116 C 
BRANCH   2   3
ATOM      3  N   UNL A   1      33.078  29.740  27.558  1.00  0.00    -0.354 N 
ATOM      4  C   UNL A   1      32.221  28.691  27.363  1.00  0.00     0.242 C 
ATOM      5  O   UNL A   1      31.153  28.730  27.986  1.00  0.00    -0.273 OA
ATOM      6  H   UNL A   1      32.657  30.607  27.760  1.00  0.00     0.163 HD
BRANCH   4   7
ATOM      7  C   UNL A   1      32.544  27.452  26.461  1.00  0.00     0.172 C 
BRANCH   7   8
ATOM      8  C   UNL A   1      32.749  27.859  25.001  1.00  0.00     0.046 C 
BRANCH   8   9
ATOM      9  C   UNL A   1      32.015  26.974  23.982  1.00  0.00     0.072 C 
BRANCH   9  10
ATOM     10  S   UNL A   1      33.117  26.342  22.661  1.00  0.00    -0.165 SA
ATOM     11  C   UNL A   1      31.918  26.034  21.336  1.00  0.00     0.085 C 
ENDBRANCH   9  10
ENDBRANCH   8   9
ENDBRANCH   7   8
BRANCH   7  12
ATOM     12  N   UNL A   1      31.777  26.228  26.747  1.00  0.00    -0.344 N 
ATOM     13  C   UNL A   1      31.863  24.888  26.573  1.00  0.00     0.225 C 
ATOM     14  H   UNL A   1      30.938  26.456  27.210  1.00  0.00     0.164 HD
ATOM     15  O   UNL A   1      31.005  24.230  27.177  1.00  0.00    -0.275 OA
BRANCH  13  16
ATOM     16  C   UNL A   1      32.926  24.155  25.742  1.00  0.00     0.143 C 
BRANCH  16  17
ATOM     17  C   UNL A   1      32.560  22.755  25.304  1.00  0.00     0.051 A 
ATOM     18  C   UNL A   1      32.867  21.599  25.936  1.00  0.00    -0.029 A 
ATOM     19  C   UNL A   1      31.724  22.698  24.085  1.00  0.00     0.340 A 
ATOM     20  C   UNL A   1      33.468  21.530  27.315  1.00  0.00     0.046 C 
ATOM     21  C   UNL A   1      32.703  20.320  25.206  1.00  0.00     0.023 A 
ATOM     22  O   UNL A   1      31.843  21.559  23.315  1.00  0.00    -0.422 OA
ATOM     23  O   UNL A   1      31.032  23.639  23.717  1.00  0.00    -0.246 OA
ATOM     24  C   UNL A   1      33.017  19.057  25.723  1.00  0.00     0.036 A 
ATOM     25  C   UNL A   1      32.342  20.376  23.863  1.00  0.00     0.142 A 
ATOM     26  C   UNL A   1      33.046  17.927  24.890  1.00  0.00     0.083 A 
ATOM     27  C   UNL A   1      32.403  19.276  23.006  1.00  0.00     0.095 A 
ATOM     28  Cl  UNL A   1      33.442  16.399  25.588  1.00  0.00    -0.080 Cl
ATOM     29  C   UNL A   1      32.783  18.048  23.524  1.00  0.00     0.137 A 
BRANCH  29  30
ATOM     30  O   UNL A   1      32.891  16.966  22.696  1.00  0.00    -0.506 OA
ATOM     31  H   UNL A   1      33.276  17.063  21.847  1.00  0.00     0.293 HD
ENDBRANCH  29  30
ENDBRANCH  16  17
ENDBRANCH  13  16
ENDBRANCH   7  12
ENDBRANCH   4   7
ENDBRANCH   2   3
ENDBRANCH   1   2
BRANCH   1  32
ATOM     32  C   UNL A   1      34.571  32.012  28.755  1.00  0.00     0.002 C 
BRANCH  32  33
ATOM     33  C   UNL A   1      34.634  33.528  28.512  1.00  0.00     0.002 C 
BRANCH  33  34
ATOM     34  C   UNL A   1      33.308  34.286  28.564  1.00  0.00     0.021 C 
BRANCH  34  35
ATOM     35  C   UNL A   1      33.363  35.714  29.082  1.00  0.00     0.116 C 
BRANCH  35  36
ATOM     36  N   UNL A   1      32.552  35.913  30.273  1.00  0.00    -0.352 N 
ATOM     37  C   UNL A   1      32.729  35.490  31.571  1.00  0.00     0.251 C 
ATOM     38  H   UNL A   1      31.736  36.442  30.125  1.00  0.00     0.163 HD
ATOM     39  O   UNL A   1      31.814  35.647  32.377  1.00  0.00    -0.269 OA
BRANCH  37  40
ATOM     40  C   UNL A   1      33.980  34.826  32.014  1.00  0.00     0.039 A 
ATOM     41  C   UNL A   1      35.190  35.513  32.103  1.00  0.00     0.014 A 
ATOM     42  C   UNL A   1      33.932  33.480  32.402  1.00  0.00     0.014 A 
ATOM     43  C   UNL A   1      36.365  34.827  32.399  1.00  0.00     0.010 A 
ATOM     44  C   UNL A   1      35.098  32.815  32.804  1.00  0.00     0.010 A 
ATOM     45  C   UNL A   1      36.336  33.472  32.766  1.00  0.00    -0.014 A 
BRANCH  45  46
ATOM     46  C   UNL A   1      37.606  32.780  33.121  1.00  0.00     0.031 A 
ATOM     47  C   UNL A   1      38.275  33.019  34.449  1.00  0.00     0.074 A 
ATOM     48  C   UNL A   1      38.131  31.882  32.263  1.00  0.00     0.049 A 
ATOM     49  N   UNL A   1      39.380  32.500  34.925  1.00  0.00    -0.248 NA
ATOM     50  C   UNL A   1      37.622  33.968  35.365  1.00  0.00     0.031 C 
ATOM     51  C   UNL A   1      37.572  31.548  30.951  1.00  0.00     0.029 A 
ATOM     52  N   UNL A   1      39.224  31.058  32.373  1.00  0.00    -0.354 N 
ATOM     53  C   UNL A   1      39.561  33.067  36.180  1.00  0.00     0.074 A 
ATOM     54  C   UNL A   1      38.472  33.996  36.383  1.00  0.00     0.031 C 
ATOM     55  C   UNL A   1      38.279  30.543  30.413  1.00  0.00     0.029 A 
ATOM     56  C   UNL A   1      39.386  30.212  31.302  1.00  0.00     0.049 A 
ATOM     57  H   UNL A   1      39.835  31.074  33.145  1.00  0.00     0.167 HD
ATOM     58  C   UNL A   1      40.539  32.822  37.086  1.00  0.00     0.037 A 
ATOM     59  C   UNL A   1      40.325  29.280  31.056  1.00  0.00     0.037 A 
ATOM     60  C   UNL A   1      41.609  31.878  36.893  1.00  0.00     0.049 A 
ATOM     61  C   UNL A   1      41.427  29.068  32.055  1.00  0.00     0.074 A 
ATOM     62  C   UNL A   1      42.645  31.561  37.754  1.00  0.00     0.029 A 
ATOM     63  N   UNL A   1      41.776  31.089  35.763  1.00  0.00    -0.354 N 
ATOM     64  N   UNL A   1      41.595  29.627  33.228  1.00  0.00    -0.248 NA
ATOM     65  C   UNL A   1      42.479  28.109  31.688  1.00  0.00     0.031 C 
ATOM     66  C   UNL A   1      43.459  30.610  37.131  1.00  0.00     0.029 A 
ATOM     67  C   UNL A   1      42.906  30.300  35.900  1.00  0.00     0.049 A 
ATOM     68  H   UNL A   1      41.178  31.091  34.980  1.00  0.00     0.167 HD
ATOM     69  C   UNL A   1      42.762  29.083  33.744  1.00  0.00     0.074 A 
ATOM     70  C   UNL A   1      43.249  28.132  32.767  1.00  0.00     0.031 C 
ATOM     71  C   UNL A   1      43.378  29.356  34.920  1.00  0.00     0.037 A 
BRANCH  58  72
ATOM     72  C   UNL A   1      40.506  33.585  38.379  1.00  0.00     0.064 A 
ATOM     73  C   UNL A   1      39.647  33.218  39.425  1.00  0.00     0.173 A 
ATOM     74  C   UNL A   1      41.394  34.648  38.602  1.00  0.00     0.173 A 
ATOM     75  F   UNL A   1      38.771  32.215  39.260  1.00  0.00    -0.203 F 
ATOM     76  C   UNL A   1      39.671  33.893  40.642  1.00  0.00     0.198 A 
ATOM     77  C   UNL A   1      41.434  35.304  39.829  1.00  0.00     0.198 A 
ATOM     78  F   UNL A   1      42.243  35.034  37.637  1.00  0.00    -0.203 F 
ATOM     79  F   UNL A   1      38.820  33.545  41.618  1.00  0.00    -0.200 F 
ATOM     80  C   UNL A   1      40.570  34.929  40.847  1.00  0.00     0.200 A 
ATOM     81  F   UNL A   1      42.313  36.295  40.031  1.00  0.00    -0.200 F 
ATOM     82  F   UNL A   1      40.603  35.567  42.025  1.00  0.00    -0.200 F 
ENDBRANCH  58  72
BRANCH  59  83
ATOM     83  C   UNL A   1      40.258  28.478  29.806  1.00  0.00     0.064 A 
ATOM     84  C   UNL A   1      40.919  28.898  28.645  1.00  0.00     0.173 A 
ATOM     85  C   UNL A   1      39.555  27.265  29.753  1.00  0.00     0.173 A 
ATOM     86  F   UNL A   1      41.585  30.063  28.639  1.00  0.00    -0.203 F 
ATOM     87  C   UNL A   1      40.879  28.138  27.478  1.00  0.00     0.198 A 
ATOM     88  C   UNL A   1      39.539  26.491  28.595  1.00  0.00     0.198 A 
ATOM     89  F   UNL A   1      38.904  26.817  30.836  1.00  0.00    -0.203 F 
ATOM     90  F   UNL A   1      41.494  28.579  26.372  1.00  0.00    -0.200 F 
ATOM     91  C   UNL A   1      40.198  26.930  27.456  1.00  0.00     0.200 A 
ATOM     92  F   UNL A   1      38.893  25.317  28.584  1.00  0.00    -0.200 F 
ATOM     93  F   UNL A   1      40.172  26.192  26.339  1.00  0.00    -0.200 F 
ENDBRANCH  59  83
BRANCH  71  94
ATOM     94  C   UNL A   1      44.642  28.610  35.226  1.00  0.00     0.064 A 
ATOM     95  C   UNL A   1      45.898  29.130  34.884  1.00  0.00     0.173 A 
ATOM     96  C   UNL A   1      44.599  27.393  35.924  1.00  0.00     0.173 A 
ATOM     97  F   UNL A   1      45.988  30.282  34.202  1.00  0.00    -0.203 F 
ATOM     98  C   UNL A   1      47.067  28.452  35.218  1.00  0.00     0.198 A 
ATOM     99  C   UNL A   1      45.771  26.731  36.279  1.00  0.00     0.198 A 
ATOM    100  F   UNL A   1      43.421  26.858  36.279  1.00  0.00    -0.203 F 
ATOM    101  F   UNL A   1      48.256  28.950  34.852  1.00  0.00    -0.200 F 
ATOM    102  C   UNL A   1      47.003  27.259  35.923  1.00  0.00     0.200 A 
ATOM    103  F   UNL A   1      45.708  25.586  36.971  1.00  0.00    -0.200 F 
ATOM    104  F   UNL A   1      48.130  26.616  36.255  1.00  0.00    -0.200 F 
ENDBRANCH  71  94
ENDBRANCH  45  46
ENDBRANCH  37  40
ENDBRANCH  35  36
ENDBRANCH  34  35
ENDBRANCH  33  34
ENDBRANCH  32  33
ENDBRANCH   1  32
TORSDOF 20
ENDMDL
MODEL 3
REMARK VINA RESULT:     -11.5      1.844      7.488
REMARK SMILES CSCC[C@H](NC(=O)Cc1c(C)c2cc(Cl)c(O)cc2oc1=O)C(=O)NCCCCCCNC(=O)c1ccc(-c2c3nc(c(-c4c(F)c(F)c(F)c(F)c4F)c4ccc([nH]4)c(-c4c(F)c(F)c(F)c(F)c4F)c4nc(c(-c5c(F)c(F)c(F)c(F)c5F)c5ccc2[nH]5)C=C4)C=C3)cc1
REMARK SMILES IDX 28 1 27 2 26 3 24 4 25 5 5 7 4 8 3 9 2 10 1 11 6 12 7 13
REMARK SMILES IDX 8 15 9 16 10 17 11 18 22 19 12 20 13 21 21 22 23 23 14 24
REMARK SMILES IDX 20 25 15 26 19 27 16 28 17 29 18 30 29 32 30 33 31 34 32 35
REMARK SMILES IDX 33 36 34 37 35 39 36 40 37 41 98 42 38 43 97 44 39 45 40 46
REMARK SMILES IDX 41 47 91 48 42 49 96 50 90 51 92 52 43 53 95 54 89 55 88 56
REMARK SMILES IDX 44 58 76 59 56 60 75 61 57 62 60 63 74 64 93 65 58 66 59 67
REMARK SMILES IDX 73 69 94 70 61 71 45 72 46 73 54 74 47 75 48 76 52 77 55 78
REMARK SMILES IDX 49 79 50 80 53 81 51 82 77 83 78 84 86 85 79 86 80 87 84 88
REMARK SMILES IDX 87 89 81 90 82 91 85 92 83 93 62 94 63 95 71 96 64 97 65 98
REMARK SMILES IDX 69 99 72 100 66 101 67 102 70 103 68 104
REMARK H PARENT 26 6 6 14 18 31 33 38 92 57 60 68
REMARK Flexibility Score: inf
ROOT
ATOM      1  C   UNL A   1      35.236  31.163  27.692  1.00  0.00     0.021 C 
ENDROOT
BRANCH   1   2
ATOM      2  C   UNL A   1      34.563  29.839  27.327  1.00  0.00     0.116 C 
BRANCH   2   3
ATOM      3  N   UNL A   1      33.121  29.821  27.424  1.00  0.00    -0.354 N 
ATOM      4  C   UNL A   1      32.277  28.754  27.276  1.00  0.00     0.242 C 
ATOM      5  O   UNL A   1      31.227  28.789  27.929  1.00  0.00    -0.273 OA
ATOM      6  H   UNL A   1      32.692  30.685  27.621  1.00  0.00     0.163 HD
BRANCH   4   7
ATOM      7  C   UNL A   1      32.595  27.501  26.390  1.00  0.00     0.172 C 
BRANCH   7   8
ATOM      8  C   UNL A   1      32.753  27.882  24.917  1.00  0.00     0.046 C 
BRANCH   8   9
ATOM      9  C   UNL A   1      31.677  28.841  24.387  1.00  0.00     0.072 C 
BRANCH   9  10
ATOM     10  S   UNL A   1      30.370  27.988  23.425  1.00  0.00    -0.165 SA
ATOM     11  C   UNL A   1      29.853  29.314  22.301  1.00  0.00     0.085 C 
ENDBRANCH   9  10
ENDBRANCH   8   9
ENDBRANCH   7   8
BRANCH   7  12
ATOM     12  N   UNL A   1      31.856  26.273  26.722  1.00  0.00    -0.344 N 
ATOM     13  C   UNL A   1      31.939  24.933  26.538  1.00  0.00     0.225 C 
ATOM     14  H   UNL A   1      31.048  26.493  27.238  1.00  0.00     0.164 HD
ATOM     15  O   UNL A   1      31.127  24.268  27.195  1.00  0.00    -0.275 OA
BRANCH  13  16
ATOM     16  C   UNL A   1      32.951  24.209  25.638  1.00  0.00     0.143 C 
BRANCH  16  17
ATOM     17  C   UNL A   1      32.569  22.807  25.224  1.00  0.00     0.051 A 
ATOM     18  C   UNL A   1      32.846  21.659  25.886  1.00  0.00    -0.029 A 
ATOM     19  C   UNL A   1      31.751  22.737  23.993  1.00  0.00     0.340 A 
ATOM     20  C   UNL A   1      33.423  21.610  27.275  1.00  0.00     0.046 C 
ATOM     21  C   UNL A   1      32.672  20.368  25.180  1.00  0.00     0.023 A 
ATOM     22  O   UNL A   1      31.863  21.580  23.249  1.00  0.00    -0.422 OA
ATOM     23  O   UNL A   1      31.082  23.681  23.593  1.00  0.00    -0.246 OA
ATOM     24  C   UNL A   1      32.956  19.111  25.729  1.00  0.00     0.036 A 
ATOM     25  C   UNL A   1      32.333  20.401  23.831  1.00  0.00     0.142 A 
ATOM     26  C   UNL A   1      32.979  17.963  24.921  1.00  0.00     0.083 A 
ATOM     27  C   UNL A   1      32.389  19.281  22.998  1.00  0.00     0.095 A 
ATOM     28  Cl  UNL A   1      33.337  16.445  25.658  1.00  0.00    -0.080 Cl
ATOM     29  C   UNL A   1      32.740  18.059  23.548  1.00  0.00     0.137 A 
BRANCH  29  30
ATOM     30  O   UNL A   1      32.843  16.957  22.746  1.00  0.00    -0.506 OA
ATOM     31  H   UNL A   1      32.584  17.008  21.847  1.00  0.00     0.293 HD
ENDBRANCH  29  30
ENDBRANCH  16  17
ENDBRANCH  13  16
ENDBRANCH   7  12
ENDBRANCH   4   7
ENDBRANCH   2   3
ENDBRANCH   1   2
BRANCH   1  32
ATOM     32  C   UNL A   1      34.528  31.997  28.774  1.00  0.00     0.002 C 
BRANCH  32  33
ATOM     33  C   UNL A   1      34.615  33.526  28.662  1.00  0.00     0.002 C 
BRANCH  33  34
ATOM     34  C   UNL A   1      33.293  34.292  28.681  1.00  0.00     0.021 C 
BRANCH  34  35
ATOM     35  C   UNL A   1      33.340  35.715  29.212  1.00  0.00     0.116 C 
BRANCH  35  36
ATOM     36  N   UNL A   1      32.582  35.884  30.440  1.00  0.00    -0.352 N 
ATOM     37  C   UNL A   1      32.788  35.390  31.708  1.00  0.00     0.251 C 
ATOM     38  H   UNL A   1      31.783  36.451  30.350  1.00  0.00     0.163 HD
ATOM     39  O   UNL A   1      31.910  35.541  32.555  1.00  0.00    -0.269 OA
BRANCH  37  40
ATOM     40  C   UNL A   1      34.027  34.658  32.070  1.00  0.00     0.039 A 
ATOM     41  C   UNL A   1      34.018  33.300  32.389  1.00  0.00     0.014 A 
ATOM     42  C   UNL A   1      35.250  35.342  32.043  1.00  0.00     0.014 A 
ATOM     43  C   UNL A   1      35.178  32.681  32.847  1.00  0.00     0.010 A 
ATOM     44  C   UNL A   1      36.437  34.689  32.401  1.00  0.00     0.010 A 
ATOM     45  C   UNL A   1      36.407  33.361  32.848  1.00  0.00    -0.014 A 
BRANCH  45  46
ATOM     46  C   UNL A   1      37.637  32.654  33.301  1.00  0.00     0.031 A 
ATOM     47  C   UNL A   1      38.339  31.667  32.405  1.00  0.00     0.074 A 
ATOM     48  C   UNL A   1      38.160  32.947  34.509  1.00  0.00     0.049 A 
ATOM     49  N   UNL A   1      39.422  30.966  32.635  1.00  0.00    -0.248 NA
ATOM     50  C   UNL A   1      37.750  31.434  31.077  1.00  0.00     0.031 C 
ATOM     51  C   UNL A   1      37.585  33.894  35.466  1.00  0.00     0.029 A 
ATOM     52  N   UNL A   1      39.307  32.513  35.127  1.00  0.00    -0.354 N 
ATOM     53  C   UNL A   1      39.633  30.201  31.495  1.00  0.00     0.074 A 
ATOM     54  C   UNL A   1      38.549  30.497  30.583  1.00  0.00     0.031 C 
ATOM     55  C   UNL A   1      38.414  34.025  36.511  1.00  0.00     0.029 A 
ATOM     56  C   UNL A   1      39.542  33.116  36.339  1.00  0.00     0.049 A 
ATOM     57  H   UNL A   1      39.904  31.832  34.738  1.00  0.00     0.167 HD
ATOM     58  C   UNL A   1      40.647  29.343  31.227  1.00  0.00     0.037 A 
ATOM     59  C   UNL A   1      40.545  32.951  37.220  1.00  0.00     0.037 A 
ATOM     60  C   UNL A   1      41.739  29.068  32.124  1.00  0.00     0.049 A 
ATOM     61  C   UNL A   1      41.628  31.954  36.920  1.00  0.00     0.074 A 
ATOM     62  C   UNL A   1      42.813  28.214  31.941  1.00  0.00     0.029 A 
ATOM     63  N   UNL A   1      41.903  29.650  33.374  1.00  0.00    -0.354 N 
ATOM     64  N   UNL A   1      41.802  31.224  35.845  1.00  0.00    -0.248 NA
ATOM     65  C   UNL A   1      42.643  31.743  37.962  1.00  0.00     0.031 C 
ATOM     66  C   UNL A   1      43.605  28.251  33.092  1.00  0.00     0.029 A 
ATOM     67  C   UNL A   1      43.051  29.161  33.976  1.00  0.00     0.049 A 
ATOM     68  H   UNL A   1      41.293  30.313  33.772  1.00  0.00     0.167 HD
ATOM     69  C   UNL A   1      42.947  30.477  36.075  1.00  0.00     0.074 A 
ATOM     70  C   UNL A   1      43.442  30.858  37.382  1.00  0.00     0.031 C 
ATOM     71  C   UNL A   1      43.531  29.551  35.277  1.00  0.00     0.037 A 
BRANCH  58  72
ATOM     72  C   UNL A   1      40.633  28.630  29.905  1.00  0.00     0.064 A 
ATOM     73  C   UNL A   1      39.854  27.483  29.699  1.00  0.00     0.173 A 
ATOM     74  C   UNL A   1      41.349  29.142  28.812  1.00  0.00     0.173 A 
ATOM     75  F   UNL A   1      39.159  26.948  30.714  1.00  0.00    -0.203 F 
ATOM     76  C   UNL A   1      39.800  26.867  28.451  1.00  0.00     0.198 A 
ATOM     77  C   UNL A   1      41.273  28.540  27.559  1.00  0.00     0.198 A 
ATOM     78  F   UNL A   1      42.104  30.242  28.953  1.00  0.00    -0.203 F 
ATOM     79  F   UNL A   1      39.071  25.755  28.285  1.00  0.00    -0.200 F 
ATOM     80  C   UNL A   1      40.501  27.401  27.380  1.00  0.00     0.200 A 
ATOM     81  F   UNL A   1      41.939  29.064  26.521  1.00  0.00    -0.200 F 
ATOM     82  F   UNL A   1      40.435  26.817  26.176  1.00  0.00    -0.200 F 
ENDBRANCH  58  72
BRANCH  59  83
ATOM     83  C   UNL A   1      40.569  33.756  38.470  1.00  0.00     0.064 A 
ATOM     84  C   UNL A   1      41.340  34.922  38.560  1.00  0.00     0.173 A 
ATOM     85  C   UNL A   1      39.804  33.391  39.589  1.00  0.00     0.173 A 
ATOM     86  F   UNL A   1      42.106  35.299  37.526  1.00  0.00    -0.203 F 
ATOM     87  C   UNL A   1      41.347  35.693  39.721  1.00  0.00     0.198 A 
ATOM     88  C   UNL A   1      39.789  34.177  40.738  1.00  0.00     0.198 A 
ATOM     89  F   UNL A   1      39.050  32.283  39.555  1.00  0.00    -0.203 F 
ATOM     90  F   UNL A   1      42.117  36.786  39.792  1.00  0.00    -0.200 F 
ATOM     91  C   UNL A   1      40.564  35.326  40.805  1.00  0.00     0.200 A 
ATOM     92  F   UNL A   1      39.019  33.828  41.777  1.00  0.00    -0.200 F 
ATOM     93  F   UNL A   1      40.559  36.075  41.916  1.00  0.00    -0.200 F 
ENDBRANCH  59  83
BRANCH  71  94
ATOM     94  C   UNL A   1      44.779  28.891  35.783  1.00  0.00     0.064 A 
ATOM     95  C   UNL A   1      44.724  27.731  36.568  1.00  0.00     0.173 A 
ATOM     96  C   UNL A   1      46.042  29.388  35.427  1.00  0.00     0.173 A 
ATOM     97  F   UNL A   1      43.539  27.228  36.947  1.00  0.00    -0.203 F 
ATOM     98  C   UNL A   1      45.890  27.099  36.991  1.00  0.00     0.198 A 
ATOM     99  C   UNL A   1      47.205  28.737  35.829  1.00  0.00     0.198 A 
ATOM    100  F   UNL A   1      46.147  30.491  34.671  1.00  0.00    -0.203 F 
ATOM    101  F   UNL A   1      45.815  26.010  37.769  1.00  0.00    -0.200 F 
ATOM    102  C   UNL A   1      47.128  27.596  36.614  1.00  0.00     0.200 A 
ATOM    103  F   UNL A   1      48.400  29.212  35.453  1.00  0.00    -0.200 F 
ATOM    104  F   UNL A   1      48.248  26.978  37.010  1.00  0.00    -0.200 F 
ENDBRANCH  71  94
ENDBRANCH  45  46
ENDBRANCH  37  40
ENDBRANCH  35  36
ENDBRANCH  34  35
ENDBRANCH  33  34
ENDBRANCH  32  33
ENDBRANCH   1  32
TORSDOF 20
ENDMDL
