MODEL 1
REMARK VINA RESULT:     -10.1      0.000      0.000
REMARK SMILES CCC(CC)(NC(=O)N(CCC#N)C1CC1)C(=O)NCCCCCCNC(=O)c1ccc(-c2c3nc(c(-c4c(F)c(F)c(F)c(F)c4F)c4ccc([nH]4)c(-c4c(F)c(F)c(F)c(F)c4F)c4nc(c(-c5c(F)c(F)c(F)c(F)c5F)c5ccc2[nH]5)C=C4)C=C3)cc1
REMARK SMILES IDX 21 1 20 2 19 3 17 4 18 5 3 7 2 8 1 9 4 10 5 11 6 12 7 13
REMARK SMILES IDX 8 15 9 16 10 17 11 18 12 19 13 20 14 21 15 22 16 23 22 24
REMARK SMILES IDX 23 25 24 26 25 27 26 28 27 29 28 31 29 32 30 33 91 34 31 35
REMARK SMILES IDX 90 36 32 37 33 38 34 39 84 40 35 41 89 42 83 43 85 44 36 45
REMARK SMILES IDX 88 46 82 47 81 48 37 50 69 51 49 52 68 53 50 54 53 55 67 56
REMARK SMILES IDX 86 57 51 58 52 59 66 61 87 62 54 63 38 64 39 65 47 66 40 67
REMARK SMILES IDX 41 68 45 69 48 70 42 71 43 72 46 73 44 74 70 75 71 76 79 77
REMARK SMILES IDX 72 78 73 79 77 80 80 81 74 82 75 83 78 84 76 85 55 86 56 87
REMARK SMILES IDX 64 88 57 89 58 90 62 91 65 92 59 93 60 94 63 95 61 96
REMARK H PARENT 19 6 6 14 26 30 85 49 53 60
REMARK Flexibility Score: inf
ROOT
ATOM      1  C   UNL A   1      33.703  28.970  27.136  1.00  0.00     0.021 C 
ENDROOT
BRANCH   1   2
ATOM      2  C   UNL A   1      33.532  27.938  26.023  1.00  0.00     0.116 C 
BRANCH   2   3
ATOM      3  N   UNL A   1      32.720  26.760  26.320  1.00  0.00    -0.354 N 
ATOM      4  C   UNL A   1      31.704  26.126  25.640  1.00  0.00     0.245 C 
ATOM      5  O   UNL A   1      31.301  25.057  26.107  1.00  0.00    -0.272 OA
ATOM      6  H   UNL A   1      32.944  26.333  27.179  1.00  0.00     0.163 HD
BRANCH   4   7
ATOM      7  C   UNL A   1      31.184  26.668  24.290  1.00  0.00     0.120 C 
BRANCH   7   8
ATOM      8  C   UNL A   1      30.899  28.192  24.163  1.00  0.00     0.035 C 
ATOM      9  C   UNL A   1      31.023  28.839  22.791  1.00  0.00     0.007 C 
ENDBRANCH   7   8
BRANCH   7  10
ATOM     10  C   UNL A   1      29.820  25.887  24.130  1.00  0.00     0.035 C 
ATOM     11  C   UNL A   1      28.551  26.676  23.859  1.00  0.00     0.007 C 
ENDBRANCH   7  10
BRANCH   7  12
ATOM     12  N   UNL A   1      32.181  26.337  23.243  1.00  0.00    -0.323 N 
ATOM     13  C   UNL A   1      33.109  25.388  22.963  1.00  0.00     0.318 C 
ATOM     14  H   UNL A   1      32.164  27.015  22.530  1.00  0.00     0.166 HD
ATOM     15  O   UNL A   1      33.917  25.785  22.114  1.00  0.00    -0.249 OA
BRANCH  13  16
ATOM     16  N   UNL A   1      33.083  24.072  23.412  1.00  0.00    -0.321 N 
BRANCH  16  17
ATOM     17  C   UNL A   1      31.971  23.092  23.243  1.00  0.00     0.137 C 
BRANCH  17  18
ATOM     18  C   UNL A   1      32.318  21.622  22.924  1.00  0.00     0.141 C 
BRANCH  18  19
ATOM     19  C   UNL A   1      32.227  20.691  24.053  1.00  0.00     0.064 C 
ATOM     20  N   UNL A   1      32.215  19.957  24.955  1.00  0.00    -0.198 NA
ENDBRANCH  18  19
ENDBRANCH  17  18
ENDBRANCH  16  17
BRANCH  16  21
ATOM     21  C   UNL A   1      34.076  23.621  24.421  1.00  0.00     0.087 C 
ATOM     22  C   UNL A   1      35.529  23.335  24.137  1.00  0.00     0.027 C 
ATOM     23  C   UNL A   1      35.147  24.488  25.023  1.00  0.00     0.027 C 
ENDBRANCH  16  21
ENDBRANCH  13  16
ENDBRANCH   7  12
ENDBRANCH   4   7
ENDBRANCH   2   3
ENDBRANCH   1   2
BRANCH   1  24
ATOM     24  C   UNL A   1      33.308  30.409  26.828  1.00  0.00     0.002 C 
BRANCH  24  25
ATOM     25  C   UNL A   1      31.809  30.670  26.814  1.00  0.00     0.002 C 
BRANCH  25  26
ATOM     26  C   UNL A   1      31.462  32.153  26.871  1.00  0.00     0.021 C 
BRANCH  26  27
ATOM     27  C   UNL A   1      32.683  33.060  26.901  1.00  0.00     0.116 C 
BRANCH  27  28
ATOM     28  N   UNL A   1      32.418  34.309  27.599  1.00  0.00    -0.352 N 
ATOM     29  C   UNL A   1      33.016  34.766  28.747  1.00  0.00     0.251 C 
ATOM     30  H   UNL A   1      31.733  34.894  27.201  1.00  0.00     0.163 HD
ATOM     31  O   UNL A   1      32.573  35.723  29.367  1.00  0.00    -0.269 OA
BRANCH  29  32
ATOM     32  C   UNL A   1      34.207  34.044  29.231  1.00  0.00     0.039 A 
ATOM     33  C   UNL A   1      35.476  34.543  28.938  1.00  0.00     0.014 A 
ATOM     34  C   UNL A   1      34.044  32.932  30.064  1.00  0.00     0.014 A 
ATOM     35  C   UNL A   1      36.591  33.950  29.529  1.00  0.00     0.010 A 
ATOM     36  C   UNL A   1      35.147  32.407  30.723  1.00  0.00     0.010 A 
ATOM     37  C   UNL A   1      36.433  32.900  30.451  1.00  0.00    -0.014 A 
BRANCH  37  38
ATOM     38  C   UNL A   1      37.601  32.276  31.120  1.00  0.00     0.031 A 
ATOM     39  C   UNL A   1      38.358  31.182  30.418  1.00  0.00     0.074 A 
ATOM     40  C   UNL A   1      37.945  32.651  32.368  1.00  0.00     0.049 A 
ATOM     41  N   UNL A   1      39.352  30.452  30.853  1.00  0.00    -0.248 NA
ATOM     42  C   UNL A   1      37.919  30.841  29.055  1.00  0.00     0.031 C 
ATOM     43  C   UNL A   1      37.266  33.674  33.164  1.00  0.00     0.029 A 
ATOM     44  N   UNL A   1      38.950  32.205  33.191  1.00  0.00    -0.354 N 
ATOM     45  C   UNL A   1      39.644  29.563  29.827  1.00  0.00     0.074 A 
ATOM     46  C   UNL A   1      38.685  29.798  28.773  1.00  0.00     0.031 C 
ATOM     47  C   UNL A   1      37.888  33.795  34.349  1.00  0.00     0.029 A 
ATOM     48  C   UNL A   1      38.975  32.824  34.418  1.00  0.00     0.049 A 
ATOM     49  H   UNL A   1      39.591  31.506  32.927  1.00  0.00     0.167 HD
ATOM     50  C   UNL A   1      40.639  28.649  29.761  1.00  0.00     0.037 A 
ATOM     51  C   UNL A   1      39.777  32.618  35.481  1.00  0.00     0.037 A 
ATOM     52  C   UNL A   1      41.607  28.437  30.804  1.00  0.00     0.049 A 
ATOM     53  C   UNL A   1      40.857  31.570  35.389  1.00  0.00     0.074 A 
ATOM     54  C   UNL A   1      42.689  27.576  30.810  1.00  0.00     0.029 A 
ATOM     55  N   UNL A   1      41.605  29.091  32.028  1.00  0.00    -0.354 N 
ATOM     56  N   UNL A   1      41.167  30.784  34.387  1.00  0.00    -0.248 NA
ATOM     57  C   UNL A   1      41.704  31.384  36.575  1.00  0.00     0.031 C 
ATOM     58  C   UNL A   1      43.299  27.655  32.065  1.00  0.00     0.029 A 
ATOM     59  C   UNL A   1      42.650  28.626  32.809  1.00  0.00     0.049 A 
ATOM     60  H   UNL A   1      40.958  29.780  32.300  1.00  0.00     0.167 HD
ATOM     61  C   UNL A   1      42.269  30.048  34.804  1.00  0.00     0.074 A 
ATOM     62  C   UNL A   1      42.580  30.487  36.147  1.00  0.00     0.031 C 
ATOM     63  C   UNL A   1      42.963  29.094  34.135  1.00  0.00     0.037 A 
BRANCH  50  64
ATOM     64  C   UNL A   1      40.739  27.804  28.524  1.00  0.00     0.064 A 
ATOM     65  C   UNL A   1      40.051  26.588  28.403  1.00  0.00     0.173 A 
ATOM     66  C   UNL A   1      41.480  28.252  27.420  1.00  0.00     0.173 A 
ATOM     67  F   UNL A   1      39.337  26.107  29.432  1.00  0.00    -0.203 F 
ATOM     68  C   UNL A   1      40.118  25.841  27.230  1.00  0.00     0.198 A 
ATOM     69  C   UNL A   1      41.516  27.520  26.236  1.00  0.00     0.198 A 
ATOM     70  F   UNL A   1      42.153  29.410  27.481  1.00  0.00    -0.203 F 
ATOM     71  F   UNL A   1      39.488  24.660  27.151  1.00  0.00    -0.200 F 
ATOM     72  C   UNL A   1      40.840  26.313  26.143  1.00  0.00     0.200 A 
ATOM     73  F   UNL A   1      42.199  27.988  25.182  1.00  0.00    -0.200 F 
ATOM     74  F   UNL A   1      40.886  25.604  25.007  1.00  0.00    -0.200 F 
ENDBRANCH  50  64
BRANCH  51  75
ATOM     75  C   UNL A   1      39.598  33.411  36.729  1.00  0.00     0.064 A 
ATOM     76  C   UNL A   1      38.681  33.017  37.714  1.00  0.00     0.173 A 
ATOM     77  C   UNL A   1      40.299  34.608  36.940  1.00  0.00     0.173 A 
ATOM     78  F   UNL A   1      37.971  31.889  37.555  1.00  0.00    -0.203 F 
ATOM     79  C   UNL A   1      38.440  33.808  38.836  1.00  0.00     0.198 A 
ATOM     80  C   UNL A   1      40.087  35.379  38.081  1.00  0.00     0.198 A 
ATOM     81  F   UNL A   1      41.195  35.031  36.036  1.00  0.00    -0.203 F 
ATOM     82  F   UNL A   1      37.503  33.443  39.721  1.00  0.00    -0.200 F 
ATOM     83  C   UNL A   1      39.146  34.986  39.021  1.00  0.00     0.200 A 
ATOM     84  F   UNL A   1      40.785  36.507  38.263  1.00  0.00    -0.200 F 
ATOM     85  F   UNL A   1      38.908  35.752  40.094  1.00  0.00    -0.200 F 
ENDBRANCH  51  75
BRANCH  63  86
ATOM     86  C   UNL A   1      44.170  28.507  34.809  1.00  0.00     0.064 A 
ATOM     87  C   UNL A   1      45.438  29.099  34.715  1.00  0.00     0.173 A 
ATOM     88  C   UNL A   1      44.038  27.361  35.611  1.00  0.00     0.173 A 
ATOM     89  F   UNL A   1      45.621  30.188  33.953  1.00  0.00    -0.203 F 
ATOM     90  C   UNL A   1      46.533  28.550  35.376  1.00  0.00     0.198 A 
ATOM     91  C   UNL A   1      45.127  26.840  36.302  1.00  0.00     0.198 A 
ATOM     92  F   UNL A   1      42.846  26.761  35.743  1.00  0.00    -0.203 F 
ATOM     93  F   UNL A   1      47.746  29.101  35.230  1.00  0.00    -0.200 F 
ATOM     94  C   UNL A   1      46.376  27.429  36.178  1.00  0.00     0.200 A 
ATOM     95  F   UNL A   1      44.966  25.770  37.093  1.00  0.00    -0.200 F 
ATOM     96  F   UNL A   1      47.429  26.912  36.826  1.00  0.00    -0.200 F 
ENDBRANCH  63  86
ENDBRANCH  37  38
ENDBRANCH  29  32
ENDBRANCH  27  28
ENDBRANCH  26  27
ENDBRANCH  25  26
ENDBRANCH  24  25
ENDBRANCH   1  24
TORSDOF 21
ENDMDL
MODEL 2
REMARK VINA RESULT:     -10.1      1.170      1.982
REMARK SMILES CCC(CC)(NC(=O)N(CCC#N)C1CC1)C(=O)NCCCCCCNC(=O)c1ccc(-c2c3nc(c(-c4c(F)c(F)c(F)c(F)c4F)c4ccc([nH]4)c(-c4c(F)c(F)c(F)c(F)c4F)c4nc(c(-c5c(F)c(F)c(F)c(F)c5F)c5ccc2[nH]5)C=C4)C=C3)cc1
REMARK SMILES IDX 21 1 20 2 19 3 17 4 18 5 3 7 2 8 1 9 4 10 5 11 6 12 7 13
REMARK SMILES IDX 8 15 9 16 10 17 11 18 12 19 13 20 14 21 15 22 16 23 22 24
REMARK SMILES IDX 23 25 24 26 25 27 26 28 27 29 28 31 29 32 30 33 91 34 31 35
REMARK SMILES IDX 90 36 32 37 33 38 34 39 84 40 35 41 89 42 83 43 85 44 36 45
REMARK SMILES IDX 88 46 82 47 81 48 37 50 69 51 49 52 68 53 50 54 53 55 67 56
REMARK SMILES IDX 86 57 51 58 52 59 66 61 87 62 54 63 38 64 39 65 47 66 40 67
REMARK SMILES IDX 41 68 45 69 48 70 42 71 43 72 46 73 44 74 70 75 71 76 79 77
REMARK SMILES IDX 72 78 73 79 77 80 80 81 74 82 75 83 78 84 76 85 55 86 56 87
REMARK SMILES IDX 64 88 57 89 58 90 62 91 65 92 59 93 60 94 63 95 61 96
REMARK H PARENT 19 6 6 14 26 30 85 49 53 60
REMARK Flexibility Score: inf
ROOT
ATOM      1  C   UNL A   1      34.095  29.218  26.395  1.00  0.00     0.021 C 
ENDROOT
BRANCH   1   2
ATOM      2  C   UNL A   1      33.890  27.709  26.524  1.00  0.00     0.116 C 
BRANCH   2   3
ATOM      3  N   UNL A   1      32.537  27.239  26.815  1.00  0.00    -0.354 N 
ATOM      4  C   UNL A   1      31.524  26.751  26.020  1.00  0.00     0.245 C 
ATOM      5  O   UNL A   1      30.526  26.308  26.596  1.00  0.00    -0.272 OA
ATOM      6  H   UNL A   1      32.304  27.278  27.770  1.00  0.00     0.163 HD
BRANCH   4   7
ATOM      7  C   UNL A   1      31.688  26.647  24.487  1.00  0.00     0.120 C 
BRANCH   7   8
ATOM      8  C   UNL A   1      33.126  26.608  23.896  1.00  0.00     0.035 C 
ATOM      9  C   UNL A   1      33.484  27.599  22.798  1.00  0.00     0.007 C 
ENDBRANCH   7   8
BRANCH   7  10
ATOM     10  C   UNL A   1      30.978  27.970  23.995  1.00  0.00     0.035 C 
ATOM     11  C   UNL A   1      29.669  27.859  23.231  1.00  0.00     0.007 C 
ENDBRANCH   7  10
BRANCH   7  12
ATOM     12  N   UNL A   1      31.010  25.409  24.031  1.00  0.00    -0.323 N 
ATOM     13  C   UNL A   1      31.234  24.072  23.968  1.00  0.00     0.318 C 
ATOM     14  H   UNL A   1      30.124  25.622  23.661  1.00  0.00     0.166 HD
ATOM     15  O   UNL A   1      30.465  23.525  23.167  1.00  0.00    -0.249 OA
BRANCH  13  16
ATOM     16  N   UNL A   1      32.077  23.351  24.806  1.00  0.00    -0.321 N 
BRANCH  16  17
ATOM     17  C   UNL A   1      33.486  22.948  24.525  1.00  0.00     0.137 C 
BRANCH  17  18
ATOM     18  C   UNL A   1      34.051  23.167  23.105  1.00  0.00     0.141 C 
BRANCH  18  19
ATOM     19  C   UNL A   1      35.509  23.078  22.984  1.00  0.00     0.064 C 
ATOM     20  N   UNL A   1      36.663  23.047  22.842  1.00  0.00    -0.198 NA
ENDBRANCH  18  19
ENDBRANCH  17  18
ENDBRANCH  16  17
BRANCH  16  21
ATOM     21  C   UNL A   1      31.507  22.617  25.965  1.00  0.00     0.087 C 
ATOM     22  C   UNL A   1      31.463  23.135  27.381  1.00  0.00     0.027 C 
ATOM     23  C   UNL A   1      30.187  22.927  26.615  1.00  0.00     0.027 C 
ENDBRANCH  16  21
ENDBRANCH  13  16
ENDBRANCH   7  12
ENDBRANCH   4   7
ENDBRANCH   2   3
ENDBRANCH   1   2
BRANCH   1  24
ATOM     24  C   UNL A   1      33.235  30.120  27.271  1.00  0.00     0.002 C 
BRANCH  24  25
ATOM     25  C   UNL A   1      31.918  30.553  26.643  1.00  0.00     0.002 C 
BRANCH  25  26
ATOM     26  C   UNL A   1      31.696  32.059  26.702  1.00  0.00     0.021 C 
BRANCH  26  27
ATOM     27  C   UNL A   1      32.781  32.802  27.467  1.00  0.00     0.116 C 
BRANCH  27  28
ATOM     28  N   UNL A   1      32.466  34.213  27.631  1.00  0.00    -0.352 N 
ATOM     29  C   UNL A   1      32.970  35.076  28.571  1.00  0.00     0.251 C 
ATOM     30  H   UNL A   1      31.818  34.592  26.993  1.00  0.00     0.163 HD
ATOM     31  O   UNL A   1      32.482  36.183  28.758  1.00  0.00    -0.269 OA
BRANCH  29  32
ATOM     32  C   UNL A   1      34.114  34.615  29.380  1.00  0.00     0.039 A 
ATOM     33  C   UNL A   1      33.882  34.052  30.634  1.00  0.00     0.014 A 
ATOM     34  C   UNL A   1      35.401  34.652  28.832  1.00  0.00     0.014 A 
ATOM     35  C   UNL A   1      34.946  33.473  31.325  1.00  0.00     0.010 A 
ATOM     36  C   UNL A   1      36.435  33.991  29.480  1.00  0.00     0.010 A 
ATOM     37  C   UNL A   1      36.223  33.409  30.739  1.00  0.00    -0.014 A 
BRANCH  37  38
ATOM     38  C   UNL A   1      37.363  32.767  31.439  1.00  0.00     0.031 A 
ATOM     39  C   UNL A   1      38.067  31.605  30.793  1.00  0.00     0.074 A 
ATOM     40  C   UNL A   1      37.725  33.186  32.668  1.00  0.00     0.049 A 
ATOM     41  N   UNL A   1      39.027  30.853  31.265  1.00  0.00    -0.248 NA
ATOM     42  C   UNL A   1      37.611  31.218  29.448  1.00  0.00     0.031 C 
ATOM     43  C   UNL A   1      37.095  34.278  33.412  1.00  0.00     0.029 A 
ATOM     44  N   UNL A   1      38.709  32.735  33.513  1.00  0.00    -0.354 N 
ATOM     45  C   UNL A   1      39.276  29.901  30.284  1.00  0.00     0.074 A 
ATOM     46  C   UNL A   1      38.328  30.128  29.219  1.00  0.00     0.031 C 
ATOM     47  C   UNL A   1      37.723  34.428  34.590  1.00  0.00     0.029 A 
ATOM     48  C   UNL A   1      38.765  33.412  34.708  1.00  0.00     0.049 A 
ATOM     49  H   UNL A   1      39.318  31.996  33.284  1.00  0.00     0.167 HD
ATOM     50  C   UNL A   1      40.229  28.941  30.264  1.00  0.00     0.037 A 
ATOM     51  C   UNL A   1      39.557  33.222  35.781  1.00  0.00     0.037 A 
ATOM     52  C   UNL A   1      41.187  28.736  31.317  1.00  0.00     0.049 A 
ATOM     53  C   UNL A   1      40.588  32.123  35.741  1.00  0.00     0.074 A 
ATOM     54  C   UNL A   1      42.228  27.828  31.367  1.00  0.00     0.029 A 
ATOM     55  N   UNL A   1      41.217  29.449  32.507  1.00  0.00    -0.354 N 
ATOM     56  N   UNL A   1      40.861  31.275  34.779  1.00  0.00    -0.248 NA
ATOM     57  C   UNL A   1      41.428  31.957  36.935  1.00  0.00     0.031 C 
ATOM     58  C   UNL A   1      42.844  27.940  32.616  1.00  0.00     0.029 A 
ATOM     59  C   UNL A   1      42.241  28.976  33.311  1.00  0.00     0.049 A 
ATOM     60  H   UNL A   1      40.603  30.180  32.744  1.00  0.00     0.167 HD
ATOM     61  C   UNL A   1      41.928  30.510  35.233  1.00  0.00     0.074 A 
ATOM     62  C   UNL A   1      42.260  31.001  36.553  1.00  0.00     0.031 C 
ATOM     63  C   UNL A   1      42.576  29.494  34.612  1.00  0.00     0.037 A 
BRANCH  50  64
ATOM     64  C   UNL A   1      40.288  28.033  29.070  1.00  0.00     0.064 A 
ATOM     65  C   UNL A   1      39.559  26.835  29.016  1.00  0.00     0.173 A 
ATOM     66  C   UNL A   1      41.032  28.399  27.939  1.00  0.00     0.173 A 
ATOM     67  F   UNL A   1      38.840  26.431  30.075  1.00  0.00    -0.203 F 
ATOM     68  C   UNL A   1      39.589  26.029  27.881  1.00  0.00     0.198 A 
ATOM     69  C   UNL A   1      41.031  27.608  26.793  1.00  0.00     0.198 A 
ATOM     70  F   UNL A   1      41.744  29.536  27.935  1.00  0.00    -0.203 F 
ATOM     71  F   UNL A   1      38.919  24.867  27.868  1.00  0.00    -0.200 F 
ATOM     72  C   UNL A   1      40.315  26.422  26.766  1.00  0.00     0.200 A 
ATOM     73  F   UNL A   1      41.719  28.000  25.711  1.00  0.00    -0.200 F 
ATOM     74  F   UNL A   1      40.326  25.655  25.667  1.00  0.00    -0.200 F 
ENDBRANCH  50  64
BRANCH  51  75
ATOM     75  C   UNL A   1      39.417  34.084  36.988  1.00  0.00     0.064 A 
ATOM     76  C   UNL A   1      40.076  35.318  37.078  1.00  0.00     0.173 A 
ATOM     77  C   UNL A   1      38.665  33.669  38.097  1.00  0.00     0.173 A 
ATOM     78  F   UNL A   1      40.824  35.755  36.052  1.00  0.00    -0.203 F 
ATOM     79  C   UNL A   1      40.027  36.081  38.244  1.00  0.00     0.198 A 
ATOM     80  C   UNL A   1      38.583  34.450  39.248  1.00  0.00     0.198 A 
ATOM     81  F   UNL A   1      38.006  32.501  38.065  1.00  0.00    -0.203 F 
ATOM     82  F   UNL A   1      40.730  37.218  38.328  1.00  0.00    -0.200 F 
ATOM     83  C   UNL A   1      39.277  35.648  39.326  1.00  0.00     0.200 A 
ATOM     84  F   UNL A   1      37.842  34.036  40.284  1.00  0.00    -0.200 F 
ATOM     85  F   UNL A   1      39.236  36.376  40.450  1.00  0.00    -0.200 F 
ENDBRANCH  51  75
BRANCH  63  86
ATOM     86  C   UNL A   1      43.756  28.886  35.315  1.00  0.00     0.064 A 
ATOM     87  C   UNL A   1      45.065  29.345  35.109  1.00  0.00     0.173 A 
ATOM     88  C   UNL A   1      43.561  27.863  36.258  1.00  0.00     0.173 A 
ATOM     89  F   UNL A   1      45.309  30.312  34.211  1.00  0.00    -0.203 F 
ATOM     90  C   UNL A   1      46.137  28.783  35.798  1.00  0.00     0.198 A 
ATOM     91  C   UNL A   1      44.630  27.333  36.973  1.00  0.00     0.198 A 
ATOM     92  F   UNL A   1      42.328  27.394  36.502  1.00  0.00    -0.203 F 
ATOM     93  F   UNL A   1      47.385  29.201  35.545  1.00  0.00    -0.200 F 
ATOM     94  C   UNL A   1      45.918  27.786  36.737  1.00  0.00     0.200 A 
ATOM     95  F   UNL A   1      44.411  26.385  37.896  1.00  0.00    -0.200 F 
ATOM     96  F   UNL A   1      46.949  27.259  37.411  1.00  0.00    -0.200 F 
ENDBRANCH  63  86
ENDBRANCH  37  38
ENDBRANCH  29  32
ENDBRANCH  27  28
ENDBRANCH  26  27
ENDBRANCH  25  26
ENDBRANCH  24  25
ENDBRANCH   1  24
TORSDOF 21
ENDMDL
MODEL 3
REMARK VINA RESULT:     -10.0      1.228      2.630
REMARK SMILES CCC(CC)(NC(=O)N(CCC#N)C1CC1)C(=O)NCCCCCCNC(=O)c1ccc(-c2c3nc(c(-c4c(F)c(F)c(F)c(F)c4F)c4ccc([nH]4)c(-c4c(F)c(F)c(F)c(F)c4F)c4nc(c(-c5c(F)c(F)c(F)c(F)c5F)c5ccc2[nH]5)C=C4)C=C3)cc1
REMARK SMILES IDX 21 1 20 2 19 3 17 4 18 5 3 7 2 8 1 9 4 10 5 11 6 12 7 13
REMARK SMILES IDX 8 15 9 16 10 17 11 18 12 19 13 20 14 21 15 22 16 23 22 24
REMARK SMILES IDX 23 25 24 26 25 27 26 28 27 29 28 31 29 32 30 33 91 34 31 35
REMARK SMILES IDX 90 36 32 37 33 38 34 39 84 40 35 41 89 42 83 43 85 44 36 45
REMARK SMILES IDX 88 46 82 47 81 48 37 50 69 51 49 52 68 53 50 54 53 55 67 56
REMARK SMILES IDX 86 57 51 58 52 59 66 61 87 62 54 63 38 64 39 65 47 66 40 67
REMARK SMILES IDX 41 68 45 69 48 70 42 71 43 72 46 73 44 74 70 75 71 76 79 77
REMARK SMILES IDX 72 78 73 79 77 80 80 81 74 82 75 83 78 84 76 85 55 86 56 87
REMARK SMILES IDX 64 88 57 89 58 90 62 91 65 92 59 93 60 94 63 95 61 96
REMARK H PARENT 19 6 6 14 26 30 85 49 53 60
REMARK Flexibility Score: inf
ROOT
ATOM      1  C   UNL A   1      31.116  28.634  25.243  1.00  0.00     0.021 C 
ENDROOT
BRANCH   1   2
ATOM      2  C   UNL A   1      30.532  28.334  23.864  1.00  0.00     0.116 C 
BRANCH   2   3
ATOM      3  N   UNL A   1      30.349  26.929  23.505  1.00  0.00    -0.354 N 
ATOM      4  C   UNL A   1      31.198  25.976  22.989  1.00  0.00     0.245 C 
ATOM      5  O   UNL A   1      30.766  24.821  22.919  1.00  0.00    -0.272 OA
ATOM      6  H   UNL A   1      29.436  26.597  23.665  1.00  0.00     0.163 HD
BRANCH   4   7
ATOM      7  C   UNL A   1      32.664  26.314  22.637  1.00  0.00     0.120 C 
BRANCH   7   8
ATOM      8  C   UNL A   1      32.974  27.707  22.018  1.00  0.00     0.035 C 
ATOM      9  C   UNL A   1      34.083  28.544  22.641  1.00  0.00     0.007 C 
ENDBRANCH   7   8
BRANCH   7  10
ATOM     10  C   UNL A   1      33.007  25.202  21.569  1.00  0.00     0.035 C 
ATOM     11  C   UNL A   1      32.590  25.419  20.125  1.00  0.00     0.007 C 
ENDBRANCH   7  10
BRANCH   7  12
ATOM     12  N   UNL A   1      33.474  26.214  23.876  1.00  0.00    -0.323 N 
ATOM     13  C   UNL A   1      33.652  25.377  24.929  1.00  0.00     0.318 C 
ATOM     14  H   UNL A   1      34.065  26.996  23.961  1.00  0.00     0.166 HD
ATOM     15  O   UNL A   1      34.214  25.951  25.870  1.00  0.00    -0.249 OA
BRANCH  13  16
ATOM     16  N   UNL A   1      33.416  24.006  24.923  1.00  0.00    -0.321 N 
BRANCH  16  17
ATOM     17  C   UNL A   1      32.723  23.215  25.980  1.00  0.00     0.137 C 
BRANCH  17  18
ATOM     18  C   UNL A   1      31.180  23.156  25.973  1.00  0.00     0.141 C 
BRANCH  18  19
ATOM     19  C   UNL A   1      30.497  24.423  26.251  1.00  0.00     0.064 C 
ATOM     20  N   UNL A   1      29.914  25.413  26.431  1.00  0.00    -0.198 NA
ENDBRANCH  18  19
ENDBRANCH  17  18
ENDBRANCH  16  17
BRANCH  16  21
ATOM     21  C   UNL A   1      34.155  23.139  23.970  1.00  0.00     0.087 C 
ATOM     22  C   UNL A   1      35.657  23.055  23.861  1.00  0.00     0.027 C 
ATOM     23  C   UNL A   1      34.869  21.868  24.337  1.00  0.00     0.027 C 
ENDBRANCH  16  21
ENDBRANCH  13  16
ENDBRANCH   7  12
ENDBRANCH   4   7
ENDBRANCH   2   3
ENDBRANCH   1   2
BRANCH   1  24
ATOM     24  C   UNL A   1      31.924  29.916  25.401  1.00  0.00     0.002 C 
BRANCH  24  25
ATOM     25  C   UNL A   1      31.919  30.506  26.804  1.00  0.00     0.002 C 
BRANCH  25  26
ATOM     26  C   UNL A   1      31.668  32.009  26.817  1.00  0.00     0.021 C 
BRANCH  26  27
ATOM     27  C   UNL A   1      32.826  32.811  27.391  1.00  0.00     0.116 C 
BRANCH  27  28
ATOM     28  N   UNL A   1      32.466  34.202  27.621  1.00  0.00    -0.352 N 
ATOM     29  C   UNL A   1      32.945  35.036  28.601  1.00  0.00     0.251 C 
ATOM     30  H   UNL A   1      31.804  34.589  27.003  1.00  0.00     0.163 HD
ATOM     31  O   UNL A   1      32.422  36.116  28.840  1.00  0.00    -0.269 OA
BRANCH  29  32
ATOM     32  C   UNL A   1      34.105  34.574  29.384  1.00  0.00     0.039 A 
ATOM     33  C   UNL A   1      33.901  34.010  30.643  1.00  0.00     0.014 A 
ATOM     34  C   UNL A   1      35.381  34.612  28.810  1.00  0.00     0.014 A 
ATOM     35  C   UNL A   1      34.979  33.432  31.311  1.00  0.00     0.010 A 
ATOM     36  C   UNL A   1      36.429  33.952  29.435  1.00  0.00     0.010 A 
ATOM     37  C   UNL A   1      36.244  33.369  30.698  1.00  0.00    -0.014 A 
BRANCH  37  38
ATOM     38  C   UNL A   1      37.398  32.726  31.374  1.00  0.00     0.031 A 
ATOM     39  C   UNL A   1      38.079  31.555  30.720  1.00  0.00     0.074 A 
ATOM     40  C   UNL A   1      37.795  33.155  32.588  1.00  0.00     0.049 A 
ATOM     41  N   UNL A   1      39.047  30.802  31.172  1.00  0.00    -0.248 NA
ATOM     42  C   UNL A   1      37.585  31.158  29.390  1.00  0.00     0.031 C 
ATOM     43  C   UNL A   1      37.191  34.256  33.339  1.00  0.00     0.029 A 
ATOM     44  N   UNL A   1      38.799  32.706  33.410  1.00  0.00    -0.354 N 
ATOM     45  C   UNL A   1      39.265  29.840  30.194  1.00  0.00     0.074 A 
ATOM     46  C   UNL A   1      38.290  30.062  29.152  1.00  0.00     0.031 C 
ATOM     47  C   UNL A   1      37.851  34.414  34.498  1.00  0.00     0.029 A 
ATOM     48  C   UNL A   1      38.891  33.393  34.597  1.00  0.00     0.049 A 
ATOM     49  H   UNL A   1      39.398  31.961  33.173  1.00  0.00     0.167 HD
ATOM     50  C   UNL A   1      40.212  28.874  30.158  1.00  0.00     0.037 A 
ATOM     51  C   UNL A   1      39.710  33.209  35.651  1.00  0.00     0.037 A 
ATOM     52  C   UNL A   1      41.197  28.674  31.187  1.00  0.00     0.049 A 
ATOM     53  C   UNL A   1      40.734  32.103  35.594  1.00  0.00     0.074 A 
ATOM     54  C   UNL A   1      42.234  27.760  31.217  1.00  0.00     0.029 A 
ATOM     55  N   UNL A   1      41.261  29.397  32.368  1.00  0.00    -0.354 N 
ATOM     56  N   UNL A   1      40.976  31.245  34.633  1.00  0.00    -0.248 NA
ATOM     57  C   UNL A   1      41.604  31.943  36.767  1.00  0.00     0.031 C 
ATOM     58  C   UNL A   1      42.883  27.880  32.448  1.00  0.00     0.029 A 
ATOM     59  C   UNL A   1      42.304  28.926  33.150  1.00  0.00     0.049 A 
ATOM     60  H   UNL A   1      40.658  30.134  32.616  1.00  0.00     0.167 HD
ATOM     61  C   UNL A   1      42.051  30.479  35.065  1.00  0.00     0.074 A 
ATOM     62  C   UNL A   1      42.421  30.979  36.371  1.00  0.00     0.031 C 
ATOM     63  C   UNL A   1      42.677  29.453  34.436  1.00  0.00     0.037 A 
BRANCH  50  64
ATOM     64  C   UNL A   1      40.234  27.955  28.971  1.00  0.00     0.064 A 
ATOM     65  C   UNL A   1      40.976  28.254  27.819  1.00  0.00     0.173 A 
ATOM     66  C   UNL A   1      39.556  26.728  29.014  1.00  0.00     0.173 A 
ATOM     67  F   UNL A   1      41.634  29.419  27.719  1.00  0.00    -0.203 F 
ATOM     68  C   UNL A   1      41.023  27.367  26.746  1.00  0.00     0.198 A 
ATOM     69  C   UNL A   1      39.634  25.827  27.955  1.00  0.00     0.198 A 
ATOM     70  F   UNL A   1      38.834  26.390  30.093  1.00  0.00    -0.203 F 
ATOM     71  F   UNL A   1      41.703  27.692  25.638  1.00  0.00    -0.200 F 
ATOM     72  C   UNL A   1      40.361  26.149  26.820  1.00  0.00     0.200 A 
ATOM     73  F   UNL A   1      39.009  24.645  28.037  1.00  0.00    -0.200 F 
ATOM     74  F   UNL A   1      40.424  25.288  25.796  1.00  0.00    -0.200 F 
ENDBRANCH  50  64
BRANCH  51  75
ATOM     75  C   UNL A   1      39.607  34.082  36.853  1.00  0.00     0.064 A 
ATOM     76  C   UNL A   1      40.316  35.289  36.936  1.00  0.00     0.173 A 
ATOM     77  C   UNL A   1      38.840  33.704  37.965  1.00  0.00     0.173 A 
ATOM     78  F   UNL A   1      41.079  35.689  35.907  1.00  0.00    -0.203 F 
ATOM     79  C   UNL A   1      40.299  36.059  38.098  1.00  0.00     0.198 A 
ATOM     80  C   UNL A   1      38.791  34.494  39.112  1.00  0.00     0.198 A 
ATOM     81  F   UNL A   1      38.134  32.564  37.941  1.00  0.00    -0.203 F 
ATOM     82  F   UNL A   1      41.047  37.167  38.174  1.00  0.00    -0.200 F 
ATOM     83  C   UNL A   1      39.534  35.663  39.183  1.00  0.00     0.200 A 
ATOM     84  F   UNL A   1      38.036  34.116  40.152  1.00  0.00    -0.200 F 
ATOM     85  F   UNL A   1      39.524  36.398  40.303  1.00  0.00    -0.200 F 
ENDBRANCH  51  75
BRANCH  63  86
ATOM     86  C   UNL A   1      43.872  28.846  35.113  1.00  0.00     0.064 A 
ATOM     87  C   UNL A   1      43.758  27.766  36.002  1.00  0.00     0.173 A 
ATOM     88  C   UNL A   1      45.162  29.319  34.819  1.00  0.00     0.173 A 
ATOM     89  F   UNL A   1      42.549  27.284  36.326  1.00  0.00    -0.203 F 
ATOM     90  C   UNL A   1      44.887  27.203  36.591  1.00  0.00     0.198 A 
ATOM     91  C   UNL A   1      46.289  28.726  35.379  1.00  0.00     0.198 A 
ATOM     92  F   UNL A   1      45.329  30.342  33.968  1.00  0.00    -0.203 F 
ATOM     93  F   UNL A   1      44.750  26.207  37.478  1.00  0.00    -0.200 F 
ATOM     94  C   UNL A   1      46.151  27.675  36.271  1.00  0.00     0.200 A 
ATOM     95  F   UNL A   1      47.510  29.171  35.050  1.00  0.00    -0.200 F 
ATOM     96  F   UNL A   1      47.237  27.120  36.827  1.00  0.00    -0.200 F 
ENDBRANCH  63  86
ENDBRANCH  37  38
ENDBRANCH  29  32
ENDBRANCH  27  28
ENDBRANCH  26  27
ENDBRANCH  25  26
ENDBRANCH  24  25
ENDBRANCH   1  24
TORSDOF 21
ENDMDL
