MODEL 1
REMARK VINA RESULT:     -12.6      0.000      0.000
REMARK SMILES CCc1ccccc1C[N@@H+]1CC2(CCN(C(=O)C3CC3)CC2)C[C@H]1C(=O)NCCCCCCNC(=O)c1ccc(-c2c3nc(c(-c4c(F)c(F)c(F)c(F)c4F)c4ccc([nH]4)c(-c4c(F)c(F)c(F)c(F)c4F)c4nc(c(-c5c(F)c(F)c(F)c(F)c5F)c5ccc2[nH]5)C=C4)C=C3)cc1
REMARK SMILES IDX 30 1 29 2 28 3 27 4 25 5 26 6 24 8 10 9 11 10 12 12 23 13
REMARK SMILES IDX 13 14 22 15 14 16 21 17 15 18 16 19 17 20 9 21 8 22 3 23
REMARK SMILES IDX 4 24 5 25 7 26 6 27 2 28 1 29 18 30 19 31 20 32 31 33 32 34
REMARK SMILES IDX 33 35 34 36 35 37 36 39 37 40 38 41 99 42 39 43 98 44 40 45
REMARK SMILES IDX 41 46 42 47 92 48 43 49 97 50 91 51 93 52 44 53 96 54 90 55
REMARK SMILES IDX 89 56 45 58 77 59 57 60 76 61 58 62 61 63 75 64 94 65 59 66
REMARK SMILES IDX 60 67 74 69 95 70 62 71 46 72 47 73 55 74 48 75 49 76 53 77
REMARK SMILES IDX 56 78 50 79 51 80 54 81 52 82 78 83 79 84 87 85 80 86 81 87
REMARK SMILES IDX 85 88 88 89 82 90 83 91 86 92 84 93 63 94 64 95 72 96 65 97
REMARK SMILES IDX 66 98 70 99 73 100 67 101 68 102 71 103 69 104
REMARK H PARENT 27 7 10 11 34 38 93 57 61 68
REMARK Flexibility Score: inf
ROOT
ATOM      1  C   UNL A   1      37.440  21.386  24.788  1.00  0.00     0.002 C 
ENDROOT
BRANCH   1   2
ATOM      2  C   UNL A   1      36.056  21.996  25.016  1.00  0.00     0.021 C 
BRANCH   2   3
ATOM      3  C   UNL A   1      35.827  23.297  24.256  1.00  0.00     0.116 C 
BRANCH   3   4
ATOM      4  N   UNL A   1      35.585  24.462  25.055  1.00  0.00    -0.351 N 
ATOM      5  C   UNL A   1      34.449  25.215  25.168  1.00  0.00     0.278 C 
ATOM      6  O   UNL A   1      34.453  26.051  26.082  1.00  0.00    -0.268 OA
ATOM      7  H   UNL A   1      36.346  24.764  25.602  1.00  0.00     0.163 HD
BRANCH   5   8
ATOM      8  C   UNL A   1      33.186  25.083  24.255  1.00  0.00     0.275 C 
ATOM      9  N   UNL A   1      31.939  25.006  25.031  1.00  0.00    -0.320 N 
ATOM     10  C   UNL A   1      31.161  26.220  24.779  1.00  0.00     0.270 C 
ATOM     11  H   UNL A   1      32.154  24.988  26.028  1.00  0.00     0.349 HD
ATOM     12  C   UNL A   1      31.696  26.910  23.490  1.00  0.00     0.029 C 
ATOM     13  C   UNL A   1      32.982  26.128  23.155  1.00  0.00     0.088 C 
ATOM     14  C   UNL A   1      32.000  28.429  23.580  1.00  0.00     0.034 C 
ATOM     15  C   UNL A   1      30.639  26.864  22.362  1.00  0.00     0.034 C 
ATOM     16  C   UNL A   1      30.777  29.222  24.009  1.00  0.00     0.120 C 
ATOM     17  C   UNL A   1      29.367  27.640  22.750  1.00  0.00     0.120 C 
ATOM     18  N   UNL A   1      29.683  29.036  23.068  1.00  0.00    -0.342 N 
ATOM     19  C   UNL A   1      28.815  30.014  22.585  1.00  0.00     0.225 C 
ATOM     20  O   UNL A   1      27.713  29.702  22.133  1.00  0.00    -0.275 OA
BRANCH   9  21
ATOM     21  C   UNL A   1      31.215  23.714  24.890  1.00  0.00     0.299 C 
BRANCH  21  22
ATOM     22  C   UNL A   1      32.022  22.427  25.052  1.00  0.00     0.009 A 
ATOM     23  C   UNL A   1      32.242  21.480  24.025  1.00  0.00    -0.039 A 
ATOM     24  C   UNL A   1      32.728  20.200  24.370  1.00  0.00     0.004 A 
ATOM     25  C   UNL A   1      33.110  19.895  25.675  1.00  0.00     0.000 A 
ATOM     26  C   UNL A   1      32.554  22.143  26.330  1.00  0.00     0.010 A 
ATOM     27  C   UNL A   1      33.086  20.890  26.642  1.00  0.00     0.001 A 
BRANCH  23  28
ATOM     28  C   UNL A   1      32.182  21.816  22.546  1.00  0.00     0.032 C 
ATOM     29  C   UNL A   1      31.800  20.684  21.606  1.00  0.00     0.009 C 
ENDBRANCH  23  28
ENDBRANCH  21  22
ENDBRANCH   9  21
BRANCH  19  30
ATOM     30  C   UNL A   1      29.182  31.458  22.455  1.00  0.00     0.079 C 
ATOM     31  C   UNL A   1      28.360  32.639  22.026  1.00  0.00     0.014 C 
ATOM     32  C   UNL A   1      28.733  32.476  23.477  1.00  0.00     0.014 C 
ENDBRANCH  19  30
ENDBRANCH   5   8
ENDBRANCH   3   4
ENDBRANCH   2   3
ENDBRANCH   1   2
BRANCH   1  33
ATOM     33  C   UNL A   1      38.544  21.857  25.748  1.00  0.00     0.002 C 
BRANCH  33  34
ATOM     34  C   UNL A   1      39.815  21.006  25.780  1.00  0.00     0.021 C 
BRANCH  34  35
ATOM     35  C   UNL A   1      41.010  21.666  26.459  1.00  0.00     0.116 C 
BRANCH  35  36
ATOM     36  N   UNL A   1      42.049  22.035  25.508  1.00  0.00    -0.352 N 
ATOM     37  C   UNL A   1      42.709  23.231  25.354  1.00  0.00     0.251 C 
ATOM     38  H   UNL A   1      42.318  21.324  24.882  1.00  0.00     0.163 HD
ATOM     39  O   UNL A   1      43.408  23.438  24.375  1.00  0.00    -0.269 OA
BRANCH  37  40
ATOM     40  C   UNL A   1      42.551  24.274  26.387  1.00  0.00     0.039 A 
ATOM     41  C   UNL A   1      43.093  25.543  26.171  1.00  0.00     0.014 A 
ATOM     42  C   UNL A   1      41.852  23.992  27.563  1.00  0.00     0.014 A 
ATOM     43  C   UNL A   1      42.874  26.555  27.108  1.00  0.00     0.010 A 
ATOM     44  C   UNL A   1      41.572  25.017  28.456  1.00  0.00     0.010 A 
ATOM     45  C   UNL A   1      42.080  26.308  28.238  1.00  0.00    -0.014 A 
BRANCH  45  46
ATOM     46  C   UNL A   1      41.766  27.366  29.231  1.00  0.00     0.031 A 
ATOM     47  C   UNL A   1      42.545  27.420  30.517  1.00  0.00     0.074 A 
ATOM     48  C   UNL A   1      40.719  28.189  29.030  1.00  0.00     0.049 A 
ATOM     49  N   UNL A   1      42.317  28.126  31.594  1.00  0.00    -0.248 NA
ATOM     50  C   UNL A   1      43.719  26.536  30.616  1.00  0.00     0.031 C 
ATOM     51  C   UNL A   1      39.875  28.213  27.834  1.00  0.00     0.029 A 
ATOM     52  N   UNL A   1      40.165  29.146  29.844  1.00  0.00    -0.354 N 
ATOM     53  C   UNL A   1      43.291  27.743  32.507  1.00  0.00     0.074 A 
ATOM     54  C   UNL A   1      44.095  26.722  31.873  1.00  0.00     0.031 C 
ATOM     55  C   UNL A   1      38.913  29.137  27.992  1.00  0.00     0.029 A 
ATOM     56  C   UNL A   1      39.037  29.732  29.318  1.00  0.00     0.049 A 
ATOM     57  H   UNL A   1      40.540  29.390  30.721  1.00  0.00     0.167 HD
ATOM     58  C   UNL A   1      43.499  28.213  33.759  1.00  0.00     0.037 A 
ATOM     59  C   UNL A   1      38.184  30.623  29.862  1.00  0.00     0.037 A 
ATOM     60  C   UNL A   1      42.723  29.263  34.363  1.00  0.00     0.049 A 
ATOM     61  C   UNL A   1      38.438  31.115  31.265  1.00  0.00     0.074 A 
ATOM     62  C   UNL A   1      42.909  29.870  35.592  1.00  0.00     0.029 A 
ATOM     63  N   UNL A   1      41.614  29.858  33.783  1.00  0.00    -0.354 N 
ATOM     64  N   UNL A   1      39.408  30.805  32.090  1.00  0.00    -0.248 NA
ATOM     65  C   UNL A   1      37.476  32.083  31.816  1.00  0.00     0.031 C 
ATOM     66  C   UNL A   1      41.874  30.787  35.784  1.00  0.00     0.029 A 
ATOM     67  C   UNL A   1      41.085  30.804  34.645  1.00  0.00     0.049 A 
ATOM     68  H   UNL A   1      41.255  29.641  32.892  1.00  0.00     0.167 HD
ATOM     69  C   UNL A   1      39.202  31.573  33.230  1.00  0.00     0.074 A 
ATOM     70  C   UNL A   1      38.017  32.366  32.992  1.00  0.00     0.031 C 
ATOM     71  C   UNL A   1      39.930  31.618  34.371  1.00  0.00     0.037 A 
BRANCH  58  72
ATOM     72  C   UNL A   1      44.601  27.604  34.574  1.00  0.00     0.064 A 
ATOM     73  C   UNL A   1      44.379  26.504  35.415  1.00  0.00     0.173 A 
ATOM     74  C   UNL A   1      45.916  28.077  34.443  1.00  0.00     0.173 A 
ATOM     75  F   UNL A   1      43.139  26.021  35.583  1.00  0.00    -0.203 F 
ATOM     76  C   UNL A   1      45.432  25.906  36.102  1.00  0.00     0.198 A 
ATOM     77  C   UNL A   1      46.970  27.457  35.108  1.00  0.00     0.198 A 
ATOM     78  F   UNL A   1      46.183  29.124  33.649  1.00  0.00    -0.203 F 
ATOM     79  F   UNL A   1      45.193  24.874  36.924  1.00  0.00    -0.200 F 
ATOM     80  C   UNL A   1      46.727  26.374  35.938  1.00  0.00     0.200 A 
ATOM     81  F   UNL A   1      48.223  27.901  34.935  1.00  0.00    -0.200 F 
ATOM     82  F   UNL A   1      47.741  25.782  36.583  1.00  0.00    -0.200 F 
ENDBRANCH  58  72
BRANCH  59  83
ATOM     83  C   UNL A   1      37.005  31.110  29.095  1.00  0.00     0.064 A 
ATOM     84  C   UNL A   1      36.951  32.428  28.619  1.00  0.00     0.173 A 
ATOM     85  C   UNL A   1      35.888  30.293  28.867  1.00  0.00     0.173 A 
ATOM     86  F   UNL A   1      37.986  33.256  28.821  1.00  0.00    -0.203 F 
ATOM     87  C   UNL A   1      35.810  32.923  27.989  1.00  0.00     0.198 A 
ATOM     88  C   UNL A   1      34.762  30.777  28.202  1.00  0.00     0.198 A 
ATOM     89  F   UNL A   1      35.889  29.019  29.285  1.00  0.00    -0.203 F 
ATOM     90  F   UNL A   1      35.762  34.208  27.611  1.00  0.00    -0.200 F 
ATOM     91  C   UNL A   1      34.717  32.096  27.780  1.00  0.00     0.200 A 
ATOM     92  F   UNL A   1      33.718  29.968  27.979  1.00  0.00    -0.200 F 
ATOM     93  F   UNL A   1      33.618  32.575  27.181  1.00  0.00    -0.200 F 
ENDBRANCH  59  83
BRANCH  71  94
ATOM     94  C   UNL A   1      39.526  32.608  35.424  1.00  0.00     0.064 A 
ATOM     95  C   UNL A   1      38.670  32.263  36.479  1.00  0.00     0.173 A 
ATOM     96  C   UNL A   1      40.080  33.899  35.420  1.00  0.00     0.173 A 
ATOM     97  F   UNL A   1      38.106  31.047  36.520  1.00  0.00    -0.203 F 
ATOM     98  C   UNL A   1      38.373  33.178  37.485  1.00  0.00     0.198 A 
ATOM     99  C   UNL A   1      39.808  34.799  36.445  1.00  0.00     0.198 A 
ATOM    100  F   UNL A   1      40.912  34.274  34.437  1.00  0.00    -0.203 F 
ATOM    101  F   UNL A   1      37.526  32.841  38.466  1.00  0.00    -0.200 F 
ATOM    102  C   UNL A   1      38.952  34.439  37.474  1.00  0.00     0.200 A 
ATOM    103  F   UNL A   1      40.384  36.009  36.442  1.00  0.00    -0.200 F 
ATOM    104  F   UNL A   1      38.684  35.310  38.457  1.00  0.00    -0.200 F 
ENDBRANCH  71  94
ENDBRANCH  45  46
ENDBRANCH  37  40
ENDBRANCH  35  36
ENDBRANCH  34  35
ENDBRANCH  33  34
ENDBRANCH   1  33
TORSDOF 17
ENDMDL
MODEL 2
REMARK VINA RESULT:     -12.4      5.984     12.775
REMARK SMILES CCc1ccccc1C[N@@H+]1CC2(CCN(C(=O)C3CC3)CC2)C[C@H]1C(=O)NCCCCCCNC(=O)c1ccc(-c2c3nc(c(-c4c(F)c(F)c(F)c(F)c4F)c4ccc([nH]4)c(-c4c(F)c(F)c(F)c(F)c4F)c4nc(c(-c5c(F)c(F)c(F)c(F)c5F)c5ccc2[nH]5)C=C4)C=C3)cc1
REMARK SMILES IDX 30 1 29 2 28 3 27 4 25 5 26 6 24 8 10 9 11 10 12 12 23 13
REMARK SMILES IDX 13 14 22 15 14 16 21 17 15 18 16 19 17 20 9 21 8 22 3 23
REMARK SMILES IDX 4 24 5 25 7 26 6 27 2 28 1 29 18 30 19 31 20 32 31 33 32 34
REMARK SMILES IDX 33 35 34 36 35 37 36 39 37 40 38 41 99 42 39 43 98 44 40 45
REMARK SMILES IDX 41 46 42 47 92 48 43 49 97 50 91 51 93 52 44 53 96 54 90 55
REMARK SMILES IDX 89 56 45 58 77 59 57 60 76 61 58 62 61 63 75 64 94 65 59 66
REMARK SMILES IDX 60 67 74 69 95 70 62 71 46 72 47 73 55 74 48 75 49 76 53 77
REMARK SMILES IDX 56 78 50 79 51 80 54 81 52 82 78 83 79 84 87 85 80 86 81 87
REMARK SMILES IDX 85 88 88 89 82 90 83 91 86 92 84 93 63 94 64 95 72 96 65 97
REMARK SMILES IDX 66 98 70 99 73 100 67 101 68 102 71 103 69 104
REMARK H PARENT 27 7 10 11 34 38 93 57 61 68
REMARK Flexibility Score: inf
ROOT
ATOM      1  C   UNL A   1      38.700  32.854  39.208  1.00  0.00     0.002 C 
ENDROOT
BRANCH   1   2
ATOM      2  C   UNL A   1      37.460  33.208  38.384  1.00  0.00     0.021 C 
BRANCH   2   3
ATOM      3  C   UNL A   1      37.512  32.695  36.950  1.00  0.00     0.116 C 
BRANCH   3   4
ATOM      4  N   UNL A   1      38.186  31.445  36.749  1.00  0.00    -0.351 N 
ATOM      5  C   UNL A   1      38.547  30.834  35.581  1.00  0.00     0.278 C 
ATOM      6  O   UNL A   1      39.296  29.854  35.703  1.00  0.00    -0.268 OA
ATOM      7  H   UNL A   1      38.423  30.957  37.570  1.00  0.00     0.163 HD
BRANCH   5   8
ATOM      8  C   UNL A   1      38.100  31.284  34.152  1.00  0.00     0.275 C 
ATOM      9  N   UNL A   1      39.175  31.972  33.419  1.00  0.00    -0.320 N 
ATOM     10  C   UNL A   1      39.578  31.131  32.291  1.00  0.00     0.270 C 
ATOM     11  H   UNL A   1      39.991  32.077  34.022  1.00  0.00     0.349 HD
ATOM     12  C   UNL A   1      38.466  30.076  32.019  1.00  0.00     0.029 C 
ATOM     13  C   UNL A   1      37.508  30.227  33.217  1.00  0.00     0.088 C 
ATOM     14  C   UNL A   1      38.918  28.598  31.878  1.00  0.00     0.034 C 
ATOM     15  C   UNL A   1      37.787  30.331  30.653  1.00  0.00     0.034 C 
ATOM     16  C   UNL A   1      39.945  28.428  30.770  1.00  0.00     0.120 C 
ATOM     17  C   UNL A   1      38.787  30.189  29.491  1.00  0.00     0.120 C 
ATOM     18  N   UNL A   1      39.401  28.857  29.491  1.00  0.00    -0.342 N 
ATOM     19  C   UNL A   1      39.554  28.225  28.258  1.00  0.00     0.225 C 
ATOM     20  O   UNL A   1      39.411  28.856  27.211  1.00  0.00    -0.275 OA
BRANCH   9  21
ATOM     21  C   UNL A   1      38.884  33.398  33.110  1.00  0.00     0.299 C 
BRANCH  21  22
ATOM     22  C   UNL A   1      38.162  33.706  31.799  1.00  0.00     0.009 A 
ATOM     23  C   UNL A   1      36.762  33.639  31.616  1.00  0.00    -0.039 A 
ATOM     24  C   UNL A   1      36.245  33.639  30.302  1.00  0.00     0.004 A 
ATOM     25  C   UNL A   1      37.071  33.828  29.196  1.00  0.00     0.000 A 
ATOM     26  C   UNL A   1      38.954  34.045  30.679  1.00  0.00     0.010 A 
ATOM     27  C   UNL A   1      38.418  34.099  29.390  1.00  0.00     0.001 A 
BRANCH  23  28
ATOM     28  C   UNL A   1      35.760  33.771  32.748  1.00  0.00     0.032 C 
ATOM     29  C   UNL A   1      35.265  35.175  33.059  1.00  0.00     0.009 C 
ENDBRANCH  23  28
ENDBRANCH  21  22
ENDBRANCH   9  21
BRANCH  19  30
ATOM     30  C   UNL A   1      39.767  26.753  28.102  1.00  0.00     0.079 C 
ATOM     31  C   UNL A   1      40.345  25.966  26.961  1.00  0.00     0.014 C 
ATOM     32  C   UNL A   1      41.142  26.141  28.229  1.00  0.00     0.014 C 
ENDBRANCH  19  30
ENDBRANCH   5   8
ENDBRANCH   3   4
ENDBRANCH   2   3
ENDBRANCH   1   2
BRANCH   1  33
ATOM     33  C   UNL A   1      38.872  33.632  40.522  1.00  0.00     0.002 C 
BRANCH  33  34
ATOM     34  C   UNL A   1      40.283  33.646  41.115  1.00  0.00     0.021 C 
BRANCH  34  35
ATOM     35  C   UNL A   1      41.223  34.679  40.505  1.00  0.00     0.116 C 
BRANCH  35  36
ATOM     36  N   UNL A   1      40.527  35.899  40.124  1.00  0.00    -0.352 N 
ATOM     37  C   UNL A   1      40.494  36.545  38.911  1.00  0.00     0.251 C 
ATOM     38  H   UNL A   1      40.002  36.325  40.840  1.00  0.00     0.163 HD
ATOM     39  O   UNL A   1      40.026  37.669  38.813  1.00  0.00    -0.269 OA
BRANCH  37  40
ATOM     40  C   UNL A   1      41.045  35.864  37.722  1.00  0.00     0.039 A 
ATOM     41  C   UNL A   1      42.430  35.813  37.540  1.00  0.00     0.014 A 
ATOM     42  C   UNL A   1      40.185  35.265  36.799  1.00  0.00     0.014 A 
ATOM     43  C   UNL A   1      42.957  35.098  36.463  1.00  0.00     0.010 A 
ATOM     44  C   UNL A   1      40.713  34.493  35.772  1.00  0.00     0.010 A 
ATOM     45  C   UNL A   1      42.103  34.402  35.594  1.00  0.00    -0.014 A 
BRANCH  45  46
ATOM     46  C   UNL A   1      42.617  33.578  34.471  1.00  0.00     0.031 A 
ATOM     47  C   UNL A   1      42.872  34.229  33.140  1.00  0.00     0.074 A 
ATOM     48  C   UNL A   1      42.739  32.245  34.616  1.00  0.00     0.049 A 
ATOM     49  N   UNL A   1      43.133  33.676  31.983  1.00  0.00    -0.248 NA
ATOM     50  C   UNL A   1      42.789  35.699  33.096  1.00  0.00     0.031 C 
ATOM     51  C   UNL A   1      42.495  31.499  35.851  1.00  0.00     0.029 A 
ATOM     52  N   UNL A   1      43.068  31.273  33.702  1.00  0.00    -0.354 N 
ATOM     53  C   UNL A   1      43.206  34.722  31.073  1.00  0.00     0.074 A 
ATOM     54  C   UNL A   1      42.932  35.942  31.801  1.00  0.00     0.031 C 
ATOM     55  C   UNL A   1      42.684  30.189  35.620  1.00  0.00     0.029 A 
ATOM     56  C   UNL A   1      43.008  29.995  34.211  1.00  0.00     0.049 A 
ATOM     57  H   UNL A   1      43.323  31.471  32.773  1.00  0.00     0.167 HD
ATOM     58  C   UNL A   1      43.487  34.667  29.751  1.00  0.00     0.037 A 
ATOM     59  C   UNL A   1      43.164  28.806  33.597  1.00  0.00     0.037 A 
ATOM     60  C   UNL A   1      43.805  33.453  29.047  1.00  0.00     0.049 A 
ATOM     61  C   UNL A   1      43.463  28.780  32.118  1.00  0.00     0.074 A 
ATOM     62  C   UNL A   1      44.189  33.302  27.727  1.00  0.00     0.029 A 
ATOM     63  N   UNL A   1      43.772  32.186  29.605  1.00  0.00    -0.354 N 
ATOM     64  N   UNL A   1      43.607  29.781  31.284  1.00  0.00    -0.248 NA
ATOM     65  C   UNL A   1      43.619  27.458  31.493  1.00  0.00     0.031 C 
ATOM     66  C   UNL A   1      44.326  31.937  27.468  1.00  0.00     0.029 A 
ATOM     67  C   UNL A   1      44.098  31.243  28.645  1.00  0.00     0.049 A 
ATOM     68  H   UNL A   1      43.550  31.985  30.543  1.00  0.00     0.167 HD
ATOM     69  C   UNL A   1      43.920  29.212  30.055  1.00  0.00     0.074 A 
ATOM     70  C   UNL A   1      43.947  27.780  30.250  1.00  0.00     0.031 C 
ATOM     71  C   UNL A   1      44.164  29.822  28.870  1.00  0.00     0.037 A 
BRANCH  58  72
ATOM     72  C   UNL A   1      43.464  35.943  28.964  1.00  0.00     0.064 A 
ATOM     73  C   UNL A   1      44.608  36.741  28.813  1.00  0.00     0.173 A 
ATOM     74  C   UNL A   1      42.301  36.326  28.280  1.00  0.00     0.173 A 
ATOM     75  F   UNL A   1      45.742  36.425  29.456  1.00  0.00    -0.203 F 
ATOM     76  C   UNL A   1      44.584  37.881  28.014  1.00  0.00     0.198 A 
ATOM     77  C   UNL A   1      42.289  37.449  27.457  1.00  0.00     0.198 A 
ATOM     78  F   UNL A   1      41.181  35.596  28.386  1.00  0.00    -0.203 F 
ATOM     79  F   UNL A   1      45.679  38.646  27.908  1.00  0.00    -0.200 F 
ATOM     80  C   UNL A   1      43.429  38.227  27.327  1.00  0.00     0.200 A 
ATOM     81  F   UNL A   1      41.177  37.772  26.781  1.00  0.00    -0.200 F 
ATOM     82  F   UNL A   1      43.416  39.311  26.540  1.00  0.00    -0.200 F 
ENDBRANCH  58  72
BRANCH  59  83
ATOM     83  C   UNL A   1      43.036  27.535  34.361  1.00  0.00     0.064 A 
ATOM     84  C   UNL A   1      44.174  26.856  34.823  1.00  0.00     0.173 A 
ATOM     85  C   UNL A   1      41.787  26.944  34.602  1.00  0.00     0.173 A 
ATOM     86  F   UNL A   1      45.393  27.371  34.608  1.00  0.00    -0.203 F 
ATOM     87  C   UNL A   1      44.070  25.616  35.450  1.00  0.00     0.198 A 
ATOM     88  C   UNL A   1      41.681  25.722  35.264  1.00  0.00     0.198 A 
ATOM     89  F   UNL A   1      40.664  27.555  34.197  1.00  0.00    -0.203 F 
ATOM     90  F   UNL A   1      45.180  24.958  35.814  1.00  0.00    -0.200 F 
ATOM     91  C   UNL A   1      42.824  25.050  35.671  1.00  0.00     0.200 A 
ATOM     92  F   UNL A   1      40.474  25.190  35.498  1.00  0.00    -0.200 F 
ATOM     93  F   UNL A   1      42.725  23.854  36.267  1.00  0.00    -0.200 F 
ENDBRANCH  59  83
BRANCH  71  94
ATOM     94  C   UNL A   1      44.563  28.963  27.706  1.00  0.00     0.064 A 
ATOM     95  C   UNL A   1      45.867  28.470  27.560  1.00  0.00     0.173 A 
ATOM     96  C   UNL A   1      43.596  28.557  26.773  1.00  0.00     0.173 A 
ATOM     97  F   UNL A   1      46.829  28.839  28.419  1.00  0.00    -0.203 F 
ATOM     98  C   UNL A   1      46.191  27.610  26.513  1.00  0.00     0.198 A 
ATOM     99  C   UNL A   1      43.916  27.672  25.749  1.00  0.00     0.198 A 
ATOM    100  F   UNL A   1      42.332  28.994  26.875  1.00  0.00    -0.203 F 
ATOM    101  F   UNL A   1      47.451  27.178  26.371  1.00  0.00    -0.200 F 
ATOM    102  C   UNL A   1      45.214  27.203  25.617  1.00  0.00     0.200 A 
ATOM    103  F   UNL A   1      42.965  27.264  24.896  1.00  0.00    -0.200 F 
ATOM    104  F   UNL A   1      45.523  26.356  24.626  1.00  0.00    -0.200 F 
ENDBRANCH  71  94
ENDBRANCH  45  46
ENDBRANCH  37  40
ENDBRANCH  35  36
ENDBRANCH  34  35
ENDBRANCH  33  34
ENDBRANCH   1  33
TORSDOF 17
ENDMDL
MODEL 3
REMARK VINA RESULT:     -12.1      5.880     10.880
REMARK SMILES CCc1ccccc1C[N@@H+]1CC2(CCN(C(=O)C3CC3)CC2)C[C@H]1C(=O)NCCCCCCNC(=O)c1ccc(-c2c3nc(c(-c4c(F)c(F)c(F)c(F)c4F)c4ccc([nH]4)c(-c4c(F)c(F)c(F)c(F)c4F)c4nc(c(-c5c(F)c(F)c(F)c(F)c5F)c5ccc2[nH]5)C=C4)C=C3)cc1
REMARK SMILES IDX 30 1 29 2 28 3 27 4 25 5 26 6 24 8 10 9 11 10 12 12 23 13
REMARK SMILES IDX 13 14 22 15 14 16 21 17 15 18 16 19 17 20 9 21 8 22 3 23
REMARK SMILES IDX 4 24 5 25 7 26 6 27 2 28 1 29 18 30 19 31 20 32 31 33 32 34
REMARK SMILES IDX 33 35 34 36 35 37 36 39 37 40 38 41 99 42 39 43 98 44 40 45
REMARK SMILES IDX 41 46 42 47 92 48 43 49 97 50 91 51 93 52 44 53 96 54 90 55
REMARK SMILES IDX 89 56 45 58 77 59 57 60 76 61 58 62 61 63 75 64 94 65 59 66
REMARK SMILES IDX 60 67 74 69 95 70 62 71 46 72 47 73 55 74 48 75 49 76 53 77
REMARK SMILES IDX 56 78 50 79 51 80 54 81 52 82 78 83 79 84 87 85 80 86 81 87
REMARK SMILES IDX 85 88 88 89 82 90 83 91 86 92 84 93 63 94 64 95 72 96 65 97
REMARK SMILES IDX 66 98 70 99 73 100 67 101 68 102 71 103 69 104
REMARK H PARENT 27 7 10 11 34 38 93 57 61 68
REMARK Flexibility Score: inf
ROOT
ATOM      1  C   UNL A   1      49.813  25.125  28.400  1.00  0.00     0.002 C 
ENDROOT
BRANCH   1   2
ATOM      2  C   UNL A   1      48.977  25.165  27.119  1.00  0.00     0.021 C 
BRANCH   2   3
ATOM      3  C   UNL A   1      48.146  26.433  26.969  1.00  0.00     0.116 C 
BRANCH   3   4
ATOM      4  N   UNL A   1      47.830  26.827  25.627  1.00  0.00    -0.351 N 
ATOM      5  C   UNL A   1      46.634  26.778  24.968  1.00  0.00     0.278 C 
ATOM      6  O   UNL A   1      46.601  27.368  23.880  1.00  0.00    -0.268 OA
ATOM      7  H   UNL A   1      48.584  27.187  25.105  1.00  0.00     0.163 HD
BRANCH   5   8
ATOM      8  C   UNL A   1      45.347  26.057  25.489  1.00  0.00     0.275 C 
ATOM      9  N   UNL A   1      45.532  24.603  25.614  1.00  0.00    -0.320 N 
ATOM     10  C   UNL A   1      45.485  24.251  27.034  1.00  0.00     0.270 C 
ATOM     11  H   UNL A   1      46.456  24.341  25.270  1.00  0.00     0.349 HD
ATOM     12  C   UNL A   1      44.831  25.420  27.828  1.00  0.00     0.029 C 
ATOM     13  C   UNL A   1      44.721  26.557  26.793  1.00  0.00     0.088 C 
ATOM     14  C   UNL A   1      45.582  25.917  29.092  1.00  0.00     0.034 C 
ATOM     15  C   UNL A   1      43.467  24.991  28.417  1.00  0.00     0.034 C 
ATOM     16  C   UNL A   1      45.801  24.795  30.092  1.00  0.00     0.120 C 
ATOM     17  C   UNL A   1      43.627  23.841  29.428  1.00  0.00     0.120 C 
ATOM     18  N   UNL A   1      44.532  24.225  30.517  1.00  0.00    -0.342 N 
ATOM     19  C   UNL A   1      44.167  23.856  31.810  1.00  0.00     0.225 C 
ATOM     20  O   UNL A   1      43.266  23.037  31.996  1.00  0.00    -0.275 OA
BRANCH   9  21
ATOM     21  C   UNL A   1      44.670  23.801  24.704  1.00  0.00     0.299 C 
BRANCH  21  22
ATOM     22  C   UNL A   1      43.995  22.556  25.281  1.00  0.00     0.009 A 
ATOM     23  C   UNL A   1      44.529  21.249  25.213  1.00  0.00    -0.039 A 
ATOM     24  C   UNL A   1      43.685  20.153  25.497  1.00  0.00     0.004 A 
ATOM     25  C   UNL A   1      42.383  20.338  25.958  1.00  0.00     0.000 A 
ATOM     26  C   UNL A   1      42.731  22.718  25.890  1.00  0.00     0.010 A 
ATOM     27  C   UNL A   1      41.929  21.623  26.220  1.00  0.00     0.001 A 
BRANCH  23  28
ATOM     28  C   UNL A   1      46.009  20.952  25.053  1.00  0.00     0.032 C 
ATOM     29  C   UNL A   1      46.423  19.492  25.137  1.00  0.00     0.009 C 
ENDBRANCH  23  28
ENDBRANCH  21  22
ENDBRANCH   9  21
BRANCH  19  30
ATOM     30  C   UNL A   1      44.724  24.492  33.044  1.00  0.00     0.079 C 
ATOM     31  C   UNL A   1      44.652  24.064  34.481  1.00  0.00     0.014 C 
ATOM     32  C   UNL A   1      45.952  23.937  33.727  1.00  0.00     0.014 C 
ENDBRANCH  19  30
ENDBRANCH   5   8
ENDBRANCH   3   4
ENDBRANCH   2   3
ENDBRANCH   1   2
BRANCH   1  33
ATOM     33  C   UNL A   1      49.197  25.827  29.621  1.00  0.00     0.002 C 
BRANCH  33  34
ATOM     34  C   UNL A   1      49.921  25.617  30.953  1.00  0.00     0.021 C 
BRANCH  34  35
ATOM     35  C   UNL A   1      49.014  25.604  32.179  1.00  0.00     0.116 C 
BRANCH  35  36
ATOM     36  N   UNL A   1      49.582  26.352  33.291  1.00  0.00    -0.352 N 
ATOM     37  C   UNL A   1      49.093  27.460  33.940  1.00  0.00     0.251 C 
ATOM     38  H   UNL A   1      50.443  26.014  33.629  1.00  0.00     0.163 HD
ATOM     39  O   UNL A   1      49.792  28.087  34.720  1.00  0.00    -0.269 OA
BRANCH  37  40
ATOM     40  C   UNL A   1      47.707  27.894  33.670  1.00  0.00     0.039 A 
ATOM     41  C   UNL A   1      46.676  27.455  34.504  1.00  0.00     0.014 A 
ATOM     42  C   UNL A   1      47.439  28.748  32.598  1.00  0.00     0.014 A 
ATOM     43  C   UNL A   1      45.378  27.931  34.303  1.00  0.00     0.010 A 
ATOM     44  C   UNL A   1      46.165  29.276  32.445  1.00  0.00     0.010 A 
ATOM     45  C   UNL A   1      45.122  28.874  33.295  1.00  0.00    -0.014 A 
BRANCH  45  46
ATOM     46  C   UNL A   1      43.773  29.455  33.081  1.00  0.00     0.031 A 
ATOM     47  C   UNL A   1      42.889  28.882  32.008  1.00  0.00     0.074 A 
ATOM     48  C   UNL A   1      43.398  30.555  33.762  1.00  0.00     0.049 A 
ATOM     49  N   UNL A   1      41.767  29.349  31.522  1.00  0.00    -0.248 NA
ATOM     50  C   UNL A   1      43.345  27.635  31.371  1.00  0.00     0.031 C 
ATOM     51  C   UNL A   1      44.182  31.215  34.808  1.00  0.00     0.029 A 
ATOM     52  N   UNL A   1      42.273  31.335  33.651  1.00  0.00    -0.354 N 
ATOM     53  C   UNL A   1      41.408  28.477  30.502  1.00  0.00     0.074 A 
ATOM     54  C   UNL A   1      42.442  27.470  30.416  1.00  0.00     0.031 C 
ATOM     55  C   UNL A   1      43.515  32.296  35.243  1.00  0.00     0.029 A 
ATOM     56  C   UNL A   1      42.284  32.439  34.472  1.00  0.00     0.049 A 
ATOM     57  H   UNL A   1      41.529  31.124  33.042  1.00  0.00     0.167 HD
ATOM     58  C   UNL A   1      40.305  28.511  29.719  1.00  0.00     0.037 A 
ATOM     59  C   UNL A   1      41.415  33.464  34.564  1.00  0.00     0.037 A 
ATOM     60  C   UNL A   1      39.258  29.490  29.846  1.00  0.00     0.049 A 
ATOM     61  C   UNL A   1      40.203  33.479  33.664  1.00  0.00     0.074 A 
ATOM     62  C   UNL A   1      38.061  29.559  29.158  1.00  0.00     0.029 A 
ATOM     63  N   UNL A   1      39.288  30.568  30.715  1.00  0.00    -0.354 N 
ATOM     64  N   UNL A   1      39.833  32.606  32.758  1.00  0.00    -0.248 NA
ATOM     65  C   UNL A   1      39.287  34.622  33.799  1.00  0.00     0.031 C 
ATOM     66  C   UNL A   1      37.393  30.716  29.565  1.00  0.00     0.029 A 
ATOM     67  C   UNL A   1      38.141  31.328  30.557  1.00  0.00     0.049 A 
ATOM     68  H   UNL A   1      40.015  30.765  31.350  1.00  0.00     0.167 HD
ATOM     69  C   UNL A   1      38.623  33.068  32.255  1.00  0.00     0.074 A 
ATOM     70  C   UNL A   1      38.318  34.296  32.956  1.00  0.00     0.031 C 
ATOM     71  C   UNL A   1      37.833  32.523  31.298  1.00  0.00     0.037 A 
BRANCH  58  72
ATOM     72  C   UNL A   1      40.161  27.472  28.648  1.00  0.00     0.064 A 
ATOM     73  C   UNL A   1      40.838  27.571  27.423  1.00  0.00     0.173 A 
ATOM     74  C   UNL A   1      39.402  26.316  28.886  1.00  0.00     0.173 A 
ATOM     75  F   UNL A   1      41.568  28.661  27.141  1.00  0.00    -0.203 F 
ATOM     76  C   UNL A   1      40.751  26.556  26.474  1.00  0.00     0.198 A 
ATOM     77  C   UNL A   1      39.342  25.290  27.947  1.00  0.00     0.198 A 
ATOM     78  F   UNL A   1      38.738  26.169  30.042  1.00  0.00    -0.203 F 
ATOM     79  F   UNL A   1      41.381  26.686  25.298  1.00  0.00    -0.200 F 
ATOM     80  C   UNL A   1      40.014  25.412  26.742  1.00  0.00     0.200 A 
ATOM     81  F   UNL A   1      38.643  24.179  28.216  1.00  0.00    -0.200 F 
ATOM     82  F   UNL A   1      39.952  24.427  25.835  1.00  0.00    -0.200 F 
ENDBRANCH  58  72
BRANCH  59  83
ATOM     83  C   UNL A   1      41.646  34.572  35.531  1.00  0.00     0.064 A 
ATOM     84  C   UNL A   1      42.435  35.679  35.182  1.00  0.00     0.173 A 
ATOM     85  C   UNL A   1      41.133  34.528  36.836  1.00  0.00     0.173 A 
ATOM     86  F   UNL A   1      42.960  35.765  33.952  1.00  0.00    -0.203 F 
ATOM     87  C   UNL A   1      42.740  36.671  36.113  1.00  0.00     0.198 A 
ATOM     88  C   UNL A   1      41.407  35.540  37.755  1.00  0.00     0.198 A 
ATOM     89  F   UNL A   1      40.360  33.503  37.221  1.00  0.00    -0.203 F 
ATOM     90  F   UNL A   1      43.556  37.677  35.770  1.00  0.00    -0.200 F 
ATOM     91  C   UNL A   1      42.225  36.601  37.398  1.00  0.00     0.200 A 
ATOM     92  F   UNL A   1      40.887  35.483  38.988  1.00  0.00    -0.200 F 
ATOM     93  F   UNL A   1      42.525  37.551  38.294  1.00  0.00    -0.200 F 
ENDBRANCH  59  83
BRANCH  71  94
ATOM     94  C   UNL A   1      36.524  33.194  31.002  1.00  0.00     0.064 A 
ATOM     95  C   UNL A   1      35.482  33.234  31.938  1.00  0.00     0.173 A 
ATOM     96  C   UNL A   1      36.350  33.884  29.791  1.00  0.00     0.173 A 
ATOM     97  F   UNL A   1      35.595  32.579  33.103  1.00  0.00    -0.203 F 
ATOM     98  C   UNL A   1      34.306  33.929  31.667  1.00  0.00     0.198 A 
ATOM     99  C   UNL A   1      35.188  34.606  29.538  1.00  0.00     0.198 A 
ATOM    100  F   UNL A   1      37.322  33.884  28.867  1.00  0.00    -0.203 F 
ATOM    101  F   UNL A   1      33.308  33.926  32.560  1.00  0.00    -0.200 F 
ATOM    102  C   UNL A   1      34.166  34.625  30.475  1.00  0.00     0.200 A 
ATOM    103  F   UNL A   1      35.063  35.293  28.395  1.00  0.00    -0.200 F 
ATOM    104  F   UNL A   1      33.044  35.314  30.227  1.00  0.00    -0.200 F 
ENDBRANCH  71  94
ENDBRANCH  45  46
ENDBRANCH  37  40
ENDBRANCH  35  36
ENDBRANCH  34  35
ENDBRANCH  33  34
ENDBRANCH   1  33
TORSDOF 17
ENDMDL
