MODEL 1
REMARK VINA RESULT:     -11.8      0.000      0.000
REMARK SMILES O=C(C[C@H]([NH2+]Cc1ccco1)C(=O)Nc1cccc(O)c1)NCCCCCCNC(=O)c1ccc(-c2c3nc(c(-c4c(F)c(F)c(F)c(F)c4F)c4ccc([nH]4)c(-c4c(F)c(F)c(F)c(F)c4F)c4nc(c(-c5c(F)c(F)c(F)c(F)c5F)c5ccc2[nH]5)C=C4)C=C3)cc1
REMARK SMILES IDX 24 1 23 2 22 3 1 4 2 5 3 7 4 8 12 9 13 10 14 11 15 13 16 14
REMARK SMILES IDX 21 15 17 16 19 17 18 18 20 19 5 21 6 24 7 25 8 26 11 27 9 28
REMARK SMILES IDX 10 29 25 30 26 31 27 32 28 33 29 34 30 35 31 37 32 38 33 39
REMARK SMILES IDX 94 40 34 41 93 42 35 43 36 44 37 45 87 46 38 47 92 48 86 49
REMARK SMILES IDX 88 50 39 51 91 52 85 53 84 54 40 56 72 57 52 58 71 59 53 60
REMARK SMILES IDX 56 61 70 62 89 63 54 64 55 65 69 67 90 68 57 69 41 70 42 71
REMARK SMILES IDX 50 72 43 73 44 74 48 75 51 76 45 77 46 78 49 79 47 80 73 81
REMARK SMILES IDX 74 82 82 83 75 84 76 85 80 86 83 87 77 88 78 89 81 90 79 91
REMARK SMILES IDX 58 92 59 93 67 94 60 95 61 96 65 97 68 98 62 99 63 100
REMARK SMILES IDX 66 101 64 102
REMARK H PARENT 22 6 14 12 20 20 5 22 5 23 29 36 88 55 56 66
REMARK Flexibility Score: inf
ROOT
ATOM      1  C   UNL A   1      33.478  28.737  27.250  1.00  0.00     0.021 C 
ENDROOT
BRANCH   1   2
ATOM      2  C   UNL A   1      33.564  27.813  26.036  1.00  0.00     0.116 C 
BRANCH   2   3
ATOM      3  N   UNL A   1      32.567  26.766  26.108  1.00  0.00    -0.356 N 
ATOM      4  O   UNL A   1      30.959  27.912  24.952  1.00  0.00    -0.275 OA
ATOM      5  C   UNL A   1      31.315  26.909  25.563  1.00  0.00     0.226 C 
ATOM      6  H   UNL A   1      32.794  25.922  26.563  1.00  0.00     0.163 HD
BRANCH   5   7
ATOM      7  C   UNL A   1      30.367  25.769  25.846  1.00  0.00     0.175 C 
BRANCH   7   8
ATOM      8  C   UNL A   1      30.852  24.369  25.431  1.00  0.00     0.282 C 
BRANCH   8   9
ATOM      9  C   UNL A   1      30.536  23.355  26.561  1.00  0.00     0.283 C 
ATOM     10  O   UNL A   1      29.609  23.605  27.345  1.00  0.00    -0.268 OA
ATOM     11  N   UNL A   1      31.157  22.140  26.685  1.00  0.00    -0.321 N 
ATOM     12  H   UNL A   1      30.723  21.530  27.325  1.00  0.00     0.170 HD
BRANCH  11  13
ATOM     13  C   UNL A   1      32.299  21.607  26.065  1.00  0.00     0.045 A 
ATOM     14  C   UNL A   1      32.253  20.668  25.036  1.00  0.00     0.026 A 
ATOM     15  C   UNL A   1      33.545  22.054  26.509  1.00  0.00     0.072 A 
ATOM     16  C   UNL A   1      33.422  20.090  24.536  1.00  0.00     0.006 A 
ATOM     17  C   UNL A   1      34.709  21.470  26.013  1.00  0.00     0.117 A 
ATOM     18  C   UNL A   1      34.659  20.476  25.042  1.00  0.00     0.046 A 
BRANCH  17  19
ATOM     19  O   UNL A   1      35.899  21.889  26.530  1.00  0.00    -0.508 OA
ATOM     20  H   UNL A   1      36.614  21.288  26.607  1.00  0.00     0.293 HD
ENDBRANCH  17  19
ENDBRANCH  11  13
ENDBRANCH   8   9
BRANCH   8  21
ATOM     21  N   UNL A   1      30.386  23.882  24.129  1.00  0.00    -0.329 N 
ATOM     22  H   UNL A   1      29.398  24.115  24.038  1.00  0.00     0.347 HD
ATOM     23  H   UNL A   1      30.563  22.878  24.115  1.00  0.00     0.347 HD
BRANCH  21  24
ATOM     24  C   UNL A   1      31.097  24.447  22.982  1.00  0.00     0.337 C 
BRANCH  24  25
ATOM     25  C   UNL A   1      32.540  24.073  23.035  1.00  0.00     0.157 A 
ATOM     26  C   UNL A   1      33.265  23.048  22.462  1.00  0.00     0.052 A 
ATOM     27  O   UNL A   1      33.375  24.877  23.763  1.00  0.00    -0.463 OA
ATOM     28  C   UNL A   1      34.615  23.252  22.835  1.00  0.00     0.042 A 
ATOM     29  C   UNL A   1      34.630  24.382  23.616  1.00  0.00     0.195 A 
ENDBRANCH  24  25
ENDBRANCH  21  24
ENDBRANCH   8  21
ENDBRANCH   7   8
ENDBRANCH   5   7
ENDBRANCH   2   3
ENDBRANCH   1   2
BRANCH   1  30
ATOM     30  C   UNL A   1      33.317  30.223  26.899  1.00  0.00     0.002 C 
BRANCH  30  31
ATOM     31  C   UNL A   1      31.881  30.677  26.622  1.00  0.00     0.002 C 
BRANCH  31  32
ATOM     32  C   UNL A   1      31.605  32.154  26.902  1.00  0.00     0.021 C 
BRANCH  32  33
ATOM     33  C   UNL A   1      32.839  32.976  27.255  1.00  0.00     0.116 C 
BRANCH  33  34
ATOM     34  N   UNL A   1      32.504  34.330  27.666  1.00  0.00    -0.352 N 
ATOM     35  C   UNL A   1      33.019  35.079  28.695  1.00  0.00     0.251 C 
ATOM     36  H   UNL A   1      31.808  34.774  27.130  1.00  0.00     0.163 HD
ATOM     37  O   UNL A   1      32.497  36.144  29.010  1.00  0.00    -0.269 OA
BRANCH  35  38
ATOM     38  C   UNL A   1      34.193  34.586  29.445  1.00  0.00     0.039 A 
ATOM     39  C   UNL A   1      33.995  33.984  30.691  1.00  0.00     0.014 A 
ATOM     40  C   UNL A   1      35.482  34.704  28.920  1.00  0.00     0.014 A 
ATOM     41  C   UNL A   1      35.082  33.434  31.374  1.00  0.00     0.010 A 
ATOM     42  C   UNL A   1      36.552  34.089  29.564  1.00  0.00     0.010 A 
ATOM     43  C   UNL A   1      36.362  33.445  30.796  1.00  0.00    -0.014 A 
BRANCH  43  44
ATOM     44  C   UNL A   1      37.510  32.770  31.456  1.00  0.00     0.031 A 
ATOM     45  C   UNL A   1      38.169  31.586  30.806  1.00  0.00     0.074 A 
ATOM     46  C   UNL A   1      37.911  33.180  32.675  1.00  0.00     0.049 A 
ATOM     47  N   UNL A   1      39.131  30.822  31.260  1.00  0.00    -0.248 NA
ATOM     48  C   UNL A   1      37.664  31.193  29.482  1.00  0.00     0.031 C 
ATOM     49  C   UNL A   1      37.319  34.286  33.431  1.00  0.00     0.029 A 
ATOM     50  N   UNL A   1      38.899  32.706  33.501  1.00  0.00    -0.354 N 
ATOM     51  C   UNL A   1      39.336  29.854  30.286  1.00  0.00     0.074 A 
ATOM     52  C   UNL A   1      38.362  30.093  29.242  1.00  0.00     0.031 C 
ATOM     53  C   UNL A   1      37.967  34.416  34.599  1.00  0.00     0.029 A 
ATOM     54  C   UNL A   1      38.987  33.378  34.696  1.00  0.00     0.049 A 
ATOM     55  H   UNL A   1      39.489  31.956  33.259  1.00  0.00     0.167 HD
ATOM     56  C   UNL A   1      40.267  28.870  30.253  1.00  0.00     0.037 A 
ATOM     57  C   UNL A   1      39.788  33.170  35.759  1.00  0.00     0.037 A 
ATOM     58  C   UNL A   1      41.242  28.646  31.289  1.00  0.00     0.049 A 
ATOM     59  C   UNL A   1      40.799  32.055  35.709  1.00  0.00     0.074 A 
ATOM     60  C   UNL A   1      42.266  27.715  31.323  1.00  0.00     0.029 A 
ATOM     61  N   UNL A   1      41.308  29.354  32.482  1.00  0.00    -0.354 N 
ATOM     62  N   UNL A   1      41.036  31.194  34.748  1.00  0.00    -0.248 NA
ATOM     63  C   UNL A   1      41.657  31.886  36.889  1.00  0.00     0.031 C 
ATOM     64  C   UNL A   1      42.911  27.818  32.560  1.00  0.00     0.029 A 
ATOM     65  C   UNL A   1      42.333  28.857  33.270  1.00  0.00     0.049 A 
ATOM     66  H   UNL A   1      40.714  30.098  32.729  1.00  0.00     0.167 HD
ATOM     67  C   UNL A   1      42.085  30.401  35.195  1.00  0.00     0.074 A 
ATOM     68  C   UNL A   1      42.451  30.895  36.506  1.00  0.00     0.031 C 
ATOM     69  C   UNL A   1      42.690  29.360  34.575  1.00  0.00     0.037 A 
BRANCH  56  70
ATOM     70  C   UNL A   1      40.272  27.956  29.061  1.00  0.00     0.064 A 
ATOM     71  C   UNL A   1      41.008  28.255  27.904  1.00  0.00     0.173 A 
ATOM     72  C   UNL A   1      39.559  26.748  29.088  1.00  0.00     0.173 A 
ATOM     73  F   UNL A   1      41.702  29.401  27.822  1.00  0.00    -0.203 F 
ATOM     74  C   UNL A   1      41.001  27.396  26.807  1.00  0.00     0.198 A 
ATOM     75  C   UNL A   1      39.583  25.875  28.002  1.00  0.00     0.198 A 
ATOM     76  F   UNL A   1      38.843  26.407  30.171  1.00  0.00    -0.203 F 
ATOM     77  F   UNL A   1      41.667  27.732  25.692  1.00  0.00    -0.200 F 
ATOM     78  C   UNL A   1      40.295  26.205  26.860  1.00  0.00     0.200 A 
ATOM     79  F   UNL A   1      38.914  24.716  28.062  1.00  0.00    -0.200 F 
ATOM     80  F   UNL A   1      40.296  25.377  25.806  1.00  0.00    -0.200 F 
ENDBRANCH  56  70
BRANCH  57  81
ATOM     81  C   UNL A   1      39.672  34.041  36.957  1.00  0.00     0.064 A 
ATOM     82  C   UNL A   1      38.880  33.663  38.051  1.00  0.00     0.173 A 
ATOM     83  C   UNL A   1      40.345  35.270  37.035  1.00  0.00     0.173 A 
ATOM     84  F   UNL A   1      38.200  32.508  38.018  1.00  0.00    -0.203 F 
ATOM     85  C   UNL A   1      38.749  34.489  39.165  1.00  0.00     0.198 A 
ATOM     86  C   UNL A   1      40.238  36.081  38.163  1.00  0.00     0.198 A 
ATOM     87  F   UNL A   1      41.119  35.677  36.019  1.00  0.00    -0.203 F 
ATOM     88  F   UNL A   1      37.946  34.127  40.175  1.00  0.00    -0.200 F 
ATOM     89  C   UNL A   1      39.433  35.695  39.223  1.00  0.00     0.200 A 
ATOM     90  F   UNL A   1      40.915  37.235  38.222  1.00  0.00    -0.200 F 
ATOM     91  F   UNL A   1      39.310  36.486  40.297  1.00  0.00    -0.200 F 
ENDBRANCH  57  81
BRANCH  69  92
ATOM     92  C   UNL A   1      43.835  28.699  35.289  1.00  0.00     0.064 A 
ATOM     93  C   UNL A   1      45.156  29.145  35.139  1.00  0.00     0.173 A 
ATOM     94  C   UNL A   1      43.599  27.632  36.169  1.00  0.00     0.173 A 
ATOM     95  F   UNL A   1      45.437  30.152  34.299  1.00  0.00    -0.203 F 
ATOM     96  C   UNL A   1      46.201  28.532  35.825  1.00  0.00     0.198 A 
ATOM     97  C   UNL A   1      44.641  27.043  36.880  1.00  0.00     0.198 A 
ATOM     98  F   UNL A   1      42.354  27.169  36.355  1.00  0.00    -0.203 F 
ATOM     99  F   UNL A   1      47.462  28.942  35.627  1.00  0.00    -0.200 F 
ATOM    100  C   UNL A   1      45.943  27.488  36.701  1.00  0.00     0.200 A 
ATOM    101  F   UNL A   1      44.387  26.045  37.738  1.00  0.00    -0.200 F 
ATOM    102  F   UNL A   1      46.948  26.906  37.367  1.00  0.00    -0.200 F 
ENDBRANCH  69  92
ENDBRANCH  43  44
ENDBRANCH  35  38
ENDBRANCH  33  34
ENDBRANCH  32  33
ENDBRANCH  31  32
ENDBRANCH  30  31
ENDBRANCH   1  30
TORSDOF 20
ENDMDL
MODEL 2
REMARK VINA RESULT:     -11.7      0.858      2.179
REMARK SMILES O=C(C[C@H]([NH2+]Cc1ccco1)C(=O)Nc1cccc(O)c1)NCCCCCCNC(=O)c1ccc(-c2c3nc(c(-c4c(F)c(F)c(F)c(F)c4F)c4ccc([nH]4)c(-c4c(F)c(F)c(F)c(F)c4F)c4nc(c(-c5c(F)c(F)c(F)c(F)c5F)c5ccc2[nH]5)C=C4)C=C3)cc1
REMARK SMILES IDX 24 1 23 2 22 3 1 4 2 5 3 7 4 8 12 9 13 10 14 11 15 13 16 14
REMARK SMILES IDX 21 15 17 16 19 17 18 18 20 19 5 21 6 24 7 25 8 26 11 27 9 28
REMARK SMILES IDX 10 29 25 30 26 31 27 32 28 33 29 34 30 35 31 37 32 38 33 39
REMARK SMILES IDX 94 40 34 41 93 42 35 43 36 44 37 45 87 46 38 47 92 48 86 49
REMARK SMILES IDX 88 50 39 51 91 52 85 53 84 54 40 56 72 57 52 58 71 59 53 60
REMARK SMILES IDX 56 61 70 62 89 63 54 64 55 65 69 67 90 68 57 69 41 70 42 71
REMARK SMILES IDX 50 72 43 73 44 74 48 75 51 76 45 77 46 78 49 79 47 80 73 81
REMARK SMILES IDX 74 82 82 83 75 84 76 85 80 86 83 87 77 88 78 89 81 90 79 91
REMARK SMILES IDX 58 92 59 93 67 94 60 95 61 96 65 97 68 98 62 99 63 100
REMARK SMILES IDX 66 101 64 102
REMARK H PARENT 22 6 14 12 20 20 5 22 5 23 29 36 88 55 56 66
REMARK Flexibility Score: inf
ROOT
ATOM      1  C   UNL A   1      30.633  29.900  24.208  1.00  0.00     0.021 C 
ENDROOT
BRANCH   1   2
ATOM      2  C   UNL A   1      30.322  28.505  23.667  1.00  0.00     0.116 C 
BRANCH   2   3
ATOM      3  N   UNL A   1      30.647  27.485  24.640  1.00  0.00    -0.356 N 
ATOM      4  O   UNL A   1      29.007  26.028  23.989  1.00  0.00    -0.275 OA
ATOM      5  C   UNL A   1      29.940  26.312  24.736  1.00  0.00     0.226 C 
ATOM      6  H   UNL A   1      31.402  27.637  25.255  1.00  0.00     0.163 HD
BRANCH   5   7
ATOM      7  C   UNL A   1      30.337  25.425  25.890  1.00  0.00     0.175 C 
BRANCH   7   8
ATOM      8  C   UNL A   1      31.023  24.099  25.517  1.00  0.00     0.282 C 
BRANCH   8   9
ATOM      9  C   UNL A   1      30.951  23.122  26.720  1.00  0.00     0.283 C 
ATOM     10  O   UNL A   1      29.984  23.197  27.492  1.00  0.00    -0.268 OA
ATOM     11  N   UNL A   1      31.844  22.104  26.924  1.00  0.00    -0.321 N 
ATOM     12  H   UNL A   1      31.565  21.455  27.610  1.00  0.00     0.170 HD
BRANCH  11  13
ATOM     13  C   UNL A   1      33.087  21.819  26.334  1.00  0.00     0.045 A 
ATOM     14  C   UNL A   1      33.301  20.753  25.462  1.00  0.00     0.026 A 
ATOM     15  C   UNL A   1      34.158  22.661  26.640  1.00  0.00     0.072 A 
ATOM     16  C   UNL A   1      34.583  20.452  24.995  1.00  0.00     0.006 A 
ATOM     17  C   UNL A   1      35.436  22.352  26.179  1.00  0.00     0.117 A 
ATOM     18  C   UNL A   1      35.663  21.242  25.372  1.00  0.00     0.046 A 
BRANCH  17  19
ATOM     19  O   UNL A   1      36.462  23.163  26.564  1.00  0.00    -0.508 OA
ATOM     20  H   UNL A   1      36.312  23.844  27.190  1.00  0.00     0.293 HD
ENDBRANCH  17  19
ENDBRANCH  11  13
ENDBRANCH   8   9
BRANCH   8  21
ATOM     21  N   UNL A   1      30.566  23.460  24.280  1.00  0.00    -0.329 N 
ATOM     22  H   UNL A   1      29.893  24.081  23.831  1.00  0.00     0.347 HD
ATOM     23  H   UNL A   1      30.163  22.562  24.549  1.00  0.00     0.347 HD
BRANCH  21  24
ATOM     24  C   UNL A   1      31.630  23.168  23.320  1.00  0.00     0.337 C 
BRANCH  24  25
ATOM     25  C   UNL A   1      32.324  24.427  22.921  1.00  0.00     0.157 A 
ATOM     26  C   UNL A   1      33.519  25.001  23.304  1.00  0.00     0.052 A 
ATOM     27  O   UNL A   1      31.720  25.208  21.973  1.00  0.00    -0.463 OA
ATOM     28  C   UNL A   1      33.667  26.177  22.531  1.00  0.00     0.042 A 
ATOM     29  C   UNL A   1      32.553  26.252  21.730  1.00  0.00     0.195 A 
ENDBRANCH  24  25
ENDBRANCH  21  24
ENDBRANCH   8  21
ENDBRANCH   7   8
ENDBRANCH   5   7
ENDBRANCH   2   3
ENDBRANCH   1   2
BRANCH   1  30
ATOM     30  C   UNL A   1      31.869  29.961  25.117  1.00  0.00     0.002 C 
BRANCH  30  31
ATOM     31  C   UNL A   1      31.613  30.489  26.532  1.00  0.00     0.002 C 
BRANCH  31  32
ATOM     32  C   UNL A   1      31.472  32.007  26.639  1.00  0.00     0.021 C 
BRANCH  32  33
ATOM     33  C   UNL A   1      32.662  32.712  27.282  1.00  0.00     0.116 C 
BRANCH  33  34
ATOM     34  N   UNL A   1      32.379  34.105  27.591  1.00  0.00    -0.352 N 
ATOM     35  C   UNL A   1      32.953  34.920  28.535  1.00  0.00     0.251 C 
ATOM     36  H   UNL A   1      31.676  34.524  27.044  1.00  0.00     0.163 HD
ATOM     37  O   UNL A   1      32.471  36.022  28.778  1.00  0.00    -0.269 OA
BRANCH  35  38
ATOM     38  C   UNL A   1      34.139  34.454  29.283  1.00  0.00     0.039 A 
ATOM     39  C   UNL A   1      33.960  33.872  30.541  1.00  0.00     0.014 A 
ATOM     40  C   UNL A   1      35.422  34.579  28.743  1.00  0.00     0.014 A 
ATOM     41  C   UNL A   1      35.060  33.348  31.223  1.00  0.00     0.010 A 
ATOM     42  C   UNL A   1      36.505  33.988  29.388  1.00  0.00     0.010 A 
ATOM     43  C   UNL A   1      36.334  33.364  30.633  1.00  0.00    -0.014 A 
BRANCH  43  44
ATOM     44  C   UNL A   1      37.497  32.715  31.293  1.00  0.00     0.031 A 
ATOM     45  C   UNL A   1      38.202  31.565  30.630  1.00  0.00     0.074 A 
ATOM     46  C   UNL A   1      37.871  33.115  32.524  1.00  0.00     0.049 A 
ATOM     47  N   UNL A   1      39.183  30.824  31.081  1.00  0.00    -0.248 NA
ATOM     48  C   UNL A   1      37.724  31.180  29.294  1.00  0.00     0.031 C 
ATOM     49  C   UNL A   1      37.235  34.188  33.292  1.00  0.00     0.029 A 
ATOM     50  N   UNL A   1      38.865  32.659  33.353  1.00  0.00    -0.354 N 
ATOM     51  C   UNL A   1      39.430  29.882  30.092  1.00  0.00     0.074 A 
ATOM     52  C   UNL A   1      38.460  30.108  29.042  1.00  0.00     0.031 C 
ATOM     53  C   UNL A   1      37.866  34.317  34.470  1.00  0.00     0.029 A 
ATOM     54  C   UNL A   1      38.919  33.311  34.561  1.00  0.00     0.049 A 
ATOM     55  H   UNL A   1      39.482  31.933  33.104  1.00  0.00     0.167 HD
ATOM     56  C   UNL A   1      40.393  28.929  30.053  1.00  0.00     0.037 A 
ATOM     57  C   UNL A   1      39.715  33.110  35.628  1.00  0.00     0.037 A 
ATOM     58  C   UNL A   1      41.364  28.718  31.095  1.00  0.00     0.049 A 
ATOM     59  C   UNL A   1      40.761  32.029  35.570  1.00  0.00     0.074 A 
ATOM     60  C   UNL A   1      42.417  27.820  31.124  1.00  0.00     0.029 A 
ATOM     61  N   UNL A   1      41.393  29.406  32.301  1.00  0.00    -0.354 N 
ATOM     62  N   UNL A   1      41.037  31.195  34.597  1.00  0.00    -0.248 NA
ATOM     63  C   UNL A   1      41.612  31.867  36.756  1.00  0.00     0.031 C 
ATOM     64  C   UNL A   1      43.044  27.922  32.369  1.00  0.00     0.029 A 
ATOM     65  C   UNL A   1      42.426  28.928  33.092  1.00  0.00     0.049 A 
ATOM     66  H   UNL A   1      40.773  30.126  32.555  1.00  0.00     0.167 HD
ATOM     67  C   UNL A   1      42.106  30.429  35.041  1.00  0.00     0.074 A 
ATOM     68  C   UNL A   1      42.442  30.910  36.365  1.00  0.00     0.031 C 
ATOM     69  C   UNL A   1      42.752  29.419  34.409  1.00  0.00     0.037 A 
BRANCH  56  70
ATOM     70  C   UNL A   1      40.440  28.037  28.844  1.00  0.00     0.064 A 
ATOM     71  C   UNL A   1      39.730  26.828  28.791  1.00  0.00     0.173 A 
ATOM     72  C   UNL A   1      41.177  28.412  27.711  1.00  0.00     0.173 A 
ATOM     73  F   UNL A   1      39.015  26.417  29.850  1.00  0.00    -0.203 F 
ATOM     74  C   UNL A   1      39.784  26.012  27.663  1.00  0.00     0.198 A 
ATOM     75  C   UNL A   1      41.201  27.611  26.572  1.00  0.00     0.198 A 
ATOM     76  F   UNL A   1      41.871  29.562  27.703  1.00  0.00    -0.203 F 
ATOM     77  F   UNL A   1      39.142  24.835  27.659  1.00  0.00    -0.200 F 
ATOM     78  C   UNL A   1      40.514  26.408  26.553  1.00  0.00     0.200 A 
ATOM     79  F   UNL A   1      41.893  28.003  25.493  1.00  0.00    -0.200 F 
ATOM     80  F   UNL A   1      40.559  25.625  25.466  1.00  0.00    -0.200 F 
ENDBRANCH  56  70
BRANCH  57  81
ATOM     81  C   UNL A   1      39.557  33.955  36.841  1.00  0.00     0.064 A 
ATOM     82  C   UNL A   1      40.169  35.213  36.930  1.00  0.00     0.173 A 
ATOM     83  C   UNL A   1      38.794  33.523  37.936  1.00  0.00     0.173 A 
ATOM     84  F   UNL A   1      40.926  35.663  35.918  1.00  0.00    -0.203 F 
ATOM     85  C   UNL A   1      40.044  35.996  38.076  1.00  0.00     0.198 A 
ATOM     86  C   UNL A   1      38.643  34.321  39.069  1.00  0.00     0.198 A 
ATOM     87  F   UNL A   1      38.182  32.330  37.901  1.00  0.00    -0.203 F 
ATOM     88  F   UNL A   1      40.682  37.172  38.154  1.00  0.00    -0.200 F 
ATOM     89  C   UNL A   1      39.276  35.553  39.142  1.00  0.00     0.200 A 
ATOM     90  F   UNL A   1      37.885  33.897  40.089  1.00  0.00    -0.200 F 
ATOM     91  F   UNL A   1      39.151  36.308  40.241  1.00  0.00    -0.200 F 
ENDBRANCH  57  81
BRANCH  69  92
ATOM     92  C   UNL A   1      43.910  28.782  35.124  1.00  0.00     0.064 A 
ATOM     93  C   UNL A   1      43.742  27.665  35.956  1.00  0.00     0.173 A 
ATOM     94  C   UNL A   1      45.212  29.273  34.940  1.00  0.00     0.173 A 
ATOM     95  F   UNL A   1      42.516  27.167  36.177  1.00  0.00    -0.203 F 
ATOM     96  C   UNL A   1      44.831  27.078  36.595  1.00  0.00     0.198 A 
ATOM     97  C   UNL A   1      46.303  28.662  35.553  1.00  0.00     0.198 A 
ATOM     98  F   UNL A   1      45.431  30.335  34.151  1.00  0.00    -0.203 F 
ATOM     99  F   UNL A   1      44.639  26.042  37.424  1.00  0.00    -0.200 F 
ATOM    100  C   UNL A   1      46.110  27.570  36.386  1.00  0.00     0.200 A 
ATOM    101  F   UNL A   1      47.540  29.129  35.336  1.00  0.00    -0.200 F 
ATOM    102  F   UNL A   1      47.158  26.997  36.993  1.00  0.00    -0.200 F 
ENDBRANCH  69  92
ENDBRANCH  43  44
ENDBRANCH  35  38
ENDBRANCH  33  34
ENDBRANCH  32  33
ENDBRANCH  31  32
ENDBRANCH  30  31
ENDBRANCH   1  30
TORSDOF 20
ENDMDL
MODEL 3
REMARK VINA RESULT:     -11.5      2.189      8.154
REMARK SMILES O=C(C[C@H]([NH2+]Cc1ccco1)C(=O)Nc1cccc(O)c1)NCCCCCCNC(=O)c1ccc(-c2c3nc(c(-c4c(F)c(F)c(F)c(F)c4F)c4ccc([nH]4)c(-c4c(F)c(F)c(F)c(F)c4F)c4nc(c(-c5c(F)c(F)c(F)c(F)c5F)c5ccc2[nH]5)C=C4)C=C3)cc1
REMARK SMILES IDX 24 1 23 2 22 3 1 4 2 5 3 7 4 8 12 9 13 10 14 11 15 13 16 14
REMARK SMILES IDX 21 15 17 16 19 17 18 18 20 19 5 21 6 24 7 25 8 26 11 27 9 28
REMARK SMILES IDX 10 29 25 30 26 31 27 32 28 33 29 34 30 35 31 37 32 38 33 39
REMARK SMILES IDX 94 40 34 41 93 42 35 43 36 44 37 45 87 46 38 47 92 48 86 49
REMARK SMILES IDX 88 50 39 51 91 52 85 53 84 54 40 56 72 57 52 58 71 59 53 60
REMARK SMILES IDX 56 61 70 62 89 63 54 64 55 65 69 67 90 68 57 69 41 70 42 71
REMARK SMILES IDX 50 72 43 73 44 74 48 75 51 76 45 77 46 78 49 79 47 80 73 81
REMARK SMILES IDX 74 82 82 83 75 84 76 85 80 86 83 87 77 88 78 89 81 90 79 91
REMARK SMILES IDX 58 92 59 93 67 94 60 95 61 96 65 97 68 98 62 99 63 100
REMARK SMILES IDX 66 101 64 102
REMARK H PARENT 22 6 14 12 20 20 5 22 5 23 29 36 88 55 56 66
REMARK Flexibility Score: inf
ROOT
ATOM      1  C   UNL A   1      35.978  31.991  27.977  1.00  0.00     0.021 C 
ENDROOT
BRANCH   1   2
ATOM      2  C   UNL A   1      34.838  30.975  28.052  1.00  0.00     0.116 C 
BRANCH   2   3
ATOM      3  N   UNL A   1      34.582  30.384  26.756  1.00  0.00    -0.356 N 
ATOM      4  O   UNL A   1      32.543  29.507  27.312  1.00  0.00    -0.275 OA
ATOM      5  C   UNL A   1      33.440  29.670  26.490  1.00  0.00     0.226 C 
ATOM      6  H   UNL A   1      35.249  30.498  26.040  1.00  0.00     0.163 HD
BRANCH   5   7
ATOM      7  C   UNL A   1      33.402  29.018  25.129  1.00  0.00     0.175 C 
BRANCH   7   8
ATOM      8  C   UNL A   1      32.005  28.807  24.520  1.00  0.00     0.282 C 
BRANCH   8   9
ATOM      9  C   UNL A   1      32.075  28.997  22.983  1.00  0.00     0.283 C 
ATOM     10  O   UNL A   1      33.125  28.702  22.393  1.00  0.00    -0.268 OA
ATOM     11  N   UNL A   1      31.005  29.376  22.217  1.00  0.00    -0.321 N 
ATOM     12  H   UNL A   1      31.146  29.269  21.248  1.00  0.00     0.170 HD
BRANCH  11  13
ATOM     13  C   UNL A   1      29.744  29.890  22.562  1.00  0.00     0.045 A 
ATOM     14  C   UNL A   1      29.511  31.232  22.859  1.00  0.00     0.026 A 
ATOM     15  C   UNL A   1      28.670  28.998  22.600  1.00  0.00     0.072 A 
ATOM     16  C   UNL A   1      28.260  31.663  23.304  1.00  0.00     0.006 A 
ATOM     17  C   UNL A   1      27.426  29.432  23.053  1.00  0.00     0.117 A 
ATOM     18  C   UNL A   1      27.214  30.755  23.424  1.00  0.00     0.046 A 
BRANCH  17  19
ATOM     19  O   UNL A   1      26.426  28.508  23.141  1.00  0.00    -0.508 OA
ATOM     20  H   UNL A   1      26.109  28.241  23.982  1.00  0.00     0.293 HD
ENDBRANCH  17  19
ENDBRANCH  11  13
ENDBRANCH   8   9
BRANCH   8  21
ATOM     21  N   UNL A   1      31.329  27.556  24.875  1.00  0.00    -0.329 N 
ATOM     22  H   UNL A   1      30.324  27.727  24.878  1.00  0.00     0.347 HD
ATOM     23  H   UNL A   1      31.690  27.280  25.788  1.00  0.00     0.347 HD
BRANCH  21  24
ATOM     24  C   UNL A   1      31.600  26.442  23.966  1.00  0.00     0.337 C 
BRANCH  24  25
ATOM     25  C   UNL A   1      32.742  25.627  24.475  1.00  0.00     0.157 A 
ATOM     26  C   UNL A   1      33.940  25.237  23.911  1.00  0.00     0.052 A 
ATOM     27  O   UNL A   1      32.660  25.156  25.757  1.00  0.00    -0.463 OA
ATOM     28  C   UNL A   1      34.638  24.516  24.910  1.00  0.00     0.042 A 
ATOM     29  C   UNL A   1      33.822  24.505  26.015  1.00  0.00     0.195 A 
ENDBRANCH  24  25
ENDBRANCH  21  24
ENDBRANCH   8  21
ENDBRANCH   7   8
ENDBRANCH   5   7
ENDBRANCH   2   3
ENDBRANCH   1   2
BRANCH   1  30
ATOM     30  C   UNL A   1      35.632  33.369  28.559  1.00  0.00     0.002 C 
BRANCH  30  31
ATOM     31  C   UNL A   1      34.334  33.428  29.369  1.00  0.00     0.002 C 
BRANCH  31  32
ATOM     32  C   UNL A   1      33.340  34.499  28.919  1.00  0.00     0.021 C 
BRANCH  32  33
ATOM     33  C   UNL A   1      33.541  35.865  29.566  1.00  0.00     0.116 C 
BRANCH  33  34
ATOM     34  N   UNL A   1      32.583  36.120  30.631  1.00  0.00    -0.352 N 
ATOM     35  C   UNL A   1      32.603  35.700  31.938  1.00  0.00     0.251 C 
ATOM     36  H   UNL A   1      31.808  36.672  30.378  1.00  0.00     0.163 HD
ATOM     37  O   UNL A   1      31.622  35.863  32.657  1.00  0.00    -0.269 OA
BRANCH  35  38
ATOM     38  C   UNL A   1      33.804  35.026  32.473  1.00  0.00     0.039 A 
ATOM     39  C   UNL A   1      33.676  33.739  33.002  1.00  0.00     0.014 A 
ATOM     40  C   UNL A   1      35.053  35.652  32.442  1.00  0.00     0.014 A 
ATOM     41  C   UNL A   1      34.814  33.052  33.432  1.00  0.00     0.010 A 
ATOM     42  C   UNL A   1      36.194  34.939  32.799  1.00  0.00     0.010 A 
ATOM     43  C   UNL A   1      36.086  33.630  33.294  1.00  0.00    -0.014 A 
BRANCH  43  44
ATOM     44  C   UNL A   1      37.317  32.875  33.644  1.00  0.00     0.031 A 
ATOM     45  C   UNL A   1      38.065  33.186  34.910  1.00  0.00     0.074 A 
ATOM     46  C   UNL A   1      37.801  31.958  32.784  1.00  0.00     0.049 A 
ATOM     47  N   UNL A   1      39.194  32.689  35.348  1.00  0.00    -0.248 NA
ATOM     48  C   UNL A   1      37.478  34.209  35.789  1.00  0.00     0.031 C 
ATOM     49  C   UNL A   1      37.193  31.601  31.500  1.00  0.00     0.029 A 
ATOM     50  N   UNL A   1      38.923  31.169  32.850  1.00  0.00    -0.354 N 
ATOM     51  C   UNL A   1      39.458  33.346  36.542  1.00  0.00     0.074 A 
ATOM     52  C   UNL A   1      38.401  34.317  36.732  1.00  0.00     0.031 C 
ATOM     53  C   UNL A   1      37.938  30.653  30.910  1.00  0.00     0.029 A 
ATOM     54  C   UNL A   1      39.098  30.368  31.748  1.00  0.00     0.049 A 
ATOM     55  H   UNL A   1      39.542  31.177  33.615  1.00  0.00     0.167 HD
ATOM     56  C   UNL A   1      40.477  33.143  37.413  1.00  0.00     0.037 A 
ATOM     57  C   UNL A   1      40.091  29.512  31.439  1.00  0.00     0.037 A 
ATOM     58  C   UNL A   1      41.518  32.167  37.224  1.00  0.00     0.049 A 
ATOM     59  C   UNL A   1      41.225  29.321  32.411  1.00  0.00     0.074 A 
ATOM     60  C   UNL A   1      42.561  31.842  38.075  1.00  0.00     0.029 A 
ATOM     61  N   UNL A   1      41.658  31.365  36.099  1.00  0.00    -0.354 N 
ATOM     62  N   UNL A   1      41.422  29.892  33.574  1.00  0.00    -0.248 NA
ATOM     63  C   UNL A   1      42.270  28.362  32.029  1.00  0.00     0.031 C 
ATOM     64  C   UNL A   1      43.364  30.890  37.440  1.00  0.00     0.029 A 
ATOM     65  C   UNL A   1      42.787  30.571  36.222  1.00  0.00     0.049 A 
ATOM     66  H   UNL A   1      41.045  31.362  35.329  1.00  0.00     0.167 HD
ATOM     67  C   UNL A   1      42.596  29.344  34.075  1.00  0.00     0.074 A 
ATOM     68  C   UNL A   1      43.057  28.381  33.096  1.00  0.00     0.031 C 
ATOM     69  C   UNL A   1      43.234  29.613  35.240  1.00  0.00     0.037 A 
BRANCH  56  70
ATOM     70  C   UNL A   1      40.518  33.999  38.647  1.00  0.00     0.064 A 
ATOM     71  C   UNL A   1      41.214  35.218  38.678  1.00  0.00     0.173 A 
ATOM     72  C   UNL A   1      39.825  33.614  39.804  1.00  0.00     0.173 A 
ATOM     73  F   UNL A   1      41.901  35.631  37.601  1.00  0.00    -0.203 F 
ATOM     74  C   UNL A   1      41.242  35.999  39.830  1.00  0.00     0.198 A 
ATOM     75  C   UNL A   1      39.827  34.415  40.943  1.00  0.00     0.198 A 
ATOM     76  F   UNL A   1      39.136  32.462  39.830  1.00  0.00    -0.203 F 
ATOM     77  F   UNL A   1      41.961  37.131  39.852  1.00  0.00    -0.200 F 
ATOM     78  C   UNL A   1      40.544  35.601  40.959  1.00  0.00     0.200 A 
ATOM     79  F   UNL A   1      39.136  34.037  42.028  1.00  0.00    -0.200 F 
ATOM     80  F   UNL A   1      40.566  36.358  42.064  1.00  0.00    -0.200 F 
ENDBRANCH  56  70
BRANCH  57  81
ATOM     81  C   UNL A   1      40.053  28.765  30.154  1.00  0.00     0.064 A 
ATOM     82  C   UNL A   1      39.443  27.506  30.068  1.00  0.00     0.173 A 
ATOM     83  C   UNL A   1      40.628  29.291  28.988  1.00  0.00     0.173 A 
ATOM     84  F   UNL A   1      38.897  26.950  31.159  1.00  0.00    -0.203 F 
ATOM     85  C   UNL A   1      39.429  26.792  28.871  1.00  0.00     0.198 A 
ATOM     86  C   UNL A   1      40.585  28.591  27.783  1.00  0.00     0.198 A 
ATOM     87  F   UNL A   1      41.220  30.494  29.013  1.00  0.00    -0.203 F 
ATOM     88  F   UNL A   1      38.884  25.569  28.828  1.00  0.00    -0.200 F 
ATOM     89  C   UNL A   1      39.995  27.338  27.728  1.00  0.00     0.200 A 
ATOM     90  F   UNL A   1      41.117  29.130  26.678  1.00  0.00    -0.200 F 
ATOM     91  F   UNL A   1      39.976  26.655  26.576  1.00  0.00    -0.200 F 
ENDBRANCH  57  81
BRANCH  69  92
ATOM     92  C   UNL A   1      44.484  28.836  35.541  1.00  0.00     0.064 A 
ATOM     93  C   UNL A   1      44.446  27.614  36.229  1.00  0.00     0.173 A 
ATOM     94  C   UNL A   1      45.731  29.300  35.096  1.00  0.00     0.173 A 
ATOM     95  F   UNL A   1      43.281  27.133  36.688  1.00  0.00    -0.203 F 
ATOM     96  C   UNL A   1      45.614  26.898  36.482  1.00  0.00     0.198 A 
ATOM     97  C   UNL A   1      46.892  28.565  35.320  1.00  0.00     0.198 A 
ATOM     98  F   UNL A   1      45.824  30.459  34.428  1.00  0.00    -0.203 F 
ATOM     99  F   UNL A   1      45.560  25.758  37.185  1.00  0.00    -0.200 F 
ATOM    100  C   UNL A   1      46.834  27.369  36.020  1.00  0.00     0.200 A 
ATOM    101  F   UNL A   1      48.068  29.014  34.858  1.00  0.00    -0.200 F 
ATOM    102  F   UNL A   1      47.954  26.674  36.255  1.00  0.00    -0.200 F 
ENDBRANCH  69  92
ENDBRANCH  43  44
ENDBRANCH  35  38
ENDBRANCH  33  34
ENDBRANCH  32  33
ENDBRANCH  31  32
ENDBRANCH  30  31
ENDBRANCH   1  30
TORSDOF 20
ENDMDL
