MODEL 1
REMARK VINA RESULT:     -10.5      0.000      0.000
REMARK SMILES CC(C)C[NH+]1CC[NH+]([C@H](C)[C@@H](C)C(=O)NCCCCCCNC(=O)c2ccc(-c3c4nc(c(-c5c(F)c(F)c(F)c(F)c5F)c5ccc([nH]5)c(-c5c(F)c(F)c(F)c(F)c5F)c5nc(c(-c6c(F)c(F)c(F)c(F)c6F)c6ccc3[nH]6)C=C5)C=C4)cc2)CC1
REMARK SMILES IDX 17 1 16 2 15 3 13 4 14 5 11 7 12 8 9 9 10 10 8 11 5 12 6 13
REMARK SMILES IDX 89 14 7 16 88 17 4 19 2 20 1 21 3 22 18 23 19 24 20 25 21 26
REMARK SMILES IDX 22 27 23 28 24 30 25 31 26 32 87 33 27 34 86 35 28 36 29 37
REMARK SMILES IDX 30 38 80 39 31 40 85 41 79 42 81 43 32 44 84 45 78 46 77 47
REMARK SMILES IDX 33 49 65 50 45 51 64 52 46 53 49 54 63 55 82 56 47 57 48 58
REMARK SMILES IDX 62 60 83 61 50 62 34 63 35 64 43 65 36 66 37 67 41 68 44 69
REMARK SMILES IDX 38 70 39 71 42 72 40 73 66 74 67 75 75 76 68 77 69 78 73 79
REMARK SMILES IDX 76 80 70 81 71 82 74 83 72 84 51 85 52 86 60 87 53 88 54 89
REMARK SMILES IDX 58 90 61 91 55 92 56 93 59 94 57 95
REMARK H PARENT 15 6 5 15 8 18 22 29 81 48 49 59
REMARK Flexibility Score: inf
ROOT
ATOM      1  C   UNL A   1      39.057  21.798  26.211  1.00  0.00     0.021 C 
ENDROOT
BRANCH   1   2
ATOM      2  C   UNL A   1      38.155  23.008  25.975  1.00  0.00     0.116 C 
BRANCH   2   3
ATOM      3  N   UNL A   1      37.758  23.103  24.589  1.00  0.00    -0.356 N 
ATOM      4  C   UNL A   1      36.595  22.769  23.973  1.00  0.00     0.228 C 
ATOM      5  O   UNL A   1      36.529  22.953  22.752  1.00  0.00    -0.275 OA
ATOM      6  H   UNL A   1      38.446  23.474  23.991  1.00  0.00     0.163 HD
BRANCH   4   7
ATOM      7  C   UNL A   1      35.378  22.273  24.745  1.00  0.00     0.133 C 
ATOM      8  C   UNL A   1      35.522  20.763  24.988  1.00  0.00     0.024 C 
BRANCH   7   9
ATOM      9  C   UNL A   1      34.007  22.743  24.161  1.00  0.00     0.193 C 
ATOM     10  C   UNL A   1      32.892  22.551  25.212  1.00  0.00     0.076 C 
BRANCH   9  11
ATOM     11  N   UNL A   1      34.044  24.105  23.559  1.00  0.00    -0.323 N 
ATOM     12  N   UNL A   1      32.475  26.614  22.999  1.00  0.00    -0.325 N 
ATOM     13  C   UNL A   1      33.657  26.609  23.896  1.00  0.00     0.324 C 
ATOM     14  C   UNL A   1      32.787  25.678  21.919  1.00  0.00     0.324 C 
ATOM     15  H   UNL A   1      32.266  27.491  22.523  1.00  0.00     0.348 HD
ATOM     16  C   UNL A   1      33.940  25.217  24.514  1.00  0.00     0.324 C 
ATOM     17  C   UNL A   1      33.242  24.255  22.331  1.00  0.00     0.324 C 
ATOM     18  H   UNL A   1      35.004  24.191  23.225  1.00  0.00     0.348 HD
BRANCH  12  19
ATOM     19  C   UNL A   1      31.259  26.434  23.809  1.00  0.00     0.265 C 
BRANCH  19  20
ATOM     20  C   UNL A   1      30.222  27.530  24.155  1.00  0.00     0.038 C 
ATOM     21  C   UNL A   1      30.529  28.929  23.634  1.00  0.00     0.013 C 
ATOM     22  C   UNL A   1      28.891  27.097  23.501  1.00  0.00     0.013 C 
ENDBRANCH  19  20
ENDBRANCH  12  19
ENDBRANCH   9  11
ENDBRANCH   7   9
ENDBRANCH   4   7
ENDBRANCH   2   3
ENDBRANCH   1   2
BRANCH   1  23
ATOM     23  C   UNL A   1      40.555  22.125  26.168  1.00  0.00     0.002 C 
BRANCH  23  24
ATOM     24  C   UNL A   1      41.463  21.086  26.838  1.00  0.00     0.002 C 
BRANCH  24  25
ATOM     25  C   UNL A   1      41.563  19.745  26.109  1.00  0.00     0.021 C 
BRANCH  25  26
ATOM     26  C   UNL A   1      42.760  18.894  26.515  1.00  0.00     0.116 C 
BRANCH  26  27
ATOM     27  N   UNL A   1      43.600  18.566  25.376  1.00  0.00    -0.352 N 
ATOM     28  C   UNL A   1      44.343  19.396  24.576  1.00  0.00     0.251 C 
ATOM     29  H   UNL A   1      43.644  17.610  25.147  1.00  0.00     0.163 HD
ATOM     30  O   UNL A   1      44.826  18.978  23.531  1.00  0.00    -0.269 OA
BRANCH  28  31
ATOM     31  C   UNL A   1      44.548  20.808  24.969  1.00  0.00     0.039 A 
ATOM     32  C   UNL A   1      44.039  21.815  24.146  1.00  0.00     0.014 A 
ATOM     33  C   UNL A   1      45.263  21.136  26.124  1.00  0.00     0.014 A 
ATOM     34  C   UNL A   1      44.208  23.153  24.506  1.00  0.00     0.010 A 
ATOM     35  C   UNL A   1      45.370  22.467  26.518  1.00  0.00     0.010 A 
ATOM     36  C   UNL A   1      44.854  23.490  25.708  1.00  0.00    -0.014 A 
BRANCH  36  37
ATOM     37  C   UNL A   1      45.015  24.907  26.121  1.00  0.00     0.031 A 
ATOM     38  C   UNL A   1      46.361  25.571  26.023  1.00  0.00     0.074 A 
ATOM     39  C   UNL A   1      43.965  25.575  26.637  1.00  0.00     0.049 A 
ATOM     40  N   UNL A   1      46.719  26.776  26.391  1.00  0.00    -0.248 NA
ATOM     41  C   UNL A   1      47.459  24.767  25.461  1.00  0.00     0.031 C 
ATOM     42  C   UNL A   1      42.621  25.026  26.822  1.00  0.00     0.029 A 
ATOM     43  N   UNL A   1      43.865  26.861  27.108  1.00  0.00    -0.354 N 
ATOM     44  C   UNL A   1      48.080  26.863  26.128  1.00  0.00     0.074 A 
ATOM     45  C   UNL A   1      48.495  25.579  25.610  1.00  0.00     0.031 C 
ATOM     46  C   UNL A   1      41.827  25.974  27.347  1.00  0.00     0.029 A 
ATOM     47  C   UNL A   1      42.613  27.184  27.569  1.00  0.00     0.049 A 
ATOM     48  H   UNL A   1      44.622  27.491  27.115  1.00  0.00     0.167 HD
ATOM     49  C   UNL A   1      48.903  27.926  26.288  1.00  0.00     0.037 A 
ATOM     50  C   UNL A   1      42.154  28.326  28.115  1.00  0.00     0.037 A 
ATOM     51  C   UNL A   1      48.475  29.217  26.760  1.00  0.00     0.049 A 
ATOM     52  C   UNL A   1      43.093  29.494  28.270  1.00  0.00     0.074 A 
ATOM     53  C   UNL A   1      49.216  30.381  26.877  1.00  0.00     0.029 A 
ATOM     54  N   UNL A   1      47.192  29.513  27.192  1.00  0.00    -0.354 N 
ATOM     55  N   UNL A   1      44.358  29.589  27.941  1.00  0.00    -0.248 NA
ATOM     56  C   UNL A   1      42.536  30.716  28.867  1.00  0.00     0.031 C 
ATOM     57  C   UNL A   1      48.394  31.368  27.427  1.00  0.00     0.029 A 
ATOM     58  C   UNL A   1      47.127  30.836  27.601  1.00  0.00     0.049 A 
ATOM     59  H   UNL A   1      46.440  28.879  27.207  1.00  0.00     0.167 HD
ATOM     60  C   UNL A   1      44.735  30.889  28.250  1.00  0.00     0.074 A 
ATOM     61  C   UNL A   1      43.563  31.549  28.785  1.00  0.00     0.031 C 
ATOM     62  C   UNL A   1      45.945  31.483  28.106  1.00  0.00     0.037 A 
BRANCH  49  63
ATOM     63  C   UNL A   1      50.354  27.751  25.946  1.00  0.00     0.064 A 
ATOM     64  C   UNL A   1      50.822  27.881  24.630  1.00  0.00     0.173 A 
ATOM     65  C   UNL A   1      51.297  27.521  26.959  1.00  0.00     0.173 A 
ATOM     66  F   UNL A   1      49.960  28.090  23.624  1.00  0.00    -0.203 F 
ATOM     67  C   UNL A   1      52.180  27.770  24.339  1.00  0.00     0.198 A 
ATOM     68  C   UNL A   1      52.656  27.439  26.668  1.00  0.00     0.198 A 
ATOM     69  F   UNL A   1      50.902  27.396  28.234  1.00  0.00    -0.203 F 
ATOM     70  F   UNL A   1      52.601  27.861  23.070  1.00  0.00    -0.200 F 
ATOM     71  C   UNL A   1      53.095  27.560  25.358  1.00  0.00     0.200 A 
ATOM     72  F   UNL A   1      53.541  27.251  27.656  1.00  0.00    -0.200 F 
ATOM     73  F   UNL A   1      54.403  27.470  25.078  1.00  0.00    -0.200 F 
ENDBRANCH  49  63
BRANCH  50  74
ATOM     74  C   UNL A   1      40.733  28.441  28.540  1.00  0.00     0.064 A 
ATOM     75  C   UNL A   1      39.762  28.952  27.668  1.00  0.00     0.173 A 
ATOM     76  C   UNL A   1      40.325  28.084  29.833  1.00  0.00     0.173 A 
ATOM     77  F   UNL A   1      40.106  29.328  26.428  1.00  0.00    -0.203 F 
ATOM     78  C   UNL A   1      38.445  29.137  28.084  1.00  0.00     0.198 A 
ATOM     79  C   UNL A   1      39.001  28.238  30.238  1.00  0.00     0.198 A 
ATOM     80  F   UNL A   1      41.213  27.584  30.705  1.00  0.00    -0.203 F 
ATOM     81  F   UNL A   1      37.552  29.688  27.251  1.00  0.00    -0.200 F 
ATOM     82  C   UNL A   1      38.064  28.777  29.368  1.00  0.00     0.200 A 
ATOM     83  F   UNL A   1      38.634  27.876  31.474  1.00  0.00    -0.200 F 
ATOM     84  F   UNL A   1      36.800  28.961  29.771  1.00  0.00    -0.200 F 
ENDBRANCH  50  74
BRANCH  62  85
ATOM     85  C   UNL A   1      46.048  32.935  28.477  1.00  0.00     0.064 A 
ATOM     86  C   UNL A   1      45.801  33.955  27.547  1.00  0.00     0.173 A 
ATOM     87  C   UNL A   1      46.366  33.306  29.792  1.00  0.00     0.173 A 
ATOM     88  F   UNL A   1      45.508  33.651  26.273  1.00  0.00    -0.203 F 
ATOM     89  C   UNL A   1      45.895  35.294  27.914  1.00  0.00     0.198 A 
ATOM     90  C   UNL A   1      46.427  34.646  30.164  1.00  0.00     0.198 A 
ATOM     91  F   UNL A   1      46.602  32.369  30.722  1.00  0.00    -0.203 F 
ATOM     92  F   UNL A   1      45.706  36.253  26.997  1.00  0.00    -0.200 F 
ATOM     93  C   UNL A   1      46.201  35.639  29.222  1.00  0.00     0.200 A 
ATOM     94  F   UNL A   1      46.707  34.977  31.432  1.00  0.00    -0.200 F 
ATOM     95  F   UNL A   1      46.284  36.929  29.575  1.00  0.00    -0.200 F 
ENDBRANCH  62  85
ENDBRANCH  36  37
ENDBRANCH  28  31
ENDBRANCH  26  27
ENDBRANCH  25  26
ENDBRANCH  24  25
ENDBRANCH  23  24
ENDBRANCH   1  23
TORSDOF 17
ENDMDL
MODEL 2
REMARK VINA RESULT:     -10.2      1.452      7.616
REMARK SMILES CC(C)C[NH+]1CC[NH+]([C@H](C)[C@@H](C)C(=O)NCCCCCCNC(=O)c2ccc(-c3c4nc(c(-c5c(F)c(F)c(F)c(F)c5F)c5ccc([nH]5)c(-c5c(F)c(F)c(F)c(F)c5F)c5nc(c(-c6c(F)c(F)c(F)c(F)c6F)c6ccc3[nH]6)C=C5)C=C4)cc2)CC1
REMARK SMILES IDX 17 1 16 2 15 3 13 4 14 5 11 7 12 8 9 9 10 10 8 11 5 12 6 13
REMARK SMILES IDX 89 14 7 16 88 17 4 19 2 20 1 21 3 22 18 23 19 24 20 25 21 26
REMARK SMILES IDX 22 27 23 28 24 30 25 31 26 32 87 33 27 34 86 35 28 36 29 37
REMARK SMILES IDX 30 38 80 39 31 40 85 41 79 42 81 43 32 44 84 45 78 46 77 47
REMARK SMILES IDX 33 49 65 50 45 51 64 52 46 53 49 54 63 55 82 56 47 57 48 58
REMARK SMILES IDX 62 60 83 61 50 62 34 63 35 64 43 65 36 66 37 67 41 68 44 69
REMARK SMILES IDX 38 70 39 71 42 72 40 73 66 74 67 75 75 76 68 77 69 78 73 79
REMARK SMILES IDX 76 80 70 81 71 82 74 83 72 84 51 85 52 86 60 87 53 88 54 89
REMARK SMILES IDX 58 90 61 91 55 92 56 93 59 94 57 95
REMARK H PARENT 15 6 5 15 8 18 22 29 81 48 49 59
REMARK Flexibility Score: inf
ROOT
ATOM      1  C   UNL A   1      38.034  23.679  26.001  1.00  0.00     0.021 C 
ENDROOT
BRANCH   1   2
ATOM      2  C   UNL A   1      36.525  23.614  25.775  1.00  0.00     0.116 C 
BRANCH   2   3
ATOM      3  N   UNL A   1      36.203  23.675  24.368  1.00  0.00    -0.356 N 
ATOM      4  C   UNL A   1      35.185  23.117  23.664  1.00  0.00     0.228 C 
ATOM      5  O   UNL A   1      35.154  23.331  22.447  1.00  0.00    -0.275 OA
ATOM      6  H   UNL A   1      36.826  24.212  23.828  1.00  0.00     0.163 HD
BRANCH   4   7
ATOM      7  C   UNL A   1      34.064  22.333  24.338  1.00  0.00     0.133 C 
ATOM      8  C   UNL A   1      34.556  20.907  24.626  1.00  0.00     0.024 C 
BRANCH   7   9
ATOM      9  C   UNL A   1      32.678  22.446  23.624  1.00  0.00     0.193 C 
ATOM     10  C   UNL A   1      32.229  21.056  23.122  1.00  0.00     0.076 C 
BRANCH   9  11
ATOM     11  N   UNL A   1      31.646  23.164  24.424  1.00  0.00    -0.323 N 
ATOM     12  N   UNL A   1      31.006  25.666  25.975  1.00  0.00    -0.325 N 
ATOM     13  C   UNL A   1      30.279  25.302  24.734  1.00  0.00     0.324 C 
ATOM     14  C   UNL A   1      31.265  24.406  26.673  1.00  0.00     0.324 C 
ATOM     15  H   UNL A   1      30.499  26.232  26.653  1.00  0.00     0.348 HD
ATOM     16  C   UNL A   1      31.101  24.378  23.800  1.00  0.00     0.324 C 
ATOM     17  C   UNL A   1      31.955  23.280  25.860  1.00  0.00     0.324 C 
ATOM     18  H   UNL A   1      30.848  22.530  24.405  1.00  0.00     0.348 HD
BRANCH  12  19
ATOM     19  C   UNL A   1      32.120  26.565  25.630  1.00  0.00     0.265 C 
BRANCH  19  20
ATOM     20  C   UNL A   1      32.409  27.946  26.268  1.00  0.00     0.038 C 
ATOM     21  C   UNL A   1      31.767  28.203  27.626  1.00  0.00     0.013 C 
ATOM     22  C   UNL A   1      33.937  28.019  26.481  1.00  0.00     0.013 C 
ENDBRANCH  19  20
ENDBRANCH  12  19
ENDBRANCH   9  11
ENDBRANCH   7   9
ENDBRANCH   4   7
ENDBRANCH   2   3
ENDBRANCH   1   2
BRANCH   1  23
ATOM     23  C   UNL A   1      38.703  22.304  26.119  1.00  0.00     0.002 C 
BRANCH  23  24
ATOM     24  C   UNL A   1      38.108  21.216  25.217  1.00  0.00     0.002 C 
BRANCH  24  25
ATOM     25  C   UNL A   1      38.814  19.860  25.284  1.00  0.00     0.021 C 
BRANCH  25  26
ATOM     26  C   UNL A   1      39.772  19.705  26.460  1.00  0.00     0.116 C 
BRANCH  26  27
ATOM     27  N   UNL A   1      40.904  18.858  26.125  1.00  0.00    -0.352 N 
ATOM     28  C   UNL A   1      42.207  19.207  25.878  1.00  0.00     0.251 C 
ATOM     29  H   UNL A   1      40.708  17.896  26.070  1.00  0.00     0.163 HD
ATOM     30  O   UNL A   1      42.987  18.389  25.404  1.00  0.00    -0.269 OA
BRANCH  28  31
ATOM     31  C   UNL A   1      42.669  20.582  26.168  1.00  0.00     0.039 A 
ATOM     32  C   UNL A   1      43.142  21.370  25.116  1.00  0.00     0.014 A 
ATOM     33  C   UNL A   1      42.665  21.081  27.474  1.00  0.00     0.014 A 
ATOM     34  C   UNL A   1      43.568  22.675  25.366  1.00  0.00     0.010 A 
ATOM     35  C   UNL A   1      43.023  22.405  27.711  1.00  0.00     0.010 A 
ATOM     36  C   UNL A   1      43.490  23.212  26.662  1.00  0.00    -0.014 A 
BRANCH  36  37
ATOM     37  C   UNL A   1      43.910  24.609  26.941  1.00  0.00     0.031 A 
ATOM     38  C   UNL A   1      42.908  25.611  27.441  1.00  0.00     0.074 A 
ATOM     39  C   UNL A   1      45.180  24.986  26.690  1.00  0.00     0.049 A 
ATOM     40  N   UNL A   1      43.063  26.889  27.683  1.00  0.00    -0.248 NA
ATOM     41  C   UNL A   1      41.539  25.121  27.676  1.00  0.00     0.031 C 
ATOM     42  C   UNL A   1      46.233  24.116  26.164  1.00  0.00     0.029 A 
ATOM     43  N   UNL A   1      45.797  26.203  26.836  1.00  0.00    -0.354 N 
ATOM     44  C   UNL A   1      41.814  27.355  28.073  1.00  0.00     0.074 A 
ATOM     45  C   UNL A   1      40.900  26.236  27.996  1.00  0.00     0.031 C 
ATOM     46  C   UNL A   1      47.371  24.822  26.051  1.00  0.00     0.029 A 
ATOM     47  C   UNL A   1      47.119  26.200  26.462  1.00  0.00     0.049 A 
ATOM     48  H   UNL A   1      45.335  27.003  27.177  1.00  0.00     0.167 HD
ATOM     49  C   UNL A   1      41.467  28.600  28.477  1.00  0.00     0.037 A 
ATOM     50  C   UNL A   1      48.022  27.199  26.447  1.00  0.00     0.037 A 
ATOM     51  C   UNL A   1      42.389  29.698  28.596  1.00  0.00     0.049 A 
ATOM     52  C   UNL A   1      47.606  28.570  26.911  1.00  0.00     0.074 A 
ATOM     53  C   UNL A   1      42.152  30.975  29.076  1.00  0.00     0.029 A 
ATOM     54  N   UNL A   1      43.726  29.649  28.233  1.00  0.00    -0.354 N 
ATOM     55  N   UNL A   1      46.442  28.977  27.356  1.00  0.00    -0.248 NA
ATOM     56  C   UNL A   1      48.635  29.619  26.878  1.00  0.00     0.031 C 
ATOM     57  C   UNL A   1      43.332  31.713  28.957  1.00  0.00     0.029 A 
ATOM     58  C   UNL A   1      44.320  30.881  28.455  1.00  0.00     0.049 A 
ATOM     59  H   UNL A   1      44.185  28.856  27.871  1.00  0.00     0.167 HD
ATOM     60  C   UNL A   1      46.610  30.313  27.694  1.00  0.00     0.074 A 
ATOM     61  C   UNL A   1      47.990  30.646  27.412  1.00  0.00     0.031 C 
ATOM     62  C   UNL A   1      45.702  31.187  28.192  1.00  0.00     0.037 A 
BRANCH  49  63
ATOM     63  C   UNL A   1      40.029  28.851  28.828  1.00  0.00     0.064 A 
ATOM     64  C   UNL A   1      39.095  29.260  27.865  1.00  0.00     0.173 A 
ATOM     65  C   UNL A   1      39.567  28.612  30.131  1.00  0.00     0.173 A 
ATOM     66  F   UNL A   1      39.489  29.513  26.607  1.00  0.00    -0.203 F 
ATOM     67  C   UNL A   1      37.754  29.436  28.197  1.00  0.00     0.198 A 
ATOM     68  C   UNL A   1      38.221  28.761  30.453  1.00  0.00     0.198 A 
ATOM     69  F   UNL A   1      40.418  28.214  31.088  1.00  0.00    -0.203 F 
ATOM     70  F   UNL A   1      36.886  29.861  27.269  1.00  0.00    -0.200 F 
ATOM     71  C   UNL A   1      37.317  29.176  29.487  1.00  0.00     0.200 A 
ATOM     72  F   UNL A   1      37.797  28.495  31.696  1.00  0.00    -0.200 F 
ATOM     73  F   UNL A   1      36.023  29.329  29.800  1.00  0.00    -0.200 F 
ENDBRANCH  49  63
BRANCH  50  74
ATOM     74  C   UNL A   1      49.417  26.947  25.997  1.00  0.00     0.064 A 
ATOM     75  C   UNL A   1      50.413  26.587  26.916  1.00  0.00     0.173 A 
ATOM     76  C   UNL A   1      49.792  27.099  24.655  1.00  0.00     0.173 A 
ATOM     77  F   UNL A   1      50.109  26.450  28.215  1.00  0.00    -0.203 F 
ATOM     78  C   UNL A   1      51.738  26.427  26.516  1.00  0.00     0.198 A 
ATOM     79  C   UNL A   1      51.112  26.906  24.250  1.00  0.00     0.198 A 
ATOM     80  F   UNL A   1      48.876  27.436  23.734  1.00  0.00    -0.203 F 
ATOM     81  F   UNL A   1      52.682  26.147  27.426  1.00  0.00    -0.200 F 
ATOM     82  C   UNL A   1      52.086  26.583  25.183  1.00  0.00     0.200 A 
ATOM     83  F   UNL A   1      51.441  27.044  22.959  1.00  0.00    -0.200 F 
ATOM     84  F   UNL A   1      53.361  26.436  24.799  1.00  0.00    -0.200 F 
ENDBRANCH  50  74
BRANCH  62  85
ATOM     85  C   UNL A   1      46.184  32.571  28.519  1.00  0.00     0.064 A 
ATOM     86  C   UNL A   1      46.677  32.901  29.790  1.00  0.00     0.173 A 
ATOM     87  C   UNL A   1      46.185  33.570  27.534  1.00  0.00     0.173 A 
ATOM     88  F   UNL A   1      46.682  31.985  30.771  1.00  0.00    -0.203 F 
ATOM     89  C   UNL A   1      47.126  34.189  30.071  1.00  0.00     0.198 A 
ATOM     90  C   UNL A   1      46.666  34.847  27.808  1.00  0.00     0.198 A 
ATOM     91  F   UNL A   1      45.733  33.303  26.299  1.00  0.00    -0.203 F 
ATOM     92  F   UNL A   1      47.543  34.496  31.306  1.00  0.00    -0.200 F 
ATOM     93  C   UNL A   1      47.126  35.158  29.078  1.00  0.00     0.200 A 
ATOM     94  F   UNL A   1      46.681  35.778  26.843  1.00  0.00    -0.200 F 
ATOM     95  F   UNL A   1      47.566  36.394  29.348  1.00  0.00    -0.200 F 
ENDBRANCH  62  85
ENDBRANCH  36  37
ENDBRANCH  28  31
ENDBRANCH  26  27
ENDBRANCH  25  26
ENDBRANCH  24  25
ENDBRANCH  23  24
ENDBRANCH   1  23
TORSDOF 17
ENDMDL
MODEL 3
REMARK VINA RESULT:     -10.2      1.475      7.613
REMARK SMILES CC(C)C[NH+]1CC[NH+]([C@H](C)[C@@H](C)C(=O)NCCCCCCNC(=O)c2ccc(-c3c4nc(c(-c5c(F)c(F)c(F)c(F)c5F)c5ccc([nH]5)c(-c5c(F)c(F)c(F)c(F)c5F)c5nc(c(-c6c(F)c(F)c(F)c(F)c6F)c6ccc3[nH]6)C=C5)C=C4)cc2)CC1
REMARK SMILES IDX 17 1 16 2 15 3 13 4 14 5 11 7 12 8 9 9 10 10 8 11 5 12 6 13
REMARK SMILES IDX 89 14 7 16 88 17 4 19 2 20 1 21 3 22 18 23 19 24 20 25 21 26
REMARK SMILES IDX 22 27 23 28 24 30 25 31 26 32 87 33 27 34 86 35 28 36 29 37
REMARK SMILES IDX 30 38 80 39 31 40 85 41 79 42 81 43 32 44 84 45 78 46 77 47
REMARK SMILES IDX 33 49 65 50 45 51 64 52 46 53 49 54 63 55 82 56 47 57 48 58
REMARK SMILES IDX 62 60 83 61 50 62 34 63 35 64 43 65 36 66 37 67 41 68 44 69
REMARK SMILES IDX 38 70 39 71 42 72 40 73 66 74 67 75 75 76 68 77 69 78 73 79
REMARK SMILES IDX 76 80 70 81 71 82 74 83 72 84 51 85 52 86 60 87 53 88 54 89
REMARK SMILES IDX 58 90 61 91 55 92 56 93 59 94 57 95
REMARK H PARENT 15 6 5 15 8 18 22 29 81 48 49 59
REMARK Flexibility Score: inf
ROOT
ATOM      1  C   UNL A   1      37.837  23.641  25.989  1.00  0.00     0.021 C 
ENDROOT
BRANCH   1   2
ATOM      2  C   UNL A   1      36.332  23.583  25.736  1.00  0.00     0.116 C 
BRANCH   2   3
ATOM      3  N   UNL A   1      36.034  23.660  24.324  1.00  0.00    -0.356 N 
ATOM      4  C   UNL A   1      35.024  23.116  23.598  1.00  0.00     0.228 C 
ATOM      5  O   UNL A   1      35.016  23.342  22.383  1.00  0.00    -0.275 OA
ATOM      6  H   UNL A   1      36.670  24.199  23.801  1.00  0.00     0.163 HD
BRANCH   4   7
ATOM      7  C   UNL A   1      33.886  22.334  24.245  1.00  0.00     0.133 C 
ATOM      8  C   UNL A   1      34.408  20.954  24.670  1.00  0.00     0.024 C 
BRANCH   7   9
ATOM      9  C   UNL A   1      32.554  22.338  23.428  1.00  0.00     0.193 C 
ATOM     10  C   UNL A   1      32.136  20.890  23.092  1.00  0.00     0.076 C 
BRANCH   9  11
ATOM     11  N   UNL A   1      31.470  23.153  24.048  1.00  0.00    -0.323 N 
ATOM     12  N   UNL A   1      30.807  25.713  25.489  1.00  0.00    -0.325 N 
ATOM     13  C   UNL A   1      30.270  25.408  24.140  1.00  0.00     0.324 C 
ATOM     14  C   UNL A   1      30.828  24.440  26.210  1.00  0.00     0.324 C 
ATOM     15  H   UNL A   1      30.245  26.328  26.076  1.00  0.00     0.348 HD
ATOM     16  C   UNL A   1      31.152  24.407  23.351  1.00  0.00     0.324 C 
ATOM     17  C   UNL A   1      31.541  23.251  25.517  1.00  0.00     0.324 C 
ATOM     18  H   UNL A   1      30.633  22.593  23.889  1.00  0.00     0.348 HD
BRANCH  12  19
ATOM     19  C   UNL A   1      32.039  26.505  25.346  1.00  0.00     0.265 C 
BRANCH  19  20
ATOM     20  C   UNL A   1      32.227  27.985  25.759  1.00  0.00     0.038 C 
ATOM     21  C   UNL A   1      31.416  29.007  24.971  1.00  0.00     0.013 C 
ATOM     22  C   UNL A   1      31.763  28.092  27.229  1.00  0.00     0.013 C 
ENDBRANCH  19  20
ENDBRANCH  12  19
ENDBRANCH   9  11
ENDBRANCH   7   9
ENDBRANCH   4   7
ENDBRANCH   2   3
ENDBRANCH   1   2
BRANCH   1  23
ATOM     23  C   UNL A   1      38.498  22.262  26.107  1.00  0.00     0.002 C 
BRANCH  23  24
ATOM     24  C   UNL A   1      38.040  21.234  25.066  1.00  0.00     0.002 C 
BRANCH  24  25
ATOM     25  C   UNL A   1      38.765  19.887  25.121  1.00  0.00     0.021 C 
BRANCH  25  26
ATOM     26  C   UNL A   1      39.615  19.679  26.370  1.00  0.00     0.116 C 
BRANCH  26  27
ATOM     27  N   UNL A   1      40.761  18.827  26.106  1.00  0.00    -0.352 N 
ATOM     28  C   UNL A   1      42.076  19.170  25.925  1.00  0.00     0.251 C 
ATOM     29  H   UNL A   1      40.566  17.864  26.051  1.00  0.00     0.163 HD
ATOM     30  O   UNL A   1      42.878  18.346  25.503  1.00  0.00    -0.269 OA
BRANCH  28  31
ATOM     31  C   UNL A   1      42.526  20.548  26.225  1.00  0.00     0.039 A 
ATOM     32  C   UNL A   1      42.869  21.389  25.164  1.00  0.00     0.014 A 
ATOM     33  C   UNL A   1      42.637  20.996  27.544  1.00  0.00     0.014 A 
ATOM     34  C   UNL A   1      43.280  22.698  25.424  1.00  0.00     0.010 A 
ATOM     35  C   UNL A   1      42.980  22.322  27.799  1.00  0.00     0.010 A 
ATOM     36  C   UNL A   1      43.317  23.182  26.742  1.00  0.00    -0.014 A 
BRANCH  36  37
ATOM     37  C   UNL A   1      43.722  24.580  27.035  1.00  0.00     0.031 A 
ATOM     38  C   UNL A   1      42.713  25.563  27.560  1.00  0.00     0.074 A 
ATOM     39  C   UNL A   1      44.984  24.977  26.775  1.00  0.00     0.049 A 
ATOM     40  N   UNL A   1      42.855  26.839  27.818  1.00  0.00    -0.248 NA
ATOM     41  C   UNL A   1      41.354  25.052  27.805  1.00  0.00     0.031 C 
ATOM     42  C   UNL A   1      46.041  24.128  26.225  1.00  0.00     0.029 A 
ATOM     43  N   UNL A   1      45.588  26.200  26.931  1.00  0.00    -0.354 N 
ATOM     44  C   UNL A   1      41.605  27.284  28.229  1.00  0.00     0.074 A 
ATOM     45  C   UNL A   1      40.705  26.155  28.148  1.00  0.00     0.031 C 
ATOM     46  C   UNL A   1      47.169  24.850  26.108  1.00  0.00     0.029 A 
ATOM     47  C   UNL A   1      46.905  26.219  26.541  1.00  0.00     0.049 A 
ATOM     48  H   UNL A   1      45.120  26.989  27.288  1.00  0.00     0.167 HD
ATOM     49  C   UNL A   1      41.247  28.519  28.654  1.00  0.00     0.037 A 
ATOM     50  C   UNL A   1      47.795  27.229  26.529  1.00  0.00     0.037 A 
ATOM     51  C   UNL A   1      42.157  29.627  28.778  1.00  0.00     0.049 A 
ATOM     52  C   UNL A   1      47.367  28.588  27.017  1.00  0.00     0.074 A 
ATOM     53  C   UNL A   1      41.909  30.894  29.278  1.00  0.00     0.029 A 
ATOM     54  N   UNL A   1      43.490  29.599  28.399  1.00  0.00    -0.354 N 
ATOM     55  N   UNL A   1      46.204  28.974  27.481  1.00  0.00    -0.248 NA
ATOM     56  C   UNL A   1      48.382  29.651  26.986  1.00  0.00     0.031 C 
ATOM     57  C   UNL A   1      43.079  31.649  29.155  1.00  0.00     0.029 A 
ATOM     58  C   UNL A   1      44.071  30.836  28.630  1.00  0.00     0.049 A 
ATOM     59  H   UNL A   1      43.954  28.818  28.021  1.00  0.00     0.167 HD
ATOM     60  C   UNL A   1      46.359  30.308  27.835  1.00  0.00     0.074 A 
ATOM     61  C   UNL A   1      47.730  30.663  27.542  1.00  0.00     0.031 C 
ATOM     62  C   UNL A   1      45.445  31.164  28.356  1.00  0.00     0.037 A 
BRANCH  49  63
ATOM     63  C   UNL A   1      39.811  28.747  29.026  1.00  0.00     0.064 A 
ATOM     64  C   UNL A   1      39.349  28.559  30.337  1.00  0.00     0.173 A 
ATOM     65  C   UNL A   1      38.901  29.228  28.072  1.00  0.00     0.173 A 
ATOM     66  F   UNL A   1      40.177  28.090  31.283  1.00  0.00    -0.203 F 
ATOM     67  C   UNL A   1      38.026  28.828  30.675  1.00  0.00     0.198 A 
ATOM     68  C   UNL A   1      37.586  29.523  28.421  1.00  0.00     0.198 A 
ATOM     69  F   UNL A   1      39.293  29.430  26.805  1.00  0.00    -0.203 F 
ATOM     70  F   UNL A   1      37.598  28.608  31.926  1.00  0.00    -0.200 F 
ATOM     71  C   UNL A   1      37.149  29.320  29.721  1.00  0.00     0.200 A 
ATOM     72  F   UNL A   1      36.744  30.012  27.500  1.00  0.00    -0.200 F 
ATOM     73  F   UNL A   1      35.880  29.595  30.053  1.00  0.00    -0.200 F 
ENDBRANCH  49  63
BRANCH  50  74
ATOM     74  C   UNL A   1      49.187  27.001  26.060  1.00  0.00     0.064 A 
ATOM     75  C   UNL A   1      49.514  27.114  24.701  1.00  0.00     0.173 A 
ATOM     76  C   UNL A   1      50.208  26.628  26.946  1.00  0.00     0.173 A 
ATOM     77  F   UNL A   1      48.569  27.448  23.810  1.00  0.00    -0.203 F 
ATOM     78  C   UNL A   1      50.797  26.826  24.241  1.00  0.00     0.198 A 
ATOM     79  C   UNL A   1      51.499  26.371  26.490  1.00  0.00     0.198 A 
ATOM     80  F   UNL A   1      49.950  26.511  28.257  1.00  0.00    -0.203 F 
ATOM     81  F   UNL A   1      51.065  26.879  22.929  1.00  0.00    -0.200 F 
ATOM     82  C   UNL A   1      51.790  26.458  25.136  1.00  0.00     0.200 A 
ATOM     83  F   UNL A   1      52.458  26.029  27.360  1.00  0.00    -0.200 F 
ATOM     84  F   UNL A   1      53.022  26.173  24.694  1.00  0.00    -0.200 F 
ENDBRANCH  50  74
BRANCH  62  85
ATOM     85  C   UNL A   1      45.914  32.549  28.696  1.00  0.00     0.064 A 
ATOM     86  C   UNL A   1      46.537  32.839  29.919  1.00  0.00     0.173 A 
ATOM     87  C   UNL A   1      45.767  33.592  27.769  1.00  0.00     0.173 A 
ATOM     88  F   UNL A   1      46.688  31.879  30.845  1.00  0.00    -0.203 F 
ATOM     89  C   UNL A   1      46.971  34.129  30.211  1.00  0.00     0.198 A 
ATOM     90  C   UNL A   1      46.232  34.873  28.052  1.00  0.00     0.198 A 
ATOM     91  F   UNL A   1      45.186  33.365  26.582  1.00  0.00    -0.203 F 
ATOM     92  F   UNL A   1      47.516  34.395  31.406  1.00  0.00    -0.200 F 
ATOM     93  C   UNL A   1      46.824  35.142  29.276  1.00  0.00     0.200 A 
ATOM     94  F   UNL A   1      46.104  35.847  27.140  1.00  0.00    -0.200 F 
ATOM     95  F   UNL A   1      47.249  36.382  29.557  1.00  0.00    -0.200 F 
ENDBRANCH  62  85
ENDBRANCH  36  37
ENDBRANCH  28  31
ENDBRANCH  26  27
ENDBRANCH  25  26
ENDBRANCH  24  25
ENDBRANCH  23  24
ENDBRANCH   1  23
TORSDOF 17
ENDMDL
