MODEL 1
REMARK VINA RESULT:     -11.6      0.000      0.000
REMARK SMILES CC(C)[NH2+][C@@]1(C(=O)NCCCCCCNC(=O)c2ccc(-c3c4nc(c(-c5c(F)c(F)c(F)c(F)c5F)c5ccc([nH]5)c(-c5c(F)c(F)c(F)c(F)c5F)c5nc(c(-c6c(F)c(F)c(F)c(F)c6F)c6ccc3[nH]6)C=C5)C=C4)cc2)CCC[C@@H]1CCOC1CCOCC1
REMARK SMILES IDX 10 1 9 2 8 3 6 4 7 5 5 7 81 8 84 9 82 10 83 11 4 12 2 15
REMARK SMILES IDX 1 16 3 17 85 18 86 19 87 20 88 21 89 22 93 23 90 24 92 25
REMARK SMILES IDX 91 26 11 27 12 28 13 29 14 30 15 31 16 32 17 34 18 35 19 36
REMARK SMILES IDX 80 37 20 38 79 39 21 40 22 41 23 42 73 43 24 44 78 45 72 46
REMARK SMILES IDX 74 47 25 48 77 49 71 50 70 51 26 53 58 54 38 55 57 56 39 57
REMARK SMILES IDX 42 58 56 59 75 60 40 61 41 62 55 64 76 65 43 66 27 67 28 68
REMARK SMILES IDX 36 69 29 70 30 71 34 72 37 73 31 74 32 75 35 76 33 77 59 78
REMARK SMILES IDX 60 79 68 80 61 81 62 82 66 83 69 84 63 85 64 86 67 87 65 88
REMARK SMILES IDX 44 89 45 90 53 91 46 92 47 93 51 94 54 95 48 96 49 97 52 98
REMARK SMILES IDX 50 99
REMARK H PARENT 8 6 4 13 4 14 15 33 74 52 42 63
REMARK Flexibility Score: inf
ROOT
ATOM      1  C   UNL A   1      36.504  22.706  23.860  1.00  0.00     0.021 C 
ENDROOT
BRANCH   1   2
ATOM      2  C   UNL A   1      35.928  23.821  24.730  1.00  0.00     0.116 C 
BRANCH   2   3
ATOM      3  N   UNL A   1      35.333  23.264  25.917  1.00  0.00    -0.351 N 
ATOM      4  C   UNL A   1      34.084  23.328  26.441  1.00  0.00     0.281 C 
ATOM      5  O   UNL A   1      34.031  22.979  27.630  1.00  0.00    -0.268 OA
ATOM      6  H   UNL A   1      35.958  22.729  26.456  1.00  0.00     0.163 HD
BRANCH   4   7
ATOM      7  C   UNL A   1      32.802  23.793  25.652  1.00  0.00     0.178 C 
ATOM      8  C   UNL A   1      31.677  24.474  26.475  1.00  0.00     0.079 C 
ATOM      9  C   UNL A   1      32.018  22.632  24.992  1.00  0.00     0.063 C 
ATOM     10  C   UNL A   1      30.475  23.513  26.557  1.00  0.00     0.008 C 
ATOM     11  C   UNL A   1      30.933  22.194  25.958  1.00  0.00     0.011 C 
BRANCH   7  12
ATOM     12  N   UNL A   1      33.239  24.676  24.527  1.00  0.00    -0.331 N 
ATOM     13  H   UNL A   1      34.217  24.909  24.701  1.00  0.00     0.347 HD
ATOM     14  H   UNL A   1      33.022  24.120  23.701  1.00  0.00     0.347 HD
BRANCH  12  15
ATOM     15  C   UNL A   1      32.549  25.939  24.264  1.00  0.00     0.176 C 
ATOM     16  C   UNL A   1      33.646  27.007  24.144  1.00  0.00     0.075 C 
ATOM     17  C   UNL A   1      31.732  25.944  22.970  1.00  0.00     0.075 C 
ENDBRANCH  12  15
ENDBRANCH   7  12
BRANCH   9  18
ATOM     18  C   UNL A   1      32.682  21.500  24.214  1.00  0.00     0.039 C 
BRANCH  18  19
ATOM     19  C   UNL A   1      33.074  20.370  25.205  1.00  0.00     0.161 C 
BRANCH  19  20
ATOM     20  O   UNL A   1      32.152  19.288  25.053  1.00  0.00    -0.378 OA
BRANCH  20  21
ATOM     21  C   UNL A   1      32.595  17.980  24.676  1.00  0.00     0.122 C 
ATOM     22  C   UNL A   1      32.528  16.879  25.744  1.00  0.00     0.060 C 
ATOM     23  C   UNL A   1      33.966  17.982  24.010  1.00  0.00     0.060 C 
ATOM     24  C   UNL A   1      33.007  15.538  25.225  1.00  0.00     0.163 C 
ATOM     25  C   UNL A   1      34.270  16.570  23.519  1.00  0.00     0.163 C 
ATOM     26  O   UNL A   1      34.285  15.654  24.615  1.00  0.00    -0.381 OA
ENDBRANCH  20  21
ENDBRANCH  19  20
ENDBRANCH  18  19
ENDBRANCH   9  18
ENDBRANCH   4   7
ENDBRANCH   2   3
ENDBRANCH   1   2
BRANCH   1  27
ATOM     27  C   UNL A   1      37.459  21.792  24.623  1.00  0.00     0.002 C 
BRANCH  27  28
ATOM     28  C   UNL A   1      37.038  20.317  24.627  1.00  0.00     0.002 C 
BRANCH  28  29
ATOM     29  C   UNL A   1      38.149  19.330  25.002  1.00  0.00     0.021 C 
BRANCH  29  30
ATOM     30  C   UNL A   1      39.234  19.924  25.897  1.00  0.00     0.116 C 
BRANCH  30  31
ATOM     31  N   UNL A   1      40.340  18.994  26.064  1.00  0.00    -0.352 N 
ATOM     32  C   UNL A   1      41.677  19.256  26.126  1.00  0.00     0.251 C 
ATOM     33  H   UNL A   1      40.090  18.046  26.144  1.00  0.00     0.163 HD
ATOM     34  O   UNL A   1      42.500  18.350  25.949  1.00  0.00    -0.269 OA
BRANCH  32  35
ATOM     35  C   UNL A   1      42.142  20.621  26.419  1.00  0.00     0.039 A 
ATOM     36  C   UNL A   1      42.340  21.007  27.746  1.00  0.00     0.014 A 
ATOM     37  C   UNL A   1      42.343  21.530  25.374  1.00  0.00     0.014 A 
ATOM     38  C   UNL A   1      42.771  22.303  28.026  1.00  0.00     0.010 A 
ATOM     39  C   UNL A   1      42.833  22.800  25.651  1.00  0.00     0.010 A 
ATOM     40  C   UNL A   1      43.035  23.202  26.979  1.00  0.00    -0.014 A 
BRANCH  40  41
ATOM     41  C   UNL A   1      43.501  24.580  27.255  1.00  0.00     0.031 A 
ATOM     42  C   UNL A   1      42.540  25.600  27.794  1.00  0.00     0.074 A 
ATOM     43  C   UNL A   1      44.766  24.923  26.953  1.00  0.00     0.049 A 
ATOM     44  N   UNL A   1      42.732  26.872  28.034  1.00  0.00    -0.248 NA
ATOM     45  C   UNL A   1      41.171  25.136  28.073  1.00  0.00     0.031 C 
ATOM     46  C   UNL A   1      45.769  24.027  26.375  1.00  0.00     0.029 A 
ATOM     47  N   UNL A   1      45.421  26.122  27.076  1.00  0.00    -0.354 N 
ATOM     48  C   UNL A   1      41.508  27.361  28.472  1.00  0.00     0.074 A 
ATOM     49  C   UNL A   1      40.568  26.263  28.420  1.00  0.00     0.031 C 
ATOM     50  C   UNL A   1      46.917  24.704  26.208  1.00  0.00     0.029 A 
ATOM     51  C   UNL A   1      46.721  26.085  26.638  1.00  0.00     0.049 A 
ATOM     52  H   UNL A   1      44.999  26.932  27.445  1.00  0.00     0.167 HD
ATOM     53  C   UNL A   1      41.205  28.609  28.900  1.00  0.00     0.037 A 
ATOM     54  C   UNL A   1      47.646  27.061  26.585  1.00  0.00     0.037 A 
ATOM     55  C   UNL A   1      42.155  29.686  28.979  1.00  0.00     0.049 A 
ATOM     56  C   UNL A   1      47.289  28.433  27.086  1.00  0.00     0.074 A 
ATOM     57  C   UNL A   1      41.971  30.967  29.468  1.00  0.00     0.029 A 
ATOM     58  N   UNL A   1      43.475  29.604  28.558  1.00  0.00    -0.354 N 
ATOM     59  N   UNL A   1      46.150  28.867  27.568  1.00  0.00    -0.248 NA
ATOM     60  C   UNL A   1      48.350  29.449  27.044  1.00  0.00     0.031 C 
ATOM     61  C   UNL A   1      43.168  31.673  29.304  1.00  0.00     0.029 A 
ATOM     62  C   UNL A   1      44.112  30.818  28.756  1.00  0.00     0.049 A 
ATOM     63  H   UNL A   1      43.897  28.800  28.175  1.00  0.00     0.167 HD
ATOM     64  C   UNL A   1      46.361  30.195  27.908  1.00  0.00     0.074 A 
ATOM     65  C   UNL A   1      47.743  30.493  27.592  1.00  0.00     0.031 C 
ATOM     66  C   UNL A   1      45.489  31.090  28.436  1.00  0.00     0.037 A 
BRANCH  53  67
ATOM     67  C   UNL A   1      39.787  28.874  29.317  1.00  0.00     0.064 A 
ATOM     68  C   UNL A   1      38.828  29.343  28.406  1.00  0.00     0.173 A 
ATOM     69  C   UNL A   1      39.375  28.628  30.635  1.00  0.00     0.173 A 
ATOM     70  F   UNL A   1      39.174  29.606  27.137  1.00  0.00    -0.203 F 
ATOM     71  C   UNL A   1      37.517  29.584  28.808  1.00  0.00     0.198 A 
ATOM     72  C   UNL A   1      38.056  28.843  31.026  1.00  0.00     0.198 A 
ATOM     73  F   UNL A   1      40.252  28.176  31.545  1.00  0.00    -0.203 F 
ATOM     74  F   UNL A   1      36.630  30.079  27.932  1.00  0.00    -0.200 F 
ATOM     75  C   UNL A   1      37.131  29.328  30.114  1.00  0.00     0.200 A 
ATOM     76  F   UNL A   1      37.682  28.585  32.286  1.00  0.00    -0.200 F 
ATOM     77  F   UNL A   1      35.866  29.556  30.498  1.00  0.00    -0.200 F 
ENDBRANCH  53  67
BRANCH  54  78
ATOM     78  C   UNL A   1      49.004  26.761  26.067  1.00  0.00     0.064 A 
ATOM     79  C   UNL A   1      49.326  26.982  24.720  1.00  0.00     0.173 A 
ATOM     80  C   UNL A   1      50.012  26.263  26.905  1.00  0.00     0.173 A 
ATOM     81  F   UNL A   1      48.390  27.442  23.877  1.00  0.00    -0.203 F 
ATOM     82  C   UNL A   1      50.598  26.700  24.228  1.00  0.00     0.198 A 
ATOM     83  C   UNL A   1      51.292  26.006  26.418  1.00  0.00     0.198 A 
ATOM     84  F   UNL A   1      49.758  26.043  28.203  1.00  0.00    -0.203 F 
ATOM     85  F   UNL A   1      50.866  26.886  22.929  1.00  0.00    -0.200 F 
ATOM     86  C   UNL A   1      51.582  26.218  25.078  1.00  0.00     0.200 A 
ATOM     87  F   UNL A   1      52.244  25.555  27.246  1.00  0.00    -0.200 F 
ATOM     88  F   UNL A   1      52.807  25.954  24.606  1.00  0.00    -0.200 F 
ENDBRANCH  54  78
BRANCH  66  89
ATOM     89  C   UNL A   1      46.013  32.465  28.726  1.00  0.00     0.064 A 
ATOM     90  C   UNL A   1      46.625  32.774  29.949  1.00  0.00     0.173 A 
ATOM     91  C   UNL A   1      45.937  33.473  27.753  1.00  0.00     0.173 A 
ATOM     92  F   UNL A   1      46.708  31.847  30.916  1.00  0.00    -0.203 F 
ATOM     93  C   UNL A   1      47.123  34.050  30.195  1.00  0.00     0.198 A 
ATOM     94  C   UNL A   1      46.460  34.739  27.993  1.00  0.00     0.198 A 
ATOM     95  F   UNL A   1      45.364  33.225  26.565  1.00  0.00    -0.203 F 
ATOM     96  F   UNL A   1      47.665  34.336  31.387  1.00  0.00    -0.200 F 
ATOM     97  C   UNL A   1      47.047  35.029  29.215  1.00  0.00     0.200 A 
ATOM     98  F   UNL A   1      46.396  35.680  27.041  1.00  0.00    -0.200 F 
ATOM     99  F   UNL A   1      47.533  36.255  29.452  1.00  0.00    -0.200 F 
ENDBRANCH  66  89
ENDBRANCH  40  41
ENDBRANCH  32  35
ENDBRANCH  30  31
ENDBRANCH  29  30
ENDBRANCH  28  29
ENDBRANCH  27  28
ENDBRANCH   1  27
TORSDOF 19
ENDMDL
MODEL 2
REMARK VINA RESULT:     -11.5      3.965      7.488
REMARK SMILES CC(C)[NH2+][C@@]1(C(=O)NCCCCCCNC(=O)c2ccc(-c3c4nc(c(-c5c(F)c(F)c(F)c(F)c5F)c5ccc([nH]5)c(-c5c(F)c(F)c(F)c(F)c5F)c5nc(c(-c6c(F)c(F)c(F)c(F)c6F)c6ccc3[nH]6)C=C5)C=C4)cc2)CCC[C@@H]1CCOC1CCOCC1
REMARK SMILES IDX 10 1 9 2 8 3 6 4 7 5 5 7 81 8 84 9 82 10 83 11 4 12 2 15
REMARK SMILES IDX 1 16 3 17 85 18 86 19 87 20 88 21 89 22 93 23 90 24 92 25
REMARK SMILES IDX 91 26 11 27 12 28 13 29 14 30 15 31 16 32 17 34 18 35 19 36
REMARK SMILES IDX 80 37 20 38 79 39 21 40 22 41 23 42 73 43 24 44 78 45 72 46
REMARK SMILES IDX 74 47 25 48 77 49 71 50 70 51 26 53 58 54 38 55 57 56 39 57
REMARK SMILES IDX 42 58 56 59 75 60 40 61 41 62 55 64 76 65 43 66 27 67 28 68
REMARK SMILES IDX 36 69 29 70 30 71 34 72 37 73 31 74 32 75 35 76 33 77 59 78
REMARK SMILES IDX 60 79 68 80 61 81 62 82 66 83 69 84 63 85 64 86 67 87 65 88
REMARK SMILES IDX 44 89 45 90 53 91 46 92 47 93 51 94 54 95 48 96 49 97 52 98
REMARK SMILES IDX 50 99
REMARK H PARENT 8 6 4 13 4 14 15 33 74 52 42 63
REMARK Flexibility Score: inf
ROOT
ATOM      1  C   UNL A   1      32.680  27.284  22.404  1.00  0.00     0.021 C 
ENDROOT
BRANCH   1   2
ATOM      2  C   UNL A   1      31.605  26.216  22.215  1.00  0.00     0.116 C 
BRANCH   2   3
ATOM      3  N   UNL A   1      32.199  24.996  21.735  1.00  0.00    -0.351 N 
ATOM      4  C   UNL A   1      33.002  24.069  22.312  1.00  0.00     0.281 C 
ATOM      5  O   UNL A   1      33.557  23.321  21.493  1.00  0.00    -0.268 OA
ATOM      6  H   UNL A   1      31.976  24.794  20.797  1.00  0.00     0.163 HD
BRANCH   4   7
ATOM      7  C   UNL A   1      33.235  23.925  23.864  1.00  0.00     0.178 C 
ATOM      8  C   UNL A   1      34.384  24.763  24.485  1.00  0.00     0.079 C 
ATOM      9  C   UNL A   1      33.644  22.498  24.306  1.00  0.00     0.063 C 
ATOM     10  C   UNL A   1      35.527  23.811  24.888  1.00  0.00     0.008 C 
ATOM     11  C   UNL A   1      35.160  22.440  24.347  1.00  0.00     0.011 C 
BRANCH   7  12
ATOM     12  N   UNL A   1      31.942  24.209  24.560  1.00  0.00    -0.331 N 
ATOM     13  H   UNL A   1      31.522  25.006  24.081  1.00  0.00     0.347 HD
ATOM     14  H   UNL A   1      31.456  23.314  24.513  1.00  0.00     0.347 HD
BRANCH  12  15
ATOM     15  C   UNL A   1      31.921  24.520  25.989  1.00  0.00     0.176 C 
ATOM     16  C   UNL A   1      31.282  25.911  26.112  1.00  0.00     0.075 C 
ATOM     17  C   UNL A   1      31.099  23.539  26.827  1.00  0.00     0.075 C 
ENDBRANCH  12  15
ENDBRANCH   7  12
BRANCH   9  18
ATOM     18  C   UNL A   1      32.965  21.230  23.797  1.00  0.00     0.039 C 
BRANCH  18  19
ATOM     19  C   UNL A   1      32.226  20.546  24.980  1.00  0.00     0.161 C 
BRANCH  19  20
ATOM     20  O   UNL A   1      33.063  19.512  25.505  1.00  0.00    -0.378 OA
BRANCH  20  21
ATOM     21  C   UNL A   1      33.063  18.196  24.941  1.00  0.00     0.122 C 
ATOM     22  C   UNL A   1      32.738  17.027  25.881  1.00  0.00     0.060 C 
ATOM     23  C   UNL A   1      34.323  17.890  24.138  1.00  0.00     0.060 C 
ATOM     24  C   UNL A   1      32.754  15.689  25.168  1.00  0.00     0.163 C 
ATOM     25  C   UNL A   1      34.152  16.532  23.464  1.00  0.00     0.163 C 
ATOM     26  O   UNL A   1      33.963  15.511  24.444  1.00  0.00    -0.381 OA
ENDBRANCH  20  21
ENDBRANCH  19  20
ENDBRANCH  18  19
ENDBRANCH   9  18
ENDBRANCH   4   7
ENDBRANCH   2   3
ENDBRANCH   1   2
BRANCH   1  27
ATOM     27  C   UNL A   1      32.116  28.609  22.912  1.00  0.00     0.002 C 
BRANCH  27  28
ATOM     28  C   UNL A   1      32.521  28.946  24.352  1.00  0.00     0.002 C 
BRANCH  28  29
ATOM     29  C   UNL A   1      33.818  28.284  24.829  1.00  0.00     0.021 C 
BRANCH  29  30
ATOM     30  C   UNL A   1      34.118  28.496  26.311  1.00  0.00     0.116 C 
BRANCH  30  31
ATOM     31  N   UNL A   1      33.912  29.884  26.693  1.00  0.00    -0.352 N 
ATOM     32  C   UNL A   1      34.571  30.622  27.632  1.00  0.00     0.251 C 
ATOM     33  H   UNL A   1      33.199  30.357  26.207  1.00  0.00     0.163 HD
ATOM     34  O   UNL A   1      34.078  31.672  28.061  1.00  0.00    -0.269 OA
BRANCH  32  35
ATOM     35  C   UNL A   1      35.882  30.172  28.126  1.00  0.00     0.039 A 
ATOM     36  C   UNL A   1      35.977  29.611  29.400  1.00  0.00     0.014 A 
ATOM     37  C   UNL A   1      37.025  30.348  27.337  1.00  0.00     0.014 A 
ATOM     38  C   UNL A   1      37.220  29.193  29.875  1.00  0.00     0.010 A 
ATOM     39  C   UNL A   1      38.250  29.874  27.786  1.00  0.00     0.010 A 
ATOM     40  C   UNL A   1      38.361  29.308  29.064  1.00  0.00    -0.014 A 
BRANCH  40  41
ATOM     41  C   UNL A   1      39.689  28.864  29.546  1.00  0.00     0.031 A 
ATOM     42  C   UNL A   1      40.454  29.715  30.518  1.00  0.00     0.074 A 
ATOM     43  C   UNL A   1      40.227  27.734  29.054  1.00  0.00     0.049 A 
ATOM     44  N   UNL A   1      41.656  29.539  31.004  1.00  0.00    -0.248 NA
ATOM     45  C   UNL A   1      39.792  30.944  30.984  1.00  0.00     0.031 C 
ATOM     46  C   UNL A   1      39.594  26.858  28.066  1.00  0.00     0.029 A 
ATOM     47  N   UNL A   1      41.434  27.135  29.306  1.00  0.00    -0.354 N 
ATOM     48  C   UNL A   1      41.900  30.640  31.814  1.00  0.00     0.074 A 
ATOM     49  C   UNL A   1      40.743  31.503  31.718  1.00  0.00     0.031 C 
ATOM     50  C   UNL A   1      40.414  25.826  27.806  1.00  0.00     0.029 A 
ATOM     51  C   UNL A   1      41.638  25.985  28.586  1.00  0.00     0.049 A 
ATOM     52  H   UNL A   1      42.093  27.496  29.943  1.00  0.00     0.167 HD
ATOM     53  C   UNL A   1      42.983  30.896  32.584  1.00  0.00     0.037 A 
ATOM     54  C   UNL A   1      42.698  25.156  28.557  1.00  0.00     0.037 A 
ATOM     55  C   UNL A   1      44.116  30.015  32.698  1.00  0.00     0.049 A 
ATOM     56  C   UNL A   1      43.879  25.451  29.439  1.00  0.00     0.074 A 
ATOM     57  C   UNL A   1      45.231  30.142  33.507  1.00  0.00     0.029 A 
ATOM     58  N   UNL A   1      44.273  28.838  31.979  1.00  0.00    -0.354 N 
ATOM     59  N   UNL A   1      44.070  26.456  30.258  1.00  0.00    -0.248 NA
ATOM     60  C   UNL A   1      44.991  24.490  29.399  1.00  0.00     0.031 C 
ATOM     61  C   UNL A   1      46.083  29.063  33.246  1.00  0.00     0.029 A 
ATOM     62  C   UNL A   1      45.477  28.240  32.310  1.00  0.00     0.049 A 
ATOM     63  H   UNL A   1      43.624  28.482  31.330  1.00  0.00     0.167 HD
ATOM     64  C   UNL A   1      45.306  26.241  30.847  1.00  0.00     0.074 A 
ATOM     65  C   UNL A   1      45.816  24.998  30.303  1.00  0.00     0.031 C 
ATOM     66  C   UNL A   1      45.962  27.001  31.758  1.00  0.00     0.037 A 
BRANCH  53  67
ATOM     67  C   UNL A   1      42.993  32.178  33.365  1.00  0.00     0.064 A 
ATOM     68  C   UNL A   1      42.383  32.277  34.624  1.00  0.00     0.173 A 
ATOM     69  C   UNL A   1      43.648  33.312  32.861  1.00  0.00     0.173 A 
ATOM     70  F   UNL A   1      41.734  31.226  35.145  1.00  0.00    -0.203 F 
ATOM     71  C   UNL A   1      42.402  33.473  35.337  1.00  0.00     0.198 A 
ATOM     72  C   UNL A   1      43.689  34.498  33.590  1.00  0.00     0.198 A 
ATOM     73  F   UNL A   1      44.251  33.270  31.663  1.00  0.00    -0.203 F 
ATOM     74  F   UNL A   1      41.769  33.559  36.516  1.00  0.00    -0.200 F 
ATOM     75  C   UNL A   1      43.059  34.580  34.822  1.00  0.00     0.200 A 
ATOM     76  F   UNL A   1      44.335  35.564  33.096  1.00  0.00    -0.200 F 
ATOM     77  F   UNL A   1      43.081  35.730  35.512  1.00  0.00    -0.200 F 
ENDBRANCH  53  67
BRANCH  54  78
ATOM     78  C   UNL A   1      42.670  23.954  27.686  1.00  0.00     0.064 A 
ATOM     79  C   UNL A   1      43.036  24.036  26.336  1.00  0.00     0.173 A 
ATOM     80  C   UNL A   1      42.292  22.700  28.186  1.00  0.00     0.173 A 
ATOM     81  F   UNL A   1      43.390  25.218  25.810  1.00  0.00    -0.203 F 
ATOM     82  C   UNL A   1      43.010  22.912  25.513  1.00  0.00     0.198 A 
ATOM     83  C   UNL A   1      42.290  21.570  27.368  1.00  0.00     0.198 A 
ATOM     84  F   UNL A   1      41.940  22.566  29.473  1.00  0.00    -0.203 F 
ATOM     85  F   UNL A   1      43.330  23.027  24.217  1.00  0.00    -0.200 F 
ATOM     86  C   UNL A   1      42.642  21.679  26.031  1.00  0.00     0.200 A 
ATOM     87  F   UNL A   1      41.949  20.378  27.876  1.00  0.00    -0.200 F 
ATOM     88  F   UNL A   1      42.624  20.598  25.242  1.00  0.00    -0.200 F 
ENDBRANCH  54  78
BRANCH  66  89
ATOM     89  C   UNL A   1      47.291  26.498  32.240  1.00  0.00     0.064 A 
ATOM     90  C   UNL A   1      47.388  25.592  33.305  1.00  0.00     0.173 A 
ATOM     91  C   UNL A   1      48.474  26.895  31.600  1.00  0.00     0.173 A 
ATOM     92  F   UNL A   1      46.286  25.194  33.957  1.00  0.00    -0.203 F 
ATOM     93  C   UNL A   1      48.628  25.119  33.728  1.00  0.00     0.198 A 
ATOM     94  C   UNL A   1      49.709  26.399  32.008  1.00  0.00     0.198 A 
ATOM     95  F   UNL A   1      48.432  27.756  30.572  1.00  0.00    -0.203 F 
ATOM     96  F   UNL A   1      48.703  24.288  34.777  1.00  0.00    -0.200 F 
ATOM     97  C   UNL A   1      49.785  25.517  33.075  1.00  0.00     0.200 A 
ATOM     98  F   UNL A   1      50.825  26.775  31.369  1.00  0.00    -0.200 F 
ATOM     99  F   UNL A   1      50.976  25.055  33.479  1.00  0.00    -0.200 F 
ENDBRANCH  66  89
ENDBRANCH  40  41
ENDBRANCH  32  35
ENDBRANCH  30  31
ENDBRANCH  29  30
ENDBRANCH  28  29
ENDBRANCH  27  28
ENDBRANCH   1  27
TORSDOF 19
ENDMDL
MODEL 3
REMARK VINA RESULT:     -11.3      0.937      2.168
REMARK SMILES CC(C)[NH2+][C@@]1(C(=O)NCCCCCCNC(=O)c2ccc(-c3c4nc(c(-c5c(F)c(F)c(F)c(F)c5F)c5ccc([nH]5)c(-c5c(F)c(F)c(F)c(F)c5F)c5nc(c(-c6c(F)c(F)c(F)c(F)c6F)c6ccc3[nH]6)C=C5)C=C4)cc2)CCC[C@@H]1CCOC1CCOCC1
REMARK SMILES IDX 10 1 9 2 8 3 6 4 7 5 5 7 81 8 84 9 82 10 83 11 4 12 2 15
REMARK SMILES IDX 1 16 3 17 85 18 86 19 87 20 88 21 89 22 93 23 90 24 92 25
REMARK SMILES IDX 91 26 11 27 12 28 13 29 14 30 15 31 16 32 17 34 18 35 19 36
REMARK SMILES IDX 80 37 20 38 79 39 21 40 22 41 23 42 73 43 24 44 78 45 72 46
REMARK SMILES IDX 74 47 25 48 77 49 71 50 70 51 26 53 58 54 38 55 57 56 39 57
REMARK SMILES IDX 42 58 56 59 75 60 40 61 41 62 55 64 76 65 43 66 27 67 28 68
REMARK SMILES IDX 36 69 29 70 30 71 34 72 37 73 31 74 32 75 35 76 33 77 59 78
REMARK SMILES IDX 60 79 68 80 61 81 62 82 66 83 69 84 63 85 64 86 67 87 65 88
REMARK SMILES IDX 44 89 45 90 53 91 46 92 47 93 51 94 54 95 48 96 49 97 52 98
REMARK SMILES IDX 50 99
REMARK H PARENT 8 6 4 13 4 14 15 33 74 52 42 63
REMARK Flexibility Score: inf
ROOT
ATOM      1  C   UNL A   1      37.165  23.055  25.224  1.00  0.00     0.021 C 
ENDROOT
BRANCH   1   2
ATOM      2  C   UNL A   1      35.874  23.860  25.360  1.00  0.00     0.116 C 
BRANCH   2   3
ATOM      3  N   UNL A   1      35.381  24.227  24.058  1.00  0.00    -0.351 N 
ATOM      4  C   UNL A   1      34.140  24.252  23.514  1.00  0.00     0.281 C 
ATOM      5  O   UNL A   1      34.146  24.331  22.276  1.00  0.00    -0.268 OA
ATOM      6  H   UNL A   1      36.087  24.518  23.438  1.00  0.00     0.163 HD
BRANCH   4   7
ATOM      7  C   UNL A   1      32.797  24.191  24.337  1.00  0.00     0.178 C 
ATOM      8  C   UNL A   1      32.814  24.812  25.759  1.00  0.00     0.079 C 
ATOM      9  C   UNL A   1      32.321  22.752  24.654  1.00  0.00     0.063 C 
ATOM     10  C   UNL A   1      32.734  23.674  26.795  1.00  0.00     0.008 C 
ATOM     11  C   UNL A   1      32.861  22.373  26.021  1.00  0.00     0.011 C 
BRANCH   7  12
ATOM     12  N   UNL A   1      31.712  24.803  23.510  1.00  0.00    -0.331 N 
ATOM     13  H   UNL A   1      32.038  24.789  22.543  1.00  0.00     0.347 HD
ATOM     14  H   UNL A   1      30.898  24.237  23.746  1.00  0.00     0.347 HD
BRANCH  12  15
ATOM     15  C   UNL A   1      31.253  26.166  23.777  1.00  0.00     0.176 C 
ATOM     16  C   UNL A   1      31.137  26.852  22.408  1.00  0.00     0.075 C 
ATOM     17  C   UNL A   1      29.890  26.240  24.467  1.00  0.00     0.075 C 
ENDBRANCH  12  15
ENDBRANCH   7  12
BRANCH   9  18
ATOM     18  C   UNL A   1      32.314  21.622  23.629  1.00  0.00     0.039 C 
BRANCH  18  19
ATOM     19  C   UNL A   1      33.084  20.406  24.214  1.00  0.00     0.161 C 
BRANCH  19  20
ATOM     20  O   UNL A   1      32.662  19.224  23.529  1.00  0.00    -0.378 OA
BRANCH  20  21
ATOM     21  C   UNL A   1      33.029  17.922  23.996  1.00  0.00     0.122 C 
ATOM     22  C   UNL A   1      32.244  17.355  25.187  1.00  0.00     0.060 C 
ATOM     23  C   UNL A   1      34.527  17.772  24.236  1.00  0.00     0.060 C 
ATOM     24  C   UNL A   1      32.710  15.967  25.581  1.00  0.00     0.163 C 
ATOM     25  C   UNL A   1      34.820  16.316  24.583  1.00  0.00     0.163 C 
ATOM     26  O   UNL A   1      34.118  15.935  25.767  1.00  0.00    -0.381 OA
ENDBRANCH  20  21
ENDBRANCH  19  20
ENDBRANCH  18  19
ENDBRANCH   9  18
ENDBRANCH   4   7
ENDBRANCH   2   3
ENDBRANCH   1   2
BRANCH   1  27
ATOM     27  C   UNL A   1      37.044  21.905  24.226  1.00  0.00     0.002 C 
BRANCH  27  28
ATOM     28  C   UNL A   1      36.837  20.534  24.880  1.00  0.00     0.002 C 
BRANCH  28  29
ATOM     29  C   UNL A   1      38.085  19.646  24.928  1.00  0.00     0.021 C 
BRANCH  29  30
ATOM     30  C   UNL A   1      39.121  20.082  25.961  1.00  0.00     0.116 C 
BRANCH  30  31
ATOM     31  N   UNL A   1      40.233  19.147  26.013  1.00  0.00    -0.352 N 
ATOM     32  C   UNL A   1      41.572  19.407  26.023  1.00  0.00     0.251 C 
ATOM     33  H   UNL A   1      39.987  18.195  26.046  1.00  0.00     0.163 HD
ATOM     34  O   UNL A   1      42.384  18.516  25.748  1.00  0.00    -0.269 OA
BRANCH  32  35
ATOM     35  C   UNL A   1      42.052  20.753  26.376  1.00  0.00     0.039 A 
ATOM     36  C   UNL A   1      42.252  21.077  27.719  1.00  0.00     0.014 A 
ATOM     37  C   UNL A   1      42.265  21.704  25.373  1.00  0.00     0.014 A 
ATOM     38  C   UNL A   1      42.698  22.355  28.056  1.00  0.00     0.010 A 
ATOM     39  C   UNL A   1      42.770  22.954  25.706  1.00  0.00     0.010 A 
ATOM     40  C   UNL A   1      42.974  23.296  27.051  1.00  0.00    -0.014 A 
BRANCH  40  41
ATOM     41  C   UNL A   1      43.456  24.654  27.387  1.00  0.00     0.031 A 
ATOM     42  C   UNL A   1      42.505  25.663  27.964  1.00  0.00     0.074 A 
ATOM     43  C   UNL A   1      44.727  24.994  27.107  1.00  0.00     0.049 A 
ATOM     44  N   UNL A   1      42.711  26.921  28.259  1.00  0.00    -0.248 NA
ATOM     45  C   UNL A   1      41.129  25.205  28.215  1.00  0.00     0.031 C 
ATOM     46  C   UNL A   1      45.722  24.110  26.498  1.00  0.00     0.029 A 
ATOM     47  N   UNL A   1      45.396  26.177  27.285  1.00  0.00    -0.354 N 
ATOM     48  C   UNL A   1      41.491  27.407  28.710  1.00  0.00     0.074 A 
ATOM     49  C   UNL A   1      40.537  26.324  28.606  1.00  0.00     0.031 C 
ATOM     50  C   UNL A   1      46.880  24.778  26.366  1.00  0.00     0.029 A 
ATOM     51  C   UNL A   1      46.698  26.143  26.853  1.00  0.00     0.049 A 
ATOM     52  H   UNL A   1      44.982  26.976  27.685  1.00  0.00     0.167 HD
ATOM     53  C   UNL A   1      41.201  28.639  29.189  1.00  0.00     0.037 A 
ATOM     54  C   UNL A   1      47.636  27.108  26.847  1.00  0.00     0.037 A 
ATOM     55  C   UNL A   1      42.165  29.700  29.319  1.00  0.00     0.049 A 
ATOM     56  C   UNL A   1      47.294  28.462  27.404  1.00  0.00     0.074 A 
ATOM     57  C   UNL A   1      41.993  30.962  29.861  1.00  0.00     0.029 A 
ATOM     58  N   UNL A   1      43.486  29.619  28.902  1.00  0.00    -0.354 N 
ATOM     59  N   UNL A   1      46.157  28.890  27.897  1.00  0.00    -0.248 NA
ATOM     60  C   UNL A   1      48.367  29.465  27.411  1.00  0.00     0.031 C 
ATOM     61  C   UNL A   1      43.200  31.658  29.733  1.00  0.00     0.029 A 
ATOM     62  C   UNL A   1      44.136  30.815  29.155  1.00  0.00     0.049 A 
ATOM     63  H   UNL A   1      43.900  28.826  28.488  1.00  0.00     0.167 HD
ATOM     64  C   UNL A   1      46.382  30.199  28.295  1.00  0.00     0.074 A 
ATOM     65  C   UNL A   1      47.771  30.492  27.999  1.00  0.00     0.031 C 
ATOM     66  C   UNL A   1      45.519  31.082  28.855  1.00  0.00     0.037 A 
BRANCH  53  67
ATOM     67  C   UNL A   1      39.784  28.905  29.608  1.00  0.00     0.064 A 
ATOM     68  C   UNL A   1      39.350  28.674  30.922  1.00  0.00     0.173 A 
ATOM     69  C   UNL A   1      38.857  29.426  28.693  1.00  0.00     0.173 A 
ATOM     70  F   UNL A   1      40.194  28.165  31.832  1.00  0.00    -0.203 F 
ATOM     71  C   UNL A   1      38.033  28.927  31.297  1.00  0.00     0.198 A 
ATOM     72  C   UNL A   1      37.548  29.704  29.079  1.00  0.00     0.198 A 
ATOM     73  F   UNL A   1      39.221  29.669  27.425  1.00  0.00    -0.203 F 
ATOM     74  F   UNL A   1      37.628  28.651  32.545  1.00  0.00    -0.200 F 
ATOM     75  C   UNL A   1      37.135  29.447  30.377  1.00  0.00     0.200 A 
ATOM     76  F   UNL A   1      36.685  30.218  28.191  1.00  0.00    -0.200 F 
ATOM     77  F   UNL A   1      35.869  29.695  30.740  1.00  0.00    -0.200 F 
ENDBRANCH  53  67
BRANCH  54  78
ATOM     78  C   UNL A   1      48.994  26.813  26.324  1.00  0.00     0.064 A 
ATOM     79  C   UNL A   1      49.986  26.280  27.159  1.00  0.00     0.173 A 
ATOM     80  C   UNL A   1      49.325  27.042  24.981  1.00  0.00     0.173 A 
ATOM     81  F   UNL A   1      49.720  26.059  28.455  1.00  0.00    -0.203 F 
ATOM     82  C   UNL A   1      51.262  26.003  26.675  1.00  0.00     0.198 A 
ATOM     83  C   UNL A   1      50.595  26.740  24.491  1.00  0.00     0.198 A 
ATOM     84  F   UNL A   1      48.409  27.541  24.139  1.00  0.00    -0.203 F 
ATOM     85  F   UNL A   1      52.202  25.530  27.505  1.00  0.00    -0.200 F 
ATOM     86  C   UNL A   1      51.564  26.228  25.340  1.00  0.00     0.200 A 
ATOM     87  F   UNL A   1      50.877  26.944  23.197  1.00  0.00    -0.200 F 
ATOM     88  F   UNL A   1      52.789  25.955  24.874  1.00  0.00    -0.200 F 
ENDBRANCH  54  78
BRANCH  66  89
ATOM     89  C   UNL A   1      46.058  32.437  29.206  1.00  0.00     0.064 A 
ATOM     90  C   UNL A   1      45.988  33.510  28.307  1.00  0.00     0.173 A 
ATOM     91  C   UNL A   1      46.614  32.672  30.473  1.00  0.00     0.173 A 
ATOM     92  F   UNL A   1      45.479  33.329  27.079  1.00  0.00    -0.203 F 
ATOM     93  C   UNL A   1      46.475  34.766  28.656  1.00  0.00     0.198 A 
ATOM     94  C   UNL A   1      47.075  33.936  30.828  1.00  0.00     0.198 A 
ATOM     95  F   UNL A   1      46.698  31.679  31.370  1.00  0.00    -0.203 F 
ATOM     96  F   UNL A   1      46.439  35.767  27.765  1.00  0.00    -0.200 F 
ATOM     97  C   UNL A   1      47.011  34.980  29.917  1.00  0.00     0.200 A 
ATOM     98  F   UNL A   1      47.582  34.144  32.050  1.00  0.00    -0.200 F 
ATOM     99  F   UNL A   1      47.474  36.192  30.253  1.00  0.00    -0.200 F 
ENDBRANCH  66  89
ENDBRANCH  40  41
ENDBRANCH  32  35
ENDBRANCH  30  31
ENDBRANCH  29  30
ENDBRANCH  28  29
ENDBRANCH  27  28
ENDBRANCH   1  27
TORSDOF 19
ENDMDL
