MODEL 1
REMARK VINA RESULT:     -13.8      0.000      0.000
REMARK SMILES Cc1ccc(-c2cc(OCC(=O)NCCCCCCNC(=O)c3ccc(-c4c5nc(c(-c6c(F)c(F)c(F)c(F)c6F)c6ccc([nH]6)c(-c6c(F)c(F)c(F)c(F)c6F)c6nc(c(-c7c(F)c(F)c(F)c(F)c7F)c7ccc4[nH]7)C=C6)C=C5)cc3)nc(NCc3ccc4c(c3)OCO4)n2)cc1
REMARK SMILES IDX 15 1 14 2 13 3 11 4 12 5 10 7 9 8 8 9 6 10 7 11 99 12 87 13
REMARK SMILES IDX 86 14 5 15 1 16 2 17 3 18 101 19 4 20 100 21 88 22 89 24
REMARK SMILES IDX 90 25 91 26 95 27 92 28 94 29 93 30 96 31 98 32 97 33 16 34
REMARK SMILES IDX 17 35 18 36 19 37 20 38 21 39 22 41 23 42 24 43 85 44 25 45
REMARK SMILES IDX 84 46 26 47 27 48 28 49 78 50 29 51 83 52 77 53 79 54 30 55
REMARK SMILES IDX 82 56 76 57 75 58 31 60 63 61 43 62 62 63 44 64 47 65 61 66
REMARK SMILES IDX 80 67 45 68 46 69 60 71 81 72 48 73 32 74 33 75 41 76 34 77
REMARK SMILES IDX 35 78 39 79 42 80 36 81 37 82 40 83 38 84 64 85 65 86 73 87
REMARK SMILES IDX 66 88 67 89 71 90 74 91 68 92 69 93 72 94 70 95 49 96 50 97
REMARK SMILES IDX 58 98 51 99 52 100 56 101 59 102 53 103 54 104 57 105 55 106
REMARK H PARENT 13 6 88 23 20 40 79 59 47 70
REMARK Flexibility Score: inf
ROOT
ATOM      1  C   UNL A   1      34.387  21.438  24.319  1.00  0.00     0.021 C 
ENDROOT
BRANCH   1   2
ATOM      2  C   UNL A   1      32.951  21.471  24.840  1.00  0.00     0.116 C 
BRANCH   2   3
ATOM      3  N   UNL A   1      32.881  21.468  26.286  1.00  0.00    -0.353 N 
ATOM      4  C   UNL A   1      32.797  22.534  27.130  1.00  0.00     0.258 C 
ATOM      5  O   UNL A   1      32.679  22.328  28.340  1.00  0.00    -0.271 OA
ATOM      6  H   UNL A   1      32.895  20.582  26.714  1.00  0.00     0.163 HD
BRANCH   4   7
ATOM      7  C   UNL A   1      32.839  23.959  26.564  1.00  0.00     0.331 C 
BRANCH   7   8
ATOM      8  O   UNL A   1      31.619  24.474  26.061  1.00  0.00    -0.467 OA
BRANCH   8   9
ATOM      9  C   UNL A   1      31.559  25.808  25.778  1.00  0.00     0.219 A 
ATOM     10  C   UNL A   1      32.036  28.078  26.012  1.00  0.00     0.080 A 
ATOM     11  C   UNL A   1      32.179  26.796  26.495  1.00  0.00     0.097 A 
ATOM     12  N   UNL A   1      31.270  28.372  24.945  1.00  0.00    -0.213 NA
ATOM     13  C   UNL A   1      30.690  27.346  24.314  1.00  0.00     0.226 A 
ATOM     14  N   UNL A   1      30.826  26.068  24.684  1.00  0.00    -0.177 NA
BRANCH  10  15
ATOM     15  C   UNL A   1      32.794  29.180  26.613  1.00  0.00     0.000 A 
ATOM     16  C   UNL A   1      35.050  32.545  28.128  1.00  0.00     0.044 C 
ATOM     17  C   UNL A   1      34.256  31.376  27.624  1.00  0.00    -0.051 A 
ATOM     18  C   UNL A   1      34.859  30.119  27.487  1.00  0.00     0.004 A 
ATOM     19  C   UNL A   1      32.916  31.528  27.265  1.00  0.00     0.004 A 
ATOM     20  C   UNL A   1      34.133  29.029  26.994  1.00  0.00     0.010 A 
ATOM     21  C   UNL A   1      32.195  30.443  26.764  1.00  0.00     0.010 A 
ENDBRANCH  10  15
BRANCH  13  22
ATOM     22  N   UNL A   1      29.919  27.548  23.201  1.00  0.00    -0.350 N 
ATOM     23  H   UNL A   1      30.290  27.333  22.315  1.00  0.00     0.164 HD
BRANCH  22  24
ATOM     24  C   UNL A   1      28.578  28.065  23.294  1.00  0.00     0.152 C 
BRANCH  24  25
ATOM     25  C   UNL A   1      28.460  29.512  22.848  1.00  0.00    -0.025 A 
ATOM     26  C   UNL A   1      28.722  30.533  23.797  1.00  0.00     0.009 A 
ATOM     27  C   UNL A   1      28.124  29.883  21.533  1.00  0.00     0.056 A 
ATOM     28  C   UNL A   1      28.608  31.888  23.463  1.00  0.00     0.051 A 
ATOM     29  C   UNL A   1      27.997  31.223  21.239  1.00  0.00     0.166 A 
ATOM     30  C   UNL A   1      28.226  32.199  22.178  1.00  0.00     0.165 A 
ATOM     31  O   UNL A   1      27.623  31.738  20.036  1.00  0.00    -0.454 OA
ATOM     32  O   UNL A   1      28.015  33.449  21.686  1.00  0.00    -0.454 OA
ATOM     33  C   UNL A   1      27.499  33.135  20.376  1.00  0.00     0.468 C 
ENDBRANCH  24  25
ENDBRANCH  22  24
ENDBRANCH  13  22
ENDBRANCH   8   9
ENDBRANCH   7   8
ENDBRANCH   4   7
ENDBRANCH   2   3
ENDBRANCH   1   2
BRANCH   1  34
ATOM     34  C   UNL A   1      35.422  20.759  25.227  1.00  0.00     0.002 C 
BRANCH  34  35
ATOM     35  C   UNL A   1      36.903  21.084  24.978  1.00  0.00     0.002 C 
BRANCH  35  36
ATOM     36  C   UNL A   1      37.248  22.535  24.634  1.00  0.00     0.021 C 
BRANCH  36  37
ATOM     37  C   UNL A   1      37.797  23.354  25.792  1.00  0.00     0.116 C 
BRANCH  37  38
ATOM     38  N   UNL A   1      39.177  23.058  26.147  1.00  0.00    -0.352 N 
ATOM     39  C   UNL A   1      40.143  23.883  26.707  1.00  0.00     0.251 C 
ATOM     40  H   UNL A   1      39.469  22.136  25.963  1.00  0.00     0.163 HD
ATOM     41  O   UNL A   1      41.280  23.480  26.856  1.00  0.00    -0.269 OA
BRANCH  39  42
ATOM     42  C   UNL A   1      39.747  25.210  27.250  1.00  0.00     0.039 A 
ATOM     43  C   UNL A   1      40.038  26.344  26.478  1.00  0.00     0.014 A 
ATOM     44  C   UNL A   1      39.295  25.357  28.556  1.00  0.00     0.014 A 
ATOM     45  C   UNL A   1      40.127  27.589  27.098  1.00  0.00     0.010 A 
ATOM     46  C   UNL A   1      39.494  26.561  29.197  1.00  0.00     0.010 A 
ATOM     47  C   UNL A   1      39.980  27.657  28.480  1.00  0.00    -0.014 A 
BRANCH  47  48
ATOM     48  C   UNL A   1      40.397  28.794  29.287  1.00  0.00     0.031 A 
ATOM     49  C   UNL A   1      39.429  29.852  29.632  1.00  0.00     0.074 A 
ATOM     50  C   UNL A   1      41.631  28.780  29.837  1.00  0.00     0.049 A 
ATOM     51  N   UNL A   1      39.751  31.013  30.091  1.00  0.00    -0.248 NA
ATOM     52  C   UNL A   1      37.996  29.705  29.405  1.00  0.00     0.031 C 
ATOM     53  C   UNL A   1      42.126  29.609  30.931  1.00  0.00     0.029 A 
ATOM     54  N   UNL A   1      42.774  28.113  29.360  1.00  0.00    -0.354 N 
ATOM     55  C   UNL A   1      38.594  31.643  30.495  1.00  0.00     0.074 A 
ATOM     56  C   UNL A   1      37.537  30.847  29.924  1.00  0.00     0.031 C 
ATOM     57  C   UNL A   1      43.467  29.652  30.870  1.00  0.00     0.029 A 
ATOM     58  C   UNL A   1      43.855  28.983  29.641  1.00  0.00     0.049 A 
ATOM     59  H   UNL A   1      42.815  27.231  28.925  1.00  0.00     0.167 HD
ATOM     60  C   UNL A   1      38.694  32.675  31.384  1.00  0.00     0.037 A 
ATOM     61  C   UNL A   1      44.574  29.565  28.638  1.00  0.00     0.037 A 
ATOM     62  C   UNL A   1      40.093  33.098  31.516  1.00  0.00     0.049 A 
ATOM     63  C   UNL A   1      44.546  31.075  28.657  1.00  0.00     0.074 A 
ATOM     64  C   UNL A   1      41.059  32.888  32.487  1.00  0.00     0.029 A 
ATOM     65  N   UNL A   1      40.760  33.605  30.401  1.00  0.00    -0.354 N 
ATOM     66  N   UNL A   1      43.636  31.775  29.276  1.00  0.00    -0.248 NA
ATOM     67  C   UNL A   1      45.519  31.912  27.962  1.00  0.00     0.031 C 
ATOM     68  C   UNL A   1      42.324  33.191  31.918  1.00  0.00     0.029 A 
ATOM     69  C   UNL A   1      42.125  33.619  30.616  1.00  0.00     0.049 A 
ATOM     70  H   UNL A   1      40.320  33.909  29.576  1.00  0.00     0.167 HD
ATOM     71  C   UNL A   1      43.867  33.109  29.069  1.00  0.00     0.074 A 
ATOM     72  C   UNL A   1      45.067  33.144  28.253  1.00  0.00     0.031 C 
ATOM     73  C   UNL A   1      43.043  34.071  29.580  1.00  0.00     0.037 A 
BRANCH  60  74
ATOM     74  C   UNL A   1      37.596  33.138  32.339  1.00  0.00     0.064 A 
ATOM     75  C   UNL A   1      36.533  33.943  31.861  1.00  0.00     0.173 A 
ATOM     76  C   UNL A   1      37.570  32.939  33.735  1.00  0.00     0.173 A 
ATOM     77  F   UNL A   1      36.366  34.175  30.552  1.00  0.00    -0.203 F 
ATOM     78  C   UNL A   1      35.598  34.553  32.708  1.00  0.00     0.198 A 
ATOM     79  C   UNL A   1      36.636  33.548  34.582  1.00  0.00     0.198 A 
ATOM     80  F   UNL A   1      38.429  32.140  34.364  1.00  0.00    -0.203 F 
ATOM     81  F   UNL A   1      34.641  35.337  32.189  1.00  0.00    -0.200 F 
ATOM     82  C   UNL A   1      35.660  34.370  34.072  1.00  0.00     0.200 A 
ATOM     83  F   UNL A   1      36.707  33.333  35.904  1.00  0.00    -0.200 F 
ATOM     84  F   UNL A   1      34.781  34.966  34.887  1.00  0.00    -0.200 F 
ENDBRANCH  60  74
BRANCH  61  85
ATOM     85  C   UNL A   1      44.647  28.724  27.413  1.00  0.00     0.064 A 
ATOM     86  C   UNL A   1      45.492  27.598  27.436  1.00  0.00     0.173 A 
ATOM     87  C   UNL A   1      43.644  28.763  26.438  1.00  0.00     0.173 A 
ATOM     88  F   UNL A   1      46.472  27.513  28.350  1.00  0.00    -0.203 F 
ATOM     89  C   UNL A   1      45.259  26.502  26.607  1.00  0.00     0.198 A 
ATOM     90  C   UNL A   1      43.425  27.669  25.598  1.00  0.00     0.198 A 
ATOM     91  F   UNL A   1      42.798  29.801  26.377  1.00  0.00    -0.203 F 
ATOM     92  F   UNL A   1      46.006  25.396  26.737  1.00  0.00    -0.200 F 
ATOM     93  C   UNL A   1      44.206  26.527  25.711  1.00  0.00     0.200 A 
ATOM     94  F   UNL A   1      42.390  27.680  24.746  1.00  0.00    -0.200 F 
ATOM     95  F   UNL A   1      43.915  25.438  24.985  1.00  0.00    -0.200 F 
ENDBRANCH  61  85
BRANCH  73  96
ATOM     96  C   UNL A   1      43.080  35.537  29.223  1.00  0.00     0.064 A 
ATOM     97  C   UNL A   1      43.687  36.521  30.020  1.00  0.00     0.173 A 
ATOM     98  C   UNL A   1      42.619  35.974  27.958  1.00  0.00     0.173 A 
ATOM     99  F   UNL A   1      44.270  36.212  31.186  1.00  0.00    -0.203 F 
ATOM    100  C   UNL A   1      43.765  37.857  29.614  1.00  0.00     0.198 A 
ATOM    101  C   UNL A   1      42.750  37.295  27.531  1.00  0.00     0.198 A 
ATOM    102  F   UNL A   1      42.049  35.127  27.090  1.00  0.00    -0.203 F 
ATOM    103  F   UNL A   1      44.315  38.767  30.429  1.00  0.00    -0.200 F 
ATOM    104  C   UNL A   1      43.309  38.241  28.366  1.00  0.00     0.200 A 
ATOM    105  F   UNL A   1      42.352  37.640  26.299  1.00  0.00    -0.200 F 
ATOM    106  F   UNL A   1      43.427  39.512  27.963  1.00  0.00    -0.200 F 
ENDBRANCH  73  96
ENDBRANCH  47  48
ENDBRANCH  39  42
ENDBRANCH  37  38
ENDBRANCH  36  37
ENDBRANCH  35  36
ENDBRANCH  34  35
ENDBRANCH   1  34
TORSDOF 19
ENDMDL
MODEL 2
REMARK VINA RESULT:     -13.5      4.133     10.977
REMARK SMILES Cc1ccc(-c2cc(OCC(=O)NCCCCCCNC(=O)c3ccc(-c4c5nc(c(-c6c(F)c(F)c(F)c(F)c6F)c6ccc([nH]6)c(-c6c(F)c(F)c(F)c(F)c6F)c6nc(c(-c7c(F)c(F)c(F)c(F)c7F)c7ccc4[nH]7)C=C6)C=C5)cc3)nc(NCc3ccc4c(c3)OCO4)n2)cc1
REMARK SMILES IDX 15 1 14 2 13 3 11 4 12 5 10 7 9 8 8 9 6 10 7 11 99 12 87 13
REMARK SMILES IDX 86 14 5 15 1 16 2 17 3 18 101 19 4 20 100 21 88 22 89 24
REMARK SMILES IDX 90 25 91 26 95 27 92 28 94 29 93 30 96 31 98 32 97 33 16 34
REMARK SMILES IDX 17 35 18 36 19 37 20 38 21 39 22 41 23 42 24 43 85 44 25 45
REMARK SMILES IDX 84 46 26 47 27 48 28 49 78 50 29 51 83 52 77 53 79 54 30 55
REMARK SMILES IDX 82 56 76 57 75 58 31 60 63 61 43 62 62 63 44 64 47 65 61 66
REMARK SMILES IDX 80 67 45 68 46 69 60 71 81 72 48 73 32 74 33 75 41 76 34 77
REMARK SMILES IDX 35 78 39 79 42 80 36 81 37 82 40 83 38 84 64 85 65 86 73 87
REMARK SMILES IDX 66 88 67 89 71 90 74 91 68 92 69 93 72 94 70 95 49 96 50 97
REMARK SMILES IDX 58 98 51 99 52 100 56 101 59 102 53 103 54 104 57 105 55 106
REMARK H PARENT 13 6 88 23 20 40 79 59 47 70
REMARK Flexibility Score: inf
ROOT
ATOM      1  C   UNL A   1      31.180  26.462  26.301  1.00  0.00     0.021 C 
ENDROOT
BRANCH   1   2
ATOM      2  C   UNL A   1      31.972  26.032  25.067  1.00  0.00     0.116 C 
BRANCH   2   3
ATOM      3  N   UNL A   1      31.580  26.750  23.873  1.00  0.00    -0.353 N 
ATOM      4  C   UNL A   1      31.593  26.313  22.582  1.00  0.00     0.258 C 
ATOM      5  O   UNL A   1      31.157  27.054  21.699  1.00  0.00    -0.271 OA
ATOM      6  H   UNL A   1      31.264  27.672  24.011  1.00  0.00     0.163 HD
BRANCH   4   7
ATOM      7  C   UNL A   1      32.135  24.916  22.256  1.00  0.00     0.331 C 
BRANCH   7   8
ATOM      8  O   UNL A   1      33.543  24.758  22.307  1.00  0.00    -0.467 OA
BRANCH   8   9
ATOM      9  C   UNL A   1      34.042  23.747  23.077  1.00  0.00     0.219 A 
ATOM     10  C   UNL A   1      35.616  22.592  24.352  1.00  0.00     0.080 A 
ATOM     11  C   UNL A   1      35.326  23.671  23.546  1.00  0.00     0.097 A 
ATOM     12  N   UNL A   1      34.725  21.617  24.609  1.00  0.00    -0.213 NA
ATOM     13  C   UNL A   1      33.499  21.766  24.098  1.00  0.00     0.226 A 
ATOM     14  N   UNL A   1      33.120  22.812  23.355  1.00  0.00    -0.177 NA
BRANCH  10  15
ATOM     15  C   UNL A   1      36.911  22.509  25.033  1.00  0.00     0.000 A 
ATOM     16  C   UNL A   1      40.607  22.108  27.244  1.00  0.00     0.044 C 
ATOM     17  C   UNL A   1      39.338  22.249  26.457  1.00  0.00    -0.051 A 
ATOM     18  C   UNL A   1      38.624  23.454  26.478  1.00  0.00     0.004 A 
ATOM     19  C   UNL A   1      38.840  21.178  25.712  1.00  0.00     0.004 A 
ATOM     20  C   UNL A   1      37.426  23.586  25.766  1.00  0.00     0.010 A 
ATOM     21  C   UNL A   1      37.640  21.308  25.010  1.00  0.00     0.010 A 
ENDBRANCH  10  15
BRANCH  13  22
ATOM     22  N   UNL A   1      32.520  20.839  24.334  1.00  0.00    -0.350 N 
ATOM     23  H   UNL A   1      31.947  20.938  25.129  1.00  0.00     0.164 HD
BRANCH  22  24
ATOM     24  C   UNL A   1      32.304  19.724  23.448  1.00  0.00     0.152 C 
BRANCH  24  25
ATOM     25  C   UNL A   1      32.837  18.410  23.996  1.00  0.00    -0.025 A 
ATOM     26  C   UNL A   1      34.212  18.112  23.815  1.00  0.00     0.009 A 
ATOM     27  C   UNL A   1      32.032  17.489  24.692  1.00  0.00     0.056 A 
ATOM     28  C   UNL A   1      34.765  16.911  24.272  1.00  0.00     0.051 A 
ATOM     29  C   UNL A   1      32.599  16.304  25.110  1.00  0.00     0.166 A 
ATOM     30  C   UNL A   1      33.926  16.019  24.900  1.00  0.00     0.165 A 
ATOM     31  O   UNL A   1      31.944  15.291  25.739  1.00  0.00    -0.454 OA
ATOM     32  O   UNL A   1      34.269  14.787  25.363  1.00  0.00    -0.454 OA
ATOM     33  C   UNL A   1      32.977  14.285  25.762  1.00  0.00     0.468 C 
ENDBRANCH  24  25
ENDBRANCH  22  24
ENDBRANCH  13  22
ENDBRANCH   8   9
ENDBRANCH   7   8
ENDBRANCH   4   7
ENDBRANCH   2   3
ENDBRANCH   1   2
BRANCH   1  34
ATOM     34  C   UNL A   1      31.395  27.907  26.773  1.00  0.00     0.002 C 
BRANCH  34  35
ATOM     35  C   UNL A   1      32.835  28.341  27.090  1.00  0.00     0.002 C 
BRANCH  35  36
ATOM     36  C   UNL A   1      33.083  29.839  27.282  1.00  0.00     0.021 C 
BRANCH  36  37
ATOM     37  C   UNL A   1      34.547  30.250  27.284  1.00  0.00     0.116 C 
BRANCH  37  38
ATOM     38  N   UNL A   1      34.937  31.114  28.388  1.00  0.00    -0.352 N 
ATOM     39  C   UNL A   1      35.991  30.986  29.281  1.00  0.00     0.251 C 
ATOM     40  H   UNL A   1      34.368  31.906  28.522  1.00  0.00     0.163 HD
ATOM     41  O   UNL A   1      36.111  31.770  30.203  1.00  0.00    -0.269 OA
BRANCH  39  42
ATOM     42  C   UNL A   1      37.050  29.973  29.025  1.00  0.00     0.039 A 
ATOM     43  C   UNL A   1      37.181  28.920  29.940  1.00  0.00     0.014 A 
ATOM     44  C   UNL A   1      38.013  30.160  28.040  1.00  0.00     0.014 A 
ATOM     45  C   UNL A   1      38.391  28.235  30.027  1.00  0.00     0.010 A 
ATOM     46  C   UNL A   1      39.247  29.567  28.196  1.00  0.00     0.010 A 
ATOM     47  C   UNL A   1      39.455  28.659  29.237  1.00  0.00    -0.014 A 
BRANCH  47  48
ATOM     48  C   UNL A   1      40.842  28.290  29.475  1.00  0.00     0.031 A 
ATOM     49  C   UNL A   1      41.397  27.065  28.869  1.00  0.00     0.074 A 
ATOM     50  C   UNL A   1      41.642  29.163  30.125  1.00  0.00     0.049 A 
ATOM     51  N   UNL A   1      42.502  26.507  29.231  1.00  0.00    -0.248 NA
ATOM     52  C   UNL A   1      40.691  26.314  27.837  1.00  0.00     0.031 C 
ATOM     53  C   UNL A   1      43.101  29.168  30.169  1.00  0.00     0.029 A 
ATOM     54  N   UNL A   1      41.261  30.140  31.062  1.00  0.00    -0.354 N 
ATOM     55  C   UNL A   1      42.801  25.527  28.311  1.00  0.00     0.074 A 
ATOM     56  C   UNL A   1      41.585  25.363  27.555  1.00  0.00     0.031 C 
ATOM     57  C   UNL A   1      43.499  29.851  31.254  1.00  0.00     0.029 A 
ATOM     58  C   UNL A   1      42.305  30.162  32.019  1.00  0.00     0.049 A 
ATOM     59  H   UNL A   1      40.446  30.691  31.055  1.00  0.00     0.167 HD
ATOM     60  C   UNL A   1      44.093  25.091  28.225  1.00  0.00     0.037 A 
ATOM     61  C   UNL A   1      42.090  29.774  33.310  1.00  0.00     0.037 A 
ATOM     62  C   UNL A   1      44.871  25.580  29.370  1.00  0.00     0.049 A 
ATOM     63  C   UNL A   1      42.944  28.609  33.752  1.00  0.00     0.074 A 
ATOM     64  C   UNL A   1      45.799  26.598  29.519  1.00  0.00     0.029 A 
ATOM     65  N   UNL A   1      44.512  25.183  30.658  1.00  0.00    -0.354 N 
ATOM     66  N   UNL A   1      43.525  27.783  32.928  1.00  0.00    -0.248 NA
ATOM     67  C   UNL A   1      43.188  28.270  35.150  1.00  0.00     0.031 C 
ATOM     68  C   UNL A   1      45.931  26.869  30.907  1.00  0.00     0.029 A 
ATOM     69  C   UNL A   1      45.113  25.994  31.602  1.00  0.00     0.049 A 
ATOM     70  H   UNL A   1      43.914  24.431  30.865  1.00  0.00     0.167 HD
ATOM     71  C   UNL A   1      44.189  26.819  33.639  1.00  0.00     0.074 A 
ATOM     72  C   UNL A   1      43.961  27.176  35.028  1.00  0.00     0.031 C 
ATOM     73  C   UNL A   1      44.862  25.803  33.024  1.00  0.00     0.037 A 
BRANCH  60  74
ATOM     74  C   UNL A   1      44.740  24.456  26.996  1.00  0.00     0.064 A 
ATOM     75  C   UNL A   1      44.507  23.091  26.699  1.00  0.00     0.173 A 
ATOM     76  C   UNL A   1      45.676  25.070  26.138  1.00  0.00     0.173 A 
ATOM     77  F   UNL A   1      43.597  22.374  27.371  1.00  0.00    -0.203 F 
ATOM     78  C   UNL A   1      45.207  22.398  25.701  1.00  0.00     0.198 A 
ATOM     79  C   UNL A   1      46.375  24.378  25.141  1.00  0.00     0.198 A 
ATOM     80  F   UNL A   1      45.962  26.369  26.197  1.00  0.00    -0.203 F 
ATOM     81  F   UNL A   1      44.965  21.094  25.501  1.00  0.00    -0.200 F 
ATOM     82  C   UNL A   1      46.154  23.038  24.933  1.00  0.00     0.200 A 
ATOM     83  F   UNL A   1      47.275  25.034  24.393  1.00  0.00    -0.200 F 
ATOM     84  F   UNL A   1      46.840  22.376  23.993  1.00  0.00    -0.200 F 
ENDBRANCH  60  74
BRANCH  61  85
ATOM     85  C   UNL A   1      40.703  30.045  33.774  1.00  0.00     0.064 A 
ATOM     86  C   UNL A   1      40.369  31.369  34.119  1.00  0.00     0.173 A 
ATOM     87  C   UNL A   1      39.652  29.164  33.493  1.00  0.00     0.173 A 
ATOM     88  F   UNL A   1      41.341  32.253  34.401  1.00  0.00    -0.203 F 
ATOM     89  C   UNL A   1      39.054  31.824  34.058  1.00  0.00     0.198 A 
ATOM     90  C   UNL A   1      38.333  29.621  33.449  1.00  0.00     0.198 A 
ATOM     91  F   UNL A   1      39.906  27.896  33.141  1.00  0.00    -0.203 F 
ATOM     92  F   UNL A   1      38.785  33.119  34.275  1.00  0.00    -0.200 F 
ATOM     93  C   UNL A   1      38.041  30.956  33.691  1.00  0.00     0.200 A 
ATOM     94  F   UNL A   1      37.352  28.788  33.070  1.00  0.00    -0.200 F 
ATOM     95  F   UNL A   1      36.791  31.412  33.532  1.00  0.00    -0.200 F 
ENDBRANCH  61  85
BRANCH  73  96
ATOM     96  C   UNL A   1      45.424  24.582  33.709  1.00  0.00     0.064 A 
ATOM     97  C   UNL A   1      44.690  23.407  33.939  1.00  0.00     0.173 A 
ATOM     98  C   UNL A   1      46.801  24.513  34.028  1.00  0.00     0.173 A 
ATOM     99  F   UNL A   1      43.406  23.304  33.569  1.00  0.00    -0.203 F 
ATOM    100  C   UNL A   1      45.272  22.271  34.509  1.00  0.00     0.198 A 
ATOM    101  C   UNL A   1      47.392  23.360  34.542  1.00  0.00     0.198 A 
ATOM    102  F   UNL A   1      47.619  25.556  33.826  1.00  0.00    -0.203 F 
ATOM    103  F   UNL A   1      44.519  21.189  34.749  1.00  0.00    -0.200 F 
ATOM    104  C   UNL A   1      46.624  22.243  34.798  1.00  0.00     0.200 A 
ATOM    105  F   UNL A   1      48.713  23.331  34.767  1.00  0.00    -0.200 F 
ATOM    106  F   UNL A   1      47.187  21.137  35.302  1.00  0.00    -0.200 F 
ENDBRANCH  73  96
ENDBRANCH  47  48
ENDBRANCH  39  42
ENDBRANCH  37  38
ENDBRANCH  36  37
ENDBRANCH  35  36
ENDBRANCH  34  35
ENDBRANCH   1  34
TORSDOF 19
ENDMDL
MODEL 3
REMARK VINA RESULT:     -13.4      3.995     11.199
REMARK SMILES Cc1ccc(-c2cc(OCC(=O)NCCCCCCNC(=O)c3ccc(-c4c5nc(c(-c6c(F)c(F)c(F)c(F)c6F)c6ccc([nH]6)c(-c6c(F)c(F)c(F)c(F)c6F)c6nc(c(-c7c(F)c(F)c(F)c(F)c7F)c7ccc4[nH]7)C=C6)C=C5)cc3)nc(NCc3ccc4c(c3)OCO4)n2)cc1
REMARK SMILES IDX 15 1 14 2 13 3 11 4 12 5 10 7 9 8 8 9 6 10 7 11 99 12 87 13
REMARK SMILES IDX 86 14 5 15 1 16 2 17 3 18 101 19 4 20 100 21 88 22 89 24
REMARK SMILES IDX 90 25 91 26 95 27 92 28 94 29 93 30 96 31 98 32 97 33 16 34
REMARK SMILES IDX 17 35 18 36 19 37 20 38 21 39 22 41 23 42 24 43 85 44 25 45
REMARK SMILES IDX 84 46 26 47 27 48 28 49 78 50 29 51 83 52 77 53 79 54 30 55
REMARK SMILES IDX 82 56 76 57 75 58 31 60 63 61 43 62 62 63 44 64 47 65 61 66
REMARK SMILES IDX 80 67 45 68 46 69 60 71 81 72 48 73 32 74 33 75 41 76 34 77
REMARK SMILES IDX 35 78 39 79 42 80 36 81 37 82 40 83 38 84 64 85 65 86 73 87
REMARK SMILES IDX 66 88 67 89 71 90 74 91 68 92 69 93 72 94 70 95 49 96 50 97
REMARK SMILES IDX 58 98 51 99 52 100 56 101 59 102 53 103 54 104 57 105 55 106
REMARK H PARENT 13 6 88 23 20 40 79 59 47 70
REMARK Flexibility Score: inf
ROOT
ATOM      1  C   UNL A   1      32.159  26.445  26.450  1.00  0.00     0.021 C 
ENDROOT
BRANCH   1   2
ATOM      2  C   UNL A   1      33.358  25.803  25.755  1.00  0.00     0.116 C 
BRANCH   2   3
ATOM      3  N   UNL A   1      33.603  26.354  24.438  1.00  0.00    -0.353 N 
ATOM      4  C   UNL A   1      33.186  25.876  23.232  1.00  0.00     0.258 C 
ATOM      5  O   UNL A   1      33.441  26.525  22.215  1.00  0.00    -0.271 OA
ATOM      6  H   UNL A   1      34.139  27.179  24.412  1.00  0.00     0.163 HD
BRANCH   4   7
ATOM      7  C   UNL A   1      32.405  24.559  23.163  1.00  0.00     0.331 C 
BRANCH   7   8
ATOM      8  O   UNL A   1      33.036  23.486  22.484  1.00  0.00    -0.467 OA
BRANCH   8   9
ATOM      9  C   UNL A   1      33.776  22.611  23.225  1.00  0.00     0.219 A 
ATOM     10  C   UNL A   1      34.262  20.636  24.365  1.00  0.00     0.080 A 
ATOM     11  C   UNL A   1      33.341  21.393  23.675  1.00  0.00     0.097 A 
ATOM     12  N   UNL A   1      35.497  21.083  24.658  1.00  0.00    -0.213 NA
ATOM     13  C   UNL A   1      35.832  22.290  24.191  1.00  0.00     0.226 A 
ATOM     14  N   UNL A   1      35.016  23.062  23.465  1.00  0.00    -0.177 NA
BRANCH  10  15
ATOM     15  C   UNL A   1      33.945  19.256  24.744  1.00  0.00     0.000 A 
ATOM     16  C   UNL A   1      32.903  15.146  25.600  1.00  0.00     0.044 C 
ATOM     17  C   UNL A   1      33.283  16.569  25.319  1.00  0.00    -0.051 A 
ATOM     18  C   UNL A   1      32.517  17.620  25.840  1.00  0.00     0.004 A 
ATOM     19  C   UNL A   1      34.387  16.866  24.518  1.00  0.00     0.004 A 
ATOM     20  C   UNL A   1      32.850  18.951  25.562  1.00  0.00     0.010 A 
ATOM     21  C   UNL A   1      34.713  18.194  24.235  1.00  0.00     0.010 A 
ENDBRANCH  10  15
BRANCH  13  22
ATOM     22  N   UNL A   1      37.077  22.811  24.415  1.00  0.00    -0.350 N 
ATOM     23  H   UNL A   1      37.677  22.966  23.649  1.00  0.00     0.164 HD
BRANCH  22  24
ATOM     24  C   UNL A   1      37.532  23.142  25.741  1.00  0.00     0.152 C 
BRANCH  24  25
ATOM     25  C   UNL A   1      38.745  22.338  26.177  1.00  0.00    -0.025 A 
ATOM     26  C   UNL A   1      39.622  22.908  27.136  1.00  0.00     0.009 A 
ATOM     27  C   UNL A   1      39.024  21.048  25.690  1.00  0.00     0.056 A 
ATOM     28  C   UNL A   1      40.771  22.234  27.565  1.00  0.00     0.051 A 
ATOM     29  C   UNL A   1      40.175  20.419  26.114  1.00  0.00     0.166 A 
ATOM     30  C   UNL A   1      41.029  20.998  27.020  1.00  0.00     0.165 A 
ATOM     31  O   UNL A   1      40.613  19.202  25.692  1.00  0.00    -0.454 OA
ATOM     32  O   UNL A   1      42.115  20.221  27.275  1.00  0.00    -0.454 OA
ATOM     33  C   UNL A   1      41.909  19.156  26.324  1.00  0.00     0.468 C 
ENDBRANCH  24  25
ENDBRANCH  22  24
ENDBRANCH  13  22
ENDBRANCH   8   9
ENDBRANCH   7   8
ENDBRANCH   4   7
ENDBRANCH   2   3
ENDBRANCH   1   2
BRANCH   1  34
ATOM     34  C   UNL A   1      31.871  27.910  26.089  1.00  0.00     0.002 C 
BRANCH  34  35
ATOM     35  C   UNL A   1      31.848  28.930  27.238  1.00  0.00     0.002 C 
BRANCH  35  36
ATOM     36  C   UNL A   1      32.548  30.269  26.994  1.00  0.00     0.021 C 
BRANCH  36  37
ATOM     37  C   UNL A   1      34.033  30.283  27.325  1.00  0.00     0.116 C 
BRANCH  37  38
ATOM     38  N   UNL A   1      34.423  31.253  28.337  1.00  0.00    -0.352 N 
ATOM     39  C   UNL A   1      35.523  31.255  29.182  1.00  0.00     0.251 C 
ATOM     40  H   UNL A   1      33.815  32.021  28.439  1.00  0.00     0.163 HD
ATOM     41  O   UNL A   1      35.640  32.117  30.033  1.00  0.00    -0.269 OA
BRANCH  39  42
ATOM     42  C   UNL A   1      36.627  30.285  28.950  1.00  0.00     0.039 A 
ATOM     43  C   UNL A   1      36.791  29.249  29.880  1.00  0.00     0.014 A 
ATOM     44  C   UNL A   1      37.592  30.500  27.974  1.00  0.00     0.014 A 
ATOM     45  C   UNL A   1      38.028  28.617  29.990  1.00  0.00     0.010 A 
ATOM     46  C   UNL A   1      38.849  29.962  28.151  1.00  0.00     0.010 A 
ATOM     47  C   UNL A   1      39.083  29.076  29.206  1.00  0.00    -0.014 A 
BRANCH  47  48
ATOM     48  C   UNL A   1      40.481  28.769  29.463  1.00  0.00     0.031 A 
ATOM     49  C   UNL A   1      41.097  27.567  28.870  1.00  0.00     0.074 A 
ATOM     50  C   UNL A   1      41.234  29.678  30.121  1.00  0.00     0.049 A 
ATOM     51  N   UNL A   1      42.220  27.060  29.248  1.00  0.00    -0.248 NA
ATOM     52  C   UNL A   1      40.438  26.783  27.831  1.00  0.00     0.031 C 
ATOM     53  C   UNL A   1      42.690  29.748  30.184  1.00  0.00     0.029 A 
ATOM     54  N   UNL A   1      40.797  30.641  31.049  1.00  0.00    -0.354 N 
ATOM     55  C   UNL A   1      42.575  26.090  28.336  1.00  0.00     0.074 A 
ATOM     56  C   UNL A   1      41.377  25.871  27.565  1.00  0.00     0.031 C 
ATOM     57  C   UNL A   1      43.043  30.450  31.273  1.00  0.00     0.029 A 
ATOM     58  C   UNL A   1      41.826  30.711  32.020  1.00  0.00     0.049 A 
ATOM     59  H   UNL A   1      39.959  31.155  31.029  1.00  0.00     0.167 HD
ATOM     60  C   UNL A   1      43.886  25.712  28.270  1.00  0.00     0.037 A 
ATOM     61  C   UNL A   1      41.610  30.318  33.309  1.00  0.00     0.037 A 
ATOM     62  C   UNL A   1      44.626  26.238  29.423  1.00  0.00     0.049 A 
ATOM     63  C   UNL A   1      42.508  29.194  33.767  1.00  0.00     0.074 A 
ATOM     64  C   UNL A   1      45.506  27.296  29.581  1.00  0.00     0.029 A 
ATOM     65  N   UNL A   1      44.267  25.830  30.707  1.00  0.00    -0.354 N 
ATOM     66  N   UNL A   1      43.137  28.391  32.954  1.00  0.00    -0.248 NA
ATOM     67  C   UNL A   1      42.748  28.870  35.170  1.00  0.00     0.031 C 
ATOM     68  C   UNL A   1      45.607  27.576  30.969  1.00  0.00     0.029 A 
ATOM     69  C   UNL A   1      44.819  26.669  31.656  1.00  0.00     0.049 A 
ATOM     70  H   UNL A   1      43.699  25.052  30.909  1.00  0.00     0.167 HD
ATOM     71  C   UNL A   1      43.832  27.460  33.678  1.00  0.00     0.074 A 
ATOM     72  C   UNL A   1      43.570  27.810  35.062  1.00  0.00     0.031 C 
ATOM     73  C   UNL A   1      44.558  26.472  33.075  1.00  0.00     0.037 A 
BRANCH  60  74
ATOM     74  C   UNL A   1      44.576  25.101  27.052  1.00  0.00     0.064 A 
ATOM     75  C   UNL A   1      44.590  23.696  26.876  1.00  0.00     0.173 A 
ATOM     76  C   UNL A   1      45.333  25.799  26.089  1.00  0.00     0.173 A 
ATOM     77  F   UNL A   1      43.867  22.885  27.660  1.00  0.00    -0.203 F 
ATOM     78  C   UNL A   1      45.355  23.059  25.889  1.00  0.00     0.198 A 
ATOM     79  C   UNL A   1      46.098  25.164  25.103  1.00  0.00     0.198 A 
ATOM     80  F   UNL A   1      45.372  27.129  26.029  1.00  0.00    -0.203 F 
ATOM     81  F   UNL A   1      45.353  21.721  25.805  1.00  0.00    -0.200 F 
ATOM     82  C   UNL A   1      46.124  23.793  25.012  1.00  0.00     0.200 A 
ATOM     83  F   UNL A   1      46.819  25.906  24.248  1.00  0.00    -0.200 F 
ATOM     84  F   UNL A   1      46.872  23.189  24.081  1.00  0.00    -0.200 F 
ENDBRANCH  60  74
BRANCH  61  85
ATOM     85  C   UNL A   1      40.207  30.530  33.753  1.00  0.00     0.064 A 
ATOM     86  C   UNL A   1      39.823  31.831  34.131  1.00  0.00     0.173 A 
ATOM     87  C   UNL A   1      39.191  29.624  33.427  1.00  0.00     0.173 A 
ATOM     88  F   UNL A   1      40.759  32.738  34.456  1.00  0.00    -0.203 F 
ATOM     89  C   UNL A   1      38.495  32.244  34.056  1.00  0.00     0.198 A 
ATOM     90  C   UNL A   1      37.859  30.038  33.370  1.00  0.00     0.198 A 
ATOM     91  F   UNL A   1      39.494  28.375  33.044  1.00  0.00    -0.203 F 
ATOM     92  F   UNL A   1      38.178  33.523  34.305  1.00  0.00    -0.200 F 
ATOM     93  C   UNL A   1      37.518  31.355  33.645  1.00  0.00     0.200 A 
ATOM     94  F   UNL A   1      36.914  29.185  32.949  1.00  0.00    -0.200 F 
ATOM     95  F   UNL A   1      36.256  31.775  33.474  1.00  0.00    -0.200 F 
ENDBRANCH  61  85
BRANCH  73  96
ATOM     96  C   UNL A   1      45.163  25.279  33.773  1.00  0.00     0.064 A 
ATOM     97  C   UNL A   1      44.432  24.141  34.153  1.00  0.00     0.173 A 
ATOM     98  C   UNL A   1      46.565  25.190  33.948  1.00  0.00     0.173 A 
ATOM     99  F   UNL A   1      43.114  24.052  33.928  1.00  0.00    -0.203 F 
ATOM    100  C   UNL A   1      45.047  23.025  34.728  1.00  0.00     0.198 A 
ATOM    101  C   UNL A   1      47.182  24.053  34.468  1.00  0.00     0.198 A 
ATOM    102  F   UNL A   1      47.379  26.195  33.595  1.00  0.00    -0.203 F 
ATOM    103  F   UNL A   1      44.301  21.981  35.114  1.00  0.00    -0.200 F 
ATOM    104  C   UNL A   1      46.421  22.976  34.874  1.00  0.00     0.200 A 
ATOM    105  F   UNL A   1      48.518  24.000  34.554  1.00  0.00    -0.200 F 
ATOM    106  F   UNL A   1      47.010  21.887  35.384  1.00  0.00    -0.200 F 
ENDBRANCH  73  96
ENDBRANCH  47  48
ENDBRANCH  39  42
ENDBRANCH  37  38
ENDBRANCH  36  37
ENDBRANCH  35  36
ENDBRANCH  34  35
ENDBRANCH   1  34
TORSDOF 19
ENDMDL
