MODEL 1
REMARK VINA RESULT:     -10.5      0.000      0.000
REMARK SMILES CCN(Cc1ccccn1)C(=O)NC(CC)(CC)C(=O)NCCCCCCNC(=O)c1ccc(-c2c3nc(c(-c4c(F)c(F)c(F)c(F)c4F)c4ccc([nH]4)c(-c4c(F)c(F)c(F)c(F)c4F)c4nc(c(-c5c(F)c(F)c(F)c(F)c5F)c5ccc2[nH]5)C=C4)C=C3)cc1
REMARK SMILES IDX 23 1 22 2 21 3 19 4 20 5 14 7 13 8 11 9 12 10 3 12 2 13 1 14
REMARK SMILES IDX 4 15 5 16 6 17 10 18 7 19 9 20 8 21 15 22 16 23 17 24 18 25
REMARK SMILES IDX 24 26 25 27 26 28 27 29 28 30 29 31 30 33 31 34 32 35 93 36
REMARK SMILES IDX 33 37 92 38 34 39 35 40 36 41 86 42 37 43 91 44 85 45 87 46
REMARK SMILES IDX 38 47 90 48 84 49 83 50 39 52 71 53 51 54 70 55 52 56 55 57
REMARK SMILES IDX 69 58 88 59 53 60 54 61 68 63 89 64 56 65 40 66 41 67 49 68
REMARK SMILES IDX 42 69 43 70 47 71 50 72 44 73 45 74 48 75 46 76 72 77 73 78
REMARK SMILES IDX 81 79 74 80 75 81 79 82 82 83 76 84 77 85 80 86 78 87 57 88
REMARK SMILES IDX 58 89 66 90 59 91 60 92 64 93 67 94 61 95 62 96 65 97 63 98
REMARK H PARENT 21 6 13 11 28 32 87 51 55 62
REMARK Flexibility Score: inf
ROOT
ATOM      1  C   UNL A   1      37.595  22.856  25.706  1.00  0.00     0.021 C 
ENDROOT
BRANCH   1   2
ATOM      2  C   UNL A   1      36.350  23.721  25.900  1.00  0.00     0.116 C 
BRANCH   2   3
ATOM      3  N   UNL A   1      35.777  24.074  24.623  1.00  0.00    -0.354 N 
ATOM      4  C   UNL A   1      34.561  23.864  24.067  1.00  0.00     0.245 C 
ATOM      5  O   UNL A   1      34.538  24.071  22.845  1.00  0.00    -0.272 OA
ATOM      6  H   UNL A   1      36.396  24.567  24.037  1.00  0.00     0.163 HD
BRANCH   4   7
ATOM      7  C   UNL A   1      33.331  23.289  24.829  1.00  0.00     0.120 C 
BRANCH   7   8
ATOM      8  N   UNL A   1      32.118  23.508  24.000  1.00  0.00    -0.323 N 
ATOM      9  C   UNL A   1      31.201  24.453  23.741  1.00  0.00     0.318 C 
ATOM     10  O   UNL A   1      30.271  24.040  23.032  1.00  0.00    -0.249 OA
ATOM     11  H   UNL A   1      31.925  22.701  23.470  1.00  0.00     0.166 HD
BRANCH   9  12
ATOM     12  N   UNL A   1      31.317  25.783  24.030  1.00  0.00    -0.319 N 
BRANCH  12  13
ATOM     13  C   UNL A   1      30.151  26.351  24.721  1.00  0.00     0.118 C 
ATOM     14  C   UNL A   1      29.883  25.664  26.061  1.00  0.00     0.027 C 
ENDBRANCH  12  13
BRANCH  12  15
ATOM     15  C   UNL A   1      32.391  26.746  23.737  1.00  0.00     0.177 C 
BRANCH  15  16
ATOM     16  C   UNL A   1      32.743  27.753  24.812  1.00  0.00     0.060 A 
ATOM     17  C   UNL A   1      33.432  27.325  25.950  1.00  0.00     0.026 A 
ATOM     18  N   UNL A   1      32.439  29.058  24.609  1.00  0.00    -0.259 NA
ATOM     19  C   UNL A   1      33.746  28.250  26.943  1.00  0.00     0.004 A 
ATOM     20  C   UNL A   1      32.770  29.937  25.579  1.00  0.00     0.111 A 
ATOM     21  C   UNL A   1      33.406  29.582  26.758  1.00  0.00     0.020 A 
ENDBRANCH  15  16
ENDBRANCH  12  15
ENDBRANCH   9  12
ENDBRANCH   7   8
BRANCH   7  22
ATOM     22  C   UNL A   1      33.013  23.837  26.244  1.00  0.00     0.035 C 
ATOM     23  C   UNL A   1      32.238  22.891  27.166  1.00  0.00     0.007 C 
ENDBRANCH   7  22
BRANCH   7  24
ATOM     24  C   UNL A   1      33.592  21.745  24.924  1.00  0.00     0.035 C 
ATOM     25  C   UNL A   1      32.746  20.860  24.012  1.00  0.00     0.007 C 
ENDBRANCH   7  24
ENDBRANCH   4   7
ENDBRANCH   2   3
ENDBRANCH   1   2
BRANCH   1  26
ATOM     26  C   UNL A   1      37.481  21.816  24.580  1.00  0.00     0.002 C 
BRANCH  26  27
ATOM     27  C   UNL A   1      37.141  20.392  25.029  1.00  0.00     0.002 C 
BRANCH  27  28
ATOM     28  C   UNL A   1      38.311  19.406  25.028  1.00  0.00     0.021 C 
BRANCH  28  29
ATOM     29  C   UNL A   1      39.466  19.772  25.952  1.00  0.00     0.116 C 
BRANCH  29  30
ATOM     30  N   UNL A   1      40.597  18.867  25.856  1.00  0.00    -0.352 N 
ATOM     31  C   UNL A   1      41.927  19.158  26.025  1.00  0.00     0.251 C 
ATOM     32  H   UNL A   1      40.383  17.930  25.643  1.00  0.00     0.163 HD
ATOM     33  O   UNL A   1      42.785  18.304  25.829  1.00  0.00    -0.269 OA
BRANCH  31  34
ATOM     34  C   UNL A   1      42.326  20.530  26.407  1.00  0.00     0.039 A 
ATOM     35  C   UNL A   1      42.622  21.448  25.397  1.00  0.00     0.014 A 
ATOM     36  C   UNL A   1      42.396  20.912  27.751  1.00  0.00     0.014 A 
ATOM     37  C   UNL A   1      42.944  22.764  25.731  1.00  0.00     0.010 A 
ATOM     38  C   UNL A   1      42.655  22.240  28.080  1.00  0.00     0.010 A 
ATOM     39  C   UNL A   1      42.942  23.175  27.074  1.00  0.00    -0.014 A 
BRANCH  39  40
ATOM     40  C   UNL A   1      43.284  24.569  27.446  1.00  0.00     0.031 A 
ATOM     41  C   UNL A   1      44.725  24.997  27.489  1.00  0.00     0.074 A 
ATOM     42  C   UNL A   1      42.309  25.432  27.788  1.00  0.00     0.049 A 
ATOM     43  N   UNL A   1      45.238  26.144  27.854  1.00  0.00    -0.248 NA
ATOM     44  C   UNL A   1      45.724  23.991  27.096  1.00  0.00     0.031 C 
ATOM     45  C   UNL A   1      40.878  25.123  27.827  1.00  0.00     0.029 A 
ATOM     46  N   UNL A   1      42.374  26.746  28.179  1.00  0.00    -0.354 N 
ATOM     47  C   UNL A   1      46.614  25.993  27.747  1.00  0.00     0.074 A 
ATOM     48  C   UNL A   1      46.861  24.628  27.333  1.00  0.00     0.031 C 
ATOM     49  C   UNL A   1      40.201  26.221  28.201  1.00  0.00     0.029 A 
ATOM     50  C   UNL A   1      41.150  27.301  28.456  1.00  0.00     0.049 A 
ATOM     51  H   UNL A   1      43.221  27.244  28.252  1.00  0.00     0.167 HD
ATOM     52  C   UNL A   1      47.584  26.915  27.949  1.00  0.00     0.037 A 
ATOM     53  C   UNL A   1      40.832  28.543  28.869  1.00  0.00     0.037 A 
ATOM     54  C   UNL A   1      47.336  28.281  28.325  1.00  0.00     0.049 A 
ATOM     55  C   UNL A   1      41.929  29.555  29.063  1.00  0.00     0.074 A 
ATOM     56  C   UNL A   1      48.248  29.303  28.521  1.00  0.00     0.029 A 
ATOM     57  N   UNL A   1      46.077  28.818  28.550  1.00  0.00    -0.354 N 
ATOM     58  N   UNL A   1      43.223  29.412  28.912  1.00  0.00    -0.248 NA
ATOM     59  C   UNL A   1      41.520  30.907  29.472  1.00  0.00     0.031 C 
ATOM     60  C   UNL A   1      47.542  30.454  28.889  1.00  0.00     0.029 A 
ATOM     61  C   UNL A   1      46.189  30.158  28.886  1.00  0.00     0.049 A 
ATOM     62  H   UNL A   1      45.230  28.322  28.482  1.00  0.00     0.167 HD
ATOM     63  C   UNL A   1      43.777  30.658  29.174  1.00  0.00     0.074 A 
ATOM     64  C   UNL A   1      42.678  31.549  29.483  1.00  0.00     0.031 C 
ATOM     65  C   UNL A   1      45.081  31.031  29.163  1.00  0.00     0.037 A 
BRANCH  52  66
ATOM     66  C   UNL A   1      49.006  26.481  27.751  1.00  0.00     0.064 A 
ATOM     67  C   UNL A   1      49.559  26.356  26.468  1.00  0.00     0.173 A 
ATOM     68  C   UNL A   1      49.834  26.224  28.854  1.00  0.00     0.173 A 
ATOM     69  F   UNL A   1      48.803  26.576  25.383  1.00  0.00    -0.203 F 
ATOM     70  C   UNL A   1      50.885  25.968  26.296  1.00  0.00     0.198 A 
ATOM     71  C   UNL A   1      51.167  25.862  28.678  1.00  0.00     0.198 A 
ATOM     72  F   UNL A   1      49.353  26.332  30.101  1.00  0.00    -0.203 F 
ATOM     73  F   UNL A   1      51.381  25.814  25.060  1.00  0.00    -0.200 F 
ATOM     74  C   UNL A   1      51.690  25.730  27.400  1.00  0.00     0.200 A 
ATOM     75  F   UNL A   1      51.948  25.642  29.746  1.00  0.00    -0.200 F 
ATOM     76  F   UNL A   1      52.968  25.365  27.232  1.00  0.00    -0.200 F 
ENDBRANCH  52  66
BRANCH  53  77
ATOM     77  C   UNL A   1      39.412  28.914  29.100  1.00  0.00     0.064 A 
ATOM     78  C   UNL A   1      38.614  29.393  28.052  1.00  0.00     0.173 A 
ATOM     79  C   UNL A   1      38.831  28.818  30.372  1.00  0.00     0.173 A 
ATOM     80  F   UNL A   1      39.132  29.520  26.821  1.00  0.00    -0.203 F 
ATOM     81  C   UNL A   1      37.297  29.791  28.272  1.00  0.00     0.198 A 
ATOM     82  C   UNL A   1      37.505  29.192  30.586  1.00  0.00     0.198 A 
ATOM     83  F   UNL A   1      39.550  28.360  31.407  1.00  0.00    -0.203 F 
ATOM     84  F   UNL A   1      36.574  30.293  27.263  1.00  0.00    -0.200 F 
ATOM     85  C   UNL A   1      36.743  29.687  29.539  1.00  0.00     0.200 A 
ATOM     86  F   UNL A   1      36.969  29.078  31.810  1.00  0.00    -0.200 F 
ATOM     87  F   UNL A   1      35.478  30.072  29.752  1.00  0.00    -0.200 F 
ENDBRANCH  53  77
BRANCH  65  88
ATOM     88  C   UNL A   1      45.384  32.472  29.444  1.00  0.00     0.064 A 
ATOM     89  C   UNL A   1      45.581  32.941  30.750  1.00  0.00     0.173 A 
ATOM     90  C   UNL A   1      45.519  33.385  28.387  1.00  0.00     0.173 A 
ATOM     91  F   UNL A   1      45.448  32.109  31.794  1.00  0.00    -0.203 F 
ATOM     92  C   UNL A   1      45.879  34.280  30.991  1.00  0.00     0.198 A 
ATOM     93  C   UNL A   1      45.842  34.717  28.630  1.00  0.00     0.198 A 
ATOM     94  F   UNL A   1      45.346  32.983  27.120  1.00  0.00    -0.203 F 
ATOM     95  F   UNL A   1      46.021  34.717  32.249  1.00  0.00    -0.200 F 
ATOM     96  C   UNL A   1      46.015  35.165  29.931  1.00  0.00     0.200 A 
ATOM     97  F   UNL A   1      45.985  35.567  27.605  1.00  0.00    -0.200 F 
ATOM     98  F   UNL A   1      46.307  36.451  30.165  1.00  0.00    -0.200 F 
ENDBRANCH  65  88
ENDBRANCH  39  40
ENDBRANCH  31  34
ENDBRANCH  29  30
ENDBRANCH  28  29
ENDBRANCH  27  28
ENDBRANCH  26  27
ENDBRANCH   1  26
TORSDOF 20
ENDMDL
MODEL 2
REMARK VINA RESULT:     -10.0      1.262      2.333
REMARK SMILES CCN(Cc1ccccn1)C(=O)NC(CC)(CC)C(=O)NCCCCCCNC(=O)c1ccc(-c2c3nc(c(-c4c(F)c(F)c(F)c(F)c4F)c4ccc([nH]4)c(-c4c(F)c(F)c(F)c(F)c4F)c4nc(c(-c5c(F)c(F)c(F)c(F)c5F)c5ccc2[nH]5)C=C4)C=C3)cc1
REMARK SMILES IDX 23 1 22 2 21 3 19 4 20 5 14 7 13 8 11 9 12 10 3 12 2 13 1 14
REMARK SMILES IDX 4 15 5 16 6 17 10 18 7 19 9 20 8 21 15 22 16 23 17 24 18 25
REMARK SMILES IDX 24 26 25 27 26 28 27 29 28 30 29 31 30 33 31 34 32 35 93 36
REMARK SMILES IDX 33 37 92 38 34 39 35 40 36 41 86 42 37 43 91 44 85 45 87 46
REMARK SMILES IDX 38 47 90 48 84 49 83 50 39 52 71 53 51 54 70 55 52 56 55 57
REMARK SMILES IDX 69 58 88 59 53 60 54 61 68 63 89 64 56 65 40 66 41 67 49 68
REMARK SMILES IDX 42 69 43 70 47 71 50 72 44 73 45 74 48 75 46 76 72 77 73 78
REMARK SMILES IDX 81 79 74 80 75 81 79 82 82 83 76 84 77 85 80 86 78 87 57 88
REMARK SMILES IDX 58 89 66 90 59 91 60 92 64 93 67 94 61 95 62 96 65 97 63 98
REMARK H PARENT 21 6 13 11 28 32 87 51 55 62
REMARK Flexibility Score: inf
ROOT
ATOM      1  C   UNL A   1      36.612  22.774  23.434  1.00  0.00     0.021 C 
ENDROOT
BRANCH   1   2
ATOM      2  C   UNL A   1      35.088  22.820  23.332  1.00  0.00     0.116 C 
BRANCH   2   3
ATOM      3  N   UNL A   1      34.497  22.891  24.648  1.00  0.00    -0.354 N 
ATOM      4  C   UNL A   1      33.562  23.702  25.197  1.00  0.00     0.245 C 
ATOM      5  O   UNL A   1      33.520  23.634  26.434  1.00  0.00    -0.272 OA
ATOM      6  H   UNL A   1      34.844  22.214  25.272  1.00  0.00     0.163 HD
BRANCH   4   7
ATOM      7  C   UNL A   1      32.705  24.726  24.398  1.00  0.00     0.120 C 
BRANCH   7   8
ATOM      8  N   UNL A   1      31.721  25.343  25.325  1.00  0.00    -0.323 N 
ATOM      9  C   UNL A   1      31.025  26.479  25.486  1.00  0.00     0.318 C 
ATOM     10  O   UNL A   1      30.419  26.523  26.568  1.00  0.00    -0.249 OA
ATOM     11  H   UNL A   1      31.511  24.716  26.055  1.00  0.00     0.166 HD
BRANCH   9  12
ATOM     12  N   UNL A   1      30.809  27.428  24.529  1.00  0.00    -0.319 N 
BRANCH  12  13
ATOM     13  C   UNL A   1      29.601  27.205  23.723  1.00  0.00     0.118 C 
ATOM     14  C   UNL A   1      29.215  28.440  22.906  1.00  0.00     0.027 C 
ENDBRANCH  12  13
BRANCH  12  15
ATOM     15  C   UNL A   1      31.596  28.612  24.146  1.00  0.00     0.177 C 
BRANCH  15  16
ATOM     16  C   UNL A   1      32.162  29.467  25.259  1.00  0.00     0.060 A 
ATOM     17  C   UNL A   1      31.408  30.535  25.753  1.00  0.00     0.026 A 
ATOM     18  N   UNL A   1      33.361  29.131  25.795  1.00  0.00    -0.259 NA
ATOM     19  C   UNL A   1      31.935  31.327  26.770  1.00  0.00     0.004 A 
ATOM     20  C   UNL A   1      33.841  29.905  26.793  1.00  0.00     0.111 A 
ATOM     21  C   UNL A   1      33.177  31.010  27.300  1.00  0.00     0.020 A 
ENDBRANCH  15  16
ENDBRANCH  12  15
ENDBRANCH   9  12
ENDBRANCH   7   8
BRANCH   7  22
ATOM     22  C   UNL A   1      31.908  24.226  23.165  1.00  0.00     0.035 C 
ATOM     23  C   UNL A   1      31.407  22.781  23.237  1.00  0.00     0.007 C 
ENDBRANCH   7  22
BRANCH   7  24
ATOM     24  C   UNL A   1      33.715  25.836  23.939  1.00  0.00     0.035 C 
ATOM     25  C   UNL A   1      33.759  26.129  22.440  1.00  0.00     0.007 C 
ENDBRANCH   7  24
ENDBRANCH   4   7
ENDBRANCH   2   3
ENDBRANCH   1   2
BRANCH   1  26
ATOM     26  C   UNL A   1      37.148  22.165  24.739  1.00  0.00     0.002 C 
BRANCH  26  27
ATOM     27  C   UNL A   1      36.851  20.677  24.944  1.00  0.00     0.002 C 
BRANCH  27  28
ATOM     28  C   UNL A   1      38.071  19.755  24.920  1.00  0.00     0.021 C 
BRANCH  28  29
ATOM     29  C   UNL A   1      39.236  20.200  25.794  1.00  0.00     0.116 C 
BRANCH  29  30
ATOM     30  N   UNL A   1      40.309  19.227  25.873  1.00  0.00    -0.352 N 
ATOM     31  C   UNL A   1      41.636  19.452  26.145  1.00  0.00     0.251 C 
ATOM     32  H   UNL A   1      40.055  18.289  25.712  1.00  0.00     0.163 HD
ATOM     33  O   UNL A   1      42.450  18.537  26.095  1.00  0.00    -0.269 OA
BRANCH  31  34
ATOM     34  C   UNL A   1      42.088  20.825  26.459  1.00  0.00     0.039 A 
ATOM     35  C   UNL A   1      42.227  21.740  25.413  1.00  0.00     0.014 A 
ATOM     36  C   UNL A   1      42.360  21.211  27.776  1.00  0.00     0.014 A 
ATOM     37  C   UNL A   1      42.596  23.057  25.692  1.00  0.00     0.010 A 
ATOM     38  C   UNL A   1      42.665  22.539  28.058  1.00  0.00     0.010 A 
ATOM     39  C   UNL A   1      42.797  23.471  27.018  1.00  0.00    -0.014 A 
BRANCH  39  40
ATOM     40  C   UNL A   1      43.191  24.866  27.331  1.00  0.00     0.031 A 
ATOM     41  C   UNL A   1      44.598  25.322  27.063  1.00  0.00     0.074 A 
ATOM     42  C   UNL A   1      42.302  25.706  27.896  1.00  0.00     0.049 A 
ATOM     43  N   UNL A   1      45.161  26.473  27.327  1.00  0.00    -0.248 NA
ATOM     44  C   UNL A   1      45.502  24.340  26.442  1.00  0.00     0.031 C 
ATOM     45  C   UNL A   1      40.920  25.368  28.243  1.00  0.00     0.029 A 
ATOM     46  N   UNL A   1      42.431  27.015  28.286  1.00  0.00    -0.354 N 
ATOM     47  C   UNL A   1      46.482  26.350  26.916  1.00  0.00     0.074 A 
ATOM     48  C   UNL A   1      46.653  24.996  26.434  1.00  0.00     0.031 C 
ATOM     49  C   UNL A   1      40.325  26.449  28.778  1.00  0.00     0.029 A 
ATOM     50  C   UNL A   1      41.290  27.542  28.836  1.00  0.00     0.049 A 
ATOM     51  H   UNL A   1      43.265  27.528  28.180  1.00  0.00     0.167 HD
ATOM     52  C   UNL A   1      47.458  27.287  26.916  1.00  0.00     0.037 A 
ATOM     53  C   UNL A   1      41.051  28.772  29.332  1.00  0.00     0.037 A 
ATOM     54  C   UNL A   1      47.278  28.643  27.362  1.00  0.00     0.049 A 
ATOM     55  C   UNL A   1      42.149  29.802  29.297  1.00  0.00     0.074 A 
ATOM     56  C   UNL A   1      48.195  29.679  27.371  1.00  0.00     0.029 A 
ATOM     57  N   UNL A   1      46.092  29.152  27.869  1.00  0.00    -0.354 N 
ATOM     58  N   UNL A   1      43.380  29.687  28.862  1.00  0.00    -0.248 NA
ATOM     59  C   UNL A   1      41.818  31.140  29.811  1.00  0.00     0.031 C 
ATOM     60  C   UNL A   1      47.570  30.811  27.906  1.00  0.00     0.029 A 
ATOM     61  C   UNL A   1      46.255  30.489  28.196  1.00  0.00     0.049 A 
ATOM     62  H   UNL A   1      45.258  28.641  27.981  1.00  0.00     0.167 HD
ATOM     63  C   UNL A   1      43.958  30.939  29.018  1.00  0.00     0.074 A 
ATOM     64  C   UNL A   1      42.941  31.804  29.577  1.00  0.00     0.031 C 
ATOM     65  C   UNL A   1      45.221  31.337  28.727  1.00  0.00     0.037 A 
BRANCH  52  66
ATOM     66  C   UNL A   1      48.808  26.883  26.402  1.00  0.00     0.064 A 
ATOM     67  C   UNL A   1      49.760  26.286  27.241  1.00  0.00     0.173 A 
ATOM     68  C   UNL A   1      49.139  27.059  25.050  1.00  0.00     0.173 A 
ATOM     69  F   UNL A   1      49.496  26.111  28.544  1.00  0.00    -0.203 F 
ATOM     70  C   UNL A   1      51.004  25.899  26.750  1.00  0.00     0.198 A 
ATOM     71  C   UNL A   1      50.374  26.646  24.557  1.00  0.00     0.198 A 
ATOM     72  F   UNL A   1      48.262  27.623  24.206  1.00  0.00    -0.203 F 
ATOM     73  F   UNL A   1      51.914  25.370  27.579  1.00  0.00    -0.200 F 
ATOM     74  C   UNL A   1      51.307  26.071  25.407  1.00  0.00     0.200 A 
ATOM     75  F   UNL A   1      50.662  26.803  23.257  1.00  0.00    -0.200 F 
ATOM     76  F   UNL A   1      52.502  25.691  24.935  1.00  0.00    -0.200 F 
ENDBRANCH  52  66
BRANCH  53  77
ATOM     77  C   UNL A   1      39.712  29.112  29.877  1.00  0.00     0.064 A 
ATOM     78  C   UNL A   1      39.418  28.922  31.234  1.00  0.00     0.173 A 
ATOM     79  C   UNL A   1      38.694  29.611  29.052  1.00  0.00     0.173 A 
ATOM     80  F   UNL A   1      40.354  28.427  32.058  1.00  0.00    -0.203 F 
ATOM     81  C   UNL A   1      38.148  29.190  31.741  1.00  0.00     0.198 A 
ATOM     82  C   UNL A   1      37.432  29.904  29.566  1.00  0.00     0.198 A 
ATOM     83  F   UNL A   1      38.926  29.817  27.748  1.00  0.00    -0.203 F 
ATOM     84  F   UNL A   1      37.881  28.949  33.031  1.00  0.00    -0.200 F 
ATOM     85  C   UNL A   1      37.157  29.684  30.907  1.00  0.00     0.200 A 
ATOM     86  F   UNL A   1      36.480  30.394  28.759  1.00  0.00    -0.200 F 
ATOM     87  F   UNL A   1      35.935  29.939  31.393  1.00  0.00    -0.200 F 
ENDBRANCH  53  77
BRANCH  65  88
ATOM     88  C   UNL A   1      45.557  32.779  28.960  1.00  0.00     0.064 A 
ATOM     89  C   UNL A   1      46.114  33.219  30.169  1.00  0.00     0.173 A 
ATOM     90  C   UNL A   1      45.354  33.725  27.944  1.00  0.00     0.173 A 
ATOM     91  F   UNL A   1      46.312  32.354  31.175  1.00  0.00    -0.203 F 
ATOM     92  C   UNL A   1      46.435  34.560  30.361  1.00  0.00     0.198 A 
ATOM     93  C   UNL A   1      45.700  35.060  28.130  1.00  0.00     0.198 A 
ATOM     94  F   UNL A   1      44.829  33.353  26.767  1.00  0.00    -0.203 F 
ATOM     95  F   UNL A   1      46.926  34.967  31.539  1.00  0.00    -0.200 F 
ATOM     96  C   UNL A   1      46.234  35.478  29.340  1.00  0.00     0.200 A 
ATOM     97  F   UNL A   1      45.516  35.944  27.140  1.00  0.00    -0.200 F 
ATOM     98  F   UNL A   1      46.548  36.767  29.526  1.00  0.00    -0.200 F 
ENDBRANCH  65  88
ENDBRANCH  39  40
ENDBRANCH  31  34
ENDBRANCH  29  30
ENDBRANCH  28  29
ENDBRANCH  27  28
ENDBRANCH  26  27
ENDBRANCH   1  26
TORSDOF 20
ENDMDL
MODEL 3
REMARK VINA RESULT:     -10.0      0.742      1.758
REMARK SMILES CCN(Cc1ccccn1)C(=O)NC(CC)(CC)C(=O)NCCCCCCNC(=O)c1ccc(-c2c3nc(c(-c4c(F)c(F)c(F)c(F)c4F)c4ccc([nH]4)c(-c4c(F)c(F)c(F)c(F)c4F)c4nc(c(-c5c(F)c(F)c(F)c(F)c5F)c5ccc2[nH]5)C=C4)C=C3)cc1
REMARK SMILES IDX 23 1 22 2 21 3 19 4 20 5 14 7 13 8 11 9 12 10 3 12 2 13 1 14
REMARK SMILES IDX 4 15 5 16 6 17 10 18 7 19 9 20 8 21 15 22 16 23 17 24 18 25
REMARK SMILES IDX 24 26 25 27 26 28 27 29 28 30 29 31 30 33 31 34 32 35 93 36
REMARK SMILES IDX 33 37 92 38 34 39 35 40 36 41 86 42 37 43 91 44 85 45 87 46
REMARK SMILES IDX 38 47 90 48 84 49 83 50 39 52 71 53 51 54 70 55 52 56 55 57
REMARK SMILES IDX 69 58 88 59 53 60 54 61 68 63 89 64 56 65 40 66 41 67 49 68
REMARK SMILES IDX 42 69 43 70 47 71 50 72 44 73 45 74 48 75 46 76 72 77 73 78
REMARK SMILES IDX 81 79 74 80 75 81 79 82 82 83 76 84 77 85 80 86 78 87 57 88
REMARK SMILES IDX 58 89 66 90 59 91 60 92 64 93 67 94 61 95 62 96 65 97 63 98
REMARK H PARENT 21 6 13 11 28 32 87 51 55 62
REMARK Flexibility Score: inf
ROOT
ATOM      1  C   UNL A   1      37.465  22.897  25.546  1.00  0.00     0.021 C 
ENDROOT
BRANCH   1   2
ATOM      2  C   UNL A   1      36.334  23.918  25.660  1.00  0.00     0.116 C 
BRANCH   2   3
ATOM      3  N   UNL A   1      35.729  24.146  24.369  1.00  0.00    -0.354 N 
ATOM      4  C   UNL A   1      34.514  23.844  23.853  1.00  0.00     0.245 C 
ATOM      5  O   UNL A   1      34.465  23.953  22.619  1.00  0.00    -0.272 OA
ATOM      6  H   UNL A   1      36.317  24.616  23.736  1.00  0.00     0.163 HD
BRANCH   4   7
ATOM      7  C   UNL A   1      33.320  23.282  24.678  1.00  0.00     0.120 C 
BRANCH   7   8
ATOM      8  N   UNL A   1      32.055  23.670  24.003  1.00  0.00    -0.323 N 
ATOM      9  C   UNL A   1      31.167  24.676  23.971  1.00  0.00     0.318 C 
ATOM     10  O   UNL A   1      30.163  24.410  23.293  1.00  0.00    -0.249 OA
ATOM     11  H   UNL A   1      31.779  22.961  23.377  1.00  0.00     0.166 HD
BRANCH   9  12
ATOM     12  N   UNL A   1      31.372  25.941  24.444  1.00  0.00    -0.319 N 
BRANCH  12  13
ATOM     13  C   UNL A   1      30.535  26.292  25.599  1.00  0.00     0.118 C 
ATOM     14  C   UNL A   1      29.771  25.085  26.147  1.00  0.00     0.027 C 
ENDBRANCH  12  13
BRANCH  12  15
ATOM     15  C   UNL A   1      32.260  27.017  23.974  1.00  0.00     0.177 C 
BRANCH  15  16
ATOM     16  C   UNL A   1      32.739  28.027  24.996  1.00  0.00     0.060 A 
ATOM     17  C   UNL A   1      33.797  27.691  25.846  1.00  0.00     0.026 A 
ATOM     18  N   UNL A   1      32.172  29.258  25.013  1.00  0.00    -0.259 NA
ATOM     19  C   UNL A   1      34.229  28.617  26.792  1.00  0.00     0.004 A 
ATOM     20  C   UNL A   1      32.623  30.143  25.928  1.00  0.00     0.111 A 
ATOM     21  C   UNL A   1      33.629  29.867  26.839  1.00  0.00     0.020 A 
ENDBRANCH  15  16
ENDBRANCH  12  15
ENDBRANCH   9  12
ENDBRANCH   7   8
BRANCH   7  22
ATOM     22  C   UNL A   1      33.182  23.703  26.165  1.00  0.00     0.035 C 
ATOM     23  C   UNL A   1      32.470  22.701  27.078  1.00  0.00     0.007 C 
ENDBRANCH   7  22
BRANCH   7  24
ATOM     24  C   UNL A   1      33.465  21.722  24.600  1.00  0.00     0.035 C 
ATOM     25  C   UNL A   1      32.345  20.976  23.876  1.00  0.00     0.007 C 
ENDBRANCH   7  24
ENDBRANCH   4   7
ENDBRANCH   2   3
ENDBRANCH   1   2
BRANCH   1  26
ATOM     26  C   UNL A   1      37.260  21.835  24.455  1.00  0.00     0.002 C 
BRANCH  26  27
ATOM     27  C   UNL A   1      36.989  20.415  24.959  1.00  0.00     0.002 C 
BRANCH  27  28
ATOM     28  C   UNL A   1      38.197  19.476  24.960  1.00  0.00     0.021 C 
BRANCH  28  29
ATOM     29  C   UNL A   1      39.341  19.894  25.875  1.00  0.00     0.116 C 
BRANCH  29  30
ATOM     30  N   UNL A   1      40.444  18.952  25.895  1.00  0.00    -0.352 N 
ATOM     31  C   UNL A   1      41.774  19.213  26.110  1.00  0.00     0.251 C 
ATOM     32  H   UNL A   1      40.209  18.009  25.736  1.00  0.00     0.163 HD
ATOM     33  O   UNL A   1      42.611  18.321  26.014  1.00  0.00    -0.269 OA
BRANCH  31  34
ATOM     34  C   UNL A   1      42.201  20.595  26.418  1.00  0.00     0.039 A 
ATOM     35  C   UNL A   1      42.299  21.515  25.372  1.00  0.00     0.014 A 
ATOM     36  C   UNL A   1      42.490  20.985  27.730  1.00  0.00     0.014 A 
ATOM     37  C   UNL A   1      42.643  22.840  25.645  1.00  0.00     0.010 A 
ATOM     38  C   UNL A   1      42.770  22.319  28.009  1.00  0.00     0.010 A 
ATOM     39  C   UNL A   1      42.860  23.256  26.968  1.00  0.00    -0.014 A 
BRANCH  39  40
ATOM     40  C   UNL A   1      43.228  24.659  27.277  1.00  0.00     0.031 A 
ATOM     41  C   UNL A   1      44.633  25.133  27.028  1.00  0.00     0.074 A 
ATOM     42  C   UNL A   1      42.318  25.490  27.819  1.00  0.00     0.049 A 
ATOM     43  N   UNL A   1      45.175  26.295  27.291  1.00  0.00    -0.248 NA
ATOM     44  C   UNL A   1      45.561  24.160  26.430  1.00  0.00     0.031 C 
ATOM     45  C   UNL A   1      40.935  25.135  28.146  1.00  0.00     0.029 A 
ATOM     46  N   UNL A   1      42.422  26.804  28.201  1.00  0.00    -0.354 N 
ATOM     47  C   UNL A   1      46.504  26.188  26.904  1.00  0.00     0.074 A 
ATOM     48  C   UNL A   1      46.703  24.833  26.436  1.00  0.00     0.031 C 
ATOM     49  C   UNL A   1      40.316  26.210  28.662  1.00  0.00     0.029 A 
ATOM     50  C   UNL A   1      41.263  27.319  28.728  1.00  0.00     0.049 A 
ATOM     51  H   UNL A   1      43.250  27.329  28.104  1.00  0.00     0.167 HD
ATOM     52  C   UNL A   1      47.466  27.140  26.912  1.00  0.00     0.037 A 
ATOM     53  C   UNL A   1      40.999  28.549  29.209  1.00  0.00     0.037 A 
ATOM     54  C   UNL A   1      47.259  28.496  27.344  1.00  0.00     0.049 A 
ATOM     55  C   UNL A   1      42.081  29.595  29.184  1.00  0.00     0.074 A 
ATOM     56  C   UNL A   1      48.160  29.546  27.360  1.00  0.00     0.029 A 
ATOM     57  N   UNL A   1      46.057  28.992  27.827  1.00  0.00    -0.354 N 
ATOM     58  N   UNL A   1      43.321  29.494  28.771  1.00  0.00    -0.248 NA
ATOM     59  C   UNL A   1      41.723  30.931  29.681  1.00  0.00     0.031 C 
ATOM     60  C   UNL A   1      47.510  30.672  27.875  1.00  0.00     0.029 A 
ATOM     61  C   UNL A   1      46.194  30.334  28.146  1.00  0.00     0.049 A 
ATOM     62  H   UNL A   1      45.229  28.469  27.929  1.00  0.00     0.167 HD
ATOM     63  C   UNL A   1      43.878  30.755  28.926  1.00  0.00     0.074 A 
ATOM     64  C   UNL A   1      42.839  31.610  29.461  1.00  0.00     0.031 C 
ATOM     65  C   UNL A   1      45.140  31.170  28.653  1.00  0.00     0.037 A 
BRANCH  52  66
ATOM     66  C   UNL A   1      48.830  26.752  26.424  1.00  0.00     0.064 A 
ATOM     67  C   UNL A   1      49.208  26.942  25.087  1.00  0.00     0.173 A 
ATOM     68  C   UNL A   1      49.780  26.220  27.308  1.00  0.00     0.173 A 
ATOM     69  F   UNL A   1      48.329  27.432  24.200  1.00  0.00    -0.203 F 
ATOM     70  C   UNL A   1      50.482  26.594  24.647  1.00  0.00     0.198 A 
ATOM     71  C   UNL A   1      51.063  25.899  26.870  1.00  0.00     0.198 A 
ATOM     72  F   UNL A   1      49.470  26.022  28.597  1.00  0.00    -0.203 F 
ATOM     73  F   UNL A   1      50.808  26.745  23.355  1.00  0.00    -0.200 F 
ATOM     74  C   UNL A   1      51.411  26.081  25.540  1.00  0.00     0.200 A 
ATOM     75  F   UNL A   1      51.963  25.412  27.736  1.00  0.00    -0.200 F 
ATOM     76  F   UNL A   1      52.639  25.754  25.116  1.00  0.00    -0.200 F 
ENDBRANCH  52  66
BRANCH  53  77
ATOM     77  C   UNL A   1      39.645  28.873  29.729  1.00  0.00     0.064 A 
ATOM     78  C   UNL A   1      39.308  28.617  31.065  1.00  0.00     0.173 A 
ATOM     79  C   UNL A   1      38.658  29.422  28.899  1.00  0.00     0.173 A 
ATOM     80  F   UNL A   1      40.214  28.073  31.892  1.00  0.00    -0.203 F 
ATOM     81  C   UNL A   1      38.025  28.871  31.546  1.00  0.00     0.198 A 
ATOM     82  C   UNL A   1      37.383  29.701  29.388  1.00  0.00     0.198 A 
ATOM     83  F   UNL A   1      38.932  29.691  27.615  1.00  0.00    -0.203 F 
ATOM     84  F   UNL A   1      37.715  28.569  32.813  1.00  0.00    -0.200 F 
ATOM     85  C   UNL A   1      37.064  29.415  30.707  1.00  0.00     0.200 A 
ATOM     86  F   UNL A   1      36.460  30.239  28.578  1.00  0.00    -0.200 F 
ATOM     87  F   UNL A   1      35.830  29.657  31.168  1.00  0.00    -0.200 F 
ENDBRANCH  53  77
BRANCH  65  88
ATOM     88  C   UNL A   1      45.450  32.619  28.879  1.00  0.00     0.064 A 
ATOM     89  C   UNL A   1      45.268  33.577  27.872  1.00  0.00     0.173 A 
ATOM     90  C   UNL A   1      45.898  33.058  30.134  1.00  0.00     0.173 A 
ATOM     91  F   UNL A   1      44.855  33.203  26.651  1.00  0.00    -0.203 F 
ATOM     92  C   UNL A   1      45.545  34.921  28.105  1.00  0.00     0.198 A 
ATOM     93  C   UNL A   1      46.151  34.406  30.372  1.00  0.00     0.198 A 
ATOM     94  F   UNL A   1      46.083  32.181  31.132  1.00  0.00    -0.203 F 
ATOM     95  F   UNL A   1      45.405  35.813  27.116  1.00  0.00    -0.200 F 
ATOM     96  C   UNL A   1      45.981  35.335  29.356  1.00  0.00     0.200 A 
ATOM     97  F   UNL A   1      46.560  34.807  31.583  1.00  0.00    -0.200 F 
ATOM     98  F   UNL A   1      46.242  36.630  29.580  1.00  0.00    -0.200 F 
ENDBRANCH  65  88
ENDBRANCH  39  40
ENDBRANCH  31  34
ENDBRANCH  29  30
ENDBRANCH  28  29
ENDBRANCH  27  28
ENDBRANCH  26  27
ENDBRANCH   1  26
TORSDOF 20
ENDMDL
