MODEL 1
REMARK VINA RESULT:     -11.0      0.000      0.000
REMARK SMILES CCCc1n[nH]c(C(=O)NC2(CC(=O)NCCCCCCNC(=O)c3ccc(-c4c5nc(c(-c6c(F)c(F)c(F)c(F)c6F)c6ccc([nH]6)c(-c6c(F)c(F)c(F)c(F)c6F)c6nc(c(-c7c(F)c(F)c(F)c(F)c7F)c7ccc4[nH]7)C=C6)C=C5)cc3)CCC2)n1
REMARK SMILES IDX 17 1 16 2 15 3 13 4 14 5 12 7 11 8 88 9 90 10 89 11 10 12
REMARK SMILES IDX 8 13 9 14 7 16 4 17 5 18 91 19 6 20 3 22 2 23 1 24 18 25
REMARK SMILES IDX 19 26 20 27 21 28 22 29 23 30 24 32 25 33 26 34 87 35 27 36
REMARK SMILES IDX 86 37 28 38 29 39 30 40 80 41 31 42 85 43 79 44 81 45 32 46
REMARK SMILES IDX 84 47 78 48 77 49 33 51 65 52 45 53 64 54 46 55 49 56 63 57
REMARK SMILES IDX 82 58 47 59 48 60 62 62 83 63 50 64 34 65 35 66 43 67 36 68
REMARK SMILES IDX 37 69 41 70 44 71 38 72 39 73 42 74 40 75 66 76 67 77 75 78
REMARK SMILES IDX 68 79 69 80 73 81 76 82 70 83 71 84 74 85 72 86 51 87 52 88
REMARK SMILES IDX 60 89 53 90 54 91 58 92 61 93 55 94 56 95 59 96 57 97
REMARK H PARENT 15 6 10 15 6 21 22 31 81 50 49 61
REMARK Flexibility Score: inf
ROOT
ATOM      1  C   UNL A   1      38.037  23.686  26.140  1.00  0.00     0.021 C 
ENDROOT
BRANCH   1   2
ATOM      2  C   UNL A   1      36.557  23.660  25.758  1.00  0.00     0.116 C 
BRANCH   2   3
ATOM      3  N   UNL A   1      35.773  23.091  26.832  1.00  0.00    -0.356 N 
ATOM      4  C   UNL A   1      34.424  22.926  26.911  1.00  0.00     0.222 C 
ATOM      5  O   UNL A   1      33.942  22.575  27.988  1.00  0.00    -0.275 OA
ATOM      6  H   UNL A   1      36.286  22.779  27.612  1.00  0.00     0.163 HD
BRANCH   4   7
ATOM      7  C   UNL A   1      33.562  23.150  25.691  1.00  0.00     0.128 C 
BRANCH   7   8
ATOM      8  C   UNL A   1      32.453  22.115  25.449  1.00  0.00     0.049 C 
ATOM      9  C   UNL A   1      32.995  20.681  25.109  1.00  0.00     0.029 C 
ATOM     10  C   UNL A   1      31.780  22.024  24.026  1.00  0.00     0.029 C 
ATOM     11  C   UNL A   1      32.884  21.042  23.618  1.00  0.00     0.005 C 
BRANCH   8  12
ATOM     12  N   UNL A   1      31.391  22.210  26.483  1.00  0.00    -0.343 N 
ATOM     13  C   UNL A   1      30.498  23.217  26.775  1.00  0.00     0.289 C 
ATOM     14  O   UNL A   1      29.630  22.980  27.626  1.00  0.00    -0.266 OA
ATOM     15  H   UNL A   1      31.313  21.415  27.060  1.00  0.00     0.164 HD
BRANCH  13  16
ATOM     16  C   UNL A   1      30.602  24.505  26.146  1.00  0.00     0.214 A 
ATOM     17  C   UNL A   1      30.932  26.542  25.692  1.00  0.00     0.151 A 
ATOM     18  N   UNL A   1      30.073  26.167  24.738  1.00  0.00    -0.158 NA
ATOM     19  N   UNL A   1      31.302  25.546  26.548  1.00  0.00    -0.207 NA
ATOM     20  N   UNL A   1      29.903  24.863  25.030  1.00  0.00    -0.255 N 
ATOM     21  H   UNL A   1      29.345  24.246  24.505  1.00  0.00     0.192 HD
BRANCH  17  22
ATOM     22  C   UNL A   1      31.409  27.933  25.885  1.00  0.00     0.079 C 
BRANCH  22  23
ATOM     23  C   UNL A   1      31.970  28.199  27.279  1.00  0.00     0.005 C 
ATOM     24  C   UNL A   1      33.226  29.056  27.251  1.00  0.00     0.004 C 
ENDBRANCH  22  23
ENDBRANCH  17  22
ENDBRANCH  13  16
ENDBRANCH   8  12
ENDBRANCH   7   8
ENDBRANCH   4   7
ENDBRANCH   2   3
ENDBRANCH   1   2
BRANCH   1  25
ATOM     25  C   UNL A   1      38.739  22.334  26.033  1.00  0.00     0.002 C 
BRANCH  25  26
ATOM     26  C   UNL A   1      38.128  21.369  25.014  1.00  0.00     0.002 C 
BRANCH  26  27
ATOM     27  C   UNL A   1      38.734  19.962  25.001  1.00  0.00     0.021 C 
BRANCH  27  28
ATOM     28  C   UNL A   1      39.479  19.570  26.273  1.00  0.00     0.116 C 
BRANCH  28  29
ATOM     29  N   UNL A   1      40.706  18.850  25.988  1.00  0.00    -0.352 N 
ATOM     30  C   UNL A   1      41.989  19.314  25.873  1.00  0.00     0.251 C 
ATOM     31  H   UNL A   1      40.600  17.880  25.858  1.00  0.00     0.163 HD
ATOM     32  O   UNL A   1      42.868  18.580  25.431  1.00  0.00    -0.269 OA
BRANCH  30  33
ATOM     33  C   UNL A   1      42.320  20.699  26.265  1.00  0.00     0.039 A 
ATOM     34  C   UNL A   1      42.388  21.006  27.626  1.00  0.00     0.014 A 
ATOM     35  C   UNL A   1      42.519  21.700  25.308  1.00  0.00     0.014 A 
ATOM     36  C   UNL A   1      42.692  22.307  28.026  1.00  0.00     0.010 A 
ATOM     37  C   UNL A   1      42.895  22.979  25.707  1.00  0.00     0.010 A 
ATOM     38  C   UNL A   1      42.969  23.300  27.071  1.00  0.00    -0.014 A 
BRANCH  38  39
ATOM     39  C   UNL A   1      43.329  24.672  27.501  1.00  0.00     0.031 A 
ATOM     40  C   UNL A   1      44.764  25.114  27.527  1.00  0.00     0.074 A 
ATOM     41  C   UNL A   1      42.357  25.513  27.900  1.00  0.00     0.049 A 
ATOM     42  N   UNL A   1      45.264  26.285  27.834  1.00  0.00    -0.248 NA
ATOM     43  C   UNL A   1      45.775  24.100  27.190  1.00  0.00     0.031 C 
ATOM     44  C   UNL A   1      40.936  25.174  27.991  1.00  0.00     0.029 A 
ATOM     45  N   UNL A   1      42.415  26.822  28.306  1.00  0.00    -0.354 N 
ATOM     46  C   UNL A   1      46.642  26.145  27.736  1.00  0.00     0.074 A 
ATOM     47  C   UNL A   1      46.903  24.762  27.402  1.00  0.00     0.031 C 
ATOM     48  C   UNL A   1      40.253  26.257  28.394  1.00  0.00     0.029 A 
ATOM     49  C   UNL A   1      41.189  27.357  28.610  1.00  0.00     0.049 A 
ATOM     50  H   UNL A   1      43.256  27.329  28.371  1.00  0.00     0.167 HD
ATOM     51  C   UNL A   1      47.600  27.091  27.884  1.00  0.00     0.037 A 
ATOM     52  C   UNL A   1      40.854  28.599  29.006  1.00  0.00     0.037 A 
ATOM     53  C   UNL A   1      47.331  28.471  28.198  1.00  0.00     0.049 A 
ATOM     54  C   UNL A   1      41.928  29.644  29.129  1.00  0.00     0.074 A 
ATOM     55  C   UNL A   1      48.222  29.524  28.301  1.00  0.00     0.029 A 
ATOM     56  N   UNL A   1      46.071  28.986  28.469  1.00  0.00    -0.354 N 
ATOM     57  N   UNL A   1      43.219  29.526  28.938  1.00  0.00    -0.248 NA
ATOM     58  C   UNL A   1      41.495  30.997  29.500  1.00  0.00     0.031 C 
ATOM     59  C   UNL A   1      47.508  30.666  28.679  1.00  0.00     0.029 A 
ATOM     60  C   UNL A   1      46.164  30.337  28.762  1.00  0.00     0.049 A 
ATOM     61  H   UNL A   1      45.234  28.467  28.455  1.00  0.00     0.167 HD
ATOM     62  C   UNL A   1      43.752  30.791  29.145  1.00  0.00     0.074 A 
ATOM     63  C   UNL A   1      42.640  31.665  29.460  1.00  0.00     0.031 C 
ATOM     64  C   UNL A   1      45.046  31.192  29.077  1.00  0.00     0.037 A 
BRANCH  51  65
ATOM     65  C   UNL A   1      49.029  26.659  27.707  1.00  0.00     0.064 A 
ATOM     66  C   UNL A   1      49.860  26.392  28.806  1.00  0.00     0.173 A 
ATOM     67  C   UNL A   1      49.572  26.504  26.423  1.00  0.00     0.173 A 
ATOM     68  F   UNL A   1      49.394  26.535  30.056  1.00  0.00    -0.203 F 
ATOM     69  C   UNL A   1      51.193  26.030  28.628  1.00  0.00     0.198 A 
ATOM     70  C   UNL A   1      50.895  26.108  26.248  1.00  0.00     0.198 A 
ATOM     71  F   UNL A   1      48.822  26.739  25.337  1.00  0.00    -0.203 F 
ATOM     72  F   UNL A   1      51.983  25.842  29.694  1.00  0.00    -0.200 F 
ATOM     73  C   UNL A   1      51.708  25.883  27.349  1.00  0.00     0.200 A 
ATOM     74  F   UNL A   1      51.390  25.956  25.011  1.00  0.00    -0.200 F 
ATOM     75  F   UNL A   1      52.991  25.535  27.178  1.00  0.00    -0.200 F 
ENDBRANCH  51  65
BRANCH  52  76
ATOM     76  C   UNL A   1      39.428  28.921  29.260  1.00  0.00     0.064 A 
ATOM     77  C   UNL A   1      38.871  28.770  30.537  1.00  0.00     0.173 A 
ATOM     78  C   UNL A   1      38.607  29.433  28.245  1.00  0.00     0.173 A 
ATOM     79  F   UNL A   1      39.614  28.271  31.536  1.00  0.00    -0.203 F 
ATOM     80  C   UNL A   1      37.544  29.111  30.788  1.00  0.00     0.198 A 
ATOM     81  C   UNL A   1      37.287  29.797  28.503  1.00  0.00     0.198 A 
ATOM     82  F   UNL A   1      39.097  29.607  27.008  1.00  0.00    -0.203 F 
ATOM     83  F   UNL A   1      37.028  28.932  32.012  1.00  0.00    -0.200 F 
ATOM     84  C   UNL A   1      36.756  29.632  29.772  1.00  0.00     0.200 A 
ATOM     85  F   UNL A   1      36.535  30.318  27.524  1.00  0.00    -0.200 F 
ATOM     86  F   UNL A   1      35.484  29.976  30.019  1.00  0.00    -0.200 F 
ENDBRANCH  52  76
BRANCH  64  87
ATOM     87  C   UNL A   1      45.328  32.646  29.325  1.00  0.00     0.064 A 
ATOM     88  C   UNL A   1      45.248  33.597  28.298  1.00  0.00     0.173 A 
ATOM     89  C   UNL A   1      45.646  33.096  30.616  1.00  0.00     0.173 A 
ATOM     90  F   UNL A   1      44.961  33.215  27.045  1.00  0.00    -0.203 F 
ATOM     91  C   UNL A   1      45.502  34.943  28.548  1.00  0.00     0.198 A 
ATOM     92  C   UNL A   1      45.870  34.446  30.868  1.00  0.00     0.198 A 
ATOM     93  F   UNL A   1      45.728  32.227  31.634  1.00  0.00    -0.203 F 
ATOM     94  F   UNL A   1      45.467  35.828  27.542  1.00  0.00    -0.200 F 
ATOM     95  C   UNL A   1      45.806  35.368  29.833  1.00  0.00     0.200 A 
ATOM     96  F   UNL A   1      46.151  34.856  32.113  1.00  0.00    -0.200 F 
ATOM     97  F   UNL A   1      46.045  36.664  30.073  1.00  0.00    -0.200 F 
ENDBRANCH  64  87
ENDBRANCH  38  39
ENDBRANCH  30  33
ENDBRANCH  28  29
ENDBRANCH  27  28
ENDBRANCH  26  27
ENDBRANCH  25  26
ENDBRANCH   1  25
TORSDOF 18
ENDMDL
MODEL 2
REMARK VINA RESULT:     -10.9      0.724      7.266
REMARK SMILES CCCc1n[nH]c(C(=O)NC2(CC(=O)NCCCCCCNC(=O)c3ccc(-c4c5nc(c(-c6c(F)c(F)c(F)c(F)c6F)c6ccc([nH]6)c(-c6c(F)c(F)c(F)c(F)c6F)c6nc(c(-c7c(F)c(F)c(F)c(F)c7F)c7ccc4[nH]7)C=C6)C=C5)cc3)CCC2)n1
REMARK SMILES IDX 17 1 16 2 15 3 13 4 14 5 12 7 11 8 88 9 90 10 89 11 10 12
REMARK SMILES IDX 8 13 9 14 7 16 4 17 5 18 91 19 6 20 3 22 2 23 1 24 18 25
REMARK SMILES IDX 19 26 20 27 21 28 22 29 23 30 24 32 25 33 26 34 87 35 27 36
REMARK SMILES IDX 86 37 28 38 29 39 30 40 80 41 31 42 85 43 79 44 81 45 32 46
REMARK SMILES IDX 84 47 78 48 77 49 33 51 65 52 45 53 64 54 46 55 49 56 63 57
REMARK SMILES IDX 82 58 47 59 48 60 62 62 83 63 50 64 34 65 35 66 43 67 36 68
REMARK SMILES IDX 37 69 41 70 44 71 38 72 39 73 42 74 40 75 66 76 67 77 75 78
REMARK SMILES IDX 68 79 69 80 73 81 76 82 70 83 71 84 74 85 72 86 51 87 52 88
REMARK SMILES IDX 60 89 53 90 54 91 58 92 61 93 55 94 56 95 59 96 57 97
REMARK H PARENT 15 6 10 15 6 21 22 31 81 50 49 61
REMARK Flexibility Score: inf
ROOT
ATOM      1  C   UNL A   1      38.032  23.761  26.157  1.00  0.00     0.021 C 
ENDROOT
BRANCH   1   2
ATOM      2  C   UNL A   1      36.555  23.717  25.769  1.00  0.00     0.116 C 
BRANCH   2   3
ATOM      3  N   UNL A   1      35.774  23.130  26.835  1.00  0.00    -0.356 N 
ATOM      4  C   UNL A   1      34.428  22.936  26.903  1.00  0.00     0.222 C 
ATOM      5  O   UNL A   1      33.944  22.574  27.975  1.00  0.00    -0.275 OA
ATOM      6  H   UNL A   1      36.287  22.828  27.618  1.00  0.00     0.163 HD
BRANCH   4   7
ATOM      7  C   UNL A   1      33.571  23.144  25.675  1.00  0.00     0.128 C 
BRANCH   7   8
ATOM      8  C   UNL A   1      32.444  22.123  25.458  1.00  0.00     0.049 C 
ATOM      9  C   UNL A   1      32.960  20.684  25.101  1.00  0.00     0.029 C 
ATOM     10  C   UNL A   1      31.735  22.045  24.053  1.00  0.00     0.029 C 
ATOM     11  C   UNL A   1      32.816  21.051  23.614  1.00  0.00     0.005 C 
BRANCH   8  12
ATOM     12  N   UNL A   1      31.411  22.228  26.520  1.00  0.00    -0.343 N 
ATOM     13  C   UNL A   1      30.524  23.237  26.825  1.00  0.00     0.289 C 
ATOM     14  O   UNL A   1      29.679  23.008  27.701  1.00  0.00    -0.266 OA
ATOM     15  H   UNL A   1      31.349  21.439  27.106  1.00  0.00     0.164 HD
BRANCH  13  16
ATOM     16  C   UNL A   1      30.610  24.519  26.180  1.00  0.00     0.214 A 
ATOM     17  C   UNL A   1      30.918  26.552  25.700  1.00  0.00     0.151 A 
ATOM     18  N   UNL A   1      30.049  26.161  24.762  1.00  0.00    -0.158 NA
ATOM     19  N   UNL A   1      31.308  25.569  26.561  1.00  0.00    -0.207 NA
ATOM     20  N   UNL A   1      29.893  24.859  25.071  1.00  0.00    -0.255 N 
ATOM     21  H   UNL A   1      29.332  24.233  24.560  1.00  0.00     0.192 HD
BRANCH  17  22
ATOM     22  C   UNL A   1      31.388  27.949  25.870  1.00  0.00     0.079 C 
BRANCH  22  23
ATOM     23  C   UNL A   1      31.867  28.265  27.285  1.00  0.00     0.005 C 
ATOM     24  C   UNL A   1      33.372  28.469  27.362  1.00  0.00     0.004 C 
ENDBRANCH  22  23
ENDBRANCH  17  22
ENDBRANCH  13  16
ENDBRANCH   8  12
ENDBRANCH   7   8
ENDBRANCH   4   7
ENDBRANCH   2   3
ENDBRANCH   1   2
BRANCH   1  25
ATOM     25  C   UNL A   1      38.742  22.410  26.087  1.00  0.00     0.002 C 
BRANCH  25  26
ATOM     26  C   UNL A   1      38.159  21.427  25.069  1.00  0.00     0.002 C 
BRANCH  26  27
ATOM     27  C   UNL A   1      38.780  20.027  25.084  1.00  0.00     0.021 C 
BRANCH  27  28
ATOM     28  C   UNL A   1      39.540  19.671  26.358  1.00  0.00     0.116 C 
BRANCH  28  29
ATOM     29  N   UNL A   1      40.715  18.864  26.087  1.00  0.00    -0.352 N 
ATOM     30  C   UNL A   1      42.021  19.243  25.925  1.00  0.00     0.251 C 
ATOM     31  H   UNL A   1      40.547  17.898  26.008  1.00  0.00     0.163 HD
ATOM     32  O   UNL A   1      42.844  18.435  25.504  1.00  0.00    -0.269 OA
BRANCH  30  33
ATOM     33  C   UNL A   1      42.442  20.623  26.240  1.00  0.00     0.039 A 
ATOM     34  C   UNL A   1      42.802  21.465  25.184  1.00  0.00     0.014 A 
ATOM     35  C   UNL A   1      42.526  21.077  27.560  1.00  0.00     0.014 A 
ATOM     36  C   UNL A   1      43.210  22.771  25.451  1.00  0.00     0.010 A 
ATOM     37  C   UNL A   1      42.862  22.402  27.820  1.00  0.00     0.010 A 
ATOM     38  C   UNL A   1      43.224  23.258  26.769  1.00  0.00    -0.014 A 
BRANCH  38  39
ATOM     39  C   UNL A   1      43.622  24.659  27.045  1.00  0.00     0.031 A 
ATOM     40  C   UNL A   1      42.613  25.659  27.533  1.00  0.00     0.074 A 
ATOM     41  C   UNL A   1      44.894  25.038  26.824  1.00  0.00     0.049 A 
ATOM     42  N   UNL A   1      42.786  26.914  27.865  1.00  0.00    -0.248 NA
ATOM     43  C   UNL A   1      41.220  25.198  27.636  1.00  0.00     0.031 C 
ATOM     44  C   UNL A   1      45.946  24.177  26.280  1.00  0.00     0.029 A 
ATOM     45  N   UNL A   1      45.519  26.242  27.027  1.00  0.00    -0.354 N 
ATOM     46  C   UNL A   1      41.527  27.391  28.206  1.00  0.00     0.074 A 
ATOM     47  C   UNL A   1      40.591  26.312  27.982  1.00  0.00     0.031 C 
ATOM     48  C   UNL A   1      47.092  24.871  26.222  1.00  0.00     0.029 A 
ATOM     49  C   UNL A   1      46.853  26.228  26.704  1.00  0.00     0.049 A 
ATOM     50  H   UNL A   1      45.055  27.038  27.372  1.00  0.00     0.167 HD
ATOM     51  C   UNL A   1      41.188  28.611  28.688  1.00  0.00     0.037 A 
ATOM     52  C   UNL A   1      47.781  27.198  26.797  1.00  0.00     0.037 A 
ATOM     53  C   UNL A   1      42.129  29.676  28.927  1.00  0.00     0.049 A 
ATOM     54  C   UNL A   1      47.392  28.533  27.369  1.00  0.00     0.074 A 
ATOM     55  C   UNL A   1      41.902  30.924  29.478  1.00  0.00     0.029 A 
ATOM     56  N   UNL A   1      43.481  29.616  28.617  1.00  0.00    -0.354 N 
ATOM     57  N   UNL A   1      46.218  28.944  27.781  1.00  0.00    -0.248 NA
ATOM     58  C   UNL A   1      48.462  29.529  27.509  1.00  0.00     0.031 C 
ATOM     59  C   UNL A   1      43.106  31.636  29.459  1.00  0.00     0.029 A 
ATOM     60  C   UNL A   1      44.095  30.814  28.944  1.00  0.00     0.049 A 
ATOM     61  H   UNL A   1      43.936  28.837  28.222  1.00  0.00     0.167 HD
ATOM     62  C   UNL A   1      46.408  30.237  28.248  1.00  0.00     0.074 A 
ATOM     63  C   UNL A   1      47.817  30.536  28.084  1.00  0.00     0.031 C 
ATOM     64  C   UNL A   1      45.499  31.097  28.770  1.00  0.00     0.037 A 
BRANCH  51  65
ATOM     65  C   UNL A   1      39.736  28.854  28.988  1.00  0.00     0.064 A 
ATOM     66  C   UNL A   1      38.847  29.317  28.005  1.00  0.00     0.173 A 
ATOM     67  C   UNL A   1      39.224  28.617  30.272  1.00  0.00     0.173 A 
ATOM     68  F   UNL A   1      39.286  29.571  26.762  1.00  0.00    -0.203 F 
ATOM     69  C   UNL A   1      37.512  29.574  28.306  1.00  0.00     0.198 A 
ATOM     70  C   UNL A   1      37.881  28.843  30.562  1.00  0.00     0.198 A 
ATOM     71  F   UNL A   1      40.026  28.168  31.248  1.00  0.00    -0.203 F 
ATOM     72  F   UNL A   1      36.699  30.076  27.367  1.00  0.00    -0.200 F 
ATOM     73  C   UNL A   1      37.029  29.332  29.583  1.00  0.00     0.200 A 
ATOM     74  F   UNL A   1      37.412  28.598  31.793  1.00  0.00    -0.200 F 
ATOM     75  F   UNL A   1      35.744  29.581  29.874  1.00  0.00    -0.200 F 
ENDBRANCH  51  65
BRANCH  52  76
ATOM     76  C   UNL A   1      49.178  26.910  26.384  1.00  0.00     0.064 A 
ATOM     77  C   UNL A   1      50.098  26.363  27.289  1.00  0.00     0.173 A 
ATOM     78  C   UNL A   1      49.606  27.128  25.067  1.00  0.00     0.173 A 
ATOM     79  F   UNL A   1      49.738  26.150  28.563  1.00  0.00    -0.203 F 
ATOM     80  C   UNL A   1      51.397  26.052  26.894  1.00  0.00     0.198 A 
ATOM     81  C   UNL A   1      50.897  26.794  24.667  1.00  0.00     0.198 A 
ATOM     82  F   UNL A   1      48.758  27.638  24.162  1.00  0.00    -0.203 F 
ATOM     83  F   UNL A   1      52.266  25.556  27.785  1.00  0.00    -0.200 F 
ATOM     84  C   UNL A   1      51.793  26.261  25.580  1.00  0.00     0.200 A 
ATOM     85  F   UNL A   1      51.270  26.979  23.393  1.00  0.00    -0.200 F 
ATOM     86  F   UNL A   1      53.037  25.946  25.197  1.00  0.00    -0.200 F 
ENDBRANCH  52  76
BRANCH  64  87
ATOM     87  C   UNL A   1      46.002  32.437  29.221  1.00  0.00     0.064 A 
ATOM     88  C   UNL A   1      46.022  33.545  28.361  1.00  0.00     0.173 A 
ATOM     89  C   UNL A   1      46.436  32.623  30.543  1.00  0.00     0.173 A 
ATOM     90  F   UNL A   1      45.631  33.414  27.084  1.00  0.00    -0.203 F 
ATOM     91  C   UNL A   1      46.482  34.783  28.800  1.00  0.00     0.198 A 
ATOM     92  C   UNL A   1      46.868  33.870  30.986  1.00  0.00     0.198 A 
ATOM     93  F   UNL A   1      46.431  31.597  31.407  1.00  0.00    -0.203 F 
ATOM     94  F   UNL A   1      46.538  35.816  27.947  1.00  0.00    -0.200 F 
ATOM     95  C   UNL A   1      46.898  34.947  30.113  1.00  0.00     0.200 A 
ATOM     96  F   UNL A   1      47.257  34.029  32.259  1.00  0.00    -0.200 F 
ATOM     97  F   UNL A   1      47.336  36.140  30.535  1.00  0.00    -0.200 F 
ENDBRANCH  64  87
ENDBRANCH  38  39
ENDBRANCH  30  33
ENDBRANCH  28  29
ENDBRANCH  27  28
ENDBRANCH  26  27
ENDBRANCH  25  26
ENDBRANCH   1  25
TORSDOF 18
ENDMDL
MODEL 3
REMARK VINA RESULT:     -10.6      2.005      3.099
REMARK SMILES CCCc1n[nH]c(C(=O)NC2(CC(=O)NCCCCCCNC(=O)c3ccc(-c4c5nc(c(-c6c(F)c(F)c(F)c(F)c6F)c6ccc([nH]6)c(-c6c(F)c(F)c(F)c(F)c6F)c6nc(c(-c7c(F)c(F)c(F)c(F)c7F)c7ccc4[nH]7)C=C6)C=C5)cc3)CCC2)n1
REMARK SMILES IDX 17 1 16 2 15 3 13 4 14 5 12 7 11 8 88 9 90 10 89 11 10 12
REMARK SMILES IDX 8 13 9 14 7 16 4 17 5 18 91 19 6 20 3 22 2 23 1 24 18 25
REMARK SMILES IDX 19 26 20 27 21 28 22 29 23 30 24 32 25 33 26 34 87 35 27 36
REMARK SMILES IDX 86 37 28 38 29 39 30 40 80 41 31 42 85 43 79 44 81 45 32 46
REMARK SMILES IDX 84 47 78 48 77 49 33 51 65 52 45 53 64 54 46 55 49 56 63 57
REMARK SMILES IDX 82 58 47 59 48 60 62 62 83 63 50 64 34 65 35 66 43 67 36 68
REMARK SMILES IDX 37 69 41 70 44 71 38 72 39 73 42 74 40 75 66 76 67 77 75 78
REMARK SMILES IDX 68 79 69 80 73 81 76 82 70 83 71 84 74 85 72 86 51 87 52 88
REMARK SMILES IDX 60 89 53 90 54 91 58 92 61 93 55 94 56 95 59 96 57 97
REMARK H PARENT 15 6 10 15 6 21 22 31 81 50 49 61
REMARK Flexibility Score: inf
ROOT
ATOM      1  C   UNL A   1      35.167  21.889  25.968  1.00  0.00     0.021 C 
ENDROOT
BRANCH   1   2
ATOM      2  C   UNL A   1      35.881  23.231  25.809  1.00  0.00     0.116 C 
BRANCH   2   3
ATOM      3  N   UNL A   1      34.918  24.307  25.752  1.00  0.00    -0.356 N 
ATOM      4  C   UNL A   1      34.288  24.835  24.667  1.00  0.00     0.222 C 
ATOM      5  O   UNL A   1      33.630  25.864  24.818  1.00  0.00    -0.275 OA
ATOM      6  H   UNL A   1      34.684  24.712  26.618  1.00  0.00     0.163 HD
BRANCH   4   7
ATOM      7  C   UNL A   1      34.389  24.147  23.325  1.00  0.00     0.128 C 
BRANCH   7   8
ATOM      8  C   UNL A   1      33.065  23.666  22.712  1.00  0.00     0.049 C 
ATOM      9  C   UNL A   1      31.834  23.821  23.673  1.00  0.00     0.029 C 
ATOM     10  C   UNL A   1      32.707  22.131  22.758  1.00  0.00     0.029 C 
ATOM     11  C   UNL A   1      32.066  22.370  24.130  1.00  0.00     0.005 C 
BRANCH   8  12
ATOM     12  N   UNL A   1      32.904  24.161  21.321  1.00  0.00    -0.343 N 
ATOM     13  C   UNL A   1      32.673  25.428  20.830  1.00  0.00     0.289 C 
ATOM     14  O   UNL A   1      32.702  25.577  19.601  1.00  0.00    -0.266 OA
ATOM     15  H   UNL A   1      32.976  23.463  20.630  1.00  0.00     0.164 HD
BRANCH  13  16
ATOM     16  C   UNL A   1      32.367  26.520  21.714  1.00  0.00     0.214 A 
ATOM     17  C   UNL A   1      31.431  28.042  22.839  1.00  0.00     0.151 A 
ATOM     18  N   UNL A   1      32.711  28.429  22.837  1.00  0.00    -0.158 NA
ATOM     19  N   UNL A   1      31.190  26.865  22.192  1.00  0.00    -0.207 NA
ATOM     20  N   UNL A   1      33.289  27.430  22.142  1.00  0.00    -0.255 N 
ATOM     21  H   UNL A   1      34.254  27.366  21.965  1.00  0.00     0.192 HD
BRANCH  17  22
ATOM     22  C   UNL A   1      30.321  28.836  23.422  1.00  0.00     0.079 C 
BRANCH  22  23
ATOM     23  C   UNL A   1      29.366  29.409  22.378  1.00  0.00     0.005 C 
ATOM     24  C   UNL A   1      27.904  29.210  22.750  1.00  0.00     0.004 C 
ENDBRANCH  22  23
ENDBRANCH  17  22
ENDBRANCH  13  16
ENDBRANCH   8  12
ENDBRANCH   7   8
ENDBRANCH   4   7
ENDBRANCH   2   3
ENDBRANCH   1   2
BRANCH   1  25
ATOM     25  C   UNL A   1      35.681  20.788  25.042  1.00  0.00     0.002 C 
BRANCH  25  26
ATOM     26  C   UNL A   1      37.143  20.934  24.614  1.00  0.00     0.002 C 
BRANCH  26  27
ATOM     27  C   UNL A   1      38.057  19.768  25.001  1.00  0.00     0.021 C 
BRANCH  27  28
ATOM     28  C   UNL A   1      39.075  20.080  26.093  1.00  0.00     0.116 C 
BRANCH  28  29
ATOM     29  N   UNL A   1      40.230  19.205  26.031  1.00  0.00    -0.352 N 
ATOM     30  C   UNL A   1      41.565  19.510  26.067  1.00  0.00     0.251 C 
ATOM     31  H   UNL A   1      40.023  18.246  25.950  1.00  0.00     0.163 HD
ATOM     32  O   UNL A   1      42.397  18.647  25.801  1.00  0.00    -0.269 OA
BRANCH  30  33
ATOM     33  C   UNL A   1      42.009  20.876  26.410  1.00  0.00     0.039 A 
ATOM     34  C   UNL A   1      42.157  21.806  25.378  1.00  0.00     0.014 A 
ATOM     35  C   UNL A   1      42.319  21.233  27.727  1.00  0.00     0.014 A 
ATOM     36  C   UNL A   1      42.581  23.102  25.671  1.00  0.00     0.010 A 
ATOM     37  C   UNL A   1      42.670  22.546  28.028  1.00  0.00     0.010 A 
ATOM     38  C   UNL A   1      42.821  23.489  27.000  1.00  0.00    -0.014 A 
BRANCH  38  39
ATOM     39  C   UNL A   1      43.235  24.878  27.312  1.00  0.00     0.031 A 
ATOM     40  C   UNL A   1      44.632  25.343  27.019  1.00  0.00     0.074 A 
ATOM     41  C   UNL A   1      42.354  25.714  27.891  1.00  0.00     0.049 A 
ATOM     42  N   UNL A   1      45.162  26.530  27.184  1.00  0.00    -0.248 NA
ATOM     43  C   UNL A   1      45.569  24.337  26.496  1.00  0.00     0.031 C 
ATOM     44  C   UNL A   1      40.993  25.355  28.293  1.00  0.00     0.029 A 
ATOM     45  N   UNL A   1      42.470  27.034  28.245  1.00  0.00    -0.354 N 
ATOM     46  C   UNL A   1      46.489  26.409  26.796  1.00  0.00     0.074 A 
ATOM     47  C   UNL A   1      46.702  25.022  26.445  1.00  0.00     0.031 C 
ATOM     48  C   UNL A   1      40.389  26.437  28.808  1.00  0.00     0.029 A 
ATOM     49  C   UNL A   1      41.326  27.557  28.793  1.00  0.00     0.049 A 
ATOM     50  H   UNL A   1      43.294  27.556  28.116  1.00  0.00     0.167 HD
ATOM     51  C   UNL A   1      47.436  27.374  26.713  1.00  0.00     0.037 A 
ATOM     52  C   UNL A   1      41.057  28.804  29.223  1.00  0.00     0.037 A 
ATOM     53  C   UNL A   1      47.212  28.758  27.046  1.00  0.00     0.049 A 
ATOM     54  C   UNL A   1      42.110  29.868  29.088  1.00  0.00     0.074 A 
ATOM     55  C   UNL A   1      48.081  29.827  26.931  1.00  0.00     0.029 A 
ATOM     56  N   UNL A   1      46.028  29.259  27.569  1.00  0.00    -0.354 N 
ATOM     57  N   UNL A   1      43.332  29.766  28.628  1.00  0.00    -0.248 NA
ATOM     58  C   UNL A   1      41.737  31.224  29.513  1.00  0.00     0.031 C 
ATOM     59  C   UNL A   1      47.440  30.968  27.428  1.00  0.00     0.029 A 
ATOM     60  C   UNL A   1      46.153  30.619  27.804  1.00  0.00     0.049 A 
ATOM     61  H   UNL A   1      45.219  28.727  27.747  1.00  0.00     0.167 HD
ATOM     62  C   UNL A   1      43.870  31.045  28.687  1.00  0.00     0.074 A 
ATOM     63  C   UNL A   1      42.832  31.909  29.212  1.00  0.00     0.031 C 
ATOM     64  C   UNL A   1      45.110  31.465  28.333  1.00  0.00     0.037 A 
BRANCH  51  65
ATOM     65  C   UNL A   1      48.803  26.961  26.243  1.00  0.00     0.064 A 
ATOM     66  C   UNL A   1      49.185  27.070  24.897  1.00  0.00     0.173 A 
ATOM     67  C   UNL A   1      49.744  26.453  27.151  1.00  0.00     0.173 A 
ATOM     68  F   UNL A   1      48.319  27.539  23.985  1.00  0.00    -0.203 F 
ATOM     69  C   UNL A   1      50.440  26.647  24.469  1.00  0.00     0.198 A 
ATOM     70  C   UNL A   1      51.012  26.063  26.726  1.00  0.00     0.198 A 
ATOM     71  F   UNL A   1      49.436  26.332  28.450  1.00  0.00    -0.203 F 
ATOM     72  F   UNL A   1      50.758  26.703  23.169  1.00  0.00    -0.200 F 
ATOM     73  C   UNL A   1      51.354  26.148  25.385  1.00  0.00     0.200 A 
ATOM     74  F   UNL A   1      51.899  25.591  27.613  1.00  0.00    -0.200 F 
ATOM     75  F   UNL A   1      52.563  25.740  24.973  1.00  0.00    -0.200 F 
ENDBRANCH  51  65
BRANCH  52  76
ATOM     76  C   UNL A   1      39.711  29.110  29.770  1.00  0.00     0.064 A 
ATOM     77  C   UNL A   1      38.659  29.487  28.925  1.00  0.00     0.173 A 
ATOM     78  C   UNL A   1      39.438  28.984  31.140  1.00  0.00     0.173 A 
ATOM     79  F   UNL A   1      38.877  29.635  27.610  1.00  0.00    -0.203 F 
ATOM     80  C   UNL A   1      37.385  29.735  29.430  1.00  0.00     0.198 A 
ATOM     81  C   UNL A   1      38.157  29.207  31.640  1.00  0.00     0.198 A 
ATOM     82  F   UNL A   1      40.409  28.613  31.987  1.00  0.00    -0.203 F 
ATOM     83  F   UNL A   1      36.403  30.121  28.604  1.00  0.00    -0.200 F 
ATOM     84  C   UNL A   1      37.133  29.587  30.786  1.00  0.00     0.200 A 
ATOM     85  F   UNL A   1      37.913  29.045  32.947  1.00  0.00    -0.200 F 
ATOM     86  F   UNL A   1      35.903  29.809  31.269  1.00  0.00    -0.200 F 
ENDBRANCH  52  76
BRANCH  64  87
ATOM     87  C   UNL A   1      45.407  32.928  28.482  1.00  0.00     0.064 A 
ATOM     88  C   UNL A   1      46.102  33.430  29.593  1.00  0.00     0.173 A 
ATOM     89  C   UNL A   1      45.023  33.835  27.483  1.00  0.00     0.173 A 
ATOM     90  F   UNL A   1      46.478  32.605  30.582  1.00  0.00    -0.203 F 
ATOM     91  C   UNL A   1      46.379  34.789  29.710  1.00  0.00     0.198 A 
ATOM     92  C   UNL A   1      45.327  35.189  27.589  1.00  0.00     0.198 A 
ATOM     93  F   UNL A   1      44.362  33.406  26.398  1.00  0.00    -0.203 F 
ATOM     94  F   UNL A   1      47.002  35.253  30.802  1.00  0.00    -0.200 F 
ATOM     95  C   UNL A   1      45.997  35.667  28.705  1.00  0.00     0.200 A 
ATOM     96  F   UNL A   1      44.969  36.034  26.612  1.00  0.00    -0.200 F 
ATOM     97  F   UNL A   1      46.269  36.974  28.818  1.00  0.00    -0.200 F 
ENDBRANCH  64  87
ENDBRANCH  38  39
ENDBRANCH  30  33
ENDBRANCH  28  29
ENDBRANCH  27  28
ENDBRANCH  26  27
ENDBRANCH  25  26
ENDBRANCH   1  25
TORSDOF 18
ENDMDL
