MODEL 1
REMARK VINA RESULT:     -11.9      0.000      0.000
REMARK SMILES Cc1cc([C@H]([NH3+])C(=O)NCCCCCCNC(=O)c2ccc(-c3c4nc(c(-c5c(F)c(F)c(F)c(F)c5F)c5ccc([nH]5)c(-c5c(F)c(F)c(F)c(F)c5F)c5nc(c(-c6c(F)c(F)c(F)c(F)c6F)c6ccc3[nH]6)C=C5)C=C4)cc2)ccc1Cl
REMARK SMILES IDX 13 1 12 2 11 3 10 4 9 5 7 6 8 7 5 9 4 10 1 11 2 12 3 13
REMARK SMILES IDX 84 14 83 15 85 16 82 17 6 18 14 22 15 23 16 24 17 25 18 27
REMARK SMILES IDX 19 28 20 29 81 30 21 31 80 32 22 33 23 34 24 35 74 36 25 37
REMARK SMILES IDX 79 38 73 39 75 40 26 41 78 42 72 43 71 44 27 46 59 47 39 48
REMARK SMILES IDX 58 49 40 50 43 51 57 52 76 53 41 54 42 55 56 57 77 58 44 59
REMARK SMILES IDX 28 60 29 61 37 62 30 63 31 64 35 65 38 66 32 67 33 68 36 69
REMARK SMILES IDX 34 70 60 71 61 72 69 73 62 74 63 75 67 76 70 77 64 78 65 79
REMARK SMILES IDX 68 80 66 81 45 82 46 83 54 84 47 85 48 86 52 87 55 88 49 89
REMARK SMILES IDX 50 90 53 91 51 92
REMARK H PARENT 9 8 6 19 6 20 6 21 16 26 75 45 43 56
REMARK Flexibility Score: inf
ROOT
ATOM      1  C   UNL A   1      31.829  30.417  26.091  1.00  0.00     0.002 C 
ENDROOT
BRANCH   1   2
ATOM      2  C   UNL A   1      31.788  29.252  27.089  1.00  0.00     0.002 C 
BRANCH   2   3
ATOM      3  C   UNL A   1      33.039  28.366  27.161  1.00  0.00     0.021 C 
BRANCH   3   4
ATOM      4  C   UNL A   1      32.919  27.030  26.441  1.00  0.00     0.116 C 
BRANCH   4   5
ATOM      5  N   UNL A   1      31.711  26.296  26.770  1.00  0.00    -0.351 N 
ATOM      6  C   UNL A   1      30.806  25.672  25.952  1.00  0.00     0.283 C 
ATOM      7  O   UNL A   1      29.939  24.984  26.507  1.00  0.00    -0.268 OA
ATOM      8  H   UNL A   1      31.510  26.235  27.731  1.00  0.00     0.163 HD
BRANCH   6   9
ATOM      9  C   UNL A   1      30.827  25.795  24.403  1.00  0.00     0.302 C 
BRANCH   9  10
ATOM     10  C   UNL A   1      30.384  27.129  23.816  1.00  0.00     0.019 A 
ATOM     11  C   UNL A   1      27.118  28.881  22.970  1.00  0.00     0.046 C 
ATOM     12  C   UNL A   1      28.597  28.627  23.047  1.00  0.00    -0.032 A 
ATOM     13  C   UNL A   1      29.052  27.554  23.826  1.00  0.00     0.015 A 
ATOM     14  C   UNL A   1      29.539  29.386  22.351  1.00  0.00     0.043 A 
ATOM     15  C   UNL A   1      30.892  29.044  22.400  1.00  0.00     0.021 A 
ATOM     16  Cl  UNL A   1      29.074  30.751  21.404  1.00  0.00    -0.084 Cl
ATOM     17  C   UNL A   1      31.308  27.910  23.104  1.00  0.00     0.012 A 
ENDBRANCH   9  10
BRANCH   9  18
ATOM     18  N   UNL A   1      30.093  24.681  23.762  1.00  0.00    -0.343 N 
ATOM     19  H   UNL A   1      29.100  24.910  23.715  1.00  0.00     0.345 HD
ATOM     20  H   UNL A   1      30.220  23.830  24.310  1.00  0.00     0.345 HD
ATOM     21  H   UNL A   1      30.453  24.535  22.818  1.00  0.00     0.345 HD
ENDBRANCH   9  18
ENDBRANCH   6   9
ENDBRANCH   4   5
ENDBRANCH   3   4
ENDBRANCH   2   3
ENDBRANCH   1   2
BRANCH   1  22
ATOM     22  C   UNL A   1      31.502  31.801  26.654  1.00  0.00     0.021 C 
BRANCH  22  23
ATOM     23  C   UNL A   1      32.673  32.541  27.290  1.00  0.00     0.116 C 
BRANCH  23  24
ATOM     24  N   UNL A   1      32.375  33.937  27.562  1.00  0.00    -0.352 N 
ATOM     25  C   UNL A   1      32.951  34.794  28.469  1.00  0.00     0.251 C 
ATOM     26  H   UNL A   1      31.653  34.325  27.018  1.00  0.00     0.163 HD
ATOM     27  O   UNL A   1      32.471  35.903  28.664  1.00  0.00    -0.269 OA
BRANCH  25  28
ATOM     28  C   UNL A   1      34.139  34.360  29.235  1.00  0.00     0.039 A 
ATOM     29  C   UNL A   1      33.948  33.692  30.447  1.00  0.00     0.014 A 
ATOM     30  C   UNL A   1      35.431  34.598  28.757  1.00  0.00     0.014 A 
ATOM     31  C   UNL A   1      35.051  33.190  31.140  1.00  0.00     0.010 A 
ATOM     32  C   UNL A   1      36.522  34.035  29.412  1.00  0.00     0.010 A 
ATOM     33  C   UNL A   1      36.343  33.317  30.605  1.00  0.00    -0.014 A 
BRANCH  33  34
ATOM     34  C   UNL A   1      37.514  32.678  31.257  1.00  0.00     0.031 A 
ATOM     35  C   UNL A   1      38.219  31.531  30.591  1.00  0.00     0.074 A 
ATOM     36  C   UNL A   1      37.891  33.083  32.486  1.00  0.00     0.049 A 
ATOM     37  N   UNL A   1      39.198  30.787  31.041  1.00  0.00    -0.248 NA
ATOM     38  C   UNL A   1      37.748  31.154  29.250  1.00  0.00     0.031 C 
ATOM     39  C   UNL A   1      37.259  34.159  33.251  1.00  0.00     0.029 A 
ATOM     40  N   UNL A   1      38.886  32.626  33.315  1.00  0.00    -0.354 N 
ATOM     41  C   UNL A   1      39.451  29.851  30.048  1.00  0.00     0.074 A 
ATOM     42  C   UNL A   1      38.489  30.087  28.992  1.00  0.00     0.031 C 
ATOM     43  C   UNL A   1      37.891  34.292  34.427  1.00  0.00     0.029 A 
ATOM     44  C   UNL A   1      38.939  33.281  34.521  1.00  0.00     0.049 A 
ATOM     45  H   UNL A   1      39.502  31.899  33.067  1.00  0.00     0.167 HD
ATOM     46  C   UNL A   1      40.411  28.896  30.012  1.00  0.00     0.037 A 
ATOM     47  C   UNL A   1      39.731  33.076  35.591  1.00  0.00     0.037 A 
ATOM     48  C   UNL A   1      41.372  28.676  31.061  1.00  0.00     0.049 A 
ATOM     49  C   UNL A   1      40.763  31.982  35.541  1.00  0.00     0.074 A 
ATOM     50  C   UNL A   1      42.421  27.774  31.093  1.00  0.00     0.029 A 
ATOM     51  N   UNL A   1      41.395  29.359  32.268  1.00  0.00    -0.354 N 
ATOM     52  N   UNL A   1      41.040  31.150  34.566  1.00  0.00    -0.248 NA
ATOM     53  C   UNL A   1      41.595  31.799  36.739  1.00  0.00     0.031 C 
ATOM     54  C   UNL A   1      43.039  27.867  32.344  1.00  0.00     0.029 A 
ATOM     55  C   UNL A   1      42.418  28.873  33.068  1.00  0.00     0.049 A 
ATOM     56  H   UNL A   1      40.777  30.082  32.520  1.00  0.00     0.167 HD
ATOM     57  C   UNL A   1      42.092  30.365  35.021  1.00  0.00     0.074 A 
ATOM     58  C   UNL A   1      42.416  30.833  36.353  1.00  0.00     0.031 C 
ATOM     59  C   UNL A   1      42.733  29.350  34.391  1.00  0.00     0.037 A 
BRANCH  46  60
ATOM     60  C   UNL A   1      40.467  28.011  28.800  1.00  0.00     0.064 A 
ATOM     61  C   UNL A   1      39.766  26.796  28.739  1.00  0.00     0.173 A 
ATOM     62  C   UNL A   1      41.196  28.402  27.666  1.00  0.00     0.173 A 
ATOM     63  F   UNL A   1      39.061  26.371  29.799  1.00  0.00    -0.203 F 
ATOM     64  C   UNL A   1      39.817  25.994  27.603  1.00  0.00     0.198 A 
ATOM     65  C   UNL A   1      41.218  27.613  26.518  1.00  0.00     0.198 A 
ATOM     66  F   UNL A   1      41.880  29.556  27.665  1.00  0.00    -0.203 F 
ATOM     67  F   UNL A   1      39.181  24.814  27.589  1.00  0.00    -0.200 F 
ATOM     68  C   UNL A   1      40.535  26.405  26.491  1.00  0.00     0.200 A 
ATOM     69  F   UNL A   1      41.899  28.020  25.440  1.00  0.00    -0.200 F 
ATOM     70  F   UNL A   1      40.576  25.636  25.395  1.00  0.00    -0.200 F 
ENDBRANCH  46  60
BRANCH  47  71
ATOM     71  C   UNL A   1      39.580  33.927  36.802  1.00  0.00     0.064 A 
ATOM     72  C   UNL A   1      38.793  33.508  37.884  1.00  0.00     0.173 A 
ATOM     73  C   UNL A   1      40.212  35.176  36.901  1.00  0.00     0.173 A 
ATOM     74  F   UNL A   1      38.151  32.331  37.828  1.00  0.00    -0.203 F 
ATOM     75  C   UNL A   1      38.625  34.314  39.008  1.00  0.00     0.198 A 
ATOM     76  C   UNL A   1      40.070  35.967  38.039  1.00  0.00     0.198 A 
ATOM     77  F   UNL A   1      40.980  35.622  35.897  1.00  0.00    -0.203 F 
ATOM     78  F   UNL A   1      37.827  33.911  40.005  1.00  0.00    -0.200 F 
ATOM     79  C   UNL A   1      39.269  35.540  39.087  1.00  0.00     0.200 A 
ATOM     80  F   UNL A   1      40.706  37.142  38.118  1.00  0.00    -0.200 F 
ATOM     81  F   UNL A   1      39.111  36.313  40.170  1.00  0.00    -0.200 F 
ENDBRANCH  47  71
BRANCH  59  82
ATOM     82  C   UNL A   1      43.868  28.691  35.119  1.00  0.00     0.064 A 
ATOM     83  C   UNL A   1      43.667  27.571  35.939  1.00  0.00     0.173 A 
ATOM     84  C   UNL A   1      45.183  29.154  34.953  1.00  0.00     0.173 A 
ATOM     85  F   UNL A   1      42.428  27.098  36.146  1.00  0.00    -0.203 F 
ATOM     86  C   UNL A   1      44.737  26.953  36.583  1.00  0.00     0.198 A 
ATOM     87  C   UNL A   1      46.253  28.514  35.569  1.00  0.00     0.198 A 
ATOM     88  F   UNL A   1      45.431  30.218  34.173  1.00  0.00    -0.203 F 
ATOM     89  F   UNL A   1      44.515  25.913  37.399  1.00  0.00    -0.200 F 
ATOM     90  C   UNL A   1      46.028  27.419  36.390  1.00  0.00     0.200 A 
ATOM     91  F   UNL A   1      47.502  28.954  35.368  1.00  0.00    -0.200 F 
ATOM     92  F   UNL A   1      47.058  26.814  36.999  1.00  0.00    -0.200 F 
ENDBRANCH  59  82
ENDBRANCH  33  34
ENDBRANCH  25  28
ENDBRANCH  23  24
ENDBRANCH  22  23
ENDBRANCH   1  22
TORSDOF 15
ENDMDL
MODEL 2
REMARK VINA RESULT:     -11.8      1.022      2.352
REMARK SMILES Cc1cc([C@H]([NH3+])C(=O)NCCCCCCNC(=O)c2ccc(-c3c4nc(c(-c5c(F)c(F)c(F)c(F)c5F)c5ccc([nH]5)c(-c5c(F)c(F)c(F)c(F)c5F)c5nc(c(-c6c(F)c(F)c(F)c(F)c6F)c6ccc3[nH]6)C=C5)C=C4)cc2)ccc1Cl
REMARK SMILES IDX 13 1 12 2 11 3 10 4 9 5 7 6 8 7 5 9 4 10 1 11 2 12 3 13
REMARK SMILES IDX 84 14 83 15 85 16 82 17 6 18 14 22 15 23 16 24 17 25 18 27
REMARK SMILES IDX 19 28 20 29 81 30 21 31 80 32 22 33 23 34 24 35 74 36 25 37
REMARK SMILES IDX 79 38 73 39 75 40 26 41 78 42 72 43 71 44 27 46 59 47 39 48
REMARK SMILES IDX 58 49 40 50 43 51 57 52 76 53 41 54 42 55 56 57 77 58 44 59
REMARK SMILES IDX 28 60 29 61 37 62 30 63 31 64 35 65 38 66 32 67 33 68 36 69
REMARK SMILES IDX 34 70 60 71 61 72 69 73 62 74 63 75 67 76 70 77 64 78 65 79
REMARK SMILES IDX 68 80 66 81 45 82 46 83 54 84 47 85 48 86 52 87 55 88 49 89
REMARK SMILES IDX 50 90 53 91 51 92
REMARK H PARENT 9 8 6 19 6 20 6 21 16 26 75 45 43 56
REMARK Flexibility Score: inf
ROOT
ATOM      1  C   UNL A   1      31.859  30.409  26.137  1.00  0.00     0.002 C 
ENDROOT
BRANCH   1   2
ATOM      2  C   UNL A   1      31.737  29.376  27.265  1.00  0.00     0.002 C 
BRANCH   2   3
ATOM      3  C   UNL A   1      32.255  27.964  26.960  1.00  0.00     0.021 C 
BRANCH   3   4
ATOM      4  C   UNL A   1      33.597  27.916  26.243  1.00  0.00     0.116 C 
BRANCH   4   5
ATOM      5  N   UNL A   1      33.715  26.822  25.297  1.00  0.00    -0.351 N 
ATOM      6  C   UNL A   1      33.565  26.812  23.936  1.00  0.00     0.283 C 
ATOM      7  O   UNL A   1      33.873  25.764  23.352  1.00  0.00    -0.268 OA
ATOM      8  H   UNL A   1      33.939  25.951  25.695  1.00  0.00     0.163 HD
BRANCH   6   9
ATOM      9  C   UNL A   1      33.038  28.028  23.125  1.00  0.00     0.302 C 
BRANCH   9  10
ATOM     10  C   UNL A   1      31.527  28.142  22.967  1.00  0.00     0.019 A 
ATOM     11  C   UNL A   1      28.985  30.842  22.132  1.00  0.00     0.046 C 
ATOM     12  C   UNL A   1      29.528  29.505  22.553  1.00  0.00    -0.032 A 
ATOM     13  C   UNL A   1      30.906  29.277  22.437  1.00  0.00     0.015 A 
ATOM     14  C   UNL A   1      28.730  28.492  23.087  1.00  0.00     0.043 A 
ATOM     15  C   UNL A   1      29.312  27.304  23.536  1.00  0.00     0.021 A 
ATOM     16  Cl  UNL A   1      27.020  28.669  23.224  1.00  0.00    -0.084 Cl
ATOM     17  C   UNL A   1      30.700  27.141  23.501  1.00  0.00     0.012 A 
ENDBRANCH   9  10
BRANCH   9  18
ATOM     18  N   UNL A   1      33.702  28.127  21.806  1.00  0.00    -0.343 N 
ATOM     19  H   UNL A   1      34.058  27.211  21.534  1.00  0.00     0.345 HD
ATOM     20  H   UNL A   1      34.476  28.789  21.864  1.00  0.00     0.345 HD
ATOM     21  H   UNL A   1      33.029  28.451  21.109  1.00  0.00     0.345 HD
ENDBRANCH   9  18
ENDBRANCH   6   9
ENDBRANCH   4   5
ENDBRANCH   3   4
ENDBRANCH   2   3
ENDBRANCH   1   2
BRANCH   1  22
ATOM     22  C   UNL A   1      31.571  31.863  26.517  1.00  0.00     0.021 C 
BRANCH  22  23
ATOM     23  C   UNL A   1      32.684  32.570  27.280  1.00  0.00     0.116 C 
BRANCH  23  24
ATOM     24  N   UNL A   1      32.366  33.956  27.582  1.00  0.00    -0.352 N 
ATOM     25  C   UNL A   1      32.935  34.805  28.501  1.00  0.00     0.251 C 
ATOM     26  H   UNL A   1      31.634  34.344  27.050  1.00  0.00     0.163 HD
ATOM     27  O   UNL A   1      32.439  35.902  28.721  1.00  0.00    -0.269 OA
BRANCH  25  28
ATOM     28  C   UNL A   1      34.135  34.375  29.251  1.00  0.00     0.039 A 
ATOM     29  C   UNL A   1      33.966  33.773  30.501  1.00  0.00     0.014 A 
ATOM     30  C   UNL A   1      35.416  34.550  28.721  1.00  0.00     0.014 A 
ATOM     31  C   UNL A   1      35.076  33.275  31.184  1.00  0.00     0.010 A 
ATOM     32  C   UNL A   1      36.513  33.988  29.369  1.00  0.00     0.010 A 
ATOM     33  C   UNL A   1      36.353  33.337  30.602  1.00  0.00    -0.014 A 
BRANCH  33  34
ATOM     34  C   UNL A   1      37.526  32.696  31.248  1.00  0.00     0.031 A 
ATOM     35  C   UNL A   1      38.225  31.547  30.581  1.00  0.00     0.074 A 
ATOM     36  C   UNL A   1      37.912  33.104  32.474  1.00  0.00     0.049 A 
ATOM     37  N   UNL A   1      39.205  30.801  31.027  1.00  0.00    -0.248 NA
ATOM     38  C   UNL A   1      37.745  31.167  29.244  1.00  0.00     0.031 C 
ATOM     39  C   UNL A   1      37.287  34.183  33.240  1.00  0.00     0.029 A 
ATOM     40  N   UNL A   1      38.910  32.647  33.298  1.00  0.00    -0.354 N 
ATOM     41  C   UNL A   1      39.449  29.862  30.035  1.00  0.00     0.074 A 
ATOM     42  C   UNL A   1      38.482  30.098  28.984  1.00  0.00     0.031 C 
ATOM     43  C   UNL A   1      37.927  34.318  34.411  1.00  0.00     0.029 A 
ATOM     44  C   UNL A   1      38.972  33.305  34.502  1.00  0.00     0.049 A 
ATOM     45  H   UNL A   1      39.524  31.918  33.048  1.00  0.00     0.167 HD
ATOM     46  C   UNL A   1      40.407  28.905  29.995  1.00  0.00     0.037 A 
ATOM     47  C   UNL A   1      39.770  33.101  35.568  1.00  0.00     0.037 A 
ATOM     48  C   UNL A   1      41.374  28.686  31.040  1.00  0.00     0.049 A 
ATOM     49  C   UNL A   1      40.800  32.005  35.514  1.00  0.00     0.074 A 
ATOM     50  C   UNL A   1      42.421  27.781  31.067  1.00  0.00     0.029 A 
ATOM     51  N   UNL A   1      41.406  29.372  32.245  1.00  0.00    -0.354 N 
ATOM     52  N   UNL A   1      41.070  31.169  34.540  1.00  0.00    -0.248 NA
ATOM     53  C   UNL A   1      41.639  31.823  36.707  1.00  0.00     0.031 C 
ATOM     54  C   UNL A   1      43.048  27.876  32.314  1.00  0.00     0.029 A 
ATOM     55  C   UNL A   1      42.433  28.885  33.039  1.00  0.00     0.049 A 
ATOM     56  H   UNL A   1      40.791  30.097  32.499  1.00  0.00     0.167 HD
ATOM     57  C   UNL A   1      42.122  30.384  34.990  1.00  0.00     0.074 A 
ATOM     58  C   UNL A   1      42.455  30.853  36.319  1.00  0.00     0.031 C 
ATOM     59  C   UNL A   1      42.756  29.365  34.359  1.00  0.00     0.037 A 
BRANCH  46  60
ATOM     60  C   UNL A   1      40.454  28.016  28.786  1.00  0.00     0.064 A 
ATOM     61  C   UNL A   1      41.215  28.349  27.654  1.00  0.00     0.173 A 
ATOM     62  C   UNL A   1      39.765  26.794  28.774  1.00  0.00     0.173 A 
ATOM     63  F   UNL A   1      41.886  29.510  27.609  1.00  0.00    -0.203 F 
ATOM     64  C   UNL A   1      41.260  27.506  26.546  1.00  0.00     0.198 A 
ATOM     65  C   UNL A   1      39.839  25.938  27.678  1.00  0.00     0.198 A 
ATOM     66  F   UNL A   1      39.028  26.421  29.831  1.00  0.00    -0.203 F 
ATOM     67  F   UNL A   1      41.951  27.870  25.457  1.00  0.00    -0.200 F 
ATOM     68  C   UNL A   1      40.579  26.299  26.561  1.00  0.00     0.200 A 
ATOM     69  F   UNL A   1      39.193  24.764  27.701  1.00  0.00    -0.200 F 
ATOM     70  F   UNL A   1      40.630  25.485  25.498  1.00  0.00    -0.200 F 
ENDBRANCH  46  60
BRANCH  47  71
ATOM     71  C   UNL A   1      39.629  33.955  36.777  1.00  0.00     0.064 A 
ATOM     72  C   UNL A   1      40.299  35.184  36.873  1.00  0.00     0.173 A 
ATOM     73  C   UNL A   1      38.831  33.563  37.862  1.00  0.00     0.173 A 
ATOM     74  F   UNL A   1      41.091  35.594  35.871  1.00  0.00    -0.203 F 
ATOM     75  C   UNL A   1      40.194  35.974  38.016  1.00  0.00     0.198 A 
ATOM     76  C   UNL A   1      38.700  34.369  38.990  1.00  0.00     0.198 A 
ATOM     77  F   UNL A   1      38.165  32.399  37.820  1.00  0.00    -0.203 F 
ATOM     78  F   UNL A   1      40.884  37.119  38.101  1.00  0.00    -0.200 F 
ATOM     79  C   UNL A   1      39.389  35.570  39.070  1.00  0.00     0.200 A 
ATOM     80  F   UNL A   1      37.909  33.982  39.999  1.00  0.00    -0.200 F 
ATOM     81  F   UNL A   1      39.284  36.333  40.167  1.00  0.00    -0.200 F 
ENDBRANCH  47  71
BRANCH  59  82
ATOM     82  C   UNL A   1      43.895  28.705  35.082  1.00  0.00     0.064 A 
ATOM     83  C   UNL A   1      45.207  29.190  34.990  1.00  0.00     0.173 A 
ATOM     84  C   UNL A   1      43.660  27.603  35.921  1.00  0.00     0.173 A 
ATOM     85  F   UNL A   1      45.488  30.230  34.190  1.00  0.00    -0.203 F 
ATOM     86  C   UNL A   1      46.246  28.584  35.693  1.00  0.00     0.198 A 
ATOM     87  C   UNL A   1      44.694  27.022  36.648  1.00  0.00     0.198 A 
ATOM     88  F   UNL A   1      42.422  27.104  36.049  1.00  0.00    -0.203 F 
ATOM     89  F   UNL A   1      47.500  29.037  35.554  1.00  0.00    -0.200 F 
ATOM     90  C   UNL A   1      45.987  27.509  36.528  1.00  0.00     0.200 A 
ATOM     91  F   UNL A   1      44.439  25.993  37.466  1.00  0.00    -0.200 F 
ATOM     92  F   UNL A   1      46.986  26.936  37.214  1.00  0.00    -0.200 F 
ENDBRANCH  59  82
ENDBRANCH  33  34
ENDBRANCH  25  28
ENDBRANCH  23  24
ENDBRANCH  22  23
ENDBRANCH   1  22
TORSDOF 15
ENDMDL
MODEL 3
REMARK VINA RESULT:     -11.7      1.103      7.596
REMARK SMILES Cc1cc([C@H]([NH3+])C(=O)NCCCCCCNC(=O)c2ccc(-c3c4nc(c(-c5c(F)c(F)c(F)c(F)c5F)c5ccc([nH]5)c(-c5c(F)c(F)c(F)c(F)c5F)c5nc(c(-c6c(F)c(F)c(F)c(F)c6F)c6ccc3[nH]6)C=C5)C=C4)cc2)ccc1Cl
REMARK SMILES IDX 13 1 12 2 11 3 10 4 9 5 7 6 8 7 5 9 4 10 1 11 2 12 3 13
REMARK SMILES IDX 84 14 83 15 85 16 82 17 6 18 14 22 15 23 16 24 17 25 18 27
REMARK SMILES IDX 19 28 20 29 81 30 21 31 80 32 22 33 23 34 24 35 74 36 25 37
REMARK SMILES IDX 79 38 73 39 75 40 26 41 78 42 72 43 71 44 27 46 59 47 39 48
REMARK SMILES IDX 58 49 40 50 43 51 57 52 76 53 41 54 42 55 56 57 77 58 44 59
REMARK SMILES IDX 28 60 29 61 37 62 30 63 31 64 35 65 38 66 32 67 33 68 36 69
REMARK SMILES IDX 34 70 60 71 61 72 69 73 62 74 63 75 67 76 70 77 64 78 65 79
REMARK SMILES IDX 68 80 66 81 45 82 46 83 54 84 47 85 48 86 52 87 55 88 49 89
REMARK SMILES IDX 50 90 53 91 51 92
REMARK H PARENT 9 8 6 19 6 20 6 21 16 26 75 45 43 56
REMARK Flexibility Score: inf
ROOT
ATOM      1  C   UNL A   1      31.553  30.753  26.064  1.00  0.00     0.002 C 
ENDROOT
BRANCH   1   2
ATOM      2  C   UNL A   1      32.202  29.806  27.082  1.00  0.00     0.002 C 
BRANCH   2   3
ATOM      3  C   UNL A   1      32.316  28.332  26.671  1.00  0.00     0.021 C 
BRANCH   3   4
ATOM      4  C   UNL A   1      33.722  27.878  26.301  1.00  0.00     0.116 C 
BRANCH   4   5
ATOM      5  N   UNL A   1      33.751  26.793  25.338  1.00  0.00    -0.351 N 
ATOM      6  C   UNL A   1      33.541  26.806  23.985  1.00  0.00     0.283 C 
ATOM      7  O   UNL A   1      33.778  25.754  23.377  1.00  0.00    -0.268 OA
ATOM      8  H   UNL A   1      33.954  25.908  25.717  1.00  0.00     0.163 HD
BRANCH   6   9
ATOM      9  C   UNL A   1      33.032  28.054  23.211  1.00  0.00     0.302 C 
BRANCH   9  10
ATOM     10  C   UNL A   1      31.526  28.168  23.012  1.00  0.00     0.019 A 
ATOM     11  C   UNL A   1      29.012  30.858  22.065  1.00  0.00     0.046 C 
ATOM     12  C   UNL A   1      29.542  29.527  22.522  1.00  0.00    -0.032 A 
ATOM     13  C   UNL A   1      30.922  29.295  22.447  1.00  0.00     0.015 A 
ATOM     14  C   UNL A   1      28.728  28.524  23.051  1.00  0.00     0.043 A 
ATOM     15  C   UNL A   1      29.295  27.343  23.535  1.00  0.00     0.021 A 
ATOM     16  Cl  UNL A   1      27.015  28.706  23.140  1.00  0.00    -0.084 Cl
ATOM     17  C   UNL A   1      30.683  27.177  23.540  1.00  0.00     0.012 A 
ENDBRANCH   9  10
BRANCH   9  18
ATOM     18  N   UNL A   1      33.736  28.214  21.920  1.00  0.00    -0.343 N 
ATOM     19  H   UNL A   1      34.309  27.390  21.739  1.00  0.00     0.345 HD
ATOM     20  H   UNL A   1      34.332  29.040  21.957  1.00  0.00     0.345 HD
ATOM     21  H   UNL A   1      33.052  28.323  21.170  1.00  0.00     0.345 HD
ENDBRANCH   9  18
ENDBRANCH   6   9
ENDBRANCH   4   5
ENDBRANCH   3   4
ENDBRANCH   2   3
ENDBRANCH   1   2
BRANCH   1  22
ATOM     22  C   UNL A   1      31.383  32.208  26.507  1.00  0.00     0.021 C 
BRANCH  22  23
ATOM     23  C   UNL A   1      32.571  32.807  27.249  1.00  0.00     0.116 C 
BRANCH  23  24
ATOM     24  N   UNL A   1      32.357  34.196  27.623  1.00  0.00    -0.352 N 
ATOM     25  C   UNL A   1      32.980  34.948  28.589  1.00  0.00     0.251 C 
ATOM     26  H   UNL A   1      31.662  34.666  27.109  1.00  0.00     0.163 HD
ATOM     27  O   UNL A   1      32.568  36.067  28.865  1.00  0.00    -0.269 OA
BRANCH  25  28
ATOM     28  C   UNL A   1      34.137  34.388  29.322  1.00  0.00     0.039 A 
ATOM     29  C   UNL A   1      33.903  33.679  30.503  1.00  0.00     0.014 A 
ATOM     30  C   UNL A   1      35.439  34.547  28.841  1.00  0.00     0.014 A 
ATOM     31  C   UNL A   1      34.969  33.061  31.160  1.00  0.00     0.010 A 
ATOM     32  C   UNL A   1      36.489  33.871  29.457  1.00  0.00     0.010 A 
ATOM     33  C   UNL A   1      36.263  33.114  30.617  1.00  0.00    -0.014 A 
BRANCH  33  34
ATOM     34  C   UNL A   1      37.385  32.355  31.226  1.00  0.00     0.031 A 
ATOM     35  C   UNL A   1      37.910  32.735  32.580  1.00  0.00     0.074 A 
ATOM     36  C   UNL A   1      37.980  31.373  30.520  1.00  0.00     0.049 A 
ATOM     37  N   UNL A   1      38.937  32.255  33.235  1.00  0.00    -0.248 NA
ATOM     38  C   UNL A   1      37.202  33.815  33.285  1.00  0.00     0.031 C 
ATOM     39  C   UNL A   1      37.585  30.939  29.179  1.00  0.00     0.029 A 
ATOM     40  N   UNL A   1      39.054  30.573  30.825  1.00  0.00    -0.354 N 
ATOM     41  C   UNL A   1      39.005  32.978  34.418  1.00  0.00     0.074 A 
ATOM     42  C   UNL A   1      37.948  33.965  34.369  1.00  0.00     0.031 C 
ATOM     43  C   UNL A   1      38.391  29.942  28.784  1.00  0.00     0.029 A 
ATOM     44  C   UNL A   1      39.390  29.699  29.821  1.00  0.00     0.049 A 
ATOM     45  H   UNL A   1      39.535  30.621  31.683  1.00  0.00     0.167 HD
ATOM     46  C   UNL A   1      39.859  32.818  35.458  1.00  0.00     0.037 A 
ATOM     47  C   UNL A   1      40.401  28.813  29.736  1.00  0.00     0.037 A 
ATOM     48  C   UNL A   1      40.900  31.825  35.503  1.00  0.00     0.049 A 
ATOM     49  C   UNL A   1      41.359  28.683  30.890  1.00  0.00     0.074 A 
ATOM     50  C   UNL A   1      41.778  31.544  36.535  1.00  0.00     0.029 A 
ATOM     51  N   UNL A   1      41.211  30.956  34.467  1.00  0.00    -0.354 N 
ATOM     52  N   UNL A   1      41.370  29.323  32.034  1.00  0.00    -0.248 NA
ATOM     53  C   UNL A   1      42.448  27.706  30.741  1.00  0.00     0.031 C 
ATOM     54  C   UNL A   1      42.660  30.550  36.101  1.00  0.00     0.029 A 
ATOM     55  C   UNL A   1      42.292  30.164  34.822  1.00  0.00     0.049 A 
ATOM     56  H   UNL A   1      40.735  30.909  33.607  1.00  0.00     0.167 HD
ATOM     57  C   UNL A   1      42.443  28.810  32.750  1.00  0.00     0.074 A 
ATOM     58  C   UNL A   1      43.051  27.792  31.918  1.00  0.00     0.031 C 
ATOM     59  C   UNL A   1      42.885  29.151  33.986  1.00  0.00     0.037 A 
BRANCH  46  60
ATOM     60  C   UNL A   1      39.707  33.743  36.632  1.00  0.00     0.064 A 
ATOM     61  C   UNL A   1      40.330  35.000  36.666  1.00  0.00     0.173 A 
ATOM     62  C   UNL A   1      38.893  33.386  37.717  1.00  0.00     0.173 A 
ATOM     63  F   UNL A   1      41.126  35.387  35.658  1.00  0.00    -0.203 F 
ATOM     64  C   UNL A   1      40.167  35.852  37.756  1.00  0.00     0.198 A 
ATOM     65  C   UNL A   1      38.705  34.254  38.790  1.00  0.00     0.198 A 
ATOM     66  F   UNL A   1      38.267  32.200  37.735  1.00  0.00    -0.203 F 
ATOM     67  F   UNL A   1      40.814  37.025  37.789  1.00  0.00    -0.200 F 
ATOM     68  C   UNL A   1      39.350  35.483  38.813  1.00  0.00     0.200 A 
ATOM     69  F   UNL A   1      37.902  33.903  39.803  1.00  0.00    -0.200 F 
ATOM     70  F   UNL A   1      39.187  36.307  39.856  1.00  0.00    -0.200 F 
ENDBRANCH  46  60
BRANCH  47  71
ATOM     71  C   UNL A   1      40.558  27.977  28.517  1.00  0.00     0.064 A 
ATOM     72  C   UNL A   1      39.978  26.703  28.436  1.00  0.00     0.173 A 
ATOM     73  C   UNL A   1      41.295  28.427  27.410  1.00  0.00     0.173 A 
ATOM     74  F   UNL A   1      39.281  26.219  29.476  1.00  0.00    -0.203 F 
ATOM     75  C   UNL A   1      40.147  25.904  27.307  1.00  0.00     0.198 A 
ATOM     76  C   UNL A   1      41.436  27.641  26.270  1.00  0.00     0.198 A 
ATOM     77  F   UNL A   1      41.867  29.640  27.433  1.00  0.00    -0.203 F 
ATOM     78  F   UNL A   1      39.623  24.672  27.278  1.00  0.00    -0.200 F 
ATOM     79  C   UNL A   1      40.870  26.377  26.222  1.00  0.00     0.200 A 
ATOM     80  F   UNL A   1      42.121  28.108  25.218  1.00  0.00    -0.200 F 
ATOM     81  F   UNL A   1      41.028  25.610  25.135  1.00  0.00    -0.200 F 
ENDBRANCH  47  71
BRANCH  59  82
ATOM     82  C   UNL A   1      44.065  28.399  34.530  1.00  0.00     0.064 A 
ATOM     83  C   UNL A   1      43.914  27.185  35.215  1.00  0.00     0.173 A 
ATOM     84  C   UNL A   1      45.369  28.874  34.317  1.00  0.00     0.173 A 
ATOM     85  F   UNL A   1      42.689  26.695  35.460  1.00  0.00    -0.203 F 
ATOM     86  C   UNL A   1      45.023  26.485  35.686  1.00  0.00     0.198 A 
ATOM     87  C   UNL A   1      46.475  28.156  34.758  1.00  0.00     0.198 A 
ATOM     88  F   UNL A   1      45.569  30.028  33.661  1.00  0.00    -0.203 F 
ATOM     89  F   UNL A   1      44.852  25.351  36.378  1.00  0.00    -0.200 F 
ATOM     90  C   UNL A   1      46.301  26.966  35.448  1.00  0.00     0.200 A 
ATOM     91  F   UNL A   1      47.711  28.613  34.513  1.00  0.00    -0.200 F 
ATOM     92  F   UNL A   1      47.367  26.284  35.890  1.00  0.00    -0.200 F 
ENDBRANCH  59  82
ENDBRANCH  33  34
ENDBRANCH  25  28
ENDBRANCH  23  24
ENDBRANCH  22  23
ENDBRANCH   1  22
TORSDOF 15
ENDMDL
