MODEL 1
REMARK VINA RESULT:     -13.0      0.000      0.000
REMARK SMILES CO[C@@H]1C[NH2+][C@@H](O[C@@H]2C[C@@H](C(=O)NCCCCCCNC(=O)c3ccc(-c4c5nc(c(-c6c(F)c(F)c(F)c(F)c6F)c6ccc([nH]6)c(-c6c(F)c(F)c(F)c(F)c6F)c6nc(c(-c7c(F)c(F)c(F)c(F)c7F)c7ccc4[nH]7)C=C6)C=C5)cc3)N(C(=O)OC(C)(C)C)C2)c2cc(Cl)ccc21
REMARK SMILES IDX 16 1 15 2 14 3 13 4 11 5 12 6 10 8 8 9 9 10 94 11 86 12 7 13
REMARK SMILES IDX 6 14 3 15 4 16 101 17 5 18 95 19 100 20 96 23 99 24 97 25
REMARK SMILES IDX 98 26 2 27 1 28 87 29 88 30 89 31 90 32 91 33 92 34 93 35
REMARK SMILES IDX 17 36 18 37 19 38 20 39 21 40 22 42 23 43 24 44 85 45 25 46
REMARK SMILES IDX 84 47 26 48 27 49 28 50 78 51 29 52 83 53 77 54 79 55 30 56
REMARK SMILES IDX 82 57 76 58 75 59 31 61 63 62 43 63 62 64 44 65 47 66 61 67
REMARK SMILES IDX 80 68 45 69 46 70 60 72 81 73 48 74 32 75 33 76 41 77 34 78
REMARK SMILES IDX 35 79 39 80 42 81 36 82 37 83 40 84 38 85 64 86 65 87 73 88
REMARK SMILES IDX 66 89 67 90 71 91 74 92 68 93 69 94 72 95 70 96 49 97 50 98
REMARK SMILES IDX 58 99 51 100 52 101 56 102 59 103 53 104 54 105 57 106
REMARK SMILES IDX 55 107
REMARK H PARENT 13 7 5 21 5 22 20 41 79 60 47 71
REMARK Flexibility Score: inf
ROOT
ATOM      1  C   UNL A   1      31.834  29.614  27.351  1.00  0.00     0.002 C 
ENDROOT
BRANCH   1   2
ATOM      2  C   UNL A   1      32.358  28.266  26.874  1.00  0.00     0.021 C 
BRANCH   2   3
ATOM      3  C   UNL A   1      33.822  28.151  26.338  1.00  0.00     0.116 C 
BRANCH   3   4
ATOM      4  N   UNL A   1      34.037  28.784  25.004  1.00  0.00    -0.354 N 
ATOM      5  C   UNL A   1      33.698  28.553  23.672  1.00  0.00     0.243 C 
ATOM      6  O   UNL A   1      33.958  29.470  22.884  1.00  0.00    -0.273 OA
ATOM      7  H   UNL A   1      34.574  29.605  25.090  1.00  0.00     0.163 HD
BRANCH   5   8
ATOM      8  C   UNL A   1      32.983  27.250  23.159  1.00  0.00     0.180 C 
ATOM      9  C   UNL A   1      32.676  25.447  21.485  1.00  0.00     0.147 C 
ATOM     10  C   UNL A   1      33.732  26.406  22.101  1.00  0.00     0.069 C 
ATOM     11  C   UNL A   1      31.394  26.282  21.561  1.00  0.00     0.156 C 
ATOM     12  N   UNL A   1      31.622  27.295  22.593  1.00  0.00    -0.293 N 
BRANCH   9  13
ATOM     13  O   UNL A   1      32.552  24.038  21.711  1.00  0.00    -0.320 OA
BRANCH  13  14
ATOM     14  C   UNL A   1      32.247  23.216  22.839  1.00  0.00     0.354 C 
ATOM     15  C   UNL A   1      31.784  24.875  25.185  1.00  0.00     0.203 C 
ATOM     16  C   UNL A   1      30.673  24.499  24.167  1.00  0.00     0.300 C 
ATOM     17  C   UNL A   1      33.145  24.213  24.890  1.00  0.00    -0.002 A 
ATOM     18  N   UNL A   1      30.899  23.321  23.350  1.00  0.00    -0.315 N 
ATOM     19  C   UNL A   1      33.282  23.235  23.920  1.00  0.00     0.046 A 
ATOM     20  C   UNL A   1      34.373  24.718  25.285  1.00  0.00     0.009 A 
ATOM     21  H   UNL A   1      30.257  23.352  22.559  1.00  0.00     0.349 HD
ATOM     22  H   UNL A   1      30.744  22.511  23.949  1.00  0.00     0.349 HD
ATOM     23  C   UNL A   1      34.482  22.495  23.766  1.00  0.00     0.033 A 
ATOM     24  C   UNL A   1      35.624  24.144  25.012  1.00  0.00     0.021 A 
ATOM     25  C   UNL A   1      35.658  22.945  24.344  1.00  0.00     0.041 A 
ATOM     26  Cl  UNL A   1      37.151  22.151  24.067  1.00  0.00    -0.084 Cl
BRANCH  15  27
ATOM     27  O   UNL A   1      31.358  24.788  26.556  1.00  0.00    -0.371 OA
ATOM     28  C   UNL A   1      31.324  23.419  27.009  1.00  0.00     0.196 C 
ENDBRANCH  15  27
ENDBRANCH  13  14
ENDBRANCH   9  13
BRANCH  12  29
ATOM     29  C   UNL A   1      30.551  27.985  23.110  1.00  0.00     0.411 C 
ATOM     30  O   UNL A   1      30.148  27.853  24.249  1.00  0.00    -0.224 OA
BRANCH  29  31
ATOM     31  O   UNL A   1      30.015  28.812  22.183  1.00  0.00    -0.444 OA
BRANCH  31  32
ATOM     32  C   UNL A   1      28.879  29.651  22.499  1.00  0.00     0.106 C 
ATOM     33  C   UNL A   1      27.661  28.808  22.897  1.00  0.00     0.056 C 
ATOM     34  C   UNL A   1      29.216  30.703  23.560  1.00  0.00     0.056 C 
ATOM     35  C   UNL A   1      28.575  30.362  21.174  1.00  0.00     0.056 C 
ENDBRANCH  31  32
ENDBRANCH  29  31
ENDBRANCH  12  29
ENDBRANCH   5   8
ENDBRANCH   3   4
ENDBRANCH   2   3
ENDBRANCH   1   2
BRANCH   1  36
ATOM     36  C   UNL A   1      31.639  30.674  26.266  1.00  0.00     0.002 C 
BRANCH  36  37
ATOM     37  C   UNL A   1      31.438  32.124  26.736  1.00  0.00     0.021 C 
BRANCH  37  38
ATOM     38  C   UNL A   1      32.664  32.817  27.333  1.00  0.00     0.116 C 
BRANCH  38  39
ATOM     39  N   UNL A   1      32.427  34.230  27.604  1.00  0.00    -0.352 N 
ATOM     40  C   UNL A   1      32.975  35.038  28.574  1.00  0.00     0.251 C 
ATOM     41  H   UNL A   1      31.780  34.669  27.007  1.00  0.00     0.163 HD
ATOM     42  O   UNL A   1      32.492  36.138  28.820  1.00  0.00    -0.269 OA
BRANCH  40  43
ATOM     43  C   UNL A   1      34.150  34.562  29.332  1.00  0.00     0.039 A 
ATOM     44  C   UNL A   1      35.421  34.638  28.760  1.00  0.00     0.014 A 
ATOM     45  C   UNL A   1      33.980  34.009  30.603  1.00  0.00     0.014 A 
ATOM     46  C   UNL A   1      36.488  33.996  29.375  1.00  0.00     0.010 A 
ATOM     47  C   UNL A   1      35.076  33.442  31.261  1.00  0.00     0.010 A 
ATOM     48  C   UNL A   1      36.328  33.382  30.628  1.00  0.00    -0.014 A 
BRANCH  48  49
ATOM     49  C   UNL A   1      37.479  32.667  31.243  1.00  0.00     0.031 A 
ATOM     50  C   UNL A   1      37.958  33.025  32.625  1.00  0.00     0.074 A 
ATOM     51  C   UNL A   1      38.055  31.648  30.575  1.00  0.00     0.049 A 
ATOM     52  N   UNL A   1      38.944  32.510  33.318  1.00  0.00    -0.248 NA
ATOM     53  C   UNL A   1      37.240  34.103  33.324  1.00  0.00     0.031 C 
ATOM     54  C   UNL A   1      37.663  31.191  29.241  1.00  0.00     0.029 A 
ATOM     55  N   UNL A   1      39.070  30.797  30.933  1.00  0.00    -0.354 N 
ATOM     56  C   UNL A   1      38.973  33.207  34.519  1.00  0.00     0.074 A 
ATOM     57  C   UNL A   1      37.930  34.207  34.452  1.00  0.00     0.031 C 
ATOM     58  C   UNL A   1      38.391  30.114  28.913  1.00  0.00     0.029 A 
ATOM     59  C   UNL A   1      39.351  29.849  29.979  1.00  0.00     0.049 A 
ATOM     60  H   UNL A   1      39.551  30.860  31.789  1.00  0.00     0.167 HD
ATOM     61  C   UNL A   1      39.783  33.014  35.588  1.00  0.00     0.037 A 
ATOM     62  C   UNL A   1      40.291  28.885  29.954  1.00  0.00     0.037 A 
ATOM     63  C   UNL A   1      40.803  31.999  35.660  1.00  0.00     0.049 A 
ATOM     64  C   UNL A   1      41.221  28.740  31.126  1.00  0.00     0.074 A 
ATOM     65  C   UNL A   1      41.662  31.716  36.707  1.00  0.00     0.029 A 
ATOM     66  N   UNL A   1      41.099  31.099  34.645  1.00  0.00    -0.354 N 
ATOM     67  N   UNL A   1      41.233  29.402  32.258  1.00  0.00    -0.248 NA
ATOM     68  C   UNL A   1      42.275  27.723  31.014  1.00  0.00     0.031 C 
ATOM     69  C   UNL A   1      42.515  30.684  36.306  1.00  0.00     0.029 A 
ATOM     70  C   UNL A   1      42.148  30.281  35.033  1.00  0.00     0.049 A 
ATOM     71  H   UNL A   1      40.634  31.050  33.780  1.00  0.00     0.167 HD
ATOM     72  C   UNL A   1      42.279  28.870  32.998  1.00  0.00     0.074 A 
ATOM     73  C   UNL A   1      42.865  27.814  32.197  1.00  0.00     0.031 C 
ATOM     74  C   UNL A   1      42.719  29.230  34.229  1.00  0.00     0.037 A 
BRANCH  61  75
ATOM     75  C   UNL A   1      39.613  33.916  36.777  1.00  0.00     0.064 A 
ATOM     76  C   UNL A   1      38.815  33.550  37.872  1.00  0.00     0.173 A 
ATOM     77  C   UNL A   1      40.329  35.121  36.865  1.00  0.00     0.173 A 
ATOM     78  F   UNL A   1      38.101  32.414  37.838  1.00  0.00    -0.203 F 
ATOM     79  C   UNL A   1      38.729  34.362  39.001  1.00  0.00     0.198 A 
ATOM     80  C   UNL A   1      40.265  35.914  38.008  1.00  0.00     0.198 A 
ATOM     81  F   UNL A   1      41.113  35.517  35.851  1.00  0.00    -0.203 F 
ATOM     82  F   UNL A   1      37.936  34.006  40.020  1.00  0.00    -0.200 F 
ATOM     83  C   UNL A   1      39.463  35.535  39.073  1.00  0.00     0.200 A 
ATOM     84  F   UNL A   1      40.989  37.040  38.082  1.00  0.00    -0.200 F 
ATOM     85  F   UNL A   1      39.397  36.303  40.170  1.00  0.00    -0.200 F 
ENDBRANCH  61  75
BRANCH  62  86
ATOM     86  C   UNL A   1      40.394  27.988  28.773  1.00  0.00     0.064 A 
ATOM     87  C   UNL A   1      41.165  28.347  27.660  1.00  0.00     0.173 A 
ATOM     88  C   UNL A   1      39.743  26.744  28.743  1.00  0.00     0.173 A 
ATOM     89  F   UNL A   1      41.788  29.535  27.632  1.00  0.00    -0.203 F 
ATOM     90  C   UNL A   1      41.275  27.502  26.558  1.00  0.00     0.198 A 
ATOM     91  C   UNL A   1      39.882  25.885  27.655  1.00  0.00     0.198 A 
ATOM     92  F   UNL A   1      38.994  26.351  29.782  1.00  0.00    -0.203 F 
ATOM     93  F   UNL A   1      41.988  27.886  25.490  1.00  0.00    -0.200 F 
ATOM     94  C   UNL A   1      40.643  26.267  26.561  1.00  0.00     0.200 A 
ATOM     95  F   UNL A   1      39.286  24.685  27.671  1.00  0.00    -0.200 F 
ATOM     96  F   UNL A   1      40.762  25.448  25.507  1.00  0.00    -0.200 F 
ENDBRANCH  62  86
BRANCH  74  97
ATOM     97  C   UNL A   1      43.881  28.470  34.801  1.00  0.00     0.064 A 
ATOM     98  C   UNL A   1      45.199  28.927  34.654  1.00  0.00     0.173 A 
ATOM     99  C   UNL A   1      43.669  27.313  35.566  1.00  0.00     0.173 A 
ATOM    100  F   UNL A   1      45.457  30.021  33.921  1.00  0.00    -0.203 F 
ATOM    101  C   UNL A   1      46.263  28.244  35.238  1.00  0.00     0.198 A 
ATOM    102  C   UNL A   1      44.731  26.652  36.176  1.00  0.00     0.198 A 
ATOM    103  F   UNL A   1      42.426  26.839  35.745  1.00  0.00    -0.203 F 
ATOM    104  F   UNL A   1      47.517  28.677  35.051  1.00  0.00    -0.200 F 
ATOM    105  C   UNL A   1      46.026  27.115  36.007  1.00  0.00     0.200 A 
ATOM    106  F   UNL A   1      44.499  25.573  36.935  1.00  0.00    -0.200 F 
ATOM    107  F   UNL A   1      47.050  26.471  36.585  1.00  0.00    -0.200 F 
ENDBRANCH  74  97
ENDBRANCH  48  49
ENDBRANCH  40  43
ENDBRANCH  38  39
ENDBRANCH  37  38
ENDBRANCH  36  37
ENDBRANCH   1  36
TORSDOF 19
ENDMDL
MODEL 2
REMARK VINA RESULT:     -12.9      0.167      7.029
REMARK SMILES CO[C@@H]1C[NH2+][C@@H](O[C@@H]2C[C@@H](C(=O)NCCCCCCNC(=O)c3ccc(-c4c5nc(c(-c6c(F)c(F)c(F)c(F)c6F)c6ccc([nH]6)c(-c6c(F)c(F)c(F)c(F)c6F)c6nc(c(-c7c(F)c(F)c(F)c(F)c7F)c7ccc4[nH]7)C=C6)C=C5)cc3)N(C(=O)OC(C)(C)C)C2)c2cc(Cl)ccc21
REMARK SMILES IDX 16 1 15 2 14 3 13 4 11 5 12 6 10 8 8 9 9 10 94 11 86 12 7 13
REMARK SMILES IDX 6 14 3 15 4 16 101 17 5 18 95 19 100 20 96 23 99 24 97 25
REMARK SMILES IDX 98 26 2 27 1 28 87 29 88 30 89 31 90 32 91 33 92 34 93 35
REMARK SMILES IDX 17 36 18 37 19 38 20 39 21 40 22 42 23 43 24 44 85 45 25 46
REMARK SMILES IDX 84 47 26 48 27 49 28 50 78 51 29 52 83 53 77 54 79 55 30 56
REMARK SMILES IDX 82 57 76 58 75 59 31 61 63 62 43 63 62 64 44 65 47 66 61 67
REMARK SMILES IDX 80 68 45 69 46 70 60 72 81 73 48 74 32 75 33 76 41 77 34 78
REMARK SMILES IDX 35 79 39 80 42 81 36 82 37 83 40 84 38 85 64 86 65 87 73 88
REMARK SMILES IDX 66 89 67 90 71 91 74 92 68 93 69 94 72 95 70 96 49 97 50 98
REMARK SMILES IDX 58 99 51 100 52 101 56 102 59 103 53 104 54 105 57 106
REMARK SMILES IDX 55 107
REMARK H PARENT 13 7 5 21 5 22 20 41 79 60 47 71
REMARK Flexibility Score: inf
ROOT
ATOM      1  C   UNL A   1      31.776  29.607  27.291  1.00  0.00     0.002 C 
ENDROOT
BRANCH   1   2
ATOM      2  C   UNL A   1      32.373  28.270  26.874  1.00  0.00     0.021 C 
BRANCH   2   3
ATOM      3  C   UNL A   1      33.838  28.212  26.333  1.00  0.00     0.116 C 
BRANCH   3   4
ATOM      4  N   UNL A   1      34.023  28.846  24.996  1.00  0.00    -0.354 N 
ATOM      5  C   UNL A   1      33.671  28.606  23.668  1.00  0.00     0.243 C 
ATOM      6  O   UNL A   1      33.903  29.526  22.876  1.00  0.00    -0.273 OA
ATOM      7  H   UNL A   1      34.545  29.677  25.073  1.00  0.00     0.163 HD
BRANCH   5   8
ATOM      8  C   UNL A   1      32.975  27.288  23.167  1.00  0.00     0.180 C 
ATOM      9  C   UNL A   1      32.681  25.476  21.501  1.00  0.00     0.147 C 
ATOM     10  C   UNL A   1      33.727  26.457  22.101  1.00  0.00     0.069 C 
ATOM     11  C   UNL A   1      31.384  26.286  21.593  1.00  0.00     0.156 C 
ATOM     12  N   UNL A   1      31.606  27.305  22.619  1.00  0.00    -0.293 N 
BRANCH   9  13
ATOM     13  O   UNL A   1      32.588  24.065  21.731  1.00  0.00    -0.320 OA
BRANCH  13  14
ATOM     14  C   UNL A   1      32.258  23.241  22.850  1.00  0.00     0.354 C 
ATOM     15  C   UNL A   1      31.720  24.897  25.183  1.00  0.00     0.203 C 
ATOM     16  C   UNL A   1      30.639  24.514  24.135  1.00  0.00     0.300 C 
ATOM     17  C   UNL A   1      33.092  24.243  24.925  1.00  0.00    -0.002 A 
ATOM     18  N   UNL A   1      30.896  23.337  23.324  1.00  0.00    -0.315 N 
ATOM     19  C   UNL A   1      33.263  23.267  23.959  1.00  0.00     0.046 A 
ATOM     20  C   UNL A   1      34.305  24.757  25.354  1.00  0.00     0.009 A 
ATOM     21  H   UNL A   1      30.275  23.363  22.516  1.00  0.00     0.349 HD
ATOM     22  H   UNL A   1      30.730  22.526  23.918  1.00  0.00     0.349 HD
ATOM     23  C   UNL A   1      34.471  22.534  23.838  1.00  0.00     0.033 A 
ATOM     24  C   UNL A   1      35.568  24.192  25.115  1.00  0.00     0.021 A 
ATOM     25  C   UNL A   1      35.628  22.993  24.448  1.00  0.00     0.041 A 
ATOM     26  Cl  UNL A   1      37.133  22.208  24.212  1.00  0.00    -0.084 Cl
BRANCH  15  27
ATOM     27  O   UNL A   1      31.257  24.807  26.541  1.00  0.00    -0.371 OA
ATOM     28  C   UNL A   1      30.973  23.441  26.910  1.00  0.00     0.196 C 
ENDBRANCH  15  27
ENDBRANCH  13  14
ENDBRANCH   9  13
BRANCH  12  29
ATOM     29  C   UNL A   1      30.529  27.975  23.149  1.00  0.00     0.411 C 
ATOM     30  O   UNL A   1      30.235  27.956  24.329  1.00  0.00    -0.224 OA
BRANCH  29  31
ATOM     31  O   UNL A   1      29.851  28.641  22.187  1.00  0.00    -0.444 OA
BRANCH  31  32
ATOM     32  C   UNL A   1      28.787  29.562  22.524  1.00  0.00     0.106 C 
ATOM     33  C   UNL A   1      27.525  28.812  22.967  1.00  0.00     0.056 C 
ATOM     34  C   UNL A   1      29.229  30.599  23.559  1.00  0.00     0.056 C 
ATOM     35  C   UNL A   1      28.495  30.277  21.198  1.00  0.00     0.056 C 
ENDBRANCH  31  32
ENDBRANCH  29  31
ENDBRANCH  12  29
ENDBRANCH   5   8
ENDBRANCH   3   4
ENDBRANCH   2   3
ENDBRANCH   1   2
BRANCH   1  36
ATOM     36  C   UNL A   1      31.677  30.665  26.191  1.00  0.00     0.002 C 
BRANCH  36  37
ATOM     37  C   UNL A   1      31.466  32.121  26.639  1.00  0.00     0.021 C 
BRANCH  37  38
ATOM     38  C   UNL A   1      32.613  32.759  27.422  1.00  0.00     0.116 C 
BRANCH  38  39
ATOM     39  N   UNL A   1      32.407  34.186  27.645  1.00  0.00    -0.352 N 
ATOM     40  C   UNL A   1      32.960  35.011  28.598  1.00  0.00     0.251 C 
ATOM     41  H   UNL A   1      31.782  34.622  27.023  1.00  0.00     0.163 HD
ATOM     42  O   UNL A   1      32.500  36.130  28.802  1.00  0.00    -0.269 OA
BRANCH  40  43
ATOM     43  C   UNL A   1      34.110  34.530  29.391  1.00  0.00     0.039 A 
ATOM     44  C   UNL A   1      35.390  34.550  28.837  1.00  0.00     0.014 A 
ATOM     45  C   UNL A   1      33.905  34.027  30.678  1.00  0.00     0.014 A 
ATOM     46  C   UNL A   1      36.429  33.901  29.491  1.00  0.00     0.010 A 
ATOM     47  C   UNL A   1      34.975  33.455  31.373  1.00  0.00     0.010 A 
ATOM     48  C   UNL A   1      36.234  33.337  30.762  1.00  0.00    -0.014 A 
BRANCH  48  49
ATOM     49  C   UNL A   1      37.355  32.613  31.420  1.00  0.00     0.031 A 
ATOM     50  C   UNL A   1      38.076  31.500  30.707  1.00  0.00     0.074 A 
ATOM     51  C   UNL A   1      37.765  33.005  32.643  1.00  0.00     0.049 A 
ATOM     52  N   UNL A   1      39.073  30.759  31.125  1.00  0.00    -0.248 NA
ATOM     53  C   UNL A   1      37.620  31.169  29.348  1.00  0.00     0.031 C 
ATOM     54  C   UNL A   1      37.163  34.087  33.424  1.00  0.00     0.029 A 
ATOM     55  N   UNL A   1      38.795  32.559  33.432  1.00  0.00    -0.354 N 
ATOM     56  C   UNL A   1      39.351  29.873  30.092  1.00  0.00     0.074 A 
ATOM     57  C   UNL A   1      38.396  30.139  29.039  1.00  0.00     0.031 C 
ATOM     58  C   UNL A   1      37.864  34.257  34.553  1.00  0.00     0.029 A 
ATOM     59  C   UNL A   1      38.917  33.249  34.614  1.00  0.00     0.049 A 
ATOM     60  H   UNL A   1      39.389  31.817  33.176  1.00  0.00     0.167 HD
ATOM     61  C   UNL A   1      40.327  28.936  30.024  1.00  0.00     0.037 A 
ATOM     62  C   UNL A   1      39.768  33.077  35.644  1.00  0.00     0.037 A 
ATOM     63  C   UNL A   1      41.292  28.692  31.065  1.00  0.00     0.049 A 
ATOM     64  C   UNL A   1      40.796  31.983  35.568  1.00  0.00     0.074 A 
ATOM     65  C   UNL A   1      42.329  27.776  31.080  1.00  0.00     0.029 A 
ATOM     66  N   UNL A   1      41.340  29.370  32.275  1.00  0.00    -0.354 N 
ATOM     67  N   UNL A   1      41.051  31.156  34.583  1.00  0.00    -0.248 NA
ATOM     68  C   UNL A   1      41.648  31.792  36.749  1.00  0.00     0.031 C 
ATOM     69  C   UNL A   1      42.970  27.859  32.319  1.00  0.00     0.029 A 
ATOM     70  C   UNL A   1      42.372  28.869  33.054  1.00  0.00     0.049 A 
ATOM     71  H   UNL A   1      40.733  30.096  32.541  1.00  0.00     0.167 HD
ATOM     72  C   UNL A   1      42.102  30.361  35.016  1.00  0.00     0.074 A 
ATOM     73  C   UNL A   1      42.453  30.820  36.346  1.00  0.00     0.031 C 
ATOM     74  C   UNL A   1      42.715  29.337  34.374  1.00  0.00     0.037 A 
BRANCH  61  75
ATOM     75  C   UNL A   1      40.412  28.092  28.784  1.00  0.00     0.064 A 
ATOM     76  C   UNL A   1      41.208  28.467  27.690  1.00  0.00     0.173 A 
ATOM     77  C   UNL A   1      39.763  26.848  28.723  1.00  0.00     0.173 A 
ATOM     78  F   UNL A   1      41.842  29.649  27.690  1.00  0.00    -0.203 F 
ATOM     79  C   UNL A   1      41.339  27.637  26.579  1.00  0.00     0.198 A 
ATOM     80  C   UNL A   1      39.922  26.007  27.624  1.00  0.00     0.198 A 
ATOM     81  F   UNL A   1      38.996  26.436  29.743  1.00  0.00    -0.203 F 
ATOM     82  F   UNL A   1      42.078  28.031  25.534  1.00  0.00    -0.200 F 
ATOM     83  C   UNL A   1      40.706  26.403  26.553  1.00  0.00     0.200 A 
ATOM     84  F   UNL A   1      39.323  24.807  27.609  1.00  0.00    -0.200 F 
ATOM     85  F   UNL A   1      40.852  25.596  25.493  1.00  0.00    -0.200 F 
ENDBRANCH  61  75
BRANCH  62  86
ATOM     86  C   UNL A   1      39.673  33.964  36.833  1.00  0.00     0.064 A 
ATOM     87  C   UNL A   1      38.920  33.591  37.953  1.00  0.00     0.173 A 
ATOM     88  C   UNL A   1      40.351  35.193  36.882  1.00  0.00     0.173 A 
ATOM     89  F   UNL A   1      38.236  32.436  37.946  1.00  0.00    -0.203 F 
ATOM     90  C   UNL A   1      38.841  34.413  39.075  1.00  0.00     0.198 A 
ATOM     91  C   UNL A   1      40.300  35.998  38.017  1.00  0.00     0.198 A 
ATOM     92  F   UNL A   1      41.086  35.597  35.838  1.00  0.00    -0.203 F 
ATOM     93  F   UNL A   1      38.083  34.049  40.119  1.00  0.00    -0.200 F 
ATOM     94  C   UNL A   1      39.540  35.611  39.111  1.00  0.00     0.200 A 
ATOM     95  F   UNL A   1      40.992  37.145  38.054  1.00  0.00    -0.200 F 
ATOM     96  F   UNL A   1      39.476  36.395  40.196  1.00  0.00    -0.200 F 
ENDBRANCH  62  86
BRANCH  74  97
ATOM     97  C   UNL A   1      43.843  28.646  35.084  1.00  0.00     0.064 A 
ATOM     98  C   UNL A   1      43.616  27.544  35.922  1.00  0.00     0.173 A 
ATOM     99  C   UNL A   1      45.172  29.044  34.869  1.00  0.00     0.173 A 
ATOM    100  F   UNL A   1      42.364  27.133  36.171  1.00  0.00    -0.203 F 
ATOM    101  C   UNL A   1      44.676  26.877  36.530  1.00  0.00     0.198 A 
ATOM    102  C   UNL A   1      46.231  28.354  35.452  1.00  0.00     0.198 A 
ATOM    103  F   UNL A   1      45.444  30.087  34.070  1.00  0.00    -0.203 F 
ATOM    104  F   UNL A   1      44.432  25.851  37.357  1.00  0.00    -0.200 F 
ATOM    105  C   UNL A   1      45.982  27.276  36.286  1.00  0.00     0.200 A 
ATOM    106  F   UNL A   1      47.492  28.728  35.199  1.00  0.00    -0.200 F 
ATOM    107  F   UNL A   1      47.001  26.619  36.856  1.00  0.00    -0.200 F 
ENDBRANCH  74  97
ENDBRANCH  48  49
ENDBRANCH  40  43
ENDBRANCH  38  39
ENDBRANCH  37  38
ENDBRANCH  36  37
ENDBRANCH   1  36
TORSDOF 19
ENDMDL
MODEL 3
REMARK VINA RESULT:     -12.6      6.081     10.672
REMARK SMILES CO[C@@H]1C[NH2+][C@@H](O[C@@H]2C[C@@H](C(=O)NCCCCCCNC(=O)c3ccc(-c4c5nc(c(-c6c(F)c(F)c(F)c(F)c6F)c6ccc([nH]6)c(-c6c(F)c(F)c(F)c(F)c6F)c6nc(c(-c7c(F)c(F)c(F)c(F)c7F)c7ccc4[nH]7)C=C6)C=C5)cc3)N(C(=O)OC(C)(C)C)C2)c2cc(Cl)ccc21
REMARK SMILES IDX 16 1 15 2 14 3 13 4 11 5 12 6 10 8 8 9 9 10 94 11 86 12 7 13
REMARK SMILES IDX 6 14 3 15 4 16 101 17 5 18 95 19 100 20 96 23 99 24 97 25
REMARK SMILES IDX 98 26 2 27 1 28 87 29 88 30 89 31 90 32 91 33 92 34 93 35
REMARK SMILES IDX 17 36 18 37 19 38 20 39 21 40 22 42 23 43 24 44 85 45 25 46
REMARK SMILES IDX 84 47 26 48 27 49 28 50 78 51 29 52 83 53 77 54 79 55 30 56
REMARK SMILES IDX 82 57 76 58 75 59 31 61 63 62 43 63 62 64 44 65 47 66 61 67
REMARK SMILES IDX 80 68 45 69 46 70 60 72 81 73 48 74 32 75 33 76 41 77 34 78
REMARK SMILES IDX 35 79 39 80 42 81 36 82 37 83 40 84 38 85 64 86 65 87 73 88
REMARK SMILES IDX 66 89 67 90 71 91 74 92 68 93 69 94 72 95 70 96 49 97 50 98
REMARK SMILES IDX 58 99 51 100 52 101 56 102 59 103 53 104 54 105 57 106
REMARK SMILES IDX 55 107
REMARK H PARENT 13 7 5 21 5 22 20 41 79 60 47 71
REMARK Flexibility Score: inf
ROOT
ATOM      1  C   UNL A   1      40.251  22.501  27.627  1.00  0.00     0.002 C 
ENDROOT
BRANCH   1   2
ATOM      2  C   UNL A   1      39.677  23.219  26.412  1.00  0.00     0.021 C 
BRANCH   2   3
ATOM      3  C   UNL A   1      38.137  23.189  26.151  1.00  0.00     0.116 C 
BRANCH   3   4
ATOM      4  N   UNL A   1      37.761  23.156  24.708  1.00  0.00    -0.354 N 
ATOM      5  C   UNL A   1      36.608  23.217  23.927  1.00  0.00     0.243 C 
ATOM      6  O   UNL A   1      36.789  23.328  22.709  1.00  0.00    -0.273 OA
ATOM      7  H   UNL A   1      38.561  23.065  24.141  1.00  0.00     0.163 HD
BRANCH   5   8
ATOM      8  C   UNL A   1      35.148  23.202  24.511  1.00  0.00     0.180 C 
ATOM      9  C   UNL A   1      33.368  24.146  25.954  1.00  0.00     0.147 C 
ATOM     10  C   UNL A   1      34.616  24.525  25.110  1.00  0.00     0.069 C 
ATOM     11  C   UNL A   1      33.727  22.745  26.456  1.00  0.00     0.156 C 
ATOM     12  N   UNL A   1      34.744  22.227  25.540  1.00  0.00    -0.293 N 
BRANCH   9  13
ATOM     13  O   UNL A   1      31.995  24.391  25.626  1.00  0.00    -0.320 OA
BRANCH  13  14
ATOM     14  C   UNL A   1      31.135  25.531  25.652  1.00  0.00     0.354 C 
ATOM     15  C   UNL A   1      30.926  26.682  22.986  1.00  0.00     0.203 C 
ATOM     16  C   UNL A   1      30.009  25.539  23.501  1.00  0.00     0.300 C 
ATOM     17  C   UNL A   1      31.905  27.218  24.051  1.00  0.00    -0.002 A 
ATOM     18  N   UNL A   1      29.884  25.392  24.940  1.00  0.00    -0.315 N 
ATOM     19  C   UNL A   1      31.819  26.833  25.377  1.00  0.00     0.046 A 
ATOM     20  C   UNL A   1      33.113  27.836  23.773  1.00  0.00     0.009 A 
ATOM     21  H   UNL A   1      29.503  24.467  25.136  1.00  0.00     0.349 HD
ATOM     22  H   UNL A   1      29.274  26.143  25.262  1.00  0.00     0.349 HD
ATOM     23  C   UNL A   1      32.592  27.456  26.390  1.00  0.00     0.033 A 
ATOM     24  C   UNL A   1      34.028  28.315  24.724  1.00  0.00     0.021 A 
ATOM     25  C   UNL A   1      33.692  28.227  26.052  1.00  0.00     0.041 A 
ATOM     26  Cl  UNL A   1      34.727  28.881  27.252  1.00  0.00    -0.084 Cl
BRANCH  15  27
ATOM     27  O   UNL A   1      30.219  27.697  22.253  1.00  0.00    -0.371 OA
ATOM     28  C   UNL A   1      29.441  28.534  23.134  1.00  0.00     0.196 C 
ENDBRANCH  15  27
ENDBRANCH  13  14
ENDBRANCH   9  13
BRANCH  12  29
ATOM     29  C   UNL A   1      35.031  20.882  25.541  1.00  0.00     0.411 C 
ATOM     30  O   UNL A   1      36.135  20.427  25.307  1.00  0.00    -0.224 OA
BRANCH  29  31
ATOM     31  O   UNL A   1      33.930  20.151  25.827  1.00  0.00    -0.444 OA
BRANCH  31  32
ATOM     32  C   UNL A   1      33.410  19.184  24.885  1.00  0.00     0.106 C 
ATOM     33  C   UNL A   1      32.530  19.861  23.826  1.00  0.00     0.056 C 
ATOM     34  C   UNL A   1      34.520  18.342  24.251  1.00  0.00     0.056 C 
ATOM     35  C   UNL A   1      32.528  18.275  25.750  1.00  0.00     0.056 C 
ENDBRANCH  31  32
ENDBRANCH  29  31
ENDBRANCH  12  29
ENDBRANCH   5   8
ENDBRANCH   3   4
ENDBRANCH   2   3
ENDBRANCH   1   2
BRANCH   1  36
ATOM     36  C   UNL A   1      41.686  21.992  27.483  1.00  0.00     0.002 C 
BRANCH  36  37
ATOM     37  C   UNL A   1      41.872  20.480  27.277  1.00  0.00     0.021 C 
BRANCH  37  38
ATOM     38  C   UNL A   1      41.615  19.953  25.865  1.00  0.00     0.116 C 
BRANCH  38  39
ATOM     39  N   UNL A   1      42.723  19.148  25.362  1.00  0.00    -0.352 N 
ATOM     40  C   UNL A   1      43.947  19.551  24.879  1.00  0.00     0.251 C 
ATOM     41  H   UNL A   1      42.571  18.176  25.367  1.00  0.00     0.163 HD
ATOM     42  O   UNL A   1      44.669  18.767  24.271  1.00  0.00    -0.269 OA
BRANCH  40  43
ATOM     43  C   UNL A   1      44.383  20.947  25.087  1.00  0.00     0.039 A 
ATOM     44  C   UNL A   1      45.262  21.250  26.126  1.00  0.00     0.014 A 
ATOM     45  C   UNL A   1      43.887  21.960  24.263  1.00  0.00     0.014 A 
ATOM     46  C   UNL A   1      45.498  22.578  26.458  1.00  0.00     0.010 A 
ATOM     47  C   UNL A   1      44.200  23.293  24.545  1.00  0.00     0.010 A 
ATOM     48  C   UNL A   1      44.963  23.617  25.678  1.00  0.00    -0.014 A 
BRANCH  48  49
ATOM     49  C   UNL A   1      45.200  25.029  26.081  1.00  0.00     0.031 A 
ATOM     50  C   UNL A   1      44.093  25.853  26.685  1.00  0.00     0.074 A 
ATOM     51  C   UNL A   1      46.436  25.551  25.959  1.00  0.00     0.049 A 
ATOM     52  N   UNL A   1      44.117  27.098  27.094  1.00  0.00    -0.248 NA
ATOM     53  C   UNL A   1      42.785  25.198  26.851  1.00  0.00     0.031 C 
ATOM     54  C   UNL A   1      47.596  24.845  25.413  1.00  0.00     0.029 A 
ATOM     55  N   UNL A   1      46.932  26.783  26.308  1.00  0.00    -0.354 N 
ATOM     56  C   UNL A   1      42.834  27.376  27.549  1.00  0.00     0.074 A 
ATOM     57  C   UNL A   1      42.042  26.185  27.334  1.00  0.00     0.031 C 
ATOM     58  C   UNL A   1      48.677  25.631  25.511  1.00  0.00     0.029 A 
ATOM     59  C   UNL A   1      48.275  26.924  26.055  1.00  0.00     0.049 A 
ATOM     60  H   UNL A   1      46.378  27.496  26.701  1.00  0.00     0.167 HD
ATOM     61  C   UNL A   1      42.368  28.516  28.112  1.00  0.00     0.037 A 
ATOM     62  C   UNL A   1      49.090  27.982  26.223  1.00  0.00     0.037 A 
ATOM     63  C   UNL A   1      43.168  29.691  28.348  1.00  0.00     0.049 A 
ATOM     64  C   UNL A   1      48.527  29.257  26.786  1.00  0.00     0.074 A 
ATOM     65  C   UNL A   1      42.787  30.888  28.928  1.00  0.00     0.029 A 
ATOM     66  N   UNL A   1      44.510  29.816  28.017  1.00  0.00    -0.354 N 
ATOM     67  N   UNL A   1      47.314  29.504  27.218  1.00  0.00    -0.248 NA
ATOM     68  C   UNL A   1      49.442  30.402  26.877  1.00  0.00     0.031 C 
ATOM     69  C   UNL A   1      43.882  31.757  28.899  1.00  0.00     0.029 A 
ATOM     70  C   UNL A   1      44.962  31.082  28.356  1.00  0.00     0.049 A 
ATOM     71  H   UNL A   1      45.058  29.112  27.604  1.00  0.00     0.167 HD
ATOM     72  C   UNL A   1      47.325  30.823  27.648  1.00  0.00     0.074 A 
ATOM     73  C   UNL A   1      48.672  31.318  27.447  1.00  0.00     0.031 C 
ATOM     74  C   UNL A   1      46.307  31.561  28.156  1.00  0.00     0.037 A 
BRANCH  61  75
ATOM     75  C   UNL A   1      40.922  28.566  28.518  1.00  0.00     0.064 A 
ATOM     76  C   UNL A   1      40.513  28.258  29.825  1.00  0.00     0.173 A 
ATOM     77  C   UNL A   1      39.944  29.013  27.616  1.00  0.00     0.173 A 
ATOM     78  F   UNL A   1      41.404  27.815  30.725  1.00  0.00    -0.203 F 
ATOM     79  C   UNL A   1      39.179  28.383  30.207  1.00  0.00     0.198 A 
ATOM     80  C   UNL A   1      38.617  29.167  28.011  1.00  0.00     0.198 A 
ATOM     81  F   UNL A   1      40.280  29.328  26.356  1.00  0.00    -0.203 F 
ATOM     82  F   UNL A   1      38.807  28.053  31.452  1.00  0.00    -0.200 F 
ATOM     83  C   UNL A   1      38.236  28.848  29.304  1.00  0.00     0.200 A 
ATOM     84  F   UNL A   1      37.710  29.633  27.140  1.00  0.00    -0.200 F 
ATOM     85  F   UNL A   1      36.958  28.990  29.682  1.00  0.00    -0.200 F 
ENDBRANCH  61  75
BRANCH  62  86
ATOM     86  C   UNL A   1      50.524  27.873  25.846  1.00  0.00     0.064 A 
ATOM     87  C   UNL A   1      51.509  27.640  26.814  1.00  0.00     0.173 A 
ATOM     88  C   UNL A   1      50.936  27.977  24.508  1.00  0.00     0.173 A 
ATOM     89  F   UNL A   1      51.167  27.555  28.109  1.00  0.00    -0.203 F 
ATOM     90  C   UNL A   1      52.852  27.523  26.462  1.00  0.00     0.198 A 
ATOM     91  C   UNL A   1      52.275  27.826  24.153  1.00  0.00     0.198 A 
ATOM     92  F   UNL A   1      50.034  28.199  23.541  1.00  0.00    -0.203 F 
ATOM     93  F   UNL A   1      53.778  27.339  27.413  1.00  0.00    -0.200 F 
ATOM     94  C   UNL A   1      53.232  27.606  25.131  1.00  0.00     0.200 A 
ATOM     95  F   UNL A   1      52.635  27.886  22.864  1.00  0.00    -0.200 F 
ATOM     96  F   UNL A   1      54.522  27.478  24.791  1.00  0.00    -0.200 F 
ENDBRANCH  62  86
BRANCH  74  97
ATOM     97  C   UNL A   1      46.605  32.979  28.550  1.00  0.00     0.064 A 
ATOM     98  C   UNL A   1      47.114  33.296  29.818  1.00  0.00     0.173 A 
ATOM     99  C   UNL A   1      46.449  34.023  27.625  1.00  0.00     0.173 A 
ATOM    100  F   UNL A   1      47.269  32.336  30.742  1.00  0.00    -0.203 F 
ATOM    101  C   UNL A   1      47.440  34.608  30.151  1.00  0.00     0.198 A 
ATOM    102  C   UNL A   1      46.807  35.328  27.950  1.00  0.00     0.198 A 
ATOM    103  F   UNL A   1      45.973  33.773  26.395  1.00  0.00    -0.203 F 
ATOM    104  F   UNL A   1      47.888  34.892  31.381  1.00  0.00    -0.200 F 
ATOM    105  C   UNL A   1      47.297  35.620  29.213  1.00  0.00     0.200 A 
ATOM    106  F   UNL A   1      46.686  36.301  27.037  1.00  0.00    -0.200 F 
ATOM    107  F   UNL A   1      47.630  36.879  29.530  1.00  0.00    -0.200 F 
ENDBRANCH  74  97
ENDBRANCH  48  49
ENDBRANCH  40  43
ENDBRANCH  38  39
ENDBRANCH  37  38
ENDBRANCH  36  37
ENDBRANCH   1  36
TORSDOF 19
ENDMDL
