MODEL 1
REMARK VINA RESULT:     -12.9      0.000      0.000
REMARK SMILES O=C(NCCCCCCNC(=O)c1cc(F)cc(-c2cccc(F)c2F)c1)c1ccc(-c2c3nc(c(-c4c(F)c(F)c(F)c(F)c4F)c4ccc([nH]4)c(-c4c(F)c(F)c(F)c(F)c4F)c4nc(c(-c5c(F)c(F)c(F)c(F)c5F)c5ccc2[nH]5)C=C4)C=C3)cc1
REMARK SMILES IDX 6 1 5 2 4 3 3 4 1 5 2 6 28 8 29 9 90 10 30 11 89 12 31 13
REMARK SMILES IDX 32 14 33 15 83 16 34 17 88 18 82 19 84 20 35 21 87 22 81 23
REMARK SMILES IDX 80 24 36 26 68 27 48 28 67 29 49 30 52 31 66 32 85 33 50 34
REMARK SMILES IDX 51 35 65 37 86 38 53 39 37 40 38 41 46 42 39 43 40 44 44 45
REMARK SMILES IDX 47 46 41 47 42 48 45 49 43 50 69 51 70 52 78 53 71 54 72 55
REMARK SMILES IDX 76 56 79 57 73 58 74 59 77 60 75 61 54 62 55 63 63 64 56 65
REMARK SMILES IDX 57 66 61 67 64 68 58 69 59 70 62 71 60 72 7 73 8 74 9 75
REMARK SMILES IDX 10 76 11 77 12 79 13 80 14 81 27 82 15 83 18 84 16 85 17 86
REMARK SMILES IDX 19 87 20 88 25 89 21 90 23 91 26 92 22 93 24 94
REMARK H PARENT 3 7 84 25 52 36 10 78
REMARK Flexibility Score: inf
ROOT
ATOM      1  C   UNL A   1      31.702  30.484  26.818  1.00  0.00     0.002 C 
ENDROOT
BRANCH   1   2
ATOM      2  C   UNL A   1      31.446  31.991  26.836  1.00  0.00     0.021 C 
BRANCH   2   3
ATOM      3  C   UNL A   1      32.700  32.850  26.899  1.00  0.00     0.116 C 
BRANCH   3   4
ATOM      4  N   UNL A   1      32.465  34.136  27.533  1.00  0.00    -0.352 N 
ATOM      5  O   UNL A   1      32.652  35.720  29.132  1.00  0.00    -0.269 OA
ATOM      6  C   UNL A   1      33.083  34.688  28.627  1.00  0.00     0.251 C 
ATOM      7  H   UNL A   1      31.764  34.691  27.119  1.00  0.00     0.163 HD
BRANCH   6   8
ATOM      8  C   UNL A   1      34.262  34.018  29.213  1.00  0.00     0.039 A 
ATOM      9  C   UNL A   1      34.104  32.952  30.102  1.00  0.00     0.014 A 
ATOM     10  C   UNL A   1      35.542  34.462  28.870  1.00  0.00     0.014 A 
ATOM     11  C   UNL A   1      35.214  32.422  30.750  1.00  0.00     0.010 A 
ATOM     12  C   UNL A   1      36.663  33.867  29.454  1.00  0.00     0.010 A 
ATOM     13  C   UNL A   1      36.506  32.858  30.417  1.00  0.00    -0.014 A 
BRANCH  13  14
ATOM     14  C   UNL A   1      37.679  32.187  31.031  1.00  0.00     0.031 A 
ATOM     15  C   UNL A   1      38.130  32.520  32.423  1.00  0.00     0.074 A 
ATOM     16  C   UNL A   1      38.323  31.244  30.317  1.00  0.00     0.049 A 
ATOM     17  N   UNL A   1      39.133  32.022  33.104  1.00  0.00    -0.248 NA
ATOM     18  C   UNL A   1      37.366  33.547  33.148  1.00  0.00     0.031 C 
ATOM     19  C   UNL A   1      37.972  30.842  28.952  1.00  0.00     0.029 A 
ATOM     20  N   UNL A   1      39.388  30.442  30.634  1.00  0.00    -0.354 N 
ATOM     21  C   UNL A   1      39.128  32.680  34.327  1.00  0.00     0.074 A 
ATOM     22  C   UNL A   1      38.040  33.634  34.288  1.00  0.00     0.031 C 
ATOM     23  C   UNL A   1      38.772  29.838  28.570  1.00  0.00     0.029 A 
ATOM     24  C   UNL A   1      39.737  29.572  29.631  1.00  0.00     0.049 A 
ATOM     25  H   UNL A   1      39.857  30.484  31.499  1.00  0.00     0.167 HD
ATOM     26  C   UNL A   1      39.954  32.492  35.385  1.00  0.00     0.037 A 
ATOM     27  C   UNL A   1      40.736  28.673  29.559  1.00  0.00     0.037 A 
ATOM     28  C   UNL A   1      41.026  31.529  35.415  1.00  0.00     0.049 A 
ATOM     29  C   UNL A   1      41.660  28.518  30.730  1.00  0.00     0.074 A 
ATOM     30  C   UNL A   1      41.897  31.245  36.453  1.00  0.00     0.029 A 
ATOM     31  N   UNL A   1      41.377  30.697  34.361  1.00  0.00    -0.354 N 
ATOM     32  N   UNL A   1      41.631  29.129  31.889  1.00  0.00    -0.248 NA
ATOM     33  C   UNL A   1      42.759  27.554  30.584  1.00  0.00     0.031 C 
ATOM     34  C   UNL A   1      42.807  30.282  36.010  1.00  0.00     0.029 A 
ATOM     35  C   UNL A   1      42.468  29.919  34.716  1.00  0.00     0.049 A 
ATOM     36  H   UNL A   1      40.919  30.665  33.491  1.00  0.00     0.167 HD
ATOM     37  C   UNL A   1      42.695  28.616  32.617  1.00  0.00     0.074 A 
ATOM     38  C   UNL A   1      43.340  27.629  31.776  1.00  0.00     0.031 C 
ATOM     39  C   UNL A   1      43.099  28.939  33.870  1.00  0.00     0.037 A 
BRANCH  26  40
ATOM     40  C   UNL A   1      39.746  33.342  36.605  1.00  0.00     0.064 A 
ATOM     41  C   UNL A   1      38.812  32.964  37.583  1.00  0.00     0.173 A 
ATOM     42  C   UNL A   1      40.397  34.574  36.762  1.00  0.00     0.173 A 
ATOM     43  F   UNL A   1      38.155  31.800  37.477  1.00  0.00    -0.203 F 
ATOM     44  C   UNL A   1      38.526  33.797  38.662  1.00  0.00     0.198 A 
ATOM     45  C   UNL A   1      40.128  35.392  37.858  1.00  0.00     0.198 A 
ATOM     46  F   UNL A   1      41.305  34.979  35.861  1.00  0.00    -0.203 F 
ATOM     47  F   UNL A   1      37.603  33.432  39.562  1.00  0.00    -0.200 F 
ATOM     48  C   UNL A   1      39.185  35.009  38.799  1.00  0.00     0.200 A 
ATOM     49  F   UNL A   1      40.781  36.554  38.000  1.00  0.00    -0.200 F 
ATOM     50  F   UNL A   1      38.912  35.807  39.841  1.00  0.00    -0.200 F 
ENDBRANCH  26  40
BRANCH  27  51
ATOM     51  C   UNL A   1      40.893  27.857  28.328  1.00  0.00     0.064 A 
ATOM     52  C   UNL A   1      40.308  26.587  28.217  1.00  0.00     0.173 A 
ATOM     53  C   UNL A   1      41.676  28.310  27.259  1.00  0.00     0.173 A 
ATOM     54  F   UNL A   1      39.555  26.104  29.218  1.00  0.00    -0.203 F 
ATOM     55  C   UNL A   1      40.524  25.790  27.097  1.00  0.00     0.198 A 
ATOM     56  C   UNL A   1      41.866  27.524  26.125  1.00  0.00     0.198 A 
ATOM     57  F   UNL A   1      42.243  29.524  27.312  1.00  0.00    -0.203 F 
ATOM     58  F   UNL A   1      39.992  24.561  27.038  1.00  0.00    -0.200 F 
ATOM     59  C   UNL A   1      41.300  26.260  26.048  1.00  0.00     0.200 A 
ATOM     60  F   UNL A   1      42.600  27.991  25.104  1.00  0.00    -0.200 F 
ATOM     61  F   UNL A   1      41.502  25.497  24.967  1.00  0.00    -0.200 F 
ENDBRANCH  27  51
BRANCH  39  62
ATOM     62  C   UNL A   1      44.286  28.207  34.425  1.00  0.00     0.064 A 
ATOM     63  C   UNL A   1      45.582  28.710  34.236  1.00  0.00     0.173 A 
ATOM     64  C   UNL A   1      44.147  26.972  35.075  1.00  0.00     0.173 A 
ATOM     65  F   UNL A   1      45.767  29.885  33.615  1.00  0.00    -0.203 F 
ATOM     66  C   UNL A   1      46.697  27.995  34.661  1.00  0.00     0.198 A 
ATOM     67  C   UNL A   1      45.264  26.273  35.525  1.00  0.00     0.198 A 
ATOM     68  F   UNL A   1      42.928  26.457  35.292  1.00  0.00    -0.203 F 
ATOM     69  F   UNL A   1      47.926  28.478  34.436  1.00  0.00    -0.200 F 
ATOM     70  C   UNL A   1      46.537  26.779  35.309  1.00  0.00     0.200 A 
ATOM     71  F   UNL A   1      45.107  25.111  36.174  1.00  0.00    -0.200 F 
ATOM     72  F   UNL A   1      47.611  26.095  35.726  1.00  0.00    -0.200 F 
ENDBRANCH  39  62
ENDBRANCH  13  14
ENDBRANCH   6   8
ENDBRANCH   3   4
ENDBRANCH   2   3
ENDBRANCH   1   2
BRANCH   1  73
ATOM     73  C   UNL A   1      31.799  29.854  25.426  1.00  0.00     0.002 C 
BRANCH  73  74
ATOM     74  C   UNL A   1      32.982  28.905  25.212  1.00  0.00     0.021 C 
BRANCH  74  75
ATOM     75  C   UNL A   1      32.616  27.426  25.134  1.00  0.00     0.116 C 
BRANCH  75  76
ATOM     76  N   UNL A   1      32.786  26.897  23.791  1.00  0.00    -0.352 N 
ATOM     77  C   UNL A   1      31.843  26.685  22.822  1.00  0.00     0.251 C 
ATOM     78  H   UNL A   1      33.709  26.660  23.545  1.00  0.00     0.163 HD
ATOM     79  O   UNL A   1      32.121  26.043  21.815  1.00  0.00    -0.269 OA
BRANCH  77  80
ATOM     80  C   UNL A   1      30.478  27.214  22.999  1.00  0.00     0.043 A 
ATOM     81  C   UNL A   1      29.513  26.481  23.691  1.00  0.00     0.053 A 
ATOM     82  C   UNL A   1      30.183  28.489  22.500  1.00  0.00     0.023 A 
ATOM     83  C   UNL A   1      28.237  27.007  23.816  1.00  0.00     0.124 A 
ATOM     84  C   UNL A   1      28.897  29.033  22.651  1.00  0.00    -0.012 A 
ATOM     85  F   UNL A   1      27.293  26.293  24.440  1.00  0.00    -0.207 F 
ATOM     86  C   UNL A   1      27.920  28.261  23.302  1.00  0.00     0.048 A 
BRANCH  84  87
ATOM     87  C   UNL A   1      28.593  30.388  22.172  1.00  0.00     0.021 A 
ATOM     88  C   UNL A   1      28.092  30.608  20.875  1.00  0.00     0.012 A 
ATOM     89  C   UNL A   1      28.813  31.508  22.988  1.00  0.00     0.166 A 
ATOM     90  C   UNL A   1      27.822  31.902  20.416  1.00  0.00     0.004 A 
ATOM     91  C   UNL A   1      28.548  32.793  22.527  1.00  0.00     0.159 A 
ATOM     92  F   UNL A   1      29.296  31.348  24.231  1.00  0.00    -0.203 F 
ATOM     93  C   UNL A   1      28.055  32.998  21.245  1.00  0.00     0.042 A 
ATOM     94  F   UNL A   1      28.773  33.849  23.321  1.00  0.00    -0.204 F 
ENDBRANCH  84  87
ENDBRANCH  77  80
ENDBRANCH  75  76
ENDBRANCH  74  75
ENDBRANCH  73  74
ENDBRANCH   1  73
TORSDOF 14
ENDMDL
MODEL 2
REMARK VINA RESULT:     -12.7      0.523      7.287
REMARK SMILES O=C(NCCCCCCNC(=O)c1cc(F)cc(-c2cccc(F)c2F)c1)c1ccc(-c2c3nc(c(-c4c(F)c(F)c(F)c(F)c4F)c4ccc([nH]4)c(-c4c(F)c(F)c(F)c(F)c4F)c4nc(c(-c5c(F)c(F)c(F)c(F)c5F)c5ccc2[nH]5)C=C4)C=C3)cc1
REMARK SMILES IDX 6 1 5 2 4 3 3 4 1 5 2 6 28 8 29 9 90 10 30 11 89 12 31 13
REMARK SMILES IDX 32 14 33 15 83 16 34 17 88 18 82 19 84 20 35 21 87 22 81 23
REMARK SMILES IDX 80 24 36 26 68 27 48 28 67 29 49 30 52 31 66 32 85 33 50 34
REMARK SMILES IDX 51 35 65 37 86 38 53 39 37 40 38 41 46 42 39 43 40 44 44 45
REMARK SMILES IDX 47 46 41 47 42 48 45 49 43 50 69 51 70 52 78 53 71 54 72 55
REMARK SMILES IDX 76 56 79 57 73 58 74 59 77 60 75 61 54 62 55 63 63 64 56 65
REMARK SMILES IDX 57 66 61 67 64 68 58 69 59 70 62 71 60 72 7 73 8 74 9 75
REMARK SMILES IDX 10 76 11 77 12 79 13 80 14 81 27 82 15 83 18 84 16 85 17 86
REMARK SMILES IDX 19 87 20 88 25 89 21 90 23 91 26 92 22 93 24 94
REMARK H PARENT 3 7 84 25 52 36 10 78
REMARK Flexibility Score: inf
ROOT
ATOM      1  C   UNL A   1      31.633  30.633  26.491  1.00  0.00     0.002 C 
ENDROOT
BRANCH   1   2
ATOM      2  C   UNL A   1      31.427  32.113  26.811  1.00  0.00     0.021 C 
BRANCH   2   3
ATOM      3  C   UNL A   1      32.710  32.910  27.002  1.00  0.00     0.116 C 
BRANCH   3   4
ATOM      4  N   UNL A   1      32.478  34.202  27.626  1.00  0.00    -0.352 N 
ATOM      5  O   UNL A   1      32.648  35.788  29.225  1.00  0.00    -0.269 OA
ATOM      6  C   UNL A   1      33.075  34.747  28.734  1.00  0.00     0.251 C 
ATOM      7  H   UNL A   1      31.796  34.766  27.192  1.00  0.00     0.163 HD
BRANCH   6   8
ATOM      8  C   UNL A   1      34.229  34.061  29.353  1.00  0.00     0.039 A 
ATOM      9  C   UNL A   1      34.030  33.047  30.293  1.00  0.00     0.014 A 
ATOM     10  C   UNL A   1      35.525  34.438  28.989  1.00  0.00     0.014 A 
ATOM     11  C   UNL A   1      35.120  32.507  30.966  1.00  0.00     0.010 A 
ATOM     12  C   UNL A   1      36.623  33.828  29.601  1.00  0.00     0.010 A 
ATOM     13  C   UNL A   1      36.427  32.875  30.613  1.00  0.00    -0.014 A 
BRANCH  13  14
ATOM     14  C   UNL A   1      37.574  32.189  31.259  1.00  0.00     0.031 A 
ATOM     15  C   UNL A   1      38.333  31.102  30.554  1.00  0.00     0.074 A 
ATOM     16  C   UNL A   1      37.942  32.581  32.494  1.00  0.00     0.049 A 
ATOM     17  N   UNL A   1      39.359  30.407  30.979  1.00  0.00    -0.248 NA
ATOM     18  C   UNL A   1      37.885  30.741  29.200  1.00  0.00     0.031 C 
ATOM     19  C   UNL A   1      37.273  33.626  33.273  1.00  0.00     0.029 A 
ATOM     20  N   UNL A   1      38.968  32.170  33.303  1.00  0.00    -0.354 N 
ATOM     21  C   UNL A   1      39.671  29.522  29.956  1.00  0.00     0.074 A 
ATOM     22  C   UNL A   1      38.709  29.746  28.897  1.00  0.00     0.031 C 
ATOM     23  C   UNL A   1      37.935  33.808  34.424  1.00  0.00     0.029 A 
ATOM     24  C   UNL A   1      39.030  32.847  34.497  1.00  0.00     0.049 A 
ATOM     25  H   UNL A   1      39.602  31.459  33.053  1.00  0.00     0.167 HD
ATOM     26  C   UNL A   1      40.676  28.615  29.907  1.00  0.00     0.037 A 
ATOM     27  C   UNL A   1      39.860  32.699  35.546  1.00  0.00     0.037 A 
ATOM     28  C   UNL A   1      41.635  28.410  30.963  1.00  0.00     0.049 A 
ATOM     29  C   UNL A   1      40.937  31.657  35.479  1.00  0.00     0.074 A 
ATOM     30  C   UNL A   1      42.707  27.536  30.993  1.00  0.00     0.029 A 
ATOM     31  N   UNL A   1      41.637  29.084  32.177  1.00  0.00    -0.354 N 
ATOM     32  N   UNL A   1      41.236  30.841  34.497  1.00  0.00    -0.248 NA
ATOM     33  C   UNL A   1      41.788  31.507  36.667  1.00  0.00     0.031 C 
ATOM     34  C   UNL A   1      43.324  27.641  32.242  1.00  0.00     0.029 A 
ATOM     35  C   UNL A   1      42.676  28.625  32.971  1.00  0.00     0.049 A 
ATOM     36  H   UNL A   1      40.995  29.785  32.434  1.00  0.00     0.167 HD
ATOM     37  C   UNL A   1      42.317  30.093  34.939  1.00  0.00     0.074 A 
ATOM     38  C   UNL A   1      42.634  30.563  36.272  1.00  0.00     0.031 C 
ATOM     39  C   UNL A   1      42.982  29.104  34.295  1.00  0.00     0.037 A 
BRANCH  26  40
ATOM     40  C   UNL A   1      40.800  27.761  28.678  1.00  0.00     0.064 A 
ATOM     41  C   UNL A   1      41.615  28.168  27.610  1.00  0.00     0.173 A 
ATOM     42  C   UNL A   1      40.044  26.591  28.516  1.00  0.00     0.173 A 
ATOM     43  F   UNL A   1      42.352  29.285  27.709  1.00  0.00    -0.203 F 
ATOM     44  C   UNL A   1      41.653  27.447  26.419  1.00  0.00     0.198 A 
ATOM     45  C   UNL A   1      40.106  25.856  27.334  1.00  0.00     0.198 A 
ATOM     46  F   UNL A   1      39.256  26.153  29.510  1.00  0.00    -0.203 F 
ATOM     47  F   UNL A   1      42.409  27.877  25.400  1.00  0.00    -0.200 F 
ATOM     48  C   UNL A   1      40.900  26.291  26.283  1.00  0.00     0.200 A 
ATOM     49  F   UNL A   1      39.393  24.727  27.211  1.00  0.00    -0.200 F 
ATOM     50  F   UNL A   1      40.941  25.594  25.139  1.00  0.00    -0.200 F 
ENDBRANCH  26  40
BRANCH  27  51
ATOM     51  C   UNL A   1      39.693  33.573  36.735  1.00  0.00     0.064 A 
ATOM     52  C   UNL A   1      38.842  33.211  37.790  1.00  0.00     0.173 A 
ATOM     53  C   UNL A   1      40.341  34.811  36.814  1.00  0.00     0.173 A 
ATOM     54  F   UNL A   1      38.192  32.038  37.757  1.00  0.00    -0.203 F 
ATOM     55  C   UNL A   1      38.624  34.068  38.865  1.00  0.00     0.198 A 
ATOM     56  C   UNL A   1      40.146  35.655  37.905  1.00  0.00     0.198 A 
ATOM     57  F   UNL A   1      41.177  35.194  35.838  1.00  0.00    -0.203 F 
ATOM     58  F   UNL A   1      37.768  33.718  39.836  1.00  0.00    -0.200 F 
ATOM     59  C   UNL A   1      39.279  35.289  38.924  1.00  0.00     0.200 A 
ATOM     60  F   UNL A   1      40.798  36.825  37.970  1.00  0.00    -0.200 F 
ATOM     61  F   UNL A   1      39.075  36.111  39.962  1.00  0.00    -0.200 F 
ENDBRANCH  27  51
BRANCH  39  62
ATOM     62  C   UNL A   1      44.138  28.468  35.010  1.00  0.00     0.064 A 
ATOM     63  C   UNL A   1      45.438  28.970  34.843  1.00  0.00     0.173 A 
ATOM     64  C   UNL A   1      43.972  27.318  35.796  1.00  0.00     0.173 A 
ATOM     65  F   UNL A   1      45.650  30.063  34.096  1.00  0.00    -0.203 F 
ATOM     66  C   UNL A   1      46.531  28.333  35.422  1.00  0.00     0.198 A 
ATOM     67  C   UNL A   1      45.065  26.701  36.398  1.00  0.00     0.198 A 
ATOM     68  F   UNL A   1      42.748  26.810  35.997  1.00  0.00    -0.203 F 
ATOM     69  F   UNL A   1      47.767  28.809  35.218  1.00  0.00    -0.200 F 
ATOM     70  C   UNL A   1      46.344  27.202  36.203  1.00  0.00     0.200 A 
ATOM     71  F   UNL A   1      44.880  25.623  37.173  1.00  0.00    -0.200 F 
ATOM     72  F   UNL A   1      47.397  26.594  36.767  1.00  0.00    -0.200 F 
ENDBRANCH  39  62
ENDBRANCH  13  14
ENDBRANCH   6   8
ENDBRANCH   3   4
ENDBRANCH   2   3
ENDBRANCH   1   2
BRANCH   1  73
ATOM     73  C   UNL A   1      33.072  30.128  26.634  1.00  0.00     0.002 C 
BRANCH  73  74
ATOM     74  C   UNL A   1      33.228  28.611  26.776  1.00  0.00     0.021 C 
BRANCH  74  75
ATOM     75  C   UNL A   1      32.171  27.784  26.049  1.00  0.00     0.116 C 
BRANCH  75  76
ATOM     76  N   UNL A   1      32.659  27.279  24.778  1.00  0.00    -0.352 N 
ATOM     77  C   UNL A   1      31.958  26.987  23.639  1.00  0.00     0.251 C 
ATOM     78  H   UNL A   1      33.630  27.126  24.729  1.00  0.00     0.163 HD
ATOM     79  O   UNL A   1      32.492  26.377  22.719  1.00  0.00    -0.269 OA
BRANCH  77  80
ATOM     80  C   UNL A   1      30.544  27.391  23.526  1.00  0.00     0.043 A 
ATOM     81  C   UNL A   1      29.527  26.575  24.022  1.00  0.00     0.053 A 
ATOM     82  C   UNL A   1      30.246  28.633  22.951  1.00  0.00     0.023 A 
ATOM     83  C   UNL A   1      28.211  26.984  23.876  1.00  0.00     0.124 A 
ATOM     84  C   UNL A   1      28.913  29.059  22.827  1.00  0.00    -0.012 A 
ATOM     85  F   UNL A   1      27.226  26.189  24.311  1.00  0.00    -0.207 F 
ATOM     86  C   UNL A   1      27.896  28.203  23.283  1.00  0.00     0.048 A 
BRANCH  84  87
ATOM     87  C   UNL A   1      28.595  30.380  22.269  1.00  0.00     0.021 A 
ATOM     88  C   UNL A   1      28.071  30.515  20.969  1.00  0.00     0.012 A 
ATOM     89  C   UNL A   1      28.822  31.549  23.009  1.00  0.00     0.166 A 
ATOM     90  C   UNL A   1      27.788  31.777  20.434  1.00  0.00     0.004 A 
ATOM     91  C   UNL A   1      28.544  32.802  22.472  1.00  0.00     0.159 A 
ATOM     92  F   UNL A   1      29.327  31.471  24.251  1.00  0.00    -0.203 F 
ATOM     93  C   UNL A   1      28.028  32.924  21.188  1.00  0.00     0.042 A 
ATOM     94  F   UNL A   1      28.777  33.907  23.194  1.00  0.00    -0.204 F 
ENDBRANCH  84  87
ENDBRANCH  77  80
ENDBRANCH  75  76
ENDBRANCH  74  75
ENDBRANCH  73  74
ENDBRANCH   1  73
TORSDOF 14
ENDMDL
MODEL 3
REMARK VINA RESULT:     -12.5      6.436     11.781
REMARK SMILES O=C(NCCCCCCNC(=O)c1cc(F)cc(-c2cccc(F)c2F)c1)c1ccc(-c2c3nc(c(-c4c(F)c(F)c(F)c(F)c4F)c4ccc([nH]4)c(-c4c(F)c(F)c(F)c(F)c4F)c4nc(c(-c5c(F)c(F)c(F)c(F)c5F)c5ccc2[nH]5)C=C4)C=C3)cc1
REMARK SMILES IDX 6 1 5 2 4 3 3 4 1 5 2 6 28 8 29 9 90 10 30 11 89 12 31 13
REMARK SMILES IDX 32 14 33 15 83 16 34 17 88 18 82 19 84 20 35 21 87 22 81 23
REMARK SMILES IDX 80 24 36 26 68 27 48 28 67 29 49 30 52 31 66 32 85 33 50 34
REMARK SMILES IDX 51 35 65 37 86 38 53 39 37 40 38 41 46 42 39 43 40 44 44 45
REMARK SMILES IDX 47 46 41 47 42 48 45 49 43 50 69 51 70 52 78 53 71 54 72 55
REMARK SMILES IDX 76 56 79 57 73 58 74 59 77 60 75 61 54 62 55 63 63 64 56 65
REMARK SMILES IDX 57 66 61 67 64 68 58 69 59 70 62 71 60 72 7 73 8 74 9 75
REMARK SMILES IDX 10 76 11 77 12 79 13 80 14 81 27 82 15 83 18 84 16 85 17 86
REMARK SMILES IDX 19 87 20 88 25 89 21 90 23 91 26 92 22 93 24 94
REMARK H PARENT 3 7 84 25 52 36 10 78
REMARK Flexibility Score: inf
ROOT
ATOM      1  C   UNL A   1      36.911  20.618  24.978  1.00  0.00     0.002 C 
ENDROOT
BRANCH   1   2
ATOM      2  C   UNL A   1      38.153  19.728  24.947  1.00  0.00     0.021 C 
BRANCH   2   3
ATOM      3  C   UNL A   1      39.225  20.093  25.963  1.00  0.00     0.116 C 
BRANCH   3   4
ATOM      4  N   UNL A   1      40.343  19.165  25.953  1.00  0.00    -0.352 N 
ATOM      5  O   UNL A   1      42.511  18.538  25.873  1.00  0.00    -0.269 OA
ATOM      6  C   UNL A   1      41.686  19.427  26.062  1.00  0.00     0.251 C 
ATOM      7  H   UNL A   1      40.104  18.214  25.856  1.00  0.00     0.163 HD
BRANCH   6   8
ATOM      8  C   UNL A   1      42.138  20.796  26.386  1.00  0.00     0.039 A 
ATOM      9  C   UNL A   1      42.400  21.162  27.708  1.00  0.00     0.014 A 
ATOM     10  C   UNL A   1      42.303  21.724  25.354  1.00  0.00     0.014 A 
ATOM     11  C   UNL A   1      42.691  22.487  28.013  1.00  0.00     0.010 A 
ATOM     12  C   UNL A   1      42.685  23.034  25.653  1.00  0.00     0.010 A 
ATOM     13  C   UNL A   1      42.859  23.431  26.988  1.00  0.00    -0.014 A 
BRANCH  13  14
ATOM     14  C   UNL A   1      43.295  24.808  27.333  1.00  0.00     0.031 A 
ATOM     15  C   UNL A   1      44.698  25.271  27.072  1.00  0.00     0.074 A 
ATOM     16  C   UNL A   1      42.391  25.650  27.868  1.00  0.00     0.049 A 
ATOM     17  N   UNL A   1      45.236  26.442  27.312  1.00  0.00    -0.248 NA
ATOM     18  C   UNL A   1      45.624  24.300  26.468  1.00  0.00     0.031 C 
ATOM     19  C   UNL A   1      40.999  25.304  28.168  1.00  0.00     0.029 A 
ATOM     20  N   UNL A   1      42.492  26.966  28.238  1.00  0.00    -0.354 N 
ATOM     21  C   UNL A   1      46.559  26.346  26.903  1.00  0.00     0.074 A 
ATOM     22  C   UNL A   1      46.755  24.994  26.423  1.00  0.00     0.031 C 
ATOM     23  C   UNL A   1      40.364  26.391  28.628  1.00  0.00     0.029 A 
ATOM     24  C   UNL A   1      41.319  27.490  28.723  1.00  0.00     0.049 A 
ATOM     25  H   UNL A   1      43.325  27.486  28.163  1.00  0.00     0.167 HD
ATOM     26  C   UNL A   1      47.515  27.306  26.920  1.00  0.00     0.037 A 
ATOM     27  C   UNL A   1      41.042  28.714  29.212  1.00  0.00     0.037 A 
ATOM     28  C   UNL A   1      47.304  28.652  27.389  1.00  0.00     0.049 A 
ATOM     29  C   UNL A   1      42.132  29.742  29.257  1.00  0.00     0.074 A 
ATOM     30  C   UNL A   1      48.203  29.704  27.417  1.00  0.00     0.029 A 
ATOM     31  N   UNL A   1      46.113  29.133  27.915  1.00  0.00    -0.354 N 
ATOM     32  N   UNL A   1      43.373  29.646  28.846  1.00  0.00    -0.248 NA
ATOM     33  C   UNL A   1      41.790  31.046  29.839  1.00  0.00     0.031 C 
ATOM     34  C   UNL A   1      47.575  30.802  28.009  1.00  0.00     0.029 A 
ATOM     35  C   UNL A   1      46.264  30.457  28.294  1.00  0.00     0.049 A 
ATOM     36  H   UNL A   1      45.284  28.610  28.005  1.00  0.00     0.167 HD
ATOM     37  C   UNL A   1      43.957  30.878  29.103  1.00  0.00     0.074 A 
ATOM     38  C   UNL A   1      42.928  31.712  29.690  1.00  0.00     0.031 C 
ATOM     39  C   UNL A   1      45.231  31.277  28.875  1.00  0.00     0.037 A 
BRANCH  26  40
ATOM     40  C   UNL A   1      48.886  26.948  26.424  1.00  0.00     0.064 A 
ATOM     41  C   UNL A   1      49.213  27.101  25.067  1.00  0.00     0.173 A 
ATOM     42  C   UNL A   1      49.845  26.367  27.267  1.00  0.00     0.173 A 
ATOM     43  F   UNL A   1      48.330  27.644  24.216  1.00  0.00    -0.203 F 
ATOM     44  C   UNL A   1      50.441  26.668  24.571  1.00  0.00     0.198 A 
ATOM     45  C   UNL A   1      51.082  25.960  26.772  1.00  0.00     0.198 A 
ATOM     46  F   UNL A   1      49.586  26.205  28.574  1.00  0.00    -0.203 F 
ATOM     47  F   UNL A   1      50.714  26.790  23.265  1.00  0.00    -0.200 F 
ATOM     48  C   UNL A   1      51.374  26.101  25.424  1.00  0.00     0.200 A 
ATOM     49  F   UNL A   1      51.992  25.430  27.602  1.00  0.00    -0.200 F 
ATOM     50  F   UNL A   1      52.557  25.689  24.946  1.00  0.00    -0.200 F 
ENDBRANCH  26  40
BRANCH  27  51
ATOM     51  C   UNL A   1      39.667  29.013  29.686  1.00  0.00     0.064 A 
ATOM     52  C   UNL A   1      39.293  28.794  31.021  1.00  0.00     0.173 A 
ATOM     53  C   UNL A   1      38.685  29.477  28.801  1.00  0.00     0.173 A 
ATOM     54  F   UNL A   1      40.196  28.344  31.906  1.00  0.00    -0.203 F 
ATOM     55  C   UNL A   1      37.983  28.998  31.445  1.00  0.00     0.198 A 
ATOM     56  C   UNL A   1      37.382  29.710  29.234  1.00  0.00     0.198 A 
ATOM     57  F   UNL A   1      38.998  29.717  27.520  1.00  0.00    -0.203 F 
ATOM     58  F   UNL A   1      37.642  28.734  32.714  1.00  0.00    -0.200 F 
ATOM     59  C   UNL A   1      37.028  29.460  30.552  1.00  0.00     0.200 A 
ATOM     60  F   UNL A   1      36.467  30.177  28.373  1.00  0.00    -0.200 F 
ATOM     61  F   UNL A   1      35.769  29.664  30.960  1.00  0.00    -0.200 F 
ENDBRANCH  27  51
BRANCH  39  62
ATOM     62  C   UNL A   1      45.592  32.688  29.240  1.00  0.00     0.064 A 
ATOM     63  C   UNL A   1      46.075  32.987  30.523  1.00  0.00     0.173 A 
ATOM     64  C   UNL A   1      45.386  33.751  28.349  1.00  0.00     0.173 A 
ATOM     65  F   UNL A   1      46.283  32.005  31.413  1.00  0.00    -0.203 F 
ATOM     66  C   UNL A   1      46.323  34.302  30.906  1.00  0.00     0.198 A 
ATOM     67  C   UNL A   1      45.663  35.062  28.727  1.00  0.00     0.198 A 
ATOM     68  F   UNL A   1      44.939  33.514  27.107  1.00  0.00    -0.203 F 
ATOM     69  F   UNL A   1      46.749  34.566  32.149  1.00  0.00    -0.200 F 
ATOM     70  C   UNL A   1      46.120  35.337  30.007  1.00  0.00     0.200 A 
ATOM     71  F   UNL A   1      45.490  36.060  27.848  1.00  0.00    -0.200 F 
ATOM     72  F   UNL A   1      46.367  36.603  30.374  1.00  0.00    -0.200 F 
ENDBRANCH  39  62
ENDBRANCH  13  14
ENDBRANCH   6   8
ENDBRANCH   3   4
ENDBRANCH   2   3
ENDBRANCH   1   2
BRANCH   1  73
ATOM     73  C   UNL A   1      37.130  22.028  25.534  1.00  0.00     0.002 C 
BRANCH  73  74
ATOM     74  C   UNL A   1      36.870  23.174  24.551  1.00  0.00     0.021 C 
BRANCH  74  75
ATOM     75  C   UNL A   1      35.411  23.353  24.141  1.00  0.00     0.116 C 
BRANCH  75  76
ATOM     76  N   UNL A   1      34.526  23.381  25.292  1.00  0.00    -0.352 N 
ATOM     77  C   UNL A   1      33.383  22.663  25.519  1.00  0.00     0.251 C 
ATOM     78  H   UNL A   1      34.786  24.003  26.010  1.00  0.00     0.163 HD
ATOM     79  O   UNL A   1      32.642  22.952  26.452  1.00  0.00    -0.269 OA
BRANCH  77  80
ATOM     80  C   UNL A   1      33.029  21.546  24.623  1.00  0.00     0.043 A 
ATOM     81  C   UNL A   1      32.556  21.789  23.333  1.00  0.00     0.053 A 
ATOM     82  C   UNL A   1      33.223  20.235  25.076  1.00  0.00     0.023 A 
ATOM     83  C   UNL A   1      32.216  20.711  22.531  1.00  0.00     0.124 A 
ATOM     84  C   UNL A   1      32.904  19.142  24.253  1.00  0.00    -0.012 A 
ATOM     85  F   UNL A   1      31.721  20.934  21.308  1.00  0.00    -0.207 F 
ATOM     86  C   UNL A   1      32.378  19.402  22.977  1.00  0.00     0.048 A 
BRANCH  84  87
ATOM     87  C   UNL A   1      33.149  17.766  24.704  1.00  0.00     0.021 A 
ATOM     88  C   UNL A   1      32.102  16.962  25.193  1.00  0.00     0.012 A 
ATOM     89  C   UNL A   1      34.439  17.217  24.679  1.00  0.00     0.166 A 
ATOM     90  C   UNL A   1      32.343  15.657  25.639  1.00  0.00     0.004 A 
ATOM     91  C   UNL A   1      34.677  15.922  25.127  1.00  0.00     0.159 A 
ATOM     92  F   UNL A   1      35.472  17.949  24.227  1.00  0.00    -0.203 F 
ATOM     93  C   UNL A   1      33.636  15.138  25.608  1.00  0.00     0.042 A 
ATOM     94  F   UNL A   1      35.919  15.421  25.102  1.00  0.00    -0.204 F 
ENDBRANCH  84  87
ENDBRANCH  77  80
ENDBRANCH  75  76
ENDBRANCH  74  75
ENDBRANCH  73  74
ENDBRANCH   1  73
TORSDOF 14
ENDMDL
