MODEL 1
REMARK VINA RESULT:     -13.3      0.000      0.000
REMARK SMILES O=C(NCCCCCCNC(=O)c1ccc(-c2c3nc(c(-c4c(F)c(F)c(F)c(F)c4F)c4ccc([nH]4)c(-c4c(F)c(F)c(F)c(F)c4F)c4nc(c(-c5c(F)c(F)c(F)c(F)c5F)c5ccc2[nH]5)C=C4)C=C3)cc1)C1=Cc2c(ccc(Cl)c2Oc2ccccc2)O[C@H]1C(F)(F)F
REMARK SMILES IDX 6 1 5 2 4 3 3 4 1 5 2 6 76 8 77 9 93 10 78 11 92 12 79 13
REMARK SMILES IDX 84 14 80 15 82 16 81 17 83 18 94 19 95 20 96 21 97 22 85 23
REMARK SMILES IDX 86 24 87 25 91 26 88 27 90 28 89 29 7 30 8 31 9 32 10 33
REMARK SMILES IDX 11 34 12 36 13 37 14 38 75 39 15 40 74 41 16 42 17 43 18 44
REMARK SMILES IDX 68 45 19 46 73 47 67 48 69 49 20 50 72 51 66 52 65 53 21 55
REMARK SMILES IDX 53 56 33 57 52 58 34 59 37 60 51 61 70 62 35 63 36 64 50 66
REMARK SMILES IDX 71 67 38 68 22 69 23 70 31 71 24 72 25 73 29 74 32 75 26 76
REMARK SMILES IDX 27 77 30 78 28 79 54 80 55 81 63 82 56 83 57 84 61 85 64 86
REMARK SMILES IDX 58 87 59 88 62 89 60 90 39 91 40 92 48 93 41 94 42 95 46 96
REMARK SMILES IDX 49 97 43 98 44 99 47 100 45 101
REMARK H PARENT 3 7 10 35 69 54 37 65
REMARK Flexibility Score: inf
ROOT
ATOM      1  C   UNL A   1      32.053  29.296  26.990  1.00  0.00     0.002 C 
ENDROOT
BRANCH   1   2
ATOM      2  C   UNL A   1      32.575  27.989  26.390  1.00  0.00     0.021 C 
BRANCH   2   3
ATOM      3  C   UNL A   1      31.515  26.950  26.033  1.00  0.00     0.116 C 
BRANCH   3   4
ATOM      4  N   UNL A   1      31.534  25.762  26.868  1.00  0.00    -0.352 N 
ATOM      5  O   UNL A   1      31.525  23.558  27.339  1.00  0.00    -0.270 OA
ATOM      6  C   UNL A   1      31.652  24.449  26.502  1.00  0.00     0.251 C 
ATOM      7  H   UNL A   1      31.453  25.925  27.836  1.00  0.00     0.163 HD
BRANCH   6   8
ATOM      8  C   UNL A   1      31.912  24.076  25.097  1.00  0.00     0.067 C 
ATOM      9  C   UNL A   1      32.207  22.813  24.774  1.00  0.00     0.029 C 
ATOM     10  C   UNL A   1      32.175  25.138  24.080  1.00  0.00     0.314 C 
ATOM     11  C   UNL A   1      33.632  22.694  24.376  1.00  0.00     0.061 A 
ATOM     12  O   UNL A   1      33.534  25.017  23.544  1.00  0.00    -0.475 OA
ATOM     13  C   UNL A   1      34.220  23.843  23.791  1.00  0.00     0.131 A 
ATOM     14  C   UNL A   1      34.424  21.577  24.734  1.00  0.00     0.156 A 
ATOM     15  C   UNL A   1      35.593  23.890  23.575  1.00  0.00     0.049 A 
ATOM     16  C   UNL A   1      35.814  21.672  24.542  1.00  0.00     0.084 A 
ATOM     17  C   UNL A   1      36.391  22.816  23.971  1.00  0.00     0.028 A 
ATOM     18  Cl  UNL A   1      36.886  20.424  25.077  1.00  0.00    -0.080 Cl
BRANCH  10  19
ATOM     19  C   UNL A   1      31.141  25.116  22.938  1.00  0.00     0.429 C 
ATOM     20  F   UNL A   1      30.167  24.197  23.135  1.00  0.00    -0.167 F 
ATOM     21  F   UNL A   1      30.532  26.318  22.807  1.00  0.00    -0.167 F 
ATOM     22  F   UNL A   1      31.717  24.826  21.744  1.00  0.00    -0.167 F 
ENDBRANCH  10  19
BRANCH  14  23
ATOM     23  O   UNL A   1      33.986  20.425  25.384  1.00  0.00    -0.455 OA
BRANCH  23  24
ATOM     24  C   UNL A   1      33.644  19.330  24.625  1.00  0.00     0.127 A 
ATOM     25  C   UNL A   1      32.529  19.424  23.787  1.00  0.00     0.047 A 
ATOM     26  C   UNL A   1      34.448  18.188  24.623  1.00  0.00     0.047 A 
ATOM     27  C   UNL A   1      32.308  18.429  22.833  1.00  0.00     0.004 A 
ATOM     28  C   UNL A   1      34.211  17.191  23.675  1.00  0.00     0.004 A 
ATOM     29  C   UNL A   1      33.163  17.327  22.762  1.00  0.00     0.000 A 
ENDBRANCH  23  24
ENDBRANCH  14  23
ENDBRANCH   6   8
ENDBRANCH   3   4
ENDBRANCH   2   3
ENDBRANCH   1   2
BRANCH   1  30
ATOM     30  C   UNL A   1      31.496  30.335  26.007  1.00  0.00     0.002 C 
BRANCH  30  31
ATOM     31  C   UNL A   1      31.362  31.776  26.510  1.00  0.00     0.021 C 
BRANCH  31  32
ATOM     32  C   UNL A   1      32.659  32.507  26.856  1.00  0.00     0.116 C 
BRANCH  32  33
ATOM     33  N   UNL A   1      32.442  33.843  27.385  1.00  0.00    -0.352 N 
ATOM     34  C   UNL A   1      33.072  34.511  28.402  1.00  0.00     0.251 C 
ATOM     35  H   UNL A   1      31.726  34.350  26.939  1.00  0.00     0.163 HD
ATOM     36  O   UNL A   1      32.643  35.613  28.754  1.00  0.00    -0.269 OA
BRANCH  34  37
ATOM     37  C   UNL A   1      34.245  33.939  29.105  1.00  0.00     0.039 A 
ATOM     38  C   UNL A   1      34.020  32.991  30.111  1.00  0.00     0.014 A 
ATOM     39  C   UNL A   1      35.550  34.363  28.839  1.00  0.00     0.014 A 
ATOM     40  C   UNL A   1      35.096  32.436  30.810  1.00  0.00     0.010 A 
ATOM     41  C   UNL A   1      36.629  33.764  29.495  1.00  0.00     0.010 A 
ATOM     42  C   UNL A   1      36.414  32.799  30.493  1.00  0.00    -0.014 A 
BRANCH  42  43
ATOM     43  C   UNL A   1      37.569  32.189  31.203  1.00  0.00     0.031 A 
ATOM     44  C   UNL A   1      38.334  31.052  30.578  1.00  0.00     0.074 A 
ATOM     45  C   UNL A   1      37.904  32.621  32.434  1.00  0.00     0.049 A 
ATOM     46  N   UNL A   1      39.333  30.357  31.063  1.00  0.00    -0.248 NA
ATOM     47  C   UNL A   1      37.903  30.626  29.238  1.00  0.00     0.031 C 
ATOM     48  C   UNL A   1      37.226  33.691  33.166  1.00  0.00     0.029 A 
ATOM     49  N   UNL A   1      38.895  32.207  33.291  1.00  0.00    -0.354 N 
ATOM     50  C   UNL A   1      39.635  29.403  30.100  1.00  0.00     0.074 A 
ATOM     51  C   UNL A   1      38.687  29.580  29.020  1.00  0.00     0.031 C 
ATOM     52  C   UNL A   1      37.835  33.867  34.350  1.00  0.00     0.029 A 
ATOM     53  C   UNL A   1      38.920  32.899  34.478  1.00  0.00     0.049 A 
ATOM     54  H   UNL A   1      39.526  31.484  33.075  1.00  0.00     0.167 HD
ATOM     55  C   UNL A   1      40.622  28.475  30.108  1.00  0.00     0.037 A 
ATOM     56  C   UNL A   1      39.725  32.765  35.551  1.00  0.00     0.037 A 
ATOM     57  C   UNL A   1      41.587  28.322  31.167  1.00  0.00     0.049 A 
ATOM     58  C   UNL A   1      40.807  31.720  35.536  1.00  0.00     0.074 A 
ATOM     59  C   UNL A   1      42.672  27.464  31.228  1.00  0.00     0.029 A 
ATOM     60  N   UNL A   1      41.581  29.043  32.352  1.00  0.00    -0.354 N 
ATOM     61  N   UNL A   1      41.127  30.871  34.590  1.00  0.00    -0.248 NA
ATOM     62  C   UNL A   1      41.644  31.618  36.741  1.00  0.00     0.031 C 
ATOM     63  C   UNL A   1      43.292  27.629  32.471  1.00  0.00     0.029 A 
ATOM     64  C   UNL A   1      42.625  28.628  33.163  1.00  0.00     0.049 A 
ATOM     65  H   UNL A   1      40.930  29.745  32.582  1.00  0.00     0.167 HD
ATOM     66  C   UNL A   1      42.218  30.157  35.070  1.00  0.00     0.074 A 
ATOM     67  C   UNL A   1      42.512  30.680  36.388  1.00  0.00     0.031 C 
ATOM     68  C   UNL A   1      42.914  29.161  34.470  1.00  0.00     0.037 A 
BRANCH  55  69
ATOM     69  C   UNL A   1      40.709  27.541  28.934  1.00  0.00     0.064 A 
ATOM     70  C   UNL A   1      41.622  27.750  27.890  1.00  0.00     0.173 A 
ATOM     71  C   UNL A   1      39.894  26.400  28.875  1.00  0.00     0.173 A 
ATOM     72  F   UNL A   1      42.418  28.830  27.895  1.00  0.00    -0.203 F 
ATOM     73  C   UNL A   1      41.694  26.869  26.814  1.00  0.00     0.198 A 
ATOM     74  C   UNL A   1      39.991  25.505  27.812  1.00  0.00     0.198 A 
ATOM     75  F   UNL A   1      39.010  26.148  29.851  1.00  0.00    -0.203 F 
ATOM     76  F   UNL A   1      42.540  27.116  25.803  1.00  0.00    -0.200 F 
ATOM     77  C   UNL A   1      40.883  25.744  26.779  1.00  0.00     0.200 A 
ATOM     78  F   UNL A   1      39.215  24.411  27.786  1.00  0.00    -0.200 F 
ATOM     79  F   UNL A   1      40.959  24.894  25.745  1.00  0.00    -0.200 F 
ENDBRANCH  55  69
BRANCH  56  80
ATOM     80  C   UNL A   1      39.558  33.666  36.721  1.00  0.00     0.064 A 
ATOM     81  C   UNL A   1      40.198  34.913  36.761  1.00  0.00     0.173 A 
ATOM     82  C   UNL A   1      38.767  33.301  37.820  1.00  0.00     0.173 A 
ATOM     83  F   UNL A   1      40.983  35.294  35.743  1.00  0.00    -0.203 F 
ATOM     84  C   UNL A   1      40.066  35.754  37.863  1.00  0.00     0.198 A 
ATOM     85  C   UNL A   1      38.614  34.154  38.909  1.00  0.00     0.198 A 
ATOM     86  F   UNL A   1      38.134  32.119  37.829  1.00  0.00    -0.203 F 
ATOM     87  F   UNL A   1      40.722  36.921  37.895  1.00  0.00    -0.200 F 
ATOM     88  C   UNL A   1      39.269  35.376  38.934  1.00  0.00     0.200 A 
ATOM     89  F   UNL A   1      37.835  33.791  39.938  1.00  0.00    -0.200 F 
ATOM     90  F   UNL A   1      39.141  36.187  39.993  1.00  0.00    -0.200 F 
ENDBRANCH  56  80
BRANCH  68  91
ATOM     91  C   UNL A   1      44.086  28.593  35.216  1.00  0.00     0.064 A 
ATOM     92  C   UNL A   1      45.364  29.165  35.126  1.00  0.00     0.173 A 
ATOM     93  C   UNL A   1      43.921  27.484  36.060  1.00  0.00     0.173 A 
ATOM     94  F   UNL A   1      45.577  30.216  34.321  1.00  0.00    -0.203 F 
ATOM     95  C   UNL A   1      46.438  28.634  35.837  1.00  0.00     0.198 A 
ATOM     96  C   UNL A   1      44.990  26.974  36.792  1.00  0.00     0.198 A 
ATOM     97  F   UNL A   1      42.718  26.903  36.186  1.00  0.00    -0.203 F 
ATOM     98  F   UNL A   1      47.659  29.169  35.701  1.00  0.00    -0.200 F 
ATOM     99  C   UNL A   1      46.248  27.544  36.674  1.00  0.00     0.200 A 
ATOM    100  F   UNL A   1      44.803  25.929  37.610  1.00  0.00    -0.200 F 
ATOM    101  F   UNL A   1      47.281  27.039  37.361  1.00  0.00    -0.200 F 
ENDBRANCH  68  91
ENDBRANCH  42  43
ENDBRANCH  34  37
ENDBRANCH  32  33
ENDBRANCH  31  32
ENDBRANCH  30  31
ENDBRANCH   1  30
TORSDOF 16
ENDMDL
MODEL 2
REMARK VINA RESULT:     -13.2      0.602      6.937
REMARK SMILES O=C(NCCCCCCNC(=O)c1ccc(-c2c3nc(c(-c4c(F)c(F)c(F)c(F)c4F)c4ccc([nH]4)c(-c4c(F)c(F)c(F)c(F)c4F)c4nc(c(-c5c(F)c(F)c(F)c(F)c5F)c5ccc2[nH]5)C=C4)C=C3)cc1)C1=Cc2c(ccc(Cl)c2Oc2ccccc2)O[C@H]1C(F)(F)F
REMARK SMILES IDX 6 1 5 2 4 3 3 4 1 5 2 6 76 8 77 9 93 10 78 11 92 12 79 13
REMARK SMILES IDX 84 14 80 15 82 16 81 17 83 18 94 19 95 20 96 21 97 22 85 23
REMARK SMILES IDX 86 24 87 25 91 26 88 27 90 28 89 29 7 30 8 31 9 32 10 33
REMARK SMILES IDX 11 34 12 36 13 37 14 38 75 39 15 40 74 41 16 42 17 43 18 44
REMARK SMILES IDX 68 45 19 46 73 47 67 48 69 49 20 50 72 51 66 52 65 53 21 55
REMARK SMILES IDX 53 56 33 57 52 58 34 59 37 60 51 61 70 62 35 63 36 64 50 66
REMARK SMILES IDX 71 67 38 68 22 69 23 70 31 71 24 72 25 73 29 74 32 75 26 76
REMARK SMILES IDX 27 77 30 78 28 79 54 80 55 81 63 82 56 83 57 84 61 85 64 86
REMARK SMILES IDX 58 87 59 88 62 89 60 90 39 91 40 92 48 93 41 94 42 95 46 96
REMARK SMILES IDX 49 97 43 98 44 99 47 100 45 101
REMARK H PARENT 3 7 10 35 69 54 37 65
REMARK Flexibility Score: inf
ROOT
ATOM      1  C   UNL A   1      31.788  29.325  26.914  1.00  0.00     0.002 C 
ENDROOT
BRANCH   1   2
ATOM      2  C   UNL A   1      32.320  28.032  26.293  1.00  0.00     0.021 C 
BRANCH   2   3
ATOM      3  C   UNL A   1      31.284  26.941  26.036  1.00  0.00     0.116 C 
BRANCH   3   4
ATOM      4  N   UNL A   1      31.426  25.768  26.883  1.00  0.00    -0.352 N 
ATOM      5  O   UNL A   1      31.608  23.577  27.376  1.00  0.00    -0.270 OA
ATOM      6  C   UNL A   1      31.634  24.464  26.526  1.00  0.00     0.251 C 
ATOM      7  H   UNL A   1      31.365  25.937  27.850  1.00  0.00     0.163 HD
BRANCH   6   8
ATOM      8  C   UNL A   1      31.875  24.095  25.117  1.00  0.00     0.067 C 
ATOM      9  C   UNL A   1      32.164  22.832  24.787  1.00  0.00     0.029 C 
ATOM     10  C   UNL A   1      32.127  25.158  24.100  1.00  0.00     0.314 C 
ATOM     11  C   UNL A   1      33.584  22.711  24.371  1.00  0.00     0.061 A 
ATOM     12  O   UNL A   1      33.479  25.037  23.545  1.00  0.00    -0.475 OA
ATOM     13  C   UNL A   1      34.166  23.861  23.780  1.00  0.00     0.131 A 
ATOM     14  C   UNL A   1      34.379  21.592  24.715  1.00  0.00     0.156 A 
ATOM     15  C   UNL A   1      35.536  23.907  23.547  1.00  0.00     0.049 A 
ATOM     16  C   UNL A   1      35.767  21.685  24.505  1.00  0.00     0.084 A 
ATOM     17  C   UNL A   1      36.338  22.830  23.929  1.00  0.00     0.028 A 
ATOM     18  Cl  UNL A   1      36.844  20.434  25.024  1.00  0.00    -0.080 Cl
BRANCH  10  19
ATOM     19  C   UNL A   1      31.079  25.141  22.970  1.00  0.00     0.429 C 
ATOM     20  F   UNL A   1      31.641  25.086  21.740  1.00  0.00    -0.167 F 
ATOM     21  F   UNL A   1      30.261  24.067  23.080  1.00  0.00    -0.167 F 
ATOM     22  F   UNL A   1      30.295  26.247  22.994  1.00  0.00    -0.167 F 
ENDBRANCH  10  19
BRANCH  14  23
ATOM     23  O   UNL A   1      33.948  20.439  25.367  1.00  0.00    -0.455 OA
BRANCH  23  24
ATOM     24  C   UNL A   1      33.624  19.336  24.613  1.00  0.00     0.127 A 
ATOM     25  C   UNL A   1      32.526  19.419  23.751  1.00  0.00     0.047 A 
ATOM     26  C   UNL A   1      34.430  18.197  24.637  1.00  0.00     0.047 A 
ATOM     27  C   UNL A   1      32.326  18.416  22.802  1.00  0.00     0.004 A 
ATOM     28  C   UNL A   1      34.216  17.191  23.694  1.00  0.00     0.004 A 
ATOM     29  C   UNL A   1      33.186  17.315  22.759  1.00  0.00     0.000 A 
ENDBRANCH  23  24
ENDBRANCH  14  23
ENDBRANCH   6   8
ENDBRANCH   3   4
ENDBRANCH   2   3
ENDBRANCH   1   2
BRANCH   1  30
ATOM     30  C   UNL A   1      31.403  30.451  25.945  1.00  0.00     0.002 C 
BRANCH  30  31
ATOM     31  C   UNL A   1      31.340  31.873  26.511  1.00  0.00     0.021 C 
BRANCH  31  32
ATOM     32  C   UNL A   1      32.671  32.525  26.884  1.00  0.00     0.116 C 
BRANCH  32  33
ATOM     33  N   UNL A   1      32.520  33.841  27.479  1.00  0.00    -0.352 N 
ATOM     34  C   UNL A   1      33.212  34.443  28.497  1.00  0.00     0.251 C 
ATOM     35  H   UNL A   1      31.803  34.391  27.086  1.00  0.00     0.163 HD
ATOM     36  O   UNL A   1      32.833  35.541  28.916  1.00  0.00    -0.269 OA
BRANCH  34  37
ATOM     37  C   UNL A   1      34.392  33.804  29.126  1.00  0.00     0.039 A 
ATOM     38  C   UNL A   1      34.180  32.748  30.020  1.00  0.00     0.014 A 
ATOM     39  C   UNL A   1      35.693  34.264  28.902  1.00  0.00     0.014 A 
ATOM     40  C   UNL A   1      35.263  32.126  30.647  1.00  0.00     0.010 A 
ATOM     41  C   UNL A   1      36.780  33.603  29.480  1.00  0.00     0.010 A 
ATOM     42  C   UNL A   1      36.577  32.531  30.365  1.00  0.00    -0.014 A 
BRANCH  42  43
ATOM     43  C   UNL A   1      37.741  31.853  30.995  1.00  0.00     0.031 A 
ATOM     44  C   UNL A   1      38.174  32.219  32.389  1.00  0.00     0.074 A 
ATOM     45  C   UNL A   1      38.443  30.941  30.296  1.00  0.00     0.049 A 
ATOM     46  N   UNL A   1      39.192  31.778  33.086  1.00  0.00    -0.248 NA
ATOM     47  C   UNL A   1      37.366  33.232  33.086  1.00  0.00     0.031 C 
ATOM     48  C   UNL A   1      38.150  30.518  28.926  1.00  0.00     0.029 A 
ATOM     49  N   UNL A   1      39.554  30.208  30.640  1.00  0.00    -0.354 N 
ATOM     50  C   UNL A   1      39.159  32.472  34.288  1.00  0.00     0.074 A 
ATOM     51  C   UNL A   1      38.046  33.393  34.213  1.00  0.00     0.031 C 
ATOM     52  C   UNL A   1      39.041  29.585  28.555  1.00  0.00     0.029 A 
ATOM     53  C   UNL A   1      39.991  29.370  29.643  1.00  0.00     0.049 A 
ATOM     54  H   UNL A   1      39.995  30.278  31.517  1.00  0.00     0.167 HD
ATOM     55  C   UNL A   1      39.973  32.341  35.364  1.00  0.00     0.037 A 
ATOM     56  C   UNL A   1      41.041  28.526  29.608  1.00  0.00     0.037 A 
ATOM     57  C   UNL A   1      41.060  31.399  35.453  1.00  0.00     0.049 A 
ATOM     58  C   UNL A   1      41.933  28.408  30.814  1.00  0.00     0.074 A 
ATOM     59  C   UNL A   1      41.889  31.139  36.530  1.00  0.00     0.029 A 
ATOM     60  N   UNL A   1      41.470  30.566  34.423  1.00  0.00    -0.354 N 
ATOM     61  N   UNL A   1      41.849  29.018  31.970  1.00  0.00    -0.248 NA
ATOM     62  C   UNL A   1      43.067  27.477  30.708  1.00  0.00     0.031 C 
ATOM     63  C   UNL A   1      42.832  30.184  36.137  1.00  0.00     0.029 A 
ATOM     64  C   UNL A   1      42.559  29.812  34.829  1.00  0.00     0.049 A 
ATOM     65  H   UNL A   1      41.049  30.518  33.534  1.00  0.00     0.167 HD
ATOM     66  C   UNL A   1      42.896  28.525  32.739  1.00  0.00     0.074 A 
ATOM     67  C   UNL A   1      43.595  27.557  31.921  1.00  0.00     0.031 C 
ATOM     68  C   UNL A   1      43.243  28.845  34.010  1.00  0.00     0.037 A 
BRANCH  55  69
ATOM     69  C   UNL A   1      39.725  33.246  36.538  1.00  0.00     0.064 A 
ATOM     70  C   UNL A   1      40.385  34.476  36.674  1.00  0.00     0.173 A 
ATOM     71  C   UNL A   1      38.785  32.893  37.519  1.00  0.00     0.173 A 
ATOM     72  F   UNL A   1      41.299  34.857  35.769  1.00  0.00    -0.203 F 
ATOM     73  C   UNL A   1      40.136  35.305  37.765  1.00  0.00     0.198 A 
ATOM     74  C   UNL A   1      38.517  33.739  38.592  1.00  0.00     0.198 A 
ATOM     75  F   UNL A   1      38.121  31.732  37.432  1.00  0.00    -0.203 F 
ATOM     76  F   UNL A   1      40.815  36.454  37.900  1.00  0.00    -0.200 F 
ATOM     77  C   UNL A   1      39.198  34.939  38.719  1.00  0.00     0.200 A 
ATOM     78  F   UNL A   1      37.600  33.389  39.506  1.00  0.00    -0.200 F 
ATOM     79  F   UNL A   1      38.955  35.742  39.765  1.00  0.00    -0.200 F 
ENDBRANCH  55  69
BRANCH  56  80
ATOM     80  C   UNL A   1      41.290  27.700  28.398  1.00  0.00     0.064 A 
ATOM     81  C   UNL A   1      42.181  28.134  27.407  1.00  0.00     0.173 A 
ATOM     82  C   UNL A   1      40.642  26.472  28.203  1.00  0.00     0.173 A 
ATOM     83  F   UNL A   1      42.805  29.313  27.539  1.00  0.00    -0.203 F 
ATOM     84  C   UNL A   1      42.403  27.378  26.258  1.00  0.00     0.198 A 
ATOM     85  C   UNL A   1      40.886  25.704  27.067  1.00  0.00     0.198 A 
ATOM     86  F   UNL A   1      39.781  26.013  29.123  1.00  0.00    -0.203 F 
ATOM     87  F   UNL A   1      43.227  27.836  25.306  1.00  0.00    -0.200 F 
ATOM     88  C   UNL A   1      41.760  26.160  26.092  1.00  0.00     0.200 A 
ATOM     89  F   UNL A   1      40.270  24.523  26.914  1.00  0.00    -0.200 F 
ATOM     90  F   UNL A   1      41.975  25.432  24.988  1.00  0.00    -0.200 F 
ENDBRANCH  56  80
BRANCH  68  91
ATOM     91  C   UNL A   1      44.409  28.116  34.610  1.00  0.00     0.064 A 
ATOM     92  C   UNL A   1      45.714  28.624  34.534  1.00  0.00     0.173 A 
ATOM     93  C   UNL A   1      44.213  26.911  35.303  1.00  0.00     0.173 A 
ATOM     94  F   UNL A   1      45.957  29.764  33.870  1.00  0.00    -0.203 F 
ATOM     95  C   UNL A   1      46.783  27.942  35.110  1.00  0.00     0.198 A 
ATOM     96  C   UNL A   1      45.279  26.247  35.903  1.00  0.00     0.198 A 
ATOM     97  F   UNL A   1      42.983  26.386  35.411  1.00  0.00    -0.203 F 
ATOM     98  F   UNL A   1      48.028  28.423  34.986  1.00  0.00    -0.200 F 
ATOM     99  C   UNL A   1      46.564  26.758  35.800  1.00  0.00     0.200 A 
ATOM    100  F   UNL A   1      45.064  25.111  36.580  1.00  0.00    -0.200 F 
ATOM    101  F   UNL A   1      47.592  26.107  36.358  1.00  0.00    -0.200 F 
ENDBRANCH  68  91
ENDBRANCH  42  43
ENDBRANCH  34  37
ENDBRANCH  32  33
ENDBRANCH  31  32
ENDBRANCH  30  31
ENDBRANCH   1  30
TORSDOF 16
ENDMDL
MODEL 3
REMARK VINA RESULT:     -13.2      2.829      8.199
REMARK SMILES O=C(NCCCCCCNC(=O)c1ccc(-c2c3nc(c(-c4c(F)c(F)c(F)c(F)c4F)c4ccc([nH]4)c(-c4c(F)c(F)c(F)c(F)c4F)c4nc(c(-c5c(F)c(F)c(F)c(F)c5F)c5ccc2[nH]5)C=C4)C=C3)cc1)C1=Cc2c(ccc(Cl)c2Oc2ccccc2)O[C@H]1C(F)(F)F
REMARK SMILES IDX 6 1 5 2 4 3 3 4 1 5 2 6 76 8 77 9 93 10 78 11 92 12 79 13
REMARK SMILES IDX 84 14 80 15 82 16 81 17 83 18 94 19 95 20 96 21 97 22 85 23
REMARK SMILES IDX 86 24 87 25 91 26 88 27 90 28 89 29 7 30 8 31 9 32 10 33
REMARK SMILES IDX 11 34 12 36 13 37 14 38 75 39 15 40 74 41 16 42 17 43 18 44
REMARK SMILES IDX 68 45 19 46 73 47 67 48 69 49 20 50 72 51 66 52 65 53 21 55
REMARK SMILES IDX 53 56 33 57 52 58 34 59 37 60 51 61 70 62 35 63 36 64 50 66
REMARK SMILES IDX 71 67 38 68 22 69 23 70 31 71 24 72 25 73 29 74 32 75 26 76
REMARK SMILES IDX 27 77 30 78 28 79 54 80 55 81 63 82 56 83 57 84 61 85 64 86
REMARK SMILES IDX 58 87 59 88 62 89 60 90 39 91 40 92 48 93 41 94 42 95 46 96
REMARK SMILES IDX 49 97 43 98 44 99 47 100 45 101
REMARK H PARENT 3 7 10 35 69 54 37 65
REMARK Flexibility Score: inf
ROOT
ATOM      1  C   UNL A   1      33.643  27.462  23.528  1.00  0.00     0.002 C 
ENDROOT
BRANCH   1   2
ATOM      2  C   UNL A   1      32.496  27.580  22.523  1.00  0.00     0.021 C 
BRANCH   2   3
ATOM      3  C   UNL A   1      31.499  26.425  22.512  1.00  0.00     0.116 C 
BRANCH   3   4
ATOM      4  N   UNL A   1      31.958  25.243  21.802  1.00  0.00    -0.352 N 
ATOM      5  O   UNL A   1      32.962  23.243  21.538  1.00  0.00    -0.270 OA
ATOM      6  C   UNL A   1      32.517  24.098  22.300  1.00  0.00     0.251 C 
ATOM      7  H   UNL A   1      31.850  25.269  20.824  1.00  0.00     0.163 HD
BRANCH   6   8
ATOM      8  C   UNL A   1      32.615  23.875  23.757  1.00  0.00     0.067 C 
ATOM      9  C   UNL A   1      33.793  23.598  24.323  1.00  0.00     0.029 C 
ATOM     10  C   UNL A   1      31.379  23.630  24.558  1.00  0.00     0.314 C 
ATOM     11  C   UNL A   1      33.838  22.184  24.773  1.00  0.00     0.061 A 
ATOM     12  O   UNL A   1      31.397  22.285  25.142  1.00  0.00    -0.475 OA
ATOM     13  C   UNL A   1      32.599  21.602  25.142  1.00  0.00     0.131 A 
ATOM     14  C   UNL A   1      35.005  21.391  24.656  1.00  0.00     0.156 A 
ATOM     15  C   UNL A   1      32.515  20.234  25.380  1.00  0.00     0.049 A 
ATOM     16  C   UNL A   1      34.878  20.005  24.861  1.00  0.00     0.084 A 
ATOM     17  C   UNL A   1      33.647  19.435  25.218  1.00  0.00     0.028 A 
ATOM     18  Cl  UNL A   1      36.208  18.929  24.603  1.00  0.00    -0.080 Cl
BRANCH  10  19
ATOM     19  C   UNL A   1      31.179  24.691  25.657  1.00  0.00     0.429 C 
ATOM     20  F   UNL A   1      31.135  24.153  26.898  1.00  0.00    -0.167 F 
ATOM     21  F   UNL A   1      32.188  25.594  25.653  1.00  0.00    -0.167 F 
ATOM     22  F   UNL A   1      30.023  25.380  25.488  1.00  0.00    -0.167 F 
ENDBRANCH  10  19
BRANCH  14  23
ATOM     23  O   UNL A   1      36.259  21.821  24.228  1.00  0.00    -0.455 OA
BRANCH  23  24
ATOM     24  C   UNL A   1      37.156  22.273  25.166  1.00  0.00     0.127 A 
ATOM     25  C   UNL A   1      38.237  21.453  25.501  1.00  0.00     0.047 A 
ATOM     26  C   UNL A   1      37.041  23.559  25.698  1.00  0.00     0.047 A 
ATOM     27  C   UNL A   1      39.286  21.981  26.255  1.00  0.00     0.004 A 
ATOM     28  C   UNL A   1      38.088  24.076  26.462  1.00  0.00     0.004 A 
ATOM     29  C   UNL A   1      39.221  23.299  26.714  1.00  0.00     0.000 A 
ENDBRANCH  23  24
ENDBRANCH  14  23
ENDBRANCH   6   8
ENDBRANCH   3   4
ENDBRANCH   2   3
ENDBRANCH   1   2
BRANCH   1  30
ATOM     30  C   UNL A   1      33.668  28.487  24.671  1.00  0.00     0.002 C 
BRANCH  30  31
ATOM     31  C   UNL A   1      34.258  28.029  26.010  1.00  0.00     0.021 C 
BRANCH  31  32
ATOM     32  C   UNL A   1      33.555  28.521  27.274  1.00  0.00     0.116 C 
BRANCH  32  33
ATOM     33  N   UNL A   1      33.522  29.969  27.388  1.00  0.00    -0.352 N 
ATOM     34  C   UNL A   1      34.420  30.839  27.948  1.00  0.00     0.251 C 
ATOM     35  H   UNL A   1      32.724  30.394  26.997  1.00  0.00     0.163 HD
ATOM     36  O   UNL A   1      34.129  32.036  28.027  1.00  0.00    -0.269 OA
BRANCH  34  37
ATOM     37  C   UNL A   1      35.725  30.382  28.480  1.00  0.00     0.039 A 
ATOM     38  C   UNL A   1      36.874  30.613  27.713  1.00  0.00     0.014 A 
ATOM     39  C   UNL A   1      35.832  29.676  29.682  1.00  0.00     0.014 A 
ATOM     40  C   UNL A   1      38.125  30.185  28.169  1.00  0.00     0.010 A 
ATOM     41  C   UNL A   1      37.089  29.303  30.167  1.00  0.00     0.010 A 
ATOM     42  C   UNL A   1      38.248  29.546  29.413  1.00  0.00    -0.014 A 
BRANCH  42  43
ATOM     43  C   UNL A   1      39.576  29.120  29.928  1.00  0.00     0.031 A 
ATOM     44  C   UNL A   1      40.259  29.903  31.017  1.00  0.00     0.074 A 
ATOM     45  C   UNL A   1      40.197  28.057  29.382  1.00  0.00     0.049 A 
ATOM     46  N   UNL A   1      41.438  29.720  31.558  1.00  0.00    -0.248 NA
ATOM     47  C   UNL A   1      39.526  31.059  31.556  1.00  0.00     0.031 C 
ATOM     48  C   UNL A   1      39.661  27.231  28.299  1.00  0.00     0.029 A 
ATOM     49  N   UNL A   1      41.419  27.492  29.658  1.00  0.00    -0.354 N 
ATOM     50  C   UNL A   1      41.595  30.746  32.481  1.00  0.00     0.074 A 
ATOM     51  C   UNL A   1      40.410  31.572  32.400  1.00  0.00     0.031 C 
ATOM     52  C   UNL A   1      40.536  26.252  28.020  1.00  0.00     0.029 A 
ATOM     53  C   UNL A   1      41.710  26.401  28.875  1.00  0.00     0.049 A 
ATOM     54  H   UNL A   1      42.026  27.835  30.352  1.00  0.00     0.167 HD
ATOM     55  C   UNL A   1      42.627  30.968  33.332  1.00  0.00     0.037 A 
ATOM     56  C   UNL A   1      42.803  25.613  28.847  1.00  0.00     0.037 A 
ATOM     57  C   UNL A   1      43.790  30.125  33.438  1.00  0.00     0.049 A 
ATOM     58  C   UNL A   1      43.937  25.888  29.796  1.00  0.00     0.074 A 
ATOM     59  C   UNL A   1      44.849  30.225  34.325  1.00  0.00     0.029 A 
ATOM     60  N   UNL A   1      44.049  29.029  32.629  1.00  0.00    -0.354 N 
ATOM     61  N   UNL A   1      44.043  26.819  30.713  1.00  0.00    -0.248 NA
ATOM     62  C   UNL A   1      45.105  24.998  29.708  1.00  0.00     0.031 C 
ATOM     63  C   UNL A   1      45.773  29.220  34.019  1.00  0.00     0.029 A 
ATOM     64  C   UNL A   1      45.265  28.462  32.975  1.00  0.00     0.049 A 
ATOM     65  H   UNL A   1      43.456  28.703  31.914  1.00  0.00     0.167 HD
ATOM     66  C   UNL A   1      45.270  26.609  31.330  1.00  0.00     0.074 A 
ATOM     67  C   UNL A   1      45.868  25.456  30.690  1.00  0.00     0.031 C 
ATOM     68  C   UNL A   1      45.847  27.308  32.338  1.00  0.00     0.037 A 
BRANCH  55  69
ATOM     69  C   UNL A   1      42.550  32.180  34.217  1.00  0.00     0.064 A 
ATOM     70  C   UNL A   1      42.016  32.115  35.513  1.00  0.00     0.173 A 
ATOM     71  C   UNL A   1      43.055  33.413  33.776  1.00  0.00     0.173 A 
ATOM     72  F   UNL A   1      41.513  30.962  35.979  1.00  0.00    -0.203 F 
ATOM     73  C   UNL A   1      41.961  33.247  36.322  1.00  0.00     0.198 A 
ATOM     74  C   UNL A   1      43.026  34.535  34.600  1.00  0.00     0.198 A 
ATOM     75  F   UNL A   1      43.584  33.528  32.550  1.00  0.00    -0.203 F 
ATOM     76  F   UNL A   1      41.400  33.173  37.538  1.00  0.00    -0.200 F 
ATOM     77  C   UNL A   1      42.471  34.454  35.868  1.00  0.00     0.200 A 
ATOM     78  F   UNL A   1      43.531  35.698  34.164  1.00  0.00    -0.200 F 
ATOM     79  F   UNL A   1      42.423  35.541  36.651  1.00  0.00    -0.200 F 
ENDBRANCH  55  69
BRANCH  56  80
ATOM     80  C   UNL A   1      42.866  24.465  27.905  1.00  0.00     0.064 A 
ATOM     81  C   UNL A   1      42.574  23.165  28.341  1.00  0.00     0.173 A 
ATOM     82  C   UNL A   1      43.222  24.639  26.560  1.00  0.00     0.173 A 
ATOM     83  F   UNL A   1      42.252  22.947  29.624  1.00  0.00    -0.203 F 
ATOM     84  C   UNL A   1      42.653  22.080  27.471  1.00  0.00     0.198 A 
ATOM     85  C   UNL A   1      43.274  23.558  25.684  1.00  0.00     0.198 A 
ATOM     86  F   UNL A   1      43.509  25.864  26.095  1.00  0.00    -0.203 F 
ATOM     87  F   UNL A   1      42.411  20.842  27.923  1.00  0.00    -0.200 F 
ATOM     88  C   UNL A   1      42.997  22.278  26.141  1.00  0.00     0.200 A 
ATOM     89  F   UNL A   1      43.596  23.754  24.398  1.00  0.00    -0.200 F 
ATOM     90  F   UNL A   1      43.070  21.234  25.304  1.00  0.00    -0.200 F 
ENDBRANCH  56  80
BRANCH  68  91
ATOM     91  C   UNL A   1      47.176  26.825  32.840  1.00  0.00     0.064 A 
ATOM     92  C   UNL A   1      48.382  27.365  32.368  1.00  0.00     0.173 A 
ATOM     93  C   UNL A   1      47.244  25.836  33.832  1.00  0.00     0.173 A 
ATOM     94  F   UNL A   1      48.372  28.302  31.408  1.00  0.00    -0.203 F 
ATOM     95  C   UNL A   1      49.607  26.915  32.855  1.00  0.00     0.198 A 
ATOM     96  C   UNL A   1      48.468  25.410  34.339  1.00  0.00     0.198 A 
ATOM     97  F   UNL A   1      46.119  25.292  34.322  1.00  0.00    -0.203 F 
ATOM     98  F   UNL A   1      50.747  27.412  32.357  1.00  0.00    -0.200 F 
ATOM     99  C   UNL A   1      49.649  25.944  33.845  1.00  0.00     0.200 A 
ATOM    100  F   UNL A   1      48.506  24.480  35.304  1.00  0.00    -0.200 F 
ATOM    101  F   UNL A   1      50.827  25.517  34.317  1.00  0.00    -0.200 F 
ENDBRANCH  68  91
ENDBRANCH  42  43
ENDBRANCH  34  37
ENDBRANCH  32  33
ENDBRANCH  31  32
ENDBRANCH  30  31
ENDBRANCH   1  30
TORSDOF 16
ENDMDL
