MODEL 1
REMARK VINA RESULT:     -12.6      0.000      0.000
REMARK SMILES Cc1ccc(C(C)C)c(OCC(=O)Nc2nc(CC(=O)NCCCCCCNC(=O)c3ccc(-c4c5nc(c(-c6c(F)c(F)c(F)c(F)c6F)c6ccc([nH]6)c(-c6c(F)c(F)c(F)c(F)c6F)c6nc(c(-c7c(F)c(F)c(F)c(F)c7F)c7ccc4[nH]7)C=C6)C=C5)cc3)cs2)c1
REMARK SMILES IDX 22 1 21 2 19 3 20 4 18 6 17 7 15 8 16 9 95 10 94 11 14 12
REMARK SMILES IDX 12 13 13 14 11 16 10 17 9 18 1 19 2 20 3 21 96 22 4 23 5 24
REMARK SMILES IDX 6 25 7 26 8 27 23 28 24 29 25 30 26 31 27 32 28 33 29 34
REMARK SMILES IDX 30 36 31 37 32 38 93 39 33 40 92 41 34 42 35 43 36 44 86 45
REMARK SMILES IDX 37 46 91 47 85 48 87 49 38 50 90 51 84 52 83 53 39 55 71 56
REMARK SMILES IDX 51 57 70 58 52 59 55 60 69 61 88 62 53 63 54 64 68 66 89 67
REMARK SMILES IDX 56 68 40 69 41 70 49 71 42 72 43 73 47 74 50 75 44 76 45 77
REMARK SMILES IDX 48 78 46 79 72 80 73 81 81 82 74 83 75 84 79 85 82 86 76 87
REMARK SMILES IDX 77 88 80 89 78 90 57 91 58 92 66 93 59 94 60 95 64 96 67 97
REMARK SMILES IDX 61 98 62 99 65 100 63 101
REMARK H PARENT 21 5 14 15 28 35 87 54 55 65
REMARK Flexibility Score: inf
ROOT
ATOM      1  C   UNL A   1      32.262  29.323  24.653  1.00  0.00     0.116 C 
ENDROOT
BRANCH   1   2
ATOM      2  N   UNL A   1      31.194  29.314  23.674  1.00  0.00    -0.356 N 
ATOM      3  C   UNL A   1      30.973  28.432  22.653  1.00  0.00     0.226 C 
ATOM      4  O   UNL A   1      29.932  28.549  22.001  1.00  0.00    -0.275 OA
ATOM      5  H   UNL A   1      30.537  30.042  23.755  1.00  0.00     0.163 HD
BRANCH   3   6
ATOM      6  C   UNL A   1      31.971  27.328  22.345  1.00  0.00     0.157 C 
BRANCH   6   7
ATOM      7  C   UNL A   1      31.555  26.005  22.903  1.00  0.00     0.063 A 
ATOM      8  C   UNL A   1      30.633  24.778  24.482  1.00  0.00     0.189 A 
ATOM      9  N   UNL A   1      30.740  25.996  24.029  1.00  0.00    -0.224 NA
ATOM     10  S   UNL A   1      31.393  23.557  23.566  1.00  0.00    -0.105 S 
ATOM     11  C   UNL A   1      31.929  24.750  22.456  1.00  0.00     0.093 A 
BRANCH   8  12
ATOM     12  N   UNL A   1      30.035  24.331  25.618  1.00  0.00    -0.299 N 
ATOM     13  C   UNL A   1      30.629  23.676  26.650  1.00  0.00     0.264 C 
ATOM     14  O   UNL A   1      29.892  23.241  27.546  1.00  0.00    -0.271 OA
ATOM     15  H   UNL A   1      29.069  24.499  25.702  1.00  0.00     0.172 HD
BRANCH  13  16
ATOM     16  C   UNL A   1      32.158  23.565  26.776  1.00  0.00     0.329 C 
BRANCH  16  17
ATOM     17  O   UNL A   1      32.766  22.291  26.785  1.00  0.00    -0.483 OA
BRANCH  17  18
ATOM     18  C   UNL A   1      33.955  22.085  26.144  1.00  0.00     0.123 A 
ATOM     19  C   UNL A   1      37.527  23.398  25.882  1.00  0.00     0.044 C 
ATOM     20  C   UNL A   1      36.298  22.563  25.670  1.00  0.00    -0.047 A 
ATOM     21  C   UNL A   1      36.353  21.443  24.841  1.00  0.00     0.004 A 
ATOM     22  C   UNL A   1      35.092  22.885  26.307  1.00  0.00     0.050 A 
ATOM     23  C   UNL A   1      35.217  20.664  24.637  1.00  0.00     0.008 A 
ATOM     24  C   UNL A   1      34.006  20.967  25.285  1.00  0.00    -0.003 A 
BRANCH  24  25
ATOM     25  C   UNL A   1      32.782  20.088  25.050  1.00  0.00     0.017 C 
ATOM     26  C   UNL A   1      32.513  19.881  23.558  1.00  0.00     0.012 C 
ATOM     27  C   UNL A   1      32.917  18.737  25.755  1.00  0.00     0.012 C 
ENDBRANCH  24  25
ENDBRANCH  17  18
ENDBRANCH  16  17
ENDBRANCH  13  16
ENDBRANCH   8  12
ENDBRANCH   6   7
ENDBRANCH   3   6
ENDBRANCH   1   2
BRANCH   1  28
ATOM     28  C   UNL A   1      31.852  28.719  25.996  1.00  0.00     0.021 C 
BRANCH  28  29
ATOM     29  C   UNL A   1      33.013  28.240  26.880  1.00  0.00     0.002 C 
BRANCH  29  30
ATOM     30  C   UNL A   1      34.249  29.154  26.970  1.00  0.00     0.002 C 
BRANCH  30  31
ATOM     31  C   UNL A   1      33.994  30.627  27.306  1.00  0.00     0.021 C 
BRANCH  31  32
ATOM     32  C   UNL A   1      34.512  31.065  28.669  1.00  0.00     0.116 C 
BRANCH  32  33
ATOM     33  N   UNL A   1      35.505  32.134  28.631  1.00  0.00    -0.352 N 
ATOM     34  C   UNL A   1      36.883  32.049  28.758  1.00  0.00     0.251 C 
ATOM     35  H   UNL A   1      35.147  33.041  28.497  1.00  0.00     0.163 HD
ATOM     36  O   UNL A   1      37.571  33.056  28.768  1.00  0.00    -0.269 OA
BRANCH  34  37
ATOM     37  C   UNL A   1      37.523  30.711  28.749  1.00  0.00     0.039 A 
ATOM     38  C   UNL A   1      37.837  30.124  29.981  1.00  0.00     0.014 A 
ATOM     39  C   UNL A   1      38.003  30.159  27.566  1.00  0.00     0.014 A 
ATOM     40  C   UNL A   1      38.832  29.152  30.039  1.00  0.00     0.010 A 
ATOM     41  C   UNL A   1      39.061  29.276  27.628  1.00  0.00     0.010 A 
ATOM     42  C   UNL A   1      39.522  28.829  28.871  1.00  0.00    -0.014 A 
BRANCH  42  43
ATOM     43  C   UNL A   1      40.791  28.114  28.863  1.00  0.00     0.031 A 
ATOM     44  C   UNL A   1      40.826  26.660  28.611  1.00  0.00     0.074 A 
ATOM     45  C   UNL A   1      41.943  28.810  28.991  1.00  0.00     0.049 A 
ATOM     46  N   UNL A   1      41.800  25.882  28.943  1.00  0.00    -0.248 NA
ATOM     47  C   UNL A   1      39.712  25.950  28.000  1.00  0.00     0.031 C 
ATOM     48  C   UNL A   1      43.297  28.333  28.725  1.00  0.00     0.029 A 
ATOM     49  N   UNL A   1      42.126  30.068  29.592  1.00  0.00    -0.354 N 
ATOM     50  C   UNL A   1      41.581  24.652  28.364  1.00  0.00     0.074 A 
ATOM     51  C   UNL A   1      40.228  24.725  27.868  1.00  0.00     0.031 C 
ATOM     52  C   UNL A   1      44.165  29.098  29.406  1.00  0.00     0.029 A 
ATOM     53  C   UNL A   1      43.384  29.996  30.236  1.00  0.00     0.049 A 
ATOM     54  H   UNL A   1      41.509  30.834  29.569  1.00  0.00     0.167 HD
ATOM     55  C   UNL A   1      42.628  23.777  28.265  1.00  0.00     0.037 A 
ATOM     56  C   UNL A   1      43.497  30.098  31.592  1.00  0.00     0.037 A 
ATOM     57  C   UNL A   1      43.797  24.286  28.987  1.00  0.00     0.049 A 
ATOM     58  C   UNL A   1      44.120  28.893  32.250  1.00  0.00     0.074 A 
ATOM     59  C   UNL A   1      44.953  24.929  28.572  1.00  0.00     0.029 A 
ATOM     60  N   UNL A   1      43.741  24.431  30.371  1.00  0.00    -0.354 N 
ATOM     61  N   UNL A   1      44.199  27.719  31.687  1.00  0.00    -0.248 NA
ATOM     62  C   UNL A   1      44.675  28.903  33.601  1.00  0.00     0.031 C 
ATOM     63  C   UNL A   1      45.564  25.512  29.711  1.00  0.00     0.029 A 
ATOM     64  C   UNL A   1      44.794  25.206  30.819  1.00  0.00     0.049 A 
ATOM     65  H   UNL A   1      43.049  24.037  30.949  1.00  0.00     0.167 HD
ATOM     66  C   UNL A   1      44.777  26.832  32.558  1.00  0.00     0.074 A 
ATOM     67  C   UNL A   1      45.074  27.626  33.735  1.00  0.00     0.031 C 
ATOM     68  C   UNL A   1      44.951  25.516  32.233  1.00  0.00     0.037 A 
BRANCH  55  69
ATOM     69  C   UNL A   1      42.707  22.613  27.284  1.00  0.00     0.064 A 
ATOM     70  C   UNL A   1      41.901  21.465  27.466  1.00  0.00     0.173 A 
ATOM     71  C   UNL A   1      43.600  22.514  26.200  1.00  0.00     0.173 A 
ATOM     72  F   UNL A   1      40.917  21.435  28.374  1.00  0.00    -0.203 F 
ATOM     73  C   UNL A   1      42.069  20.291  26.721  1.00  0.00     0.198 A 
ATOM     74  C   UNL A   1      43.799  21.330  25.480  1.00  0.00     0.198 A 
ATOM     75  F   UNL A   1      44.271  23.572  25.740  1.00  0.00    -0.203 F 
ATOM     76  F   UNL A   1      41.283  19.231  26.961  1.00  0.00    -0.200 F 
ATOM     77  C   UNL A   1      43.044  20.211  25.750  1.00  0.00     0.200 A 
ATOM     78  F   UNL A   1      44.730  21.291  24.515  1.00  0.00    -0.200 F 
ATOM     79  F   UNL A   1      43.233  19.079  25.061  1.00  0.00    -0.200 F 
ENDBRANCH  55  69
BRANCH  56  80
ATOM     80  C   UNL A   1      42.463  30.975  32.197  1.00  0.00     0.064 A 
ATOM     81  C   UNL A   1      42.554  32.360  31.963  1.00  0.00     0.173 A 
ATOM     82  C   UNL A   1      41.228  30.469  32.621  1.00  0.00     0.173 A 
ATOM     83  F   UNL A   1      43.717  32.894  31.556  1.00  0.00    -0.203 F 
ATOM     84  C   UNL A   1      41.431  33.181  32.026  1.00  0.00     0.198 A 
ATOM     85  C   UNL A   1      40.107  31.297  32.696  1.00  0.00     0.198 A 
ATOM     86  F   UNL A   1      41.074  29.155  32.840  1.00  0.00    -0.203 F 
ATOM     87  F   UNL A   1      41.527  34.473  31.683  1.00  0.00    -0.200 F 
ATOM     88  C   UNL A   1      40.200  32.642  32.362  1.00  0.00     0.200 A 
ATOM     89  F   UNL A   1      38.911  30.774  32.999  1.00  0.00    -0.200 F 
ATOM     90  F   UNL A   1      39.101  33.407  32.326  1.00  0.00    -0.200 F 
ENDBRANCH  56  80
BRANCH  68  91
ATOM     91  C   UNL A   1      45.376  24.418  33.177  1.00  0.00     0.064 A 
ATOM     92  C   UNL A   1      44.563  23.331  33.533  1.00  0.00     0.173 A 
ATOM     93  C   UNL A   1      46.711  24.360  33.649  1.00  0.00     0.173 A 
ATOM     94  F   UNL A   1      43.319  23.205  33.055  1.00  0.00    -0.203 F 
ATOM     95  C   UNL A   1      45.028  22.295  34.351  1.00  0.00     0.198 A 
ATOM     96  C   UNL A   1      47.188  23.299  34.416  1.00  0.00     0.198 A 
ATOM     97  F   UNL A   1      47.600  25.322  33.358  1.00  0.00    -0.203 F 
ATOM     98  F   UNL A   1      44.199  21.300  34.697  1.00  0.00    -0.200 F 
ATOM     99  C   UNL A   1      46.342  22.274  34.782  1.00  0.00     0.200 A 
ATOM    100  F   UNL A   1      48.478  23.267  34.782  1.00  0.00    -0.200 F 
ATOM    101  F   UNL A   1      46.795  21.257  35.527  1.00  0.00    -0.200 F 
ENDBRANCH  68  91
ENDBRANCH  42  43
ENDBRANCH  34  37
ENDBRANCH  32  33
ENDBRANCH  31  32
ENDBRANCH  30  31
ENDBRANCH  29  30
ENDBRANCH  28  29
ENDBRANCH   1  28
TORSDOF 19
ENDMDL
MODEL 2
REMARK VINA RESULT:     -12.3      3.943      9.445
REMARK SMILES Cc1ccc(C(C)C)c(OCC(=O)Nc2nc(CC(=O)NCCCCCCNC(=O)c3ccc(-c4c5nc(c(-c6c(F)c(F)c(F)c(F)c6F)c6ccc([nH]6)c(-c6c(F)c(F)c(F)c(F)c6F)c6nc(c(-c7c(F)c(F)c(F)c(F)c7F)c7ccc4[nH]7)C=C6)C=C5)cc3)cs2)c1
REMARK SMILES IDX 22 1 21 2 19 3 20 4 18 6 17 7 15 8 16 9 95 10 94 11 14 12
REMARK SMILES IDX 12 13 13 14 11 16 10 17 9 18 1 19 2 20 3 21 96 22 4 23 5 24
REMARK SMILES IDX 6 25 7 26 8 27 23 28 24 29 25 30 26 31 27 32 28 33 29 34
REMARK SMILES IDX 30 36 31 37 32 38 93 39 33 40 92 41 34 42 35 43 36 44 86 45
REMARK SMILES IDX 37 46 91 47 85 48 87 49 38 50 90 51 84 52 83 53 39 55 71 56
REMARK SMILES IDX 51 57 70 58 52 59 55 60 69 61 88 62 53 63 54 64 68 66 89 67
REMARK SMILES IDX 56 68 40 69 41 70 49 71 42 72 43 73 47 74 50 75 44 76 45 77
REMARK SMILES IDX 48 78 46 79 72 80 73 81 81 82 74 83 75 84 79 85 82 86 76 87
REMARK SMILES IDX 77 88 80 89 78 90 57 91 58 92 66 93 59 94 60 95 64 96 67 97
REMARK SMILES IDX 61 98 62 99 65 100 63 101
REMARK H PARENT 21 5 14 15 28 35 87 54 55 65
REMARK Flexibility Score: inf
ROOT
ATOM      1  C   UNL A   1      38.241  23.109  26.326  1.00  0.00     0.116 C 
ENDROOT
BRANCH   1   2
ATOM      2  N   UNL A   1      37.772  23.162  24.955  1.00  0.00    -0.356 N 
ATOM      3  C   UNL A   1      37.007  22.257  24.274  1.00  0.00     0.226 C 
ATOM      4  O   UNL A   1      36.628  22.556  23.139  1.00  0.00    -0.275 OA
ATOM      5  H   UNL A   1      38.042  23.959  24.445  1.00  0.00     0.163 HD
BRANCH   3   6
ATOM      6  C   UNL A   1      36.618  20.930  24.907  1.00  0.00     0.157 C 
BRANCH   6   7
ATOM      7  C   UNL A   1      35.144  20.803  25.113  1.00  0.00     0.063 A 
ATOM      8  C   UNL A   1      33.268  21.417  26.090  1.00  0.00     0.189 A 
ATOM      9  N   UNL A   1      34.498  21.783  25.857  1.00  0.00    -0.224 NA
ATOM     10  S   UNL A   1      32.761  19.957  25.370  1.00  0.00    -0.105 S 
ATOM     11  C   UNL A   1      34.322  19.776  24.682  1.00  0.00     0.093 A 
BRANCH   8  12
ATOM     12  N   UNL A   1      32.326  22.011  26.870  1.00  0.00    -0.299 N 
ATOM     13  C   UNL A   1      31.457  22.989  26.500  1.00  0.00     0.264 C 
ATOM     14  O   UNL A   1      30.754  23.488  27.388  1.00  0.00    -0.271 OA
ATOM     15  H   UNL A   1      32.267  21.699  27.802  1.00  0.00     0.172 HD
BRANCH  13  16
ATOM     16  C   UNL A   1      31.263  23.394  25.029  1.00  0.00     0.329 C 
BRANCH  16  17
ATOM     17  O   UNL A   1      30.991  24.742  24.708  1.00  0.00    -0.483 OA
BRANCH  17  18
ATOM     18  C   UNL A   1      31.756  25.403  23.788  1.00  0.00     0.123 A 
ATOM     19  C   UNL A   1      32.563  25.555  20.063  1.00  0.00     0.044 C 
ATOM     20  C   UNL A   1      32.553  25.866  21.531  1.00  0.00    -0.047 A 
ATOM     21  C   UNL A   1      33.288  26.947  22.018  1.00  0.00     0.004 A 
ATOM     22  C   UNL A   1      31.801  25.092  22.424  1.00  0.00     0.050 A 
ATOM     23  C   UNL A   1      33.285  27.240  23.380  1.00  0.00     0.008 A 
ATOM     24  C   UNL A   1      32.520  26.481  24.282  1.00  0.00    -0.003 A 
BRANCH  24  25
ATOM     25  C   UNL A   1      32.529  26.835  25.765  1.00  0.00     0.017 C 
ATOM     26  C   UNL A   1      33.913  27.297  26.227  1.00  0.00     0.012 C 
ATOM     27  C   UNL A   1      31.480  27.897  26.096  1.00  0.00     0.012 C 
ENDBRANCH  24  25
ENDBRANCH  17  18
ENDBRANCH  16  17
ENDBRANCH  13  16
ENDBRANCH   8  12
ENDBRANCH   6   7
ENDBRANCH   3   6
ENDBRANCH   1   2
BRANCH   1  28
ATOM     28  C   UNL A   1      39.561  22.356  26.481  1.00  0.00     0.021 C 
BRANCH  28  29
ATOM     29  C   UNL A   1      40.503  22.902  27.564  1.00  0.00     0.002 C 
BRANCH  29  30
ATOM     30  C   UNL A   1      41.880  22.225  27.703  1.00  0.00     0.002 C 
BRANCH  30  31
ATOM     31  C   UNL A   1      42.331  21.335  26.540  1.00  0.00     0.021 C 
BRANCH  31  32
ATOM     32  C   UNL A   1      42.938  22.088  25.365  1.00  0.00     0.116 C 
BRANCH  32  33
ATOM     33  N   UNL A   1      44.110  21.452  24.772  1.00  0.00    -0.352 N 
ATOM     34  C   UNL A   1      45.440  21.841  24.838  1.00  0.00     0.251 C 
ATOM     35  H   UNL A   1      43.933  20.635  24.253  1.00  0.00     0.163 HD
ATOM     36  O   UNL A   1      46.299  21.228  24.226  1.00  0.00    -0.269 OA
BRANCH  34  37
ATOM     37  C   UNL A   1      45.824  22.931  25.768  1.00  0.00     0.039 A 
ATOM     38  C   UNL A   1      45.677  22.704  27.142  1.00  0.00     0.014 A 
ATOM     39  C   UNL A   1      46.102  24.208  25.292  1.00  0.00     0.014 A 
ATOM     40  C   UNL A   1      45.552  23.792  28.002  1.00  0.00     0.010 A 
ATOM     41  C   UNL A   1      45.873  25.288  26.120  1.00  0.00     0.010 A 
ATOM     42  C   UNL A   1      45.527  25.076  27.459  1.00  0.00    -0.014 A 
BRANCH  42  43
ATOM     43  C   UNL A   1      45.053  26.244  28.189  1.00  0.00     0.031 A 
ATOM     44  C   UNL A   1      43.672  26.731  28.002  1.00  0.00     0.074 A 
ATOM     45  C   UNL A   1      45.857  26.819  29.110  1.00  0.00     0.049 A 
ATOM     46  N   UNL A   1      43.272  27.925  28.283  1.00  0.00    -0.248 NA
ATOM     47  C   UNL A   1      42.628  25.903  27.416  1.00  0.00     0.031 C 
ATOM     48  C   UNL A   1      45.478  27.794  30.130  1.00  0.00     0.029 A 
ATOM     49  N   UNL A   1      47.261  26.771  29.177  1.00  0.00    -0.354 N 
ATOM     50  C   UNL A   1      41.898  27.949  28.183  1.00  0.00     0.074 A 
ATOM     51  C   UNL A   1      41.561  26.695  27.555  1.00  0.00     0.031 C 
ATOM     52  C   UNL A   1      46.573  28.471  30.508  1.00  0.00     0.029 A 
ATOM     53  C   UNL A   1      47.658  28.047  29.642  1.00  0.00     0.049 A 
ATOM     54  H   UNL A   1      47.843  26.011  28.948  1.00  0.00     0.167 HD
ATOM     55  C   UNL A   1      41.215  28.978  28.771  1.00  0.00     0.037 A 
ATOM     56  C   UNL A   1      48.410  28.884  28.871  1.00  0.00     0.037 A 
ATOM     57  C   UNL A   1      42.144  29.995  29.272  1.00  0.00     0.049 A 
ATOM     58  C   UNL A   1      47.752  30.210  28.579  1.00  0.00     0.074 A 
ATOM     59  C   UNL A   1      42.643  30.274  30.535  1.00  0.00     0.029 A 
ATOM     60  N   UNL A   1      42.926  30.715  28.373  1.00  0.00    -0.354 N 
ATOM     61  N   UNL A   1      46.471  30.425  28.697  1.00  0.00    -0.248 NA
ATOM     62  C   UNL A   1      48.474  31.387  28.104  1.00  0.00     0.031 C 
ATOM     63  C   UNL A   1      43.769  31.122  30.385  1.00  0.00     0.029 A 
ATOM     64  C   UNL A   1      43.941  31.378  29.036  1.00  0.00     0.049 A 
ATOM     65  H   UNL A   1      42.778  30.747  27.400  1.00  0.00     0.167 HD
ATOM     66  C   UNL A   1      46.186  31.711  28.318  1.00  0.00     0.074 A 
ATOM     67  C   UNL A   1      47.476  32.278  27.972  1.00  0.00     0.031 C 
ATOM     68  C   UNL A   1      44.907  32.192  28.313  1.00  0.00     0.037 A 
BRANCH  55  69
ATOM     69  C   UNL A   1      39.743  28.942  29.163  1.00  0.00     0.064 A 
ATOM     70  C   UNL A   1      38.744  29.323  28.236  1.00  0.00     0.173 A 
ATOM     71  C   UNL A   1      39.242  28.630  30.441  1.00  0.00     0.173 A 
ATOM     72  F   UNL A   1      39.029  29.538  26.945  1.00  0.00    -0.203 F 
ATOM     73  C   UNL A   1      37.401  29.500  28.594  1.00  0.00     0.198 A 
ATOM     74  C   UNL A   1      37.910  28.844  30.813  1.00  0.00     0.198 A 
ATOM     75  F   UNL A   1      39.998  28.038  31.369  1.00  0.00    -0.203 F 
ATOM     76  F   UNL A   1      36.511  29.884  27.668  1.00  0.00    -0.200 F 
ATOM     77  C   UNL A   1      36.990  29.295  29.893  1.00  0.00     0.200 A 
ATOM     78  F   UNL A   1      37.528  28.601  32.075  1.00  0.00    -0.200 F 
ATOM     79  F   UNL A   1      35.715  29.499  30.248  1.00  0.00    -0.200 F 
ENDBRANCH  55  69
BRANCH  56  80
ATOM     80  C   UNL A   1      49.338  28.163  27.964  1.00  0.00     0.064 A 
ATOM     81  C   UNL A   1      50.540  27.671  28.508  1.00  0.00     0.173 A 
ATOM     82  C   UNL A   1      48.902  27.615  26.752  1.00  0.00     0.173 A 
ATOM     83  F   UNL A   1      51.001  28.165  29.668  1.00  0.00    -0.203 F 
ATOM     84  C   UNL A   1      51.207  26.592  27.932  1.00  0.00     0.198 A 
ATOM     85  C   UNL A   1      49.581  26.542  26.171  1.00  0.00     0.198 A 
ATOM     86  F   UNL A   1      47.754  28.028  26.196  1.00  0.00    -0.203 F 
ATOM     87  F   UNL A   1      52.283  26.072  28.538  1.00  0.00    -0.200 F 
ATOM     88  C   UNL A   1      50.709  26.008  26.780  1.00  0.00     0.200 A 
ATOM     89  F   UNL A   1      49.088  25.960  25.068  1.00  0.00    -0.200 F 
ATOM     90  F   UNL A   1      51.290  24.909  26.280  1.00  0.00    -0.200 F 
ENDBRANCH  56  80
BRANCH  68  91
ATOM     91  C   UNL A   1      44.456  33.505  27.722  1.00  0.00     0.064 A 
ATOM     92  C   UNL A   1      43.897  33.639  26.440  1.00  0.00     0.173 A 
ATOM     93  C   UNL A   1      44.444  34.678  28.516  1.00  0.00     0.173 A 
ATOM     94  F   UNL A   1      43.740  32.580  25.635  1.00  0.00    -0.203 F 
ATOM     95  C   UNL A   1      43.421  34.865  25.964  1.00  0.00     0.198 A 
ATOM     96  C   UNL A   1      43.917  35.885  28.059  1.00  0.00     0.198 A 
ATOM     97  F   UNL A   1      44.923  34.682  29.769  1.00  0.00    -0.203 F 
ATOM     98  F   UNL A   1      42.935  34.949  24.718  1.00  0.00    -0.200 F 
ATOM     99  C   UNL A   1      43.420  35.984  26.777  1.00  0.00     0.200 A 
ATOM    100  F   UNL A   1      43.876  36.947  28.878  1.00  0.00    -0.200 F 
ATOM    101  F   UNL A   1      42.921  37.144  26.332  1.00  0.00    -0.200 F 
ENDBRANCH  68  91
ENDBRANCH  42  43
ENDBRANCH  34  37
ENDBRANCH  32  33
ENDBRANCH  31  32
ENDBRANCH  30  31
ENDBRANCH  29  30
ENDBRANCH  28  29
ENDBRANCH   1  28
TORSDOF 19
ENDMDL
MODEL 3
REMARK VINA RESULT:     -12.2      1.446      2.510
REMARK SMILES Cc1ccc(C(C)C)c(OCC(=O)Nc2nc(CC(=O)NCCCCCCNC(=O)c3ccc(-c4c5nc(c(-c6c(F)c(F)c(F)c(F)c6F)c6ccc([nH]6)c(-c6c(F)c(F)c(F)c(F)c6F)c6nc(c(-c7c(F)c(F)c(F)c(F)c7F)c7ccc4[nH]7)C=C6)C=C5)cc3)cs2)c1
REMARK SMILES IDX 22 1 21 2 19 3 20 4 18 6 17 7 15 8 16 9 95 10 94 11 14 12
REMARK SMILES IDX 12 13 13 14 11 16 10 17 9 18 1 19 2 20 3 21 96 22 4 23 5 24
REMARK SMILES IDX 6 25 7 26 8 27 23 28 24 29 25 30 26 31 27 32 28 33 29 34
REMARK SMILES IDX 30 36 31 37 32 38 93 39 33 40 92 41 34 42 35 43 36 44 86 45
REMARK SMILES IDX 37 46 91 47 85 48 87 49 38 50 90 51 84 52 83 53 39 55 71 56
REMARK SMILES IDX 51 57 70 58 52 59 55 60 69 61 88 62 53 63 54 64 68 66 89 67
REMARK SMILES IDX 56 68 40 69 41 70 49 71 42 72 43 73 47 74 50 75 44 76 45 77
REMARK SMILES IDX 48 78 46 79 72 80 73 81 81 82 74 83 75 84 79 85 82 86 76 87
REMARK SMILES IDX 77 88 80 89 78 90 57 91 58 92 66 93 59 94 60 95 64 96 67 97
REMARK SMILES IDX 61 98 62 99 65 100 63 101
REMARK H PARENT 21 5 14 15 28 35 87 54 55 65
REMARK Flexibility Score: inf
ROOT
ATOM      1  C   UNL A   1      30.680  28.151  22.546  1.00  0.00     0.116 C 
ENDROOT
BRANCH   1   2
ATOM      2  N   UNL A   1      29.543  27.684  23.314  1.00  0.00    -0.356 N 
ATOM      3  C   UNL A   1      29.247  26.414  23.724  1.00  0.00     0.226 C 
ATOM      4  O   UNL A   1      28.276  26.256  24.468  1.00  0.00    -0.275 OA
ATOM      5  H   UNL A   1      28.895  28.377  23.576  1.00  0.00     0.163 HD
BRANCH   3   6
ATOM      6  C   UNL A   1      30.103  25.235  23.290  1.00  0.00     0.157 C 
BRANCH   6   7
ATOM      7  C   UNL A   1      30.630  24.451  24.448  1.00  0.00     0.063 A 
ATOM      8  C   UNL A   1      31.206  22.547  25.392  1.00  0.00     0.189 A 
ATOM      9  N   UNL A   1      30.944  23.112  24.246  1.00  0.00    -0.224 NA
ATOM     10  S   UNL A   1      31.202  23.564  26.760  1.00  0.00    -0.105 S 
ATOM     11  C   UNL A   1      30.806  24.891  25.748  1.00  0.00     0.093 A 
BRANCH   8  12
ATOM     12  N   UNL A   1      31.444  21.237  25.671  1.00  0.00    -0.299 N 
ATOM     13  C   UNL A   1      32.339  20.420  25.057  1.00  0.00     0.264 C 
ATOM     14  O   UNL A   1      32.324  19.223  25.372  1.00  0.00    -0.271 OA
ATOM     15  H   UNL A   1      30.909  20.839  26.395  1.00  0.00     0.172 HD
BRANCH  13  16
ATOM     16  C   UNL A   1      33.409  20.960  24.092  1.00  0.00     0.329 C 
BRANCH  16  17
ATOM     17  O   UNL A   1      33.806  22.313  24.178  1.00  0.00    -0.483 OA
BRANCH  17  18
ATOM     18  C   UNL A   1      35.023  22.646  24.703  1.00  0.00     0.123 A 
ATOM     19  C   UNL A   1      38.448  21.208  25.570  1.00  0.00     0.044 C 
ATOM     20  C   UNL A   1      37.315  22.175  25.386  1.00  0.00    -0.047 A 
ATOM     21  C   UNL A   1      37.502  23.527  25.673  1.00  0.00     0.004 A 
ATOM     22  C   UNL A   1      36.069  21.741  24.914  1.00  0.00     0.050 A 
ATOM     23  C   UNL A   1      36.455  24.430  25.506  1.00  0.00     0.008 A 
ATOM     24  C   UNL A   1      35.206  24.009  25.017  1.00  0.00    -0.003 A 
BRANCH  24  25
ATOM     25  C   UNL A   1      34.083  25.024  24.835  1.00  0.00     0.017 C 
ATOM     26  C   UNL A   1      34.206  26.186  25.824  1.00  0.00     0.012 C 
ATOM     27  C   UNL A   1      34.032  25.555  23.401  1.00  0.00     0.012 C 
ENDBRANCH  24  25
ENDBRANCH  17  18
ENDBRANCH  16  17
ENDBRANCH  13  16
ENDBRANCH   8  12
ENDBRANCH   6   7
ENDBRANCH   3   6
ENDBRANCH   1   2
BRANCH   1  28
ATOM     28  C   UNL A   1      31.666  28.976  23.372  1.00  0.00     0.021 C 
BRANCH  28  29
ATOM     29  C   UNL A   1      31.128  29.482  24.719  1.00  0.00     0.002 C 
BRANCH  29  30
ATOM     30  C   UNL A   1      31.965  29.163  25.972  1.00  0.00     0.002 C 
BRANCH  30  31
ATOM     31  C   UNL A   1      32.893  30.271  26.482  1.00  0.00     0.021 C 
BRANCH  31  32
ATOM     32  C   UNL A   1      33.633  29.936  27.769  1.00  0.00     0.116 C 
BRANCH  32  33
ATOM     33  N   UNL A   1      34.293  31.069  28.408  1.00  0.00    -0.352 N 
ATOM     34  C   UNL A   1      35.557  31.136  28.975  1.00  0.00     0.251 C 
ATOM     35  H   UNL A   1      33.769  31.902  28.442  1.00  0.00     0.163 HD
ATOM     36  O   UNL A   1      35.937  32.153  29.531  1.00  0.00    -0.269 OA
BRANCH  34  37
ATOM     37  C   UNL A   1      36.491  30.000  28.782  1.00  0.00     0.039 A 
ATOM     38  C   UNL A   1      36.836  29.234  29.903  1.00  0.00     0.014 A 
ATOM     39  C   UNL A   1      37.178  29.839  27.583  1.00  0.00     0.014 A 
ATOM     40  C   UNL A   1      38.023  28.507  29.892  1.00  0.00     0.010 A 
ATOM     41  C   UNL A   1      38.405  29.208  27.602  1.00  0.00     0.010 A 
ATOM     42  C   UNL A   1      38.859  28.605  28.780  1.00  0.00    -0.014 A 
BRANCH  42  43
ATOM     43  C   UNL A   1      40.256  28.194  28.791  1.00  0.00     0.031 A 
ATOM     44  C   UNL A   1      40.642  26.846  28.330  1.00  0.00     0.074 A 
ATOM     45  C   UNL A   1      41.206  29.093  29.133  1.00  0.00     0.049 A 
ATOM     46  N   UNL A   1      41.746  26.255  28.638  1.00  0.00    -0.248 NA
ATOM     47  C   UNL A   1      39.762  26.023  27.514  1.00  0.00     0.031 C 
ATOM     48  C   UNL A   1      42.648  28.973  28.935  1.00  0.00     0.029 A 
ATOM     49  N   UNL A   1      41.057  30.242  29.929  1.00  0.00    -0.354 N 
ATOM     50  C   UNL A   1      41.853  25.121  27.864  1.00  0.00     0.074 A 
ATOM     51  C   UNL A   1      40.553  24.979  27.252  1.00  0.00     0.031 C 
ATOM     52  C   UNL A   1      43.272  29.784  29.803  1.00  0.00     0.029 A 
ATOM     53  C   UNL A   1      42.254  30.339  30.676  1.00  0.00     0.049 A 
ATOM     54  H   UNL A   1      40.283  30.849  29.960  1.00  0.00     0.167 HD
ATOM     55  C   UNL A   1      43.077  24.523  27.739  1.00  0.00     0.037 A 
ATOM     56  C   UNL A   1      42.256  30.236  32.037  1.00  0.00     0.037 A 
ATOM     57  C   UNL A   1      44.050  25.147  28.640  1.00  0.00     0.049 A 
ATOM     58  C   UNL A   1      43.098  29.103  32.568  1.00  0.00     0.074 A 
ATOM     59  C   UNL A   1      45.050  26.086  28.442  1.00  0.00     0.029 A 
ATOM     60  N   UNL A   1      43.876  25.043  30.018  1.00  0.00    -0.354 N 
ATOM     61  N   UNL A   1      43.481  28.085  31.847  1.00  0.00    -0.248 NA
ATOM     62  C   UNL A   1      43.550  29.008  33.952  1.00  0.00     0.031 C 
ATOM     63  C   UNL A   1      45.438  26.590  29.709  1.00  0.00     0.029 A 
ATOM     64  C   UNL A   1      44.692  25.943  30.678  1.00  0.00     0.049 A 
ATOM     65  H   UNL A   1      43.259  24.417  30.461  1.00  0.00     0.167 HD
ATOM     66  C   UNL A   1      44.192  27.213  32.629  1.00  0.00     0.074 A 
ATOM     67  C   UNL A   1      44.224  27.844  33.934  1.00  0.00     0.031 C 
ATOM     68  C   UNL A   1      44.685  26.039  32.131  1.00  0.00     0.037 A 
BRANCH  55  69
ATOM     69  C   UNL A   1      43.484  23.586  26.609  1.00  0.00     0.064 A 
ATOM     70  C   UNL A   1      43.058  22.236  26.608  1.00  0.00     0.173 A 
ATOM     71  C   UNL A   1      44.350  23.909  25.547  1.00  0.00     0.173 A 
ATOM     72  F   UNL A   1      42.140  21.789  27.474  1.00  0.00    -0.203 F 
ATOM     73  C   UNL A   1      43.556  21.281  25.711  1.00  0.00     0.198 A 
ATOM     74  C   UNL A   1      44.881  22.950  24.676  1.00  0.00     0.198 A 
ATOM     75  F   UNL A   1      44.669  25.171  25.257  1.00  0.00    -0.203 F 
ATOM     76  F   UNL A   1      43.123  20.014  25.781  1.00  0.00    -0.200 F 
ATOM     77  C   UNL A   1      44.496  21.631  24.767  1.00  0.00     0.200 A 
ATOM     78  F   UNL A   1      45.767  23.324  23.741  1.00  0.00    -0.200 F 
ATOM     79  F   UNL A   1      45.002  20.714  23.933  1.00  0.00    -0.200 F 
ENDBRANCH  55  69
BRANCH  56  80
ATOM     80  C   UNL A   1      41.012  30.753  32.661  1.00  0.00     0.064 A 
ATOM     81  C   UNL A   1      40.809  32.146  32.670  1.00  0.00     0.173 A 
ATOM     82  C   UNL A   1      39.894  29.933  32.857  1.00  0.00     0.173 A 
ATOM     83  F   UNL A   1      41.850  32.974  32.487  1.00  0.00    -0.203 F 
ATOM     84  C   UNL A   1      39.529  32.691  32.743  1.00  0.00     0.198 A 
ATOM     85  C   UNL A   1      38.614  30.484  32.943  1.00  0.00     0.198 A 
ATOM     86  F   UNL A   1      40.021  28.599  32.838  1.00  0.00    -0.203 F 
ATOM     87  F   UNL A   1      39.360  34.016  32.631  1.00  0.00    -0.200 F 
ATOM     88  C   UNL A   1      38.429  31.857  32.848  1.00  0.00     0.200 A 
ATOM     89  F   UNL A   1      37.546  29.678  33.022  1.00  0.00    -0.200 F 
ATOM     90  F   UNL A   1      37.193  32.372  32.818  1.00  0.00    -0.200 F 
ENDBRANCH  56  80
BRANCH  68  91
ATOM     91  C   UNL A   1      45.292  24.918  32.938  1.00  0.00     0.064 A 
ATOM     92  C   UNL A   1      46.577  24.963  33.502  1.00  0.00     0.173 A 
ATOM     93  C   UNL A   1      44.510  23.792  33.295  1.00  0.00     0.173 A 
ATOM     94  F   UNL A   1      47.372  26.029  33.340  1.00  0.00    -0.203 F 
ATOM     95  C   UNL A   1      47.068  23.932  34.309  1.00  0.00     0.198 A 
ATOM     96  C   UNL A   1      44.981  22.793  34.146  1.00  0.00     0.198 A 
ATOM     97  F   UNL A   1      43.255  23.640  32.848  1.00  0.00    -0.203 F 
ATOM     98  F   UNL A   1      48.317  24.003  34.789  1.00  0.00    -0.200 F 
ATOM     99  C   UNL A   1      46.267  22.854  34.640  1.00  0.00     0.200 A 
ATOM    100  F   UNL A   1      44.174  21.783  34.499  1.00  0.00    -0.200 F 
ATOM    101  F   UNL A   1      46.726  21.891  35.451  1.00  0.00    -0.200 F 
ENDBRANCH  68  91
ENDBRANCH  42  43
ENDBRANCH  34  37
ENDBRANCH  32  33
ENDBRANCH  31  32
ENDBRANCH  30  31
ENDBRANCH  29  30
ENDBRANCH  28  29
ENDBRANCH   1  28
TORSDOF 19
ENDMDL
