MODEL 1
REMARK VINA RESULT:     -13.4      0.000      0.000
REMARK SMILES O=C(NCCCCCCNC(=O)[C@@H]1CC=CC[C@H]1C(=O)N1CC[NH+](Cc2ccc3c(c2)OCO3)CC1)c1ccc(-c2c3nc(c(-c4c(F)c(F)c(F)c(F)c4F)c4ccc([nH]4)c(-c4c(F)c(F)c(F)c(F)c4F)c4nc(c(-c5c(F)c(F)c(F)c(F)c5F)c5ccc2[nH]5)C=C4)C=C3)cc1
REMARK SMILES IDX 7 1 6 2 5 3 4 4 3 5 1 6 2 7 37 9 38 10 99 11 39 12 98 13
REMARK SMILES IDX 40 14 41 15 42 16 92 17 43 18 97 19 91 20 93 21 44 22 96 23
REMARK SMILES IDX 90 24 89 25 45 27 77 28 57 29 76 30 58 31 61 32 75 33 94 34
REMARK SMILES IDX 59 35 60 36 74 38 95 39 62 40 46 41 47 42 55 43 48 44 49 45
REMARK SMILES IDX 53 46 56 47 50 48 51 49 54 50 52 51 78 52 79 53 87 54 80 55
REMARK SMILES IDX 81 56 85 57 88 58 82 59 83 60 86 61 84 62 63 63 64 64 72 65
REMARK SMILES IDX 65 66 66 67 70 68 73 69 67 70 68 71 71 72 69 73 8 74 9 75
REMARK SMILES IDX 10 76 11 77 12 79 13 80 14 81 18 82 15 83 17 84 16 85 19 86
REMARK SMILES IDX 20 87 21 88 22 89 36 90 23 91 35 92 24 93 25 95 26 96 27 97
REMARK SMILES IDX 31 98 28 99 30 100 29 101 32 102 34 103 33 104
REMARK H PARENT 3 8 93 26 61 37 10 78 24 94
REMARK Flexibility Score: inf
ROOT
ATOM      1  C   UNL A   1      37.794  22.632  25.153  1.00  0.00     0.002 C 
ENDROOT
BRANCH   1   2
ATOM      2  C   UNL A   1      37.278  21.337  24.517  1.00  0.00     0.002 C 
BRANCH   2   3
ATOM      3  C   UNL A   1      38.008  20.061  24.936  1.00  0.00     0.021 C 
BRANCH   3   4
ATOM      4  C   UNL A   1      39.067  20.248  26.014  1.00  0.00     0.116 C 
BRANCH   4   5
ATOM      5  N   UNL A   1      40.132  19.263  25.941  1.00  0.00    -0.352 N 
ATOM      6  O   UNL A   1      42.266  18.526  25.826  1.00  0.00    -0.269 OA
ATOM      7  C   UNL A   1      41.490  19.453  26.041  1.00  0.00     0.251 C 
ATOM      8  H   UNL A   1      39.843  18.333  25.801  1.00  0.00     0.163 HD
BRANCH   7   9
ATOM      9  C   UNL A   1      42.017  20.792  26.379  1.00  0.00     0.039 A 
ATOM     10  C   UNL A   1      42.285  21.140  27.705  1.00  0.00     0.014 A 
ATOM     11  C   UNL A   1      42.234  21.718  25.354  1.00  0.00     0.014 A 
ATOM     12  C   UNL A   1      42.625  22.450  28.019  1.00  0.00     0.010 A 
ATOM     13  C   UNL A   1      42.661  23.011  25.664  1.00  0.00     0.010 A 
ATOM     14  C   UNL A   1      42.827  23.398  27.003  1.00  0.00    -0.014 A 
BRANCH  14  15
ATOM     15  C   UNL A   1      43.258  24.771  27.368  1.00  0.00     0.031 A 
ATOM     16  C   UNL A   1      44.653  25.253  27.084  1.00  0.00     0.074 A 
ATOM     17  C   UNL A   1      42.358  25.600  27.932  1.00  0.00     0.049 A 
ATOM     18  N   UNL A   1      45.176  26.435  27.297  1.00  0.00    -0.248 NA
ATOM     19  C   UNL A   1      45.586  24.284  26.492  1.00  0.00     0.031 C 
ATOM     20  C   UNL A   1      40.979  25.238  28.268  1.00  0.00     0.029 A 
ATOM     21  N   UNL A   1      42.455  26.917  28.299  1.00  0.00    -0.354 N 
ATOM     22  C   UNL A   1      46.501  26.347  26.887  1.00  0.00     0.074 A 
ATOM     23  C   UNL A   1      46.709  24.987  26.434  1.00  0.00     0.031 C 
ATOM     24  C   UNL A   1      40.343  26.320  28.737  1.00  0.00     0.029 A 
ATOM     25  C   UNL A   1      41.282  27.435  28.791  1.00  0.00     0.049 A 
ATOM     26  H   UNL A   1      43.285  27.441  28.218  1.00  0.00     0.167 HD
ATOM     27  C   UNL A   1      47.450  27.313  26.885  1.00  0.00     0.037 A 
ATOM     28  C   UNL A   1      40.996  28.669  29.242  1.00  0.00     0.037 A 
ATOM     29  C   UNL A   1      47.230  28.670  27.318  1.00  0.00     0.049 A 
ATOM     30  C   UNL A   1      42.072  29.714  29.239  1.00  0.00     0.074 A 
ATOM     31  C   UNL A   1      48.115  29.735  27.307  1.00  0.00     0.029 A 
ATOM     32  N   UNL A   1      46.039  29.149  27.845  1.00  0.00    -0.354 N 
ATOM     33  N   UNL A   1      43.307  29.629  28.809  1.00  0.00    -0.248 NA
ATOM     34  C   UNL A   1      41.715  31.028  29.791  1.00  0.00     0.031 C 
ATOM     35  C   UNL A   1      47.473  30.844  27.871  1.00  0.00     0.029 A 
ATOM     36  C   UNL A   1      46.174  30.485  28.186  1.00  0.00     0.049 A 
ATOM     37  H   UNL A   1      45.218  28.617  27.959  1.00  0.00     0.167 HD
ATOM     38  C   UNL A   1      43.870  30.879  29.020  1.00  0.00     0.074 A 
ATOM     39  C   UNL A   1      42.833  31.712  29.598  1.00  0.00     0.031 C 
ATOM     40  C   UNL A   1      45.132  31.299  28.760  1.00  0.00     0.037 A 
BRANCH  27  41
ATOM     41  C   UNL A   1      48.828  26.937  26.417  1.00  0.00     0.064 A 
ATOM     42  C   UNL A   1      49.781  26.388  27.289  1.00  0.00     0.173 A 
ATOM     43  C   UNL A   1      49.186  27.090  25.070  1.00  0.00     0.173 A 
ATOM     44  F   UNL A   1      49.494  26.230  28.591  1.00  0.00    -0.203 F 
ATOM     45  C   UNL A   1      51.048  26.030  26.833  1.00  0.00     0.198 A 
ATOM     46  C   UNL A   1      50.443  26.707  24.611  1.00  0.00     0.198 A 
ATOM     47  F   UNL A   1      48.310  27.604  24.192  1.00  0.00    -0.203 F 
ATOM     48  F   UNL A   1      51.956  25.549  27.693  1.00  0.00    -0.200 F 
ATOM     49  C   UNL A   1      51.376  26.184  25.494  1.00  0.00     0.200 A 
ATOM     50  F   UNL A   1      50.755  26.846  23.315  1.00  0.00    -0.200 F 
ATOM     51  F   UNL A   1      52.593  25.835  25.057  1.00  0.00    -0.200 F 
ENDBRANCH  27  41
BRANCH  28  52
ATOM     52  C   UNL A   1      39.623  28.979  29.717  1.00  0.00     0.064 A 
ATOM     53  C   UNL A   1      39.255  28.752  31.049  1.00  0.00     0.173 A 
ATOM     54  C   UNL A   1      38.660  29.523  28.855  1.00  0.00     0.173 A 
ATOM     55  F   UNL A   1      40.137  28.216  31.906  1.00  0.00    -0.203 F 
ATOM     56  C   UNL A   1      37.972  29.049  31.501  1.00  0.00     0.198 A 
ATOM     57  C   UNL A   1      37.386  29.847  29.314  1.00  0.00     0.198 A 
ATOM     58  F   UNL A   1      38.965  29.764  27.571  1.00  0.00    -0.203 F 
ATOM     59  F   UNL A   1      37.633  28.790  32.771  1.00  0.00    -0.200 F 
ATOM     60  C   UNL A   1      37.040  29.603  30.634  1.00  0.00     0.200 A 
ATOM     61  F   UNL A   1      36.494  30.398  28.478  1.00  0.00    -0.200 F 
ATOM     62  F   UNL A   1      35.808  29.898  31.073  1.00  0.00    -0.200 F 
ENDBRANCH  28  52
BRANCH  40  63
ATOM     63  C   UNL A   1      45.448  32.732  29.074  1.00  0.00     0.064 A 
ATOM     64  C   UNL A   1      45.952  33.116  30.326  1.00  0.00     0.173 A 
ATOM     65  C   UNL A   1      45.258  33.729  28.106  1.00  0.00     0.173 A 
ATOM     66  F   UNL A   1      46.133  32.201  31.289  1.00  0.00    -0.203 F 
ATOM     67  C   UNL A   1      46.224  34.452  30.606  1.00  0.00     0.198 A 
ATOM     68  C   UNL A   1      45.559  35.060  28.381  1.00  0.00     0.198 A 
ATOM     69  F   UNL A   1      44.782  33.412  26.893  1.00  0.00    -0.203 F 
ATOM     70  F   UNL A   1      46.654  34.804  31.827  1.00  0.00    -0.200 F 
ATOM     71  C   UNL A   1      46.032  35.421  29.633  1.00  0.00     0.200 A 
ATOM     72  F   UNL A   1      45.382  35.993  27.436  1.00  0.00    -0.200 F 
ATOM     73  F   UNL A   1      46.295  36.707  29.905  1.00  0.00    -0.200 F 
ENDBRANCH  40  63
ENDBRANCH  14  15
ENDBRANCH   7   9
ENDBRANCH   4   5
ENDBRANCH   3   4
ENDBRANCH   2   3
ENDBRANCH   1   2
BRANCH   1  74
ATOM     74  C   UNL A   1      36.825  23.334  26.113  1.00  0.00     0.021 C 
BRANCH  74  75
ATOM     75  C   UNL A   1      35.996  24.447  25.481  1.00  0.00     0.116 C 
BRANCH  75  76
ATOM     76  N   UNL A   1      34.643  24.460  26.000  1.00  0.00    -0.356 N 
ATOM     77  C   UNL A   1      33.612  25.310  25.741  1.00  0.00     0.224 C 
ATOM     78  H   UNL A   1      34.437  23.740  26.639  1.00  0.00     0.163 HD
ATOM     79  O   UNL A   1      32.553  25.125  26.337  1.00  0.00    -0.275 OA
BRANCH  77  80
ATOM     80  C   UNL A   1      33.811  26.458  24.762  1.00  0.00     0.095 C 
ATOM     81  C   UNL A   1      33.476  27.773  25.484  1.00  0.00     0.041 C 
ATOM     82  C   UNL A   1      32.933  26.270  23.518  1.00  0.00     0.095 C 
ATOM     83  C   UNL A   1      33.395  28.940  24.546  1.00  0.00    -0.030 C 
ATOM     84  C   UNL A   1      33.071  27.465  22.552  1.00  0.00     0.041 C 
ATOM     85  C   UNL A   1      33.225  28.796  23.225  1.00  0.00    -0.030 C 
BRANCH  82  86
ATOM     86  C   UNL A   1      33.165  24.997  22.694  1.00  0.00     0.227 C 
ATOM     87  O   UNL A   1      33.696  25.071  21.583  1.00  0.00    -0.275 OA
ATOM     88  N   UNL A   1      33.053  23.778  23.355  1.00  0.00    -0.331 N 
ATOM     89  C   UNL A   1      34.075  22.782  23.053  1.00  0.00     0.181 C 
ATOM     90  C   UNL A   1      31.755  23.182  23.651  1.00  0.00     0.181 C 
ATOM     91  C   UNL A   1      34.149  21.671  24.122  1.00  0.00     0.284 C 
ATOM     92  C   UNL A   1      31.847  22.130  24.771  1.00  0.00     0.284 C 
ATOM     93  N   UNL A   1      32.872  21.095  24.577  1.00  0.00    -0.328 N 
ATOM     94  H   UNL A   1      33.060  20.712  25.504  1.00  0.00     0.348 HD
BRANCH  93  95
ATOM     95  C   UNL A   1      32.429  19.882  23.878  1.00  0.00     0.299 C 
BRANCH  95  96
ATOM     96  C   UNL A   1      32.968  18.568  24.391  1.00  0.00     0.010 A 
ATOM     97  C   UNL A   1      34.329  18.232  24.204  1.00  0.00     0.013 A 
ATOM     98  C   UNL A   1      32.103  17.631  24.983  1.00  0.00     0.060 A 
ATOM     99  C   UNL A   1      34.804  16.953  24.505  1.00  0.00     0.051 A 
ATOM    100  C   UNL A   1      32.597  16.375  25.260  1.00  0.00     0.166 A 
ATOM    101  C   UNL A   1      33.906  16.041  25.013  1.00  0.00     0.165 A 
ATOM    102  O   UNL A   1      31.873  15.326  25.735  1.00  0.00    -0.454 OA
ATOM    103  O   UNL A   1      34.174  14.740  25.304  1.00  0.00    -0.454 OA
ATOM    104  C   UNL A   1      32.865  14.276  25.692  1.00  0.00     0.468 C 
ENDBRANCH  95  96
ENDBRANCH  93  95
ENDBRANCH  82  86
ENDBRANCH  77  80
ENDBRANCH  75  76
ENDBRANCH  74  75
ENDBRANCH   1  74
TORSDOF 16
ENDMDL
MODEL 2
REMARK VINA RESULT:     -13.2      0.875      7.070
REMARK SMILES O=C(NCCCCCCNC(=O)[C@@H]1CC=CC[C@H]1C(=O)N1CC[NH+](Cc2ccc3c(c2)OCO3)CC1)c1ccc(-c2c3nc(c(-c4c(F)c(F)c(F)c(F)c4F)c4ccc([nH]4)c(-c4c(F)c(F)c(F)c(F)c4F)c4nc(c(-c5c(F)c(F)c(F)c(F)c5F)c5ccc2[nH]5)C=C4)C=C3)cc1
REMARK SMILES IDX 7 1 6 2 5 3 4 4 3 5 1 6 2 7 37 9 38 10 99 11 39 12 98 13
REMARK SMILES IDX 40 14 41 15 42 16 92 17 43 18 97 19 91 20 93 21 44 22 96 23
REMARK SMILES IDX 90 24 89 25 45 27 77 28 57 29 76 30 58 31 61 32 75 33 94 34
REMARK SMILES IDX 59 35 60 36 74 38 95 39 62 40 46 41 47 42 55 43 48 44 49 45
REMARK SMILES IDX 53 46 56 47 50 48 51 49 54 50 52 51 78 52 79 53 87 54 80 55
REMARK SMILES IDX 81 56 85 57 88 58 82 59 83 60 86 61 84 62 63 63 64 64 72 65
REMARK SMILES IDX 65 66 66 67 70 68 73 69 67 70 68 71 71 72 69 73 8 74 9 75
REMARK SMILES IDX 10 76 11 77 12 79 13 80 14 81 18 82 15 83 17 84 16 85 19 86
REMARK SMILES IDX 20 87 21 88 22 89 36 90 23 91 35 92 24 93 25 95 26 96 27 97
REMARK SMILES IDX 31 98 28 99 30 100 29 101 32 102 34 103 33 104
REMARK H PARENT 3 8 93 26 61 37 10 78 24 94
REMARK Flexibility Score: inf
ROOT
ATOM      1  C   UNL A   1      38.226  22.826  25.721  1.00  0.00     0.002 C 
ENDROOT
BRANCH   1   2
ATOM      2  C   UNL A   1      37.613  21.677  24.913  1.00  0.00     0.002 C 
BRANCH   2   3
ATOM      3  C   UNL A   1      38.398  20.365  24.935  1.00  0.00     0.021 C 
BRANCH   3   4
ATOM      4  C   UNL A   1      39.197  20.112  26.205  1.00  0.00     0.116 C 
BRANCH   4   5
ATOM      5  N   UNL A   1      40.296  19.182  26.009  1.00  0.00    -0.352 N 
ATOM      6  O   UNL A   1      42.446  18.551  25.715  1.00  0.00    -0.269 OA
ATOM      7  C   UNL A   1      41.648  19.428  26.031  1.00  0.00     0.251 C 
ATOM      8  H   UNL A   1      40.037  18.248  25.837  1.00  0.00     0.163 HD
BRANCH   7   9
ATOM      9  C   UNL A   1      42.140  20.771  26.407  1.00  0.00     0.039 A 
ATOM     10  C   UNL A   1      42.257  21.137  27.749  1.00  0.00     0.014 A 
ATOM     11  C   UNL A   1      42.476  21.680  25.400  1.00  0.00     0.014 A 
ATOM     12  C   UNL A   1      42.566  22.451  28.082  1.00  0.00     0.010 A 
ATOM     13  C   UNL A   1      42.871  22.977  25.738  1.00  0.00     0.010 A 
ATOM     14  C   UNL A   1      42.886  23.383  27.081  1.00  0.00    -0.014 A 
BRANCH  14  15
ATOM     15  C   UNL A   1      43.280  24.760  27.474  1.00  0.00     0.031 A 
ATOM     16  C   UNL A   1      42.253  25.785  27.864  1.00  0.00     0.074 A 
ATOM     17  C   UNL A   1      44.591  25.069  27.510  1.00  0.00     0.049 A 
ATOM     18  N   UNL A   1      42.431  27.015  28.276  1.00  0.00    -0.248 NA
ATOM     19  C   UNL A   1      40.841  25.384  27.774  1.00  0.00     0.031 C 
ATOM     20  C   UNL A   1      45.677  24.159  27.139  1.00  0.00     0.029 A 
ATOM     21  N   UNL A   1      45.234  26.216  27.897  1.00  0.00    -0.354 N 
ATOM     22  C   UNL A   1      41.160  27.542  28.473  1.00  0.00     0.074 A 
ATOM     23  C   UNL A   1      40.217  26.504  28.112  1.00  0.00     0.031 C 
ATOM     24  C   UNL A   1      46.851  24.761  27.370  1.00  0.00     0.029 A 
ATOM     25  C   UNL A   1      46.603  26.117  27.849  1.00  0.00     0.049 A 
ATOM     26  H   UNL A   1      44.761  27.031  28.182  1.00  0.00     0.167 HD
ATOM     27  C   UNL A   1      40.815  28.774  28.918  1.00  0.00     0.037 A 
ATOM     28  C   UNL A   1      47.553  27.020  28.149  1.00  0.00     0.037 A 
ATOM     29  C   UNL A   1      41.760  29.795  29.295  1.00  0.00     0.049 A 
ATOM     30  C   UNL A   1      47.140  28.381  28.628  1.00  0.00     0.074 A 
ATOM     31  C   UNL A   1      41.510  31.058  29.805  1.00  0.00     0.029 A 
ATOM     32  N   UNL A   1      43.139  29.672  29.198  1.00  0.00    -0.354 N 
ATOM     33  N   UNL A   1      45.937  28.849  28.850  1.00  0.00    -0.248 NA
ATOM     34  C   UNL A   1      48.220  29.340  28.892  1.00  0.00     0.031 C 
ATOM     35  C   UNL A   1      42.735  31.715  29.972  1.00  0.00     0.029 A 
ATOM     36  C   UNL A   1      43.751  30.844  29.613  1.00  0.00     0.049 A 
ATOM     37  H   UNL A   1      43.613  28.870  28.880  1.00  0.00     0.167 HD
ATOM     38  C   UNL A   1      46.113  30.151  29.298  1.00  0.00     0.074 A 
ATOM     39  C   UNL A   1      47.542  30.390  29.335  1.00  0.00     0.031 C 
ATOM     40  C   UNL A   1      45.175  31.065  29.644  1.00  0.00     0.037 A 
BRANCH  27  41
ATOM     41  C   UNL A   1      39.352  29.100  29.006  1.00  0.00     0.064 A 
ATOM     42  C   UNL A   1      38.603  29.452  27.873  1.00  0.00     0.173 A 
ATOM     43  C   UNL A   1      38.680  29.020  30.235  1.00  0.00     0.173 A 
ATOM     44  F   UNL A   1      39.199  29.554  26.674  1.00  0.00    -0.203 F 
ATOM     45  C   UNL A   1      37.242  29.735  27.972  1.00  0.00     0.198 A 
ATOM     46  C   UNL A   1      37.314  29.278  30.327  1.00  0.00     0.198 A 
ATOM     47  F   UNL A   1      39.347  28.681  31.349  1.00  0.00    -0.203 F 
ATOM     48  F   UNL A   1      36.557  30.112  26.883  1.00  0.00    -0.200 F 
ATOM     49  C   UNL A   1      36.598  29.642  29.197  1.00  0.00     0.200 A 
ATOM     50  F   UNL A   1      36.692  29.176  31.509  1.00  0.00    -0.200 F 
ATOM     51  F   UNL A   1      35.289  29.911  29.289  1.00  0.00    -0.200 F 
ENDBRANCH  27  41
BRANCH  28  52
ATOM     52  C   UNL A   1      48.986  26.651  28.020  1.00  0.00     0.064 A 
ATOM     53  C   UNL A   1      49.617  26.650  26.770  1.00  0.00     0.173 A 
ATOM     54  C   UNL A   1      49.755  26.312  29.142  1.00  0.00     0.173 A 
ATOM     55  F   UNL A   1      48.917  26.951  25.665  1.00  0.00    -0.203 F 
ATOM     56  C   UNL A   1      50.963  26.313  26.644  1.00  0.00     0.198 A 
ATOM     57  C   UNL A   1      51.107  26.004  29.020  1.00  0.00     0.198 A 
ATOM     58  F   UNL A   1      49.197  26.305  30.363  1.00  0.00    -0.203 F 
ATOM     59  F   UNL A   1      51.535  26.285  25.433  1.00  0.00    -0.200 F 
ATOM     60  C   UNL A   1      51.708  25.998  27.771  1.00  0.00     0.200 A 
ATOM     61  F   UNL A   1      51.829  25.716  30.113  1.00  0.00    -0.200 F 
ATOM     62  F   UNL A   1      53.006  25.684  27.651  1.00  0.00    -0.200 F 
ENDBRANCH  28  52
BRANCH  40  63
ATOM     63  C   UNL A   1      45.672  32.399  30.121  1.00  0.00     0.064 A 
ATOM     64  C   UNL A   1      45.864  33.470  29.236  1.00  0.00     0.173 A 
ATOM     65  C   UNL A   1      45.944  32.609  31.480  1.00  0.00     0.173 A 
ATOM     66  F   UNL A   1      45.635  33.311  27.925  1.00  0.00    -0.203 F 
ATOM     67  C   UNL A   1      46.342  34.695  29.693  1.00  0.00     0.198 A 
ATOM     68  C   UNL A   1      46.394  33.845  31.937  1.00  0.00     0.198 A 
ATOM     69  F   UNL A   1      45.772  31.617  32.367  1.00  0.00    -0.203 F 
ATOM     70  F   UNL A   1      46.571  35.689  28.822  1.00  0.00    -0.200 F 
ATOM     71  C   UNL A   1      46.601  34.883  31.042  1.00  0.00     0.200 A 
ATOM     72  F   UNL A   1      46.635  34.028  33.242  1.00  0.00    -0.200 F 
ATOM     73  F   UNL A   1      47.061  36.064  31.479  1.00  0.00    -0.200 F 
ENDBRANCH  40  63
ENDBRANCH  14  15
ENDBRANCH   7   9
ENDBRANCH   4   5
ENDBRANCH   3   4
ENDBRANCH   2   3
ENDBRANCH   1   2
BRANCH   1  74
ATOM     74  C   UNL A   1      37.227  23.814  26.337  1.00  0.00     0.021 C 
BRANCH  74  75
ATOM     75  C   UNL A   1      36.180  24.351  25.367  1.00  0.00     0.116 C 
BRANCH  75  76
ATOM     76  N   UNL A   1      34.861  24.366  25.966  1.00  0.00    -0.356 N 
ATOM     77  C   UNL A   1      33.819  25.219  25.771  1.00  0.00     0.224 C 
ATOM     78  H   UNL A   1      34.693  23.646  26.615  1.00  0.00     0.163 HD
ATOM     79  O   UNL A   1      32.796  25.035  26.429  1.00  0.00    -0.275 OA
BRANCH  77  80
ATOM     80  C   UNL A   1      33.960  26.368  24.784  1.00  0.00     0.095 C 
ATOM     81  C   UNL A   1      33.670  27.682  25.527  1.00  0.00     0.041 C 
ATOM     82  C   UNL A   1      33.011  26.183  23.594  1.00  0.00     0.095 C 
ATOM     83  C   UNL A   1      33.536  28.850  24.596  1.00  0.00    -0.030 C 
ATOM     84  C   UNL A   1      33.093  27.379  22.623  1.00  0.00     0.041 C 
ATOM     85  C   UNL A   1      33.288  28.709  23.287  1.00  0.00    -0.030 C 
BRANCH  82  86
ATOM     86  C   UNL A   1      33.192  24.911  22.755  1.00  0.00     0.227 C 
ATOM     87  O   UNL A   1      33.672  24.984  21.621  1.00  0.00    -0.275 OA
ATOM     88  N   UNL A   1      33.098  23.690  23.416  1.00  0.00    -0.331 N 
ATOM     89  C   UNL A   1      34.095  22.686  23.065  1.00  0.00     0.181 C 
ATOM     90  C   UNL A   1      31.809  23.106  23.770  1.00  0.00     0.181 C 
ATOM     91  C   UNL A   1      34.207  21.570  24.125  1.00  0.00     0.284 C 
ATOM     92  C   UNL A   1      31.942  22.048  24.880  1.00  0.00     0.284 C 
ATOM     93  N   UNL A   1      32.947  21.004  24.636  1.00  0.00    -0.328 N 
ATOM     94  H   UNL A   1      33.173  20.616  25.552  1.00  0.00     0.348 HD
BRANCH  93  95
ATOM     95  C   UNL A   1      32.460  19.799  23.954  1.00  0.00     0.299 C 
BRANCH  95  96
ATOM     96  C   UNL A   1      32.979  18.475  24.463  1.00  0.00     0.010 A 
ATOM     97  C   UNL A   1      34.333  18.117  24.271  1.00  0.00     0.013 A 
ATOM     98  C   UNL A   1      32.100  17.553  25.058  1.00  0.00     0.060 A 
ATOM     99  C   UNL A   1      34.787  16.829  24.569  1.00  0.00     0.051 A 
ATOM    100  C   UNL A   1      32.573  16.287  25.331  1.00  0.00     0.166 A 
ATOM    101  C   UNL A   1      33.876  15.932  25.079  1.00  0.00     0.165 A 
ATOM    102  O   UNL A   1      31.834  15.250  25.807  1.00  0.00    -0.454 OA
ATOM    103  O   UNL A   1      34.122  14.626  25.367  1.00  0.00    -0.454 OA
ATOM    104  C   UNL A   1      32.807  14.184  25.759  1.00  0.00     0.468 C 
ENDBRANCH  95  96
ENDBRANCH  93  95
ENDBRANCH  82  86
ENDBRANCH  77  80
ENDBRANCH  75  76
ENDBRANCH  74  75
ENDBRANCH   1  74
TORSDOF 16
ENDMDL
MODEL 3
REMARK VINA RESULT:     -13.1      5.130      9.674
REMARK SMILES O=C(NCCCCCCNC(=O)[C@@H]1CC=CC[C@H]1C(=O)N1CC[NH+](Cc2ccc3c(c2)OCO3)CC1)c1ccc(-c2c3nc(c(-c4c(F)c(F)c(F)c(F)c4F)c4ccc([nH]4)c(-c4c(F)c(F)c(F)c(F)c4F)c4nc(c(-c5c(F)c(F)c(F)c(F)c5F)c5ccc2[nH]5)C=C4)C=C3)cc1
REMARK SMILES IDX 7 1 6 2 5 3 4 4 3 5 1 6 2 7 37 9 38 10 99 11 39 12 98 13
REMARK SMILES IDX 40 14 41 15 42 16 92 17 43 18 97 19 91 20 93 21 44 22 96 23
REMARK SMILES IDX 90 24 89 25 45 27 77 28 57 29 76 30 58 31 61 32 75 33 94 34
REMARK SMILES IDX 59 35 60 36 74 38 95 39 62 40 46 41 47 42 55 43 48 44 49 45
REMARK SMILES IDX 53 46 56 47 50 48 51 49 54 50 52 51 78 52 79 53 87 54 80 55
REMARK SMILES IDX 81 56 85 57 88 58 82 59 83 60 86 61 84 62 63 63 64 64 72 65
REMARK SMILES IDX 65 66 66 67 70 68 73 69 67 70 68 71 71 72 69 73 8 74 9 75
REMARK SMILES IDX 10 76 11 77 12 79 13 80 14 81 18 82 15 83 17 84 16 85 19 86
REMARK SMILES IDX 20 87 21 88 22 89 36 90 23 91 35 92 24 93 25 95 26 96 27 97
REMARK SMILES IDX 31 98 28 99 30 100 29 101 32 102 34 103 33 104
REMARK H PARENT 3 8 93 26 61 37 10 78 24 94
REMARK Flexibility Score: inf
ROOT
ATOM      1  C   UNL A   1      33.557  30.096  26.892  1.00  0.00     0.002 C 
ENDROOT
BRANCH   1   2
ATOM      2  C   UNL A   1      34.188  31.183  27.768  1.00  0.00     0.002 C 
BRANCH   2   3
ATOM      3  C   UNL A   1      33.893  32.622  27.346  1.00  0.00     0.021 C 
BRANCH   3   4
ATOM      4  C   UNL A   1      32.484  33.110  27.657  1.00  0.00     0.116 C 
BRANCH   4   5
ATOM      5  N   UNL A   1      32.423  34.537  27.921  1.00  0.00    -0.352 N 
ATOM      6  O   UNL A   1      32.889  36.464  29.006  1.00  0.00    -0.269 OA
ATOM      7  C   UNL A   1      33.157  35.282  28.812  1.00  0.00     0.251 C 
ATOM      8  H   UNL A   1      31.765  35.040  27.388  1.00  0.00     0.163 HD
BRANCH   7   9
ATOM      9  C   UNL A   1      34.257  34.642  29.566  1.00  0.00     0.039 A 
ATOM     10  C   UNL A   1      35.574  34.722  29.109  1.00  0.00     0.014 A 
ATOM     11  C   UNL A   1      33.962  33.942  30.739  1.00  0.00     0.014 A 
ATOM     12  C   UNL A   1      36.569  33.983  29.739  1.00  0.00     0.010 A 
ATOM     13  C   UNL A   1      34.979  33.270  31.421  1.00  0.00     0.010 A 
ATOM     14  C   UNL A   1      36.286  33.256  30.907  1.00  0.00    -0.014 A 
BRANCH  14  15
ATOM     15  C   UNL A   1      37.385  32.534  31.596  1.00  0.00     0.031 A 
ATOM     16  C   UNL A   1      38.119  31.407  30.926  1.00  0.00     0.074 A 
ATOM     17  C   UNL A   1      37.744  32.935  32.831  1.00  0.00     0.049 A 
ATOM     18  N   UNL A   1      39.132  30.704  31.369  1.00  0.00    -0.248 NA
ATOM     19  C   UNL A   1      37.654  31.009  29.589  1.00  0.00     0.031 C 
ATOM     20  C   UNL A   1      37.095  34.009  33.586  1.00  0.00     0.029 A 
ATOM     21  N   UNL A   1      38.751  32.509  33.658  1.00  0.00    -0.354 N 
ATOM     22  C   UNL A   1      39.410  29.769  30.380  1.00  0.00     0.074 A 
ATOM     23  C   UNL A   1      38.444  29.978  29.322  1.00  0.00     0.031 C 
ATOM     24  C   UNL A   1      37.754  34.197  34.738  1.00  0.00     0.029 A 
ATOM     25  C   UNL A   1      38.833  33.219  34.830  1.00  0.00     0.049 A 
ATOM     26  H   UNL A   1      39.357  31.766  33.433  1.00  0.00     0.167 HD
ATOM     27  C   UNL A   1      40.385  28.829  30.357  1.00  0.00     0.037 A 
ATOM     28  C   UNL A   1      39.679  33.094  35.868  1.00  0.00     0.037 A 
ATOM     29  C   UNL A   1      41.357  28.639  31.405  1.00  0.00     0.049 A 
ATOM     30  C   UNL A   1      40.740  32.034  35.819  1.00  0.00     0.074 A 
ATOM     31  C   UNL A   1      42.414  27.747  31.453  1.00  0.00     0.029 A 
ATOM     32  N   UNL A   1      41.386  29.354  32.595  1.00  0.00    -0.354 N 
ATOM     33  N   UNL A   1      41.020  31.187  34.860  1.00  0.00    -0.248 NA
ATOM     34  C   UNL A   1      41.602  31.912  37.002  1.00  0.00     0.031 C 
ATOM     35  C   UNL A   1      43.054  27.889  32.690  1.00  0.00     0.029 A 
ATOM     36  C   UNL A   1      42.426  28.905  33.393  1.00  0.00     0.049 A 
ATOM     37  H   UNL A   1      40.759  30.074  32.836  1.00  0.00     0.167 HD
ATOM     38  C   UNL A   1      42.099  30.442  35.313  1.00  0.00     0.074 A 
ATOM     39  C   UNL A   1      42.436  30.953  36.627  1.00  0.00     0.031 C 
ATOM     40  C   UNL A   1      42.749  29.425  34.697  1.00  0.00     0.037 A 
BRANCH  27  41
ATOM     41  C   UNL A   1      40.444  27.912  29.168  1.00  0.00     0.064 A 
ATOM     42  C   UNL A   1      39.662  26.749  29.091  1.00  0.00     0.173 A 
ATOM     43  C   UNL A   1      41.263  28.222  28.073  1.00  0.00     0.173 A 
ATOM     44  F   UNL A   1      38.869  26.400  30.117  1.00  0.00    -0.203 F 
ATOM     45  C   UNL A   1      39.717  25.920  27.973  1.00  0.00     0.198 A 
ATOM     46  C   UNL A   1      41.296  27.406  26.945  1.00  0.00     0.198 A 
ATOM     47  F   UNL A   1      42.026  29.327  28.091  1.00  0.00    -0.203 F 
ATOM     48  F   UNL A   1      38.994  24.792  27.941  1.00  0.00    -0.200 F 
ATOM     49  C   UNL A   1      40.529  26.252  26.899  1.00  0.00     0.200 A 
ATOM     50  F   UNL A   1      42.073  27.735  25.903  1.00  0.00    -0.200 F 
ATOM     51  F   UNL A   1      40.578  25.455  25.823  1.00  0.00    -0.200 F 
ENDBRANCH  27  41
BRANCH  28  52
ATOM     52  C   UNL A   1      39.560  34.011  37.029  1.00  0.00     0.064 A 
ATOM     53  C   UNL A   1      38.812  33.649  38.157  1.00  0.00     0.173 A 
ATOM     54  C   UNL A   1      40.205  35.257  37.043  1.00  0.00     0.173 A 
ATOM     55  F   UNL A   1      38.163  32.476  38.182  1.00  0.00    -0.203 F 
ATOM     56  C   UNL A   1      38.704  34.503  39.252  1.00  0.00     0.198 A 
ATOM     57  C   UNL A   1      40.120  36.097  38.150  1.00  0.00     0.198 A 
ATOM     58  F   UNL A   1      40.938  35.646  35.990  1.00  0.00    -0.203 F 
ATOM     59  F   UNL A   1      37.954  34.149  40.304  1.00  0.00    -0.200 F 
ATOM     60  C   UNL A   1      39.365  35.723  39.251  1.00  0.00     0.200 A 
ATOM     61  F   UNL A   1      40.774  37.268  38.152  1.00  0.00    -0.200 F 
ATOM     62  F   UNL A   1      39.269  36.540  40.310  1.00  0.00    -0.200 F 
ENDBRANCH  28  52
BRANCH  40  63
ATOM     63  C   UNL A   1      43.910  28.820  35.431  1.00  0.00     0.064 A 
ATOM     64  C   UNL A   1      45.219  29.292  35.252  1.00  0.00     0.173 A 
ATOM     65  C   UNL A   1      43.707  27.766  36.334  1.00  0.00     0.173 A 
ATOM     66  F   UNL A   1      45.465  30.285  34.385  1.00  0.00    -0.203 F 
ATOM     67  C   UNL A   1      46.287  28.708  35.927  1.00  0.00     0.198 A 
ATOM     68  C   UNL A   1      44.774  27.204  37.030  1.00  0.00     0.198 A 
ATOM     69  F   UNL A   1      42.474  27.282  36.543  1.00  0.00    -0.203 F 
ATOM     70  F   UNL A   1      47.536  29.138  35.701  1.00  0.00    -0.200 F 
ATOM     71  C   UNL A   1      46.063  27.670  36.819  1.00  0.00     0.200 A 
ATOM     72  F   UNL A   1      44.555  26.208  37.898  1.00  0.00    -0.200 F 
ATOM     73  F   UNL A   1      47.093  27.109  37.469  1.00  0.00    -0.200 F 
ENDBRANCH  40  63
ENDBRANCH  14  15
ENDBRANCH   7   9
ENDBRANCH   4   5
ENDBRANCH   3   4
ENDBRANCH   2   3
ENDBRANCH   1   2
BRANCH   1  74
ATOM     74  C   UNL A   1      33.984  28.656  27.205  1.00  0.00     0.021 C 
BRANCH  74  75
ATOM     75  C   UNL A   1      33.729  27.656  26.083  1.00  0.00     0.116 C 
BRANCH  75  76
ATOM     76  N   UNL A   1      32.806  26.619  26.497  1.00  0.00    -0.356 N 
ATOM     77  C   UNL A   1      32.499  25.431  25.907  1.00  0.00     0.224 C 
ATOM     78  H   UNL A   1      32.326  26.802  27.337  1.00  0.00     0.163 HD
ATOM     79  O   UNL A   1      31.649  24.725  26.448  1.00  0.00    -0.275 OA
BRANCH  77  80
ATOM     80  C   UNL A   1      33.183  25.037  24.607  1.00  0.00     0.095 C 
ATOM     81  C   UNL A   1      32.423  25.690  23.442  1.00  0.00     0.041 C 
ATOM     82  C   UNL A   1      33.225  23.511  24.455  1.00  0.00     0.095 C 
ATOM     83  C   UNL A   1      32.859  25.167  22.106  1.00  0.00    -0.030 C 
ATOM     84  C   UNL A   1      33.851  23.101  23.106  1.00  0.00     0.041 C 
ATOM     85  C   UNL A   1      33.512  24.007  21.961  1.00  0.00    -0.030 C 
BRANCH  82  86
ATOM     86  C   UNL A   1      33.961  22.727  25.549  1.00  0.00     0.227 C 
ATOM     87  O   UNL A   1      33.328  21.989  26.309  1.00  0.00    -0.275 OA
ATOM     88  N   UNL A   1      35.345  22.633  25.448  1.00  0.00    -0.331 N 
ATOM     89  C   UNL A   1      35.927  21.324  25.720  1.00  0.00     0.181 C 
ATOM     90  C   UNL A   1      36.220  23.732  25.843  1.00  0.00     0.181 C 
ATOM     91  C   UNL A   1      37.359  21.188  25.163  1.00  0.00     0.284 C 
ATOM     92  C   UNL A   1      37.619  23.608  25.214  1.00  0.00     0.284 C 
ATOM     93  N   UNL A   1      38.282  22.310  25.405  1.00  0.00    -0.328 N 
ATOM     94  H   UNL A   1      38.988  22.248  24.672  1.00  0.00     0.348 HD
BRANCH  93  95
ATOM     95  C   UNL A   1      39.131  22.198  26.598  1.00  0.00     0.299 C 
BRANCH  95  96
ATOM     96  C   UNL A   1      40.520  21.643  26.391  1.00  0.00     0.010 A 
ATOM     97  C   UNL A   1      41.607  22.512  26.140  1.00  0.00     0.013 A 
ATOM     98  C   UNL A   1      40.729  20.253  26.362  1.00  0.00     0.060 A 
ATOM     99  C   UNL A   1      42.858  22.012  25.767  1.00  0.00     0.051 A 
ATOM    100  C   UNL A   1      41.969  19.790  25.981  1.00  0.00     0.166 A 
ATOM    101  C   UNL A   1      43.000  20.646  25.677  1.00  0.00     0.165 A 
ATOM    102  O   UNL A   1      42.308  18.485  25.802  1.00  0.00    -0.454 OA
ATOM    103  O   UNL A   1      44.118  19.988  25.271  1.00  0.00    -0.454 OA
ATOM    104  C   UNL A   1      43.649  18.625  25.284  1.00  0.00     0.468 C 
ENDBRANCH  95  96
ENDBRANCH  93  95
ENDBRANCH  82  86
ENDBRANCH  77  80
ENDBRANCH  75  76
ENDBRANCH  74  75
ENDBRANCH   1  74
TORSDOF 16
ENDMDL
