MODEL 1
REMARK VINA RESULT:     -11.4      0.000      0.000
REMARK SMILES O=C(NCCCCCCNC(=O)c1ccc(COc2cccc(Cl)c2Cl)o1)c1ccc(-c2c3nc(c(-c4c(F)c(F)c(F)c(F)c4F)c4ccc([nH]4)c(-c4c(F)c(F)c(F)c(F)c4F)c4nc(c(-c5c(F)c(F)c(F)c(F)c5F)c5ccc2[nH]5)C=C4)C=C3)cc1
REMARK SMILES IDX 7 1 6 2 5 3 4 4 3 5 1 6 2 7 28 9 29 10 90 11 30 12 89 13
REMARK SMILES IDX 31 14 32 15 33 16 83 17 34 18 88 19 82 20 84 21 35 22 87 23
REMARK SMILES IDX 81 24 80 25 36 27 68 28 48 29 67 30 49 31 52 32 66 33 85 34
REMARK SMILES IDX 50 35 51 36 65 38 86 39 53 40 37 41 38 42 46 43 39 44 40 45
REMARK SMILES IDX 44 46 47 47 41 48 42 49 45 50 43 51 69 52 70 53 78 54 71 55
REMARK SMILES IDX 72 56 76 57 79 58 73 59 74 60 77 61 75 62 54 63 55 64 63 65
REMARK SMILES IDX 56 66 57 67 61 68 64 69 58 70 59 71 62 72 60 73 8 74 9 75
REMARK SMILES IDX 10 76 11 77 12 79 13 80 14 81 27 82 15 83 16 84 17 85 18 86
REMARK SMILES IDX 19 87 20 88 25 89 21 90 23 91 26 92 22 93 24 94
REMARK H PARENT 3 8 84 26 52 37 10 78
REMARK Flexibility Score: inf
ROOT
ATOM      1  C   UNL A   1      34.176  32.275  29.023  1.00  0.00     0.002 C 
ENDROOT
BRANCH   1   2
ATOM      2  C   UNL A   1      34.430  33.771  28.819  1.00  0.00     0.002 C 
BRANCH   2   3
ATOM      3  C   UNL A   1      33.196  34.672  28.842  1.00  0.00     0.021 C 
BRANCH   3   4
ATOM      4  C   UNL A   1      33.397  36.042  29.471  1.00  0.00     0.116 C 
BRANCH   4   5
ATOM      5  N   UNL A   1      32.469  36.319  30.553  1.00  0.00    -0.352 N 
ATOM      6  O   UNL A   1      31.591  36.122  32.626  1.00  0.00    -0.269 OA
ATOM      7  C   UNL A   1      32.522  35.893  31.859  1.00  0.00     0.251 C 
ATOM      8  H   UNL A   1      31.700  36.888  30.320  1.00  0.00     0.163 HD
BRANCH   7   9
ATOM      9  C   UNL A   1      33.695  35.125  32.335  1.00  0.00     0.039 A 
ATOM     10  C   UNL A   1      34.947  35.731  32.455  1.00  0.00     0.014 A 
ATOM     11  C   UNL A   1      33.537  33.775  32.667  1.00  0.00     0.014 A 
ATOM     12  C   UNL A   1      36.060  34.961  32.772  1.00  0.00     0.010 A 
ATOM     13  C   UNL A   1      34.644  33.020  33.068  1.00  0.00     0.010 A 
ATOM     14  C   UNL A   1      35.920  33.601  33.097  1.00  0.00    -0.014 A 
BRANCH  14  15
ATOM     15  C   UNL A   1      37.121  32.844  33.534  1.00  0.00     0.031 A 
ATOM     16  C   UNL A   1      37.803  31.858  32.629  1.00  0.00     0.074 A 
ATOM     17  C   UNL A   1      37.630  33.107  34.753  1.00  0.00     0.049 A 
ATOM     18  N   UNL A   1      38.908  31.183  32.832  1.00  0.00    -0.248 NA
ATOM     19  C   UNL A   1      37.165  31.586  31.333  1.00  0.00     0.031 C 
ATOM     20  C   UNL A   1      37.034  34.021  35.730  1.00  0.00     0.029 A 
ATOM     21  N   UNL A   1      38.772  32.664  35.368  1.00  0.00    -0.354 N 
ATOM     22  C   UNL A   1      39.092  30.401  31.700  1.00  0.00     0.074 A 
ATOM     23  C   UNL A   1      37.973  30.665  30.820  1.00  0.00     0.031 C 
ATOM     24  C   UNL A   1      37.843  34.118  36.794  1.00  0.00     0.029 A 
ATOM     25  C   UNL A   1      38.989  33.236  36.597  1.00  0.00     0.049 A 
ATOM     26  H   UNL A   1      39.377  31.998  34.967  1.00  0.00     0.167 HD
ATOM     27  C   UNL A   1      40.108  29.550  31.419  1.00  0.00     0.037 A 
ATOM     28  C   UNL A   1      39.999  33.073  37.470  1.00  0.00     0.037 A 
ATOM     29  C   UNL A   1      41.226  29.297  32.294  1.00  0.00     0.049 A 
ATOM     30  C   UNL A   1      41.124  32.144  37.118  1.00  0.00     0.074 A 
ATOM     31  C   UNL A   1      42.308  28.456  32.094  1.00  0.00     0.029 A 
ATOM     32  N   UNL A   1      41.406  29.888  33.536  1.00  0.00    -0.354 N 
ATOM     33  N   UNL A   1      41.294  31.429  36.033  1.00  0.00    -0.248 NA
ATOM     34  C   UNL A   1      42.195  31.999  38.111  1.00  0.00     0.031 C 
ATOM     35  C   UNL A   1      43.129  28.517  33.226  1.00  0.00     0.029 A 
ATOM     36  C   UNL A   1      42.576  29.423  34.116  1.00  0.00     0.049 A 
ATOM     37  H   UNL A   1      40.793  30.540  33.945  1.00  0.00     0.167 HD
ATOM     38  C   UNL A   1      42.486  30.745  36.214  1.00  0.00     0.074 A 
ATOM     39  C   UNL A   1      43.018  31.162  37.495  1.00  0.00     0.031 C 
ATOM     40  C   UNL A   1      43.080  29.841  35.399  1.00  0.00     0.037 A 
BRANCH  27  41
ATOM     41  C   UNL A   1      40.066  28.820  30.109  1.00  0.00     0.064 A 
ATOM     42  C   UNL A   1      40.697  29.332  28.966  1.00  0.00     0.173 A 
ATOM     43  C   UNL A   1      39.448  27.564  30.011  1.00  0.00     0.173 A 
ATOM     44  F   UNL A   1      41.292  30.534  29.005  1.00  0.00    -0.203 F 
ATOM     45  C   UNL A   1      40.700  28.619  27.769  1.00  0.00     0.198 A 
ATOM     46  C   UNL A   1      39.471  26.845  28.819  1.00  0.00     0.198 A 
ATOM     47  F   UNL A   1      38.835  27.027  31.077  1.00  0.00    -0.203 F 
ATOM     48  F   UNL A   1      41.285  29.141  26.683  1.00  0.00    -0.200 F 
ATOM     49  C   UNL A   1      40.094  27.373  27.699  1.00  0.00     0.200 A 
ATOM     50  F   UNL A   1      38.894  25.636  28.754  1.00  0.00    -0.200 F 
ATOM     51  F   UNL A   1      40.108  26.684  26.550  1.00  0.00    -0.200 F 
ENDBRANCH  27  41
BRANCH  28  52
ATOM     52  C   UNL A   1      39.987  33.817  38.754  1.00  0.00     0.064 A 
ATOM     53  C   UNL A   1      40.690  35.020  38.899  1.00  0.00     0.173 A 
ATOM     54  C   UNL A   1      39.256  33.348  39.854  1.00  0.00     0.173 A 
ATOM     55  F   UNL A   1      41.417  35.499  37.879  1.00  0.00    -0.203 F 
ATOM     56  C   UNL A   1      40.671  35.721  40.103  1.00  0.00     0.198 A 
ATOM     57  C   UNL A   1      39.215  34.063  41.048  1.00  0.00     0.198 A 
ATOM     58  F   UNL A   1      38.561  32.204  39.761  1.00  0.00    -0.203 F 
ATOM     59  F   UNL A   1      41.380  36.850  40.228  1.00  0.00    -0.200 F 
ATOM     60  C   UNL A   1      39.929  35.246  41.174  1.00  0.00     0.200 A 
ATOM     61  F   UNL A   1      38.482  33.609  42.074  1.00  0.00    -0.200 F 
ATOM     62  F   UNL A   1      39.903  35.925  42.329  1.00  0.00    -0.200 F 
ENDBRANCH  28  52
BRANCH  40  63
ATOM     63  C   UNL A   1      44.368  29.243  35.882  1.00  0.00     0.064 A 
ATOM     64  C   UNL A   1      45.603  29.830  35.570  1.00  0.00     0.173 A 
ATOM     65  C   UNL A   1      44.368  28.080  36.663  1.00  0.00     0.173 A 
ATOM     66  F   UNL A   1      45.652  30.934  34.810  1.00  0.00    -0.203 F 
ATOM     67  C   UNL A   1      46.795  29.254  35.998  1.00  0.00     0.198 A 
ATOM     68  C   UNL A   1      45.561  27.519  37.110  1.00  0.00     0.198 A 
ATOM     69  F   UNL A   1      43.211  27.484  36.990  1.00  0.00    -0.203 F 
ATOM     70  F   UNL A   1      47.966  29.802  35.645  1.00  0.00    -0.200 F 
ATOM     71  C   UNL A   1      46.773  28.101  36.769  1.00  0.00     0.200 A 
ATOM     72  F   UNL A   1      45.539  26.410  37.860  1.00  0.00    -0.200 F 
ATOM     73  F   UNL A   1      47.923  27.545  37.177  1.00  0.00    -0.200 F 
ENDBRANCH  40  63
ENDBRANCH  14  15
ENDBRANCH   7   9
ENDBRANCH   4   5
ENDBRANCH   3   4
ENDBRANCH   2   3
ENDBRANCH   1   2
BRANCH   1  74
ATOM     74  C   UNL A   1      35.051  31.321  28.201  1.00  0.00     0.021 C 
BRANCH  74  75
ATOM     75  C   UNL A   1      34.304  30.426  27.218  1.00  0.00     0.116 C 
BRANCH  75  76
ATOM     76  N   UNL A   1      33.363  29.556  27.891  1.00  0.00    -0.349 N 
ATOM     77  C   UNL A   1      32.673  28.480  27.390  1.00  0.00     0.286 C 
ATOM     78  H   UNL A   1      33.197  29.764  28.839  1.00  0.00     0.163 HD
ATOM     79  O   UNL A   1      31.766  28.021  28.089  1.00  0.00    -0.266 OA
BRANCH  77  80
ATOM     80  C   UNL A   1      33.041  27.932  26.104  1.00  0.00     0.191 A 
ATOM     81  C   UNL A   1      33.730  26.794  25.720  1.00  0.00     0.057 A 
ATOM     82  O   UNL A   1      32.598  28.582  24.987  1.00  0.00    -0.452 OA
ATOM     83  C   UNL A   1      33.712  26.756  24.305  1.00  0.00     0.050 A 
ATOM     84  C   UNL A   1      32.982  27.853  23.901  1.00  0.00     0.142 A 
BRANCH  84  85
ATOM     85  C   UNL A   1      32.481  28.319  22.580  1.00  0.00     0.304 C 
BRANCH  85  86
ATOM     86  O   UNL A   1      31.279  27.598  22.249  1.00  0.00    -0.484 OA
BRANCH  86  87
ATOM     87  C   UNL A   1      30.152  28.369  22.399  1.00  0.00     0.140 A 
ATOM     88  C   UNL A   1      30.143  29.644  21.821  1.00  0.00     0.048 A 
ATOM     89  C   UNL A   1      29.007  27.866  23.029  1.00  0.00     0.101 A 
ATOM     90  C   UNL A   1      29.019  30.457  21.934  1.00  0.00     0.005 A 
ATOM     91  C   UNL A   1      27.870  28.682  23.120  1.00  0.00     0.063 A 
ATOM     92  Cl  UNL A   1      29.023  26.259  23.676  1.00  0.00    -0.079 Cl
ATOM     93  C   UNL A   1      27.884  29.977  22.586  1.00  0.00     0.022 A 
ATOM     94  Cl  UNL A   1      26.407  28.154  23.876  1.00  0.00    -0.083 Cl
ENDBRANCH  86  87
ENDBRANCH  85  86
ENDBRANCH  84  85
ENDBRANCH  77  80
ENDBRANCH  75  76
ENDBRANCH  74  75
ENDBRANCH   1  74
TORSDOF 16
ENDMDL
MODEL 2
REMARK VINA RESULT:     -11.2      3.509      9.065
REMARK SMILES O=C(NCCCCCCNC(=O)c1ccc(COc2cccc(Cl)c2Cl)o1)c1ccc(-c2c3nc(c(-c4c(F)c(F)c(F)c(F)c4F)c4ccc([nH]4)c(-c4c(F)c(F)c(F)c(F)c4F)c4nc(c(-c5c(F)c(F)c(F)c(F)c5F)c5ccc2[nH]5)C=C4)C=C3)cc1
REMARK SMILES IDX 7 1 6 2 5 3 4 4 3 5 1 6 2 7 28 9 29 10 90 11 30 12 89 13
REMARK SMILES IDX 31 14 32 15 33 16 83 17 34 18 88 19 82 20 84 21 35 22 87 23
REMARK SMILES IDX 81 24 80 25 36 27 68 28 48 29 67 30 49 31 52 32 66 33 85 34
REMARK SMILES IDX 50 35 51 36 65 38 86 39 53 40 37 41 38 42 46 43 39 44 40 45
REMARK SMILES IDX 44 46 47 47 41 48 42 49 45 50 43 51 69 52 70 53 78 54 71 55
REMARK SMILES IDX 72 56 76 57 79 58 73 59 74 60 77 61 75 62 54 63 55 64 63 65
REMARK SMILES IDX 56 66 57 67 61 68 64 69 58 70 59 71 62 72 60 73 8 74 9 75
REMARK SMILES IDX 10 76 11 77 12 79 13 80 14 81 27 82 15 83 16 84 17 85 18 86
REMARK SMILES IDX 19 87 20 88 25 89 21 90 23 91 26 92 22 93 24 94
REMARK H PARENT 3 8 84 26 52 37 10 78
REMARK Flexibility Score: inf
ROOT
ATOM      1  C   UNL A   1      30.769  26.126  25.750  1.00  0.00     0.002 C 
ENDROOT
BRANCH   1   2
ATOM      2  C   UNL A   1      31.553  27.354  26.221  1.00  0.00     0.002 C 
BRANCH   2   3
ATOM      3  C   UNL A   1      32.127  28.247  25.122  1.00  0.00     0.021 C 
BRANCH   3   4
ATOM      4  C   UNL A   1      33.186  29.242  25.573  1.00  0.00     0.116 C 
BRANCH   4   5
ATOM      5  N   UNL A   1      32.633  30.512  26.008  1.00  0.00    -0.352 N 
ATOM      6  O   UNL A   1      32.441  32.344  27.315  1.00  0.00    -0.269 OA
ATOM      7  C   UNL A   1      33.093  31.357  26.988  1.00  0.00     0.251 C 
ATOM      8  H   UNL A   1      31.820  30.806  25.537  1.00  0.00     0.163 HD
BRANCH   7   9
ATOM      9  C   UNL A   1      34.369  31.058  27.678  1.00  0.00     0.039 A 
ATOM     10  C   UNL A   1      34.583  29.816  28.279  1.00  0.00     0.014 A 
ATOM     11  C   UNL A   1      35.366  32.038  27.723  1.00  0.00     0.014 A 
ATOM     12  C   UNL A   1      35.730  29.604  29.036  1.00  0.00     0.010 A 
ATOM     13  C   UNL A   1      36.557  31.792  28.416  1.00  0.00     0.010 A 
ATOM     14  C   UNL A   1      36.737  30.582  29.102  1.00  0.00    -0.014 A 
BRANCH  14  15
ATOM     15  C   UNL A   1      37.990  30.270  29.834  1.00  0.00     0.031 A 
ATOM     16  C   UNL A   1      38.218  30.740  31.242  1.00  0.00     0.074 A 
ATOM     17  C   UNL A   1      38.906  29.493  29.224  1.00  0.00     0.049 A 
ATOM     18  N   UNL A   1      39.221  30.478  32.045  1.00  0.00    -0.248 NA
ATOM     19  C   UNL A   1      37.198  31.622  31.828  1.00  0.00     0.031 C 
ATOM     20  C   UNL A   1      38.807  29.005  27.846  1.00  0.00     0.029 A 
ATOM     21  N   UNL A   1      40.079  28.952  29.683  1.00  0.00    -0.354 N 
ATOM     22  C   UNL A   1      38.959  31.168  33.220  1.00  0.00     0.074 A 
ATOM     23  C   UNL A   1      37.716  31.882  33.022  1.00  0.00     0.031 C 
ATOM     24  C   UNL A   1      39.840  28.189  27.592  1.00  0.00     0.029 A 
ATOM     25  C   UNL A   1      40.699  28.136  28.770  1.00  0.00     0.049 A 
ATOM     26  H   UNL A   1      40.441  29.132  30.582  1.00  0.00     0.167 HD
ATOM     27  C   UNL A   1      39.688  31.194  34.363  1.00  0.00     0.037 A 
ATOM     28  C   UNL A   1      41.834  27.421  28.868  1.00  0.00     0.037 A 
ATOM     29  C   UNL A   1      40.922  30.474  34.560  1.00  0.00     0.049 A 
ATOM     30  C   UNL A   1      42.604  27.447  30.155  1.00  0.00     0.074 A 
ATOM     31  C   UNL A   1      41.729  30.432  35.685  1.00  0.00     0.029 A 
ATOM     32  N   UNL A   1      41.525  29.666  33.607  1.00  0.00    -0.354 N 
ATOM     33  N   UNL A   1      42.332  28.088  31.266  1.00  0.00    -0.248 NA
ATOM     34  C   UNL A   1      43.838  26.654  30.203  1.00  0.00     0.031 C 
ATOM     35  C   UNL A   1      42.834  29.621  35.404  1.00  0.00     0.029 A 
ATOM     36  C   UNL A   1      42.698  29.128  34.116  1.00  0.00     0.049 A 
ATOM     37  H   UNL A   1      41.173  29.498  32.704  1.00  0.00     0.167 HD
ATOM     38  C   UNL A   1      43.361  27.781  32.142  1.00  0.00     0.074 A 
ATOM     39  C   UNL A   1      44.242  26.864  31.448  1.00  0.00     0.031 C 
ATOM     40  C   UNL A   1      43.567  28.229  33.404  1.00  0.00     0.037 A 
BRANCH  27  41
ATOM     41  C   UNL A   1      39.177  32.029  35.499  1.00  0.00     0.064 A 
ATOM     42  C   UNL A   1      38.398  31.472  36.524  1.00  0.00     0.173 A 
ATOM     43  C   UNL A   1      39.524  33.385  35.601  1.00  0.00     0.173 A 
ATOM     44  F   UNL A   1      38.030  30.183  36.466  1.00  0.00    -0.203 F 
ATOM     45  C   UNL A   1      37.976  32.244  37.603  1.00  0.00     0.198 A 
ATOM     46  C   UNL A   1      39.118  34.149  36.692  1.00  0.00     0.198 A 
ATOM     47  F   UNL A   1      40.271  33.965  34.650  1.00  0.00    -0.203 F 
ATOM     48  F   UNL A   1      37.210  31.698  38.557  1.00  0.00    -0.200 F 
ATOM     49  C   UNL A   1      38.342  33.580  37.691  1.00  0.00     0.200 A 
ATOM     50  F   UNL A   1      39.481  35.437  36.781  1.00  0.00    -0.200 F 
ATOM     51  F   UNL A   1      37.945  34.318  38.736  1.00  0.00    -0.200 F 
ENDBRANCH  27  41
BRANCH  28  52
ATOM     52  C   UNL A   1      42.296  26.615  27.710  1.00  0.00     0.064 A 
ATOM     53  C   UNL A   1      43.261  27.110  26.824  1.00  0.00     0.173 A 
ATOM     54  C   UNL A   1      41.795  25.326  27.481  1.00  0.00     0.173 A 
ATOM     55  F   UNL A   1      43.757  28.344  26.993  1.00  0.00    -0.203 F 
ATOM     56  C   UNL A   1      43.699  26.348  25.742  1.00  0.00     0.198 A 
ATOM     57  C   UNL A   1      42.253  24.555  26.417  1.00  0.00     0.198 A 
ATOM     58  F   UNL A   1      40.875  24.806  28.308  1.00  0.00    -0.203 F 
ATOM     59  F   UNL A   1      44.596  26.858  24.888  1.00  0.00    -0.200 F 
ATOM     60  C   UNL A   1      43.201  25.069  25.543  1.00  0.00     0.200 A 
ATOM     61  F   UNL A   1      41.782  23.313  26.239  1.00  0.00    -0.200 F 
ATOM     62  F   UNL A   1      43.629  24.334  24.509  1.00  0.00    -0.200 F 
ENDBRANCH  28  52
BRANCH  40  63
ATOM     63  C   UNL A   1      44.799  27.734  34.101  1.00  0.00     0.064 A 
ATOM     64  C   UNL A   1      44.781  26.550  34.853  1.00  0.00     0.173 A 
ATOM     65  C   UNL A   1      46.003  28.445  34.016  1.00  0.00     0.173 A 
ATOM     66  F   UNL A   1      43.646  25.846  34.976  1.00  0.00    -0.203 F 
ATOM     67  C   UNL A   1      45.920  26.111  35.521  1.00  0.00     0.198 A 
ATOM     68  C   UNL A   1      47.148  27.990  34.666  1.00  0.00     0.198 A 
ATOM     69  F   UNL A   1      46.070  29.582  33.307  1.00  0.00    -0.203 F 
ATOM     70  F   UNL A   1      45.868  25.006  36.276  1.00  0.00    -0.200 F 
ATOM     71  C   UNL A   1      47.103  26.830  35.425  1.00  0.00     0.200 A 
ATOM     72  F   UNL A   1      48.291  28.682  34.568  1.00  0.00    -0.200 F 
ATOM     73  F   UNL A   1      48.198  26.409  36.073  1.00  0.00    -0.200 F 
ENDBRANCH  40  63
ENDBRANCH  14  15
ENDBRANCH   7   9
ENDBRANCH   4   5
ENDBRANCH   3   4
ENDBRANCH   2   3
ENDBRANCH   1   2
BRANCH   1  74
ATOM     74  C   UNL A   1      30.325  26.127  24.283  1.00  0.00     0.021 C 
BRANCH  74  75
ATOM     75  C   UNL A   1      30.667  24.868  23.491  1.00  0.00     0.116 C 
BRANCH  75  76
ATOM     76  N   UNL A   1      31.651  25.131  22.463  1.00  0.00    -0.349 N 
ATOM     77  C   UNL A   1      33.019  25.193  22.573  1.00  0.00     0.286 C 
ATOM     78  H   UNL A   1      31.290  25.287  21.560  1.00  0.00     0.163 HD
ATOM     79  O   UNL A   1      33.639  25.643  21.606  1.00  0.00    -0.266 OA
BRANCH  77  80
ATOM     80  C   UNL A   1      33.658  24.721  23.780  1.00  0.00     0.191 A 
ATOM     81  C   UNL A   1      34.385  25.350  24.776  1.00  0.00     0.057 A 
ATOM     82  O   UNL A   1      33.503  23.403  24.107  1.00  0.00    -0.452 OA
ATOM     83  C   UNL A   1      34.692  24.367  25.749  1.00  0.00     0.050 A 
ATOM     84  C   UNL A   1      34.107  23.199  25.312  1.00  0.00     0.142 A 
BRANCH  84  85
ATOM     85  C   UNL A   1      33.937  21.851  25.918  1.00  0.00     0.304 C 
BRANCH  85  86
ATOM     86  O   UNL A   1      32.628  21.347  25.593  1.00  0.00    -0.484 OA
BRANCH  86  87
ATOM     87  C   UNL A   1      32.673  20.081  25.064  1.00  0.00     0.140 A 
ATOM     88  C   UNL A   1      32.886  19.008  25.938  1.00  0.00     0.048 A 
ATOM     89  C   UNL A   1      32.421  19.850  23.706  1.00  0.00     0.101 A 
ATOM     90  C   UNL A   1      32.926  17.705  25.452  1.00  0.00     0.005 A 
ATOM     91  C   UNL A   1      32.441  18.533  23.226  1.00  0.00     0.063 A 
ATOM     92  Cl  UNL A   1      32.093  21.191  22.658  1.00  0.00    -0.079 Cl
ATOM     93  C   UNL A   1      32.707  17.468  24.097  1.00  0.00     0.022 A 
ATOM     94  Cl  UNL A   1      32.142  18.145  21.568  1.00  0.00    -0.083 Cl
ENDBRANCH  86  87
ENDBRANCH  85  86
ENDBRANCH  84  85
ENDBRANCH  77  80
ENDBRANCH  75  76
ENDBRANCH  74  75
ENDBRANCH   1  74
TORSDOF 16
ENDMDL
MODEL 3
REMARK VINA RESULT:     -11.1      1.091      2.028
REMARK SMILES O=C(NCCCCCCNC(=O)c1ccc(COc2cccc(Cl)c2Cl)o1)c1ccc(-c2c3nc(c(-c4c(F)c(F)c(F)c(F)c4F)c4ccc([nH]4)c(-c4c(F)c(F)c(F)c(F)c4F)c4nc(c(-c5c(F)c(F)c(F)c(F)c5F)c5ccc2[nH]5)C=C4)C=C3)cc1
REMARK SMILES IDX 7 1 6 2 5 3 4 4 3 5 1 6 2 7 28 9 29 10 90 11 30 12 89 13
REMARK SMILES IDX 31 14 32 15 33 16 83 17 34 18 88 19 82 20 84 21 35 22 87 23
REMARK SMILES IDX 81 24 80 25 36 27 68 28 48 29 67 30 49 31 52 32 66 33 85 34
REMARK SMILES IDX 50 35 51 36 65 38 86 39 53 40 37 41 38 42 46 43 39 44 40 45
REMARK SMILES IDX 44 46 47 47 41 48 42 49 45 50 43 51 69 52 70 53 78 54 71 55
REMARK SMILES IDX 72 56 76 57 79 58 73 59 74 60 77 61 75 62 54 63 55 64 63 65
REMARK SMILES IDX 56 66 57 67 61 68 64 69 58 70 59 71 62 72 60 73 8 74 9 75
REMARK SMILES IDX 10 76 11 77 12 79 13 80 14 81 27 82 15 83 16 84 17 85 18 86
REMARK SMILES IDX 19 87 20 88 25 89 21 90 23 91 26 92 22 93 24 94
REMARK H PARENT 3 8 84 26 52 37 10 78
REMARK Flexibility Score: inf
ROOT
ATOM      1  C   UNL A   1      34.791  32.177  28.190  1.00  0.00     0.002 C 
ENDROOT
BRANCH   1   2
ATOM      2  C   UNL A   1      34.559  33.334  29.167  1.00  0.00     0.002 C 
BRANCH   2   3
ATOM      3  C   UNL A   1      33.330  34.201  28.900  1.00  0.00     0.021 C 
BRANCH   3   4
ATOM      4  C   UNL A   1      33.480  35.675  29.249  1.00  0.00     0.116 C 
BRANCH   4   5
ATOM      5  N   UNL A   1      32.610  36.100  30.330  1.00  0.00    -0.352 N 
ATOM      6  O   UNL A   1      31.820  36.163  32.446  1.00  0.00    -0.269 OA
ATOM      7  C   UNL A   1      32.709  35.820  31.672  1.00  0.00     0.251 C 
ATOM      8  H   UNL A   1      31.848  36.665  30.067  1.00  0.00     0.163 HD
BRANCH   7   9
ATOM      9  C   UNL A   1      33.880  35.070  32.182  1.00  0.00     0.039 A 
ATOM     10  C   UNL A   1      35.152  35.646  32.186  1.00  0.00     0.014 A 
ATOM     11  C   UNL A   1      33.699  33.770  32.665  1.00  0.00     0.014 A 
ATOM     12  C   UNL A   1      36.256  34.879  32.541  1.00  0.00     0.010 A 
ATOM     13  C   UNL A   1      34.801  33.028  33.102  1.00  0.00     0.010 A 
ATOM     14  C   UNL A   1      36.093  33.567  33.018  1.00  0.00    -0.014 A 
BRANCH  14  15
ATOM     15  C   UNL A   1      37.290  32.824  33.487  1.00  0.00     0.031 A 
ATOM     16  C   UNL A   1      38.013  31.853  32.597  1.00  0.00     0.074 A 
ATOM     17  C   UNL A   1      37.758  33.086  34.722  1.00  0.00     0.049 A 
ATOM     18  N   UNL A   1      39.121  31.192  32.830  1.00  0.00    -0.248 NA
ATOM     19  C   UNL A   1      37.420  31.581  31.280  1.00  0.00     0.031 C 
ATOM     20  C   UNL A   1      37.119  33.985  35.686  1.00  0.00     0.029 A 
ATOM     21  N   UNL A   1      38.886  32.654  35.369  1.00  0.00    -0.354 N 
ATOM     22  C   UNL A   1      39.350  30.420  31.699  1.00  0.00     0.074 A 
ATOM     23  C   UNL A   1      38.255  30.674  30.787  1.00  0.00     0.031 C 
ATOM     24  C   UNL A   1      37.894  34.086  36.775  1.00  0.00     0.029 A 
ATOM     25  C   UNL A   1      39.057  33.221  36.608  1.00  0.00     0.049 A 
ATOM     26  H   UNL A   1      39.513  31.999  34.983  1.00  0.00     0.167 HD
ATOM     27  C   UNL A   1      40.386  29.584  31.445  1.00  0.00     0.037 A 
ATOM     28  C   UNL A   1      40.042  33.066  37.510  1.00  0.00     0.037 A 
ATOM     29  C   UNL A   1      41.480  29.341  32.351  1.00  0.00     0.049 A 
ATOM     30  C   UNL A   1      41.190  32.155  37.188  1.00  0.00     0.074 A 
ATOM     31  C   UNL A   1      42.579  28.517  32.180  1.00  0.00     0.029 A 
ATOM     32  N   UNL A   1      41.613  29.926  33.603  1.00  0.00    -0.354 N 
ATOM     33  N   UNL A   1      41.404  31.449  36.104  1.00  0.00    -0.248 NA
ATOM     34  C   UNL A   1      42.232  32.018  38.213  1.00  0.00     0.031 C 
ATOM     35  C   UNL A   1      43.363  28.581  33.337  1.00  0.00     0.029 A 
ATOM     36  C   UNL A   1      42.772  29.474  34.216  1.00  0.00     0.049 A 
ATOM     37  H   UNL A   1      40.980  30.567  33.996  1.00  0.00     0.167 HD
ATOM     38  C   UNL A   1      42.598  30.780  36.318  1.00  0.00     0.074 A 
ATOM     39  C   UNL A   1      43.085  31.196  37.617  1.00  0.00     0.031 C 
ATOM     40  C   UNL A   1      43.230  29.890  35.516  1.00  0.00     0.037 A 
BRANCH  27  41
ATOM     41  C   UNL A   1      40.394  28.863  30.130  1.00  0.00     0.064 A 
ATOM     42  C   UNL A   1      39.676  27.672  29.944  1.00  0.00     0.173 A 
ATOM     43  C   UNL A   1      41.072  29.400  29.025  1.00  0.00     0.173 A 
ATOM     44  F   UNL A   1      39.020  27.113  30.973  1.00  0.00    -0.203 F 
ATOM     45  C   UNL A   1      39.644  27.041  28.703  1.00  0.00     0.198 A 
ATOM     46  C   UNL A   1      41.021  28.776  27.780  1.00  0.00     0.198 A 
ATOM     47  F   UNL A   1      41.770  30.538  29.148  1.00  0.00    -0.203 F 
ATOM     48  F   UNL A   1      38.973  25.890  28.556  1.00  0.00    -0.200 F 
ATOM     49  C   UNL A   1      40.310  27.597  27.621  1.00  0.00     0.200 A 
ATOM     50  F   UNL A   1      41.657  29.320  26.732  1.00  0.00    -0.200 F 
ATOM     51  F   UNL A   1      40.269  26.994  26.424  1.00  0.00    -0.200 F 
ENDBRANCH  27  41
BRANCH  28  52
ATOM     52  C   UNL A   1      39.981  33.801  38.798  1.00  0.00     0.064 A 
ATOM     53  C   UNL A   1      39.229  33.313  39.875  1.00  0.00     0.173 A 
ATOM     54  C   UNL A   1      40.689  34.997  38.982  1.00  0.00     0.173 A 
ATOM     55  F   UNL A   1      38.521  32.182  39.740  1.00  0.00    -0.203 F 
ATOM     56  C   UNL A   1      39.179  34.002  41.085  1.00  0.00     0.198 A 
ATOM     57  C   UNL A   1      40.661  35.670  40.200  1.00  0.00     0.198 A 
ATOM     58  F   UNL A   1      41.429  35.500  37.982  1.00  0.00    -0.203 F 
ATOM     59  F   UNL A   1      38.424  33.533  42.088  1.00  0.00    -0.200 F 
ATOM     60  C   UNL A   1      39.900  35.175  41.250  1.00  0.00     0.200 A 
ATOM     61  F   UNL A   1      41.373  36.793  40.360  1.00  0.00    -0.200 F 
ATOM     62  F   UNL A   1      39.859  35.832  42.416  1.00  0.00    -0.200 F 
ENDBRANCH  28  52
BRANCH  40  63
ATOM     63  C   UNL A   1      44.510  29.306  36.035  1.00  0.00     0.064 A 
ATOM     64  C   UNL A   1      45.746  29.915  35.769  1.00  0.00     0.173 A 
ATOM     65  C   UNL A   1      44.502  28.135  36.804  1.00  0.00     0.173 A 
ATOM     66  F   UNL A   1      45.803  31.028  35.022  1.00  0.00    -0.203 F 
ATOM     67  C   UNL A   1      46.932  29.353  36.230  1.00  0.00     0.198 A 
ATOM     68  C   UNL A   1      45.690  27.588  37.284  1.00  0.00     0.198 A 
ATOM     69  F   UNL A   1      43.345  27.519  37.087  1.00  0.00    -0.203 F 
ATOM     70  F   UNL A   1      48.105  29.921  35.921  1.00  0.00    -0.200 F 
ATOM     71  C   UNL A   1      46.903  28.192  36.989  1.00  0.00     0.200 A 
ATOM     72  F   UNL A   1      45.660  26.471  38.022  1.00  0.00    -0.200 F 
ATOM     73  F   UNL A   1      48.047  27.649  37.428  1.00  0.00    -0.200 F 
ENDBRANCH  40  63
ENDBRANCH  14  15
ENDBRANCH   7   9
ENDBRANCH   4   5
ENDBRANCH   3   4
ENDBRANCH   2   3
ENDBRANCH   1   2
BRANCH   1  74
ATOM     74  C   UNL A   1      33.541  31.590  27.525  1.00  0.00     0.021 C 
BRANCH  74  75
ATOM     75  C   UNL A   1      33.687  30.167  26.993  1.00  0.00     0.116 C 
BRANCH  75  76
ATOM     76  N   UNL A   1      32.892  29.226  27.752  1.00  0.00    -0.349 N 
ATOM     77  C   UNL A   1      32.075  28.220  27.295  1.00  0.00     0.286 C 
ATOM     78  H   UNL A   1      32.945  29.318  28.731  1.00  0.00     0.163 HD
ATOM     79  O   UNL A   1      31.332  27.684  28.120  1.00  0.00    -0.266 OA
BRANCH  77  80
ATOM     80  C   UNL A   1      32.134  27.831  25.904  1.00  0.00     0.191 A 
ATOM     81  C   UNL A   1      32.901  26.912  25.209  1.00  0.00     0.057 A 
ATOM     82  O   UNL A   1      31.232  28.397  25.048  1.00  0.00    -0.452 OA
ATOM     83  C   UNL A   1      32.450  26.927  23.866  1.00  0.00     0.050 A 
ATOM     84  C   UNL A   1      31.408  27.828  23.822  1.00  0.00     0.142 A 
BRANCH  84  85
ATOM     85  C   UNL A   1      30.429  28.209  22.769  1.00  0.00     0.304 C 
BRANCH  85  86
ATOM     86  O   UNL A   1      29.295  28.849  23.385  1.00  0.00    -0.484 OA
BRANCH  86  87
ATOM     87  C   UNL A   1      28.960  30.027  22.764  1.00  0.00     0.140 A 
ATOM     88  C   UNL A   1      28.212  29.961  21.582  1.00  0.00     0.048 A 
ATOM     89  C   UNL A   1      29.272  31.265  23.338  1.00  0.00     0.101 A 
ATOM     90  C   UNL A   1      27.837  31.128  20.924  1.00  0.00     0.005 A 
ATOM     91  C   UNL A   1      28.872  32.437  22.681  1.00  0.00     0.063 A 
ATOM     92  Cl  UNL A   1      30.140  31.318  24.837  1.00  0.00    -0.079 Cl
ATOM     93  C   UNL A   1      28.169  32.365  21.471  1.00  0.00     0.022 A 
ATOM     94  Cl  UNL A   1      29.207  34.014  23.308  1.00  0.00    -0.083 Cl
ENDBRANCH  86  87
ENDBRANCH  85  86
ENDBRANCH  84  85
ENDBRANCH  77  80
ENDBRANCH  75  76
ENDBRANCH  74  75
ENDBRANCH   1  74
TORSDOF 16
ENDMDL
