MODEL 1
REMARK VINA RESULT:     -12.9      0.000      0.000
REMARK SMILES Nc1ccc(C(=O)N2Cc3nc[nH]c3C[C@H]2C(=O)NCCCCCCNC(=O)c2ccc(-c3c4nc(c(-c5c(F)c(F)c(F)c(F)c5F)c5ccc([nH]5)c(-c5c(F)c(F)c(F)c(F)c5F)c5nc(c(-c6c(F)c(F)c(F)c(F)c6F)c6ccc3[nH]6)C=C5)C=C4)cc2)cc1
REMARK SMILES IDX 22 1 21 2 20 3 19 4 17 5 18 6 16 8 8 9 9 10 10 11 15 12
REMARK SMILES IDX 11 13 14 14 12 15 13 16 6 18 7 19 5 20 2 21 3 22 93 23 4 24
REMARK SMILES IDX 92 25 1 26 23 29 24 30 25 31 26 32 27 33 28 35 29 36 30 37
REMARK SMILES IDX 91 38 31 39 90 40 32 41 33 42 34 43 84 44 35 45 89 46 83 47
REMARK SMILES IDX 85 48 36 49 88 50 82 51 81 52 37 54 69 55 49 56 68 57 50 58
REMARK SMILES IDX 53 59 67 60 86 61 51 62 52 63 66 65 87 66 54 67 38 68 39 69
REMARK SMILES IDX 47 70 40 71 41 72 45 73 48 74 42 75 43 76 46 77 44 78 70 79
REMARK SMILES IDX 71 80 79 81 72 82 73 83 77 84 80 85 74 86 75 87 78 88 76 89
REMARK SMILES IDX 55 90 56 91 64 92 57 93 58 94 62 95 65 96 59 97 60 98 63 99
REMARK SMILES IDX 61 100
REMARK H PARENT 19 7 13 17 1 27 1 28 26 34 85 53 53 64
REMARK Flexibility Score: inf
ROOT
ATOM      1  C   UNL A   1      39.420  21.738  26.139  1.00  0.00     0.002 C 
ENDROOT
BRANCH   1   2
ATOM      2  C   UNL A   1      39.040  23.141  26.611  1.00  0.00     0.021 C 
BRANCH   2   3
ATOM      3  C   UNL A   1      37.877  23.754  25.848  1.00  0.00     0.116 C 
BRANCH   3   4
ATOM      4  N   UNL A   1      37.545  23.108  24.607  1.00  0.00    -0.354 N 
ATOM      5  C   UNL A   1      36.352  23.076  23.950  1.00  0.00     0.243 C 
ATOM      6  O   UNL A   1      36.426  22.928  22.722  1.00  0.00    -0.273 OA
ATOM      7  H   UNL A   1      38.282  22.620  24.173  1.00  0.00     0.163 HD
BRANCH   5   8
ATOM      8  C   UNL A   1      34.954  23.288  24.612  1.00  0.00     0.181 C 
ATOM      9  N   UNL A   1      33.776  23.676  23.753  1.00  0.00    -0.320 N 
ATOM     10  C   UNL A   1      32.825  22.660  23.250  1.00  0.00     0.178 C 
ATOM     11  C   UNL A   1      32.917  21.374  23.989  1.00  0.00     0.081 A 
ATOM     12  C   UNL A   1      34.648  22.167  25.656  1.00  0.00     0.091 C 
ATOM     13  N   UNL A   1      32.435  20.180  23.509  1.00  0.00    -0.240 NA
ATOM     14  C   UNL A   1      33.747  21.153  25.063  1.00  0.00     0.042 A 
ATOM     15  C   UNL A   1      32.934  19.260  24.307  1.00  0.00     0.197 A 
ATOM     16  N   UNL A   1      33.711  19.807  25.295  1.00  0.00    -0.348 N 
ATOM     17  H   UNL A   1      34.157  19.325  26.028  1.00  0.00     0.167 HD
BRANCH   9  18
ATOM     18  C   UNL A   1      33.392  25.001  23.497  1.00  0.00     0.254 C 
ATOM     19  O   UNL A   1      33.583  25.529  22.400  1.00  0.00    -0.269 OA
BRANCH  18  20
ATOM     20  C   UNL A   1      32.800  25.869  24.549  1.00  0.00     0.040 A 
ATOM     21  C   UNL A   1      31.784  27.290  26.768  1.00  0.00     0.031 A 
ATOM     22  C   UNL A   1      33.148  27.311  26.475  1.00  0.00     0.026 A 
ATOM     23  C   UNL A   1      30.945  26.507  25.975  1.00  0.00     0.026 A 
ATOM     24  C   UNL A   1      33.653  26.621  25.365  1.00  0.00     0.016 A 
ATOM     25  C   UNL A   1      31.451  25.782  24.892  1.00  0.00     0.016 A 
BRANCH  21  26
ATOM     26  N   UNL A   1      31.295  27.896  27.913  1.00  0.00    -0.399 N 
ATOM     27  H   UNL A   1      30.516  28.496  27.858  1.00  0.00     0.156 HD
ATOM     28  H   UNL A   1      31.727  27.729  28.782  1.00  0.00     0.156 HD
ENDBRANCH  21  26
ENDBRANCH  18  20
ENDBRANCH   9  18
ENDBRANCH   5   8
ENDBRANCH   3   4
ENDBRANCH   2   3
ENDBRANCH   1   2
BRANCH   1  29
ATOM     29  C   UNL A   1      40.581  21.064  26.893  1.00  0.00     0.002 C 
BRANCH  29  30
ATOM     30  C   UNL A   1      41.294  19.905  26.179  1.00  0.00     0.021 C 
BRANCH  30  31
ATOM     31  C   UNL A   1      42.693  19.632  26.708  1.00  0.00     0.116 C 
BRANCH  31  32
ATOM     32  N   UNL A   1      43.688  19.590  25.637  1.00  0.00    -0.352 N 
ATOM     33  C   UNL A   1      44.211  20.628  24.889  1.00  0.00     0.251 C 
ATOM     34  H   UNL A   1      44.035  18.695  25.416  1.00  0.00     0.163 HD
ATOM     35  O   UNL A   1      44.770  20.421  23.827  1.00  0.00    -0.269 OA
BRANCH  33  36
ATOM     36  C   UNL A   1      44.090  21.999  25.410  1.00  0.00     0.039 A 
ATOM     37  C   UNL A   1      43.090  22.866  24.957  1.00  0.00     0.014 A 
ATOM     38  C   UNL A   1      44.999  22.405  26.381  1.00  0.00     0.014 A 
ATOM     39  C   UNL A   1      42.980  24.123  25.545  1.00  0.00     0.010 A 
ATOM     40  C   UNL A   1      44.775  23.556  27.083  1.00  0.00     0.010 A 
ATOM     41  C   UNL A   1      43.823  24.452  26.618  1.00  0.00    -0.014 A 
BRANCH  41  42
ATOM     42  C   UNL A   1      43.648  25.684  27.372  1.00  0.00     0.031 A 
ATOM     43  C   UNL A   1      44.599  26.761  26.983  1.00  0.00     0.074 A 
ATOM     44  C   UNL A   1      42.558  25.899  28.144  1.00  0.00     0.049 A 
ATOM     45  N   UNL A   1      45.499  27.323  27.718  1.00  0.00    -0.248 NA
ATOM     46  C   UNL A   1      44.664  27.156  25.563  1.00  0.00     0.031 C 
ATOM     47  C   UNL A   1      41.391  25.028  28.333  1.00  0.00     0.029 A 
ATOM     48  N   UNL A   1      42.198  27.016  28.834  1.00  0.00    -0.354 N 
ATOM     49  C   UNL A   1      46.094  28.294  26.916  1.00  0.00     0.074 A 
ATOM     50  C   UNL A   1      45.693  28.005  25.566  1.00  0.00     0.031 C 
ATOM     51  C   UNL A   1      40.370  25.741  28.858  1.00  0.00     0.029 A 
ATOM     52  C   UNL A   1      40.853  27.064  29.196  1.00  0.00     0.049 A 
ATOM     53  H   UNL A   1      42.837  27.731  29.057  1.00  0.00     0.167 HD
ATOM     54  C   UNL A   1      46.631  29.416  27.473  1.00  0.00     0.037 A 
ATOM     55  C   UNL A   1      40.196  28.151  29.679  1.00  0.00     0.037 A 
ATOM     56  C   UNL A   1      46.885  29.216  28.881  1.00  0.00     0.049 A 
ATOM     57  C   UNL A   1      41.232  29.102  30.165  1.00  0.00     0.074 A 
ATOM     58  C   UNL A   1      47.621  28.298  29.608  1.00  0.00     0.029 A 
ATOM     59  N   UNL A   1      46.014  29.779  29.784  1.00  0.00    -0.354 N 
ATOM     60  N   UNL A   1      41.993  28.875  31.201  1.00  0.00    -0.248 NA
ATOM     61  C   UNL A   1      41.751  30.061  29.200  1.00  0.00     0.031 C 
ATOM     62  C   UNL A   1      46.805  27.987  30.737  1.00  0.00     0.029 A 
ATOM     63  C   UNL A   1      45.676  28.802  30.684  1.00  0.00     0.049 A 
ATOM     64  H   UNL A   1      45.694  30.710  29.783  1.00  0.00     0.167 HD
ATOM     65  C   UNL A   1      43.252  29.299  30.806  1.00  0.00     0.074 A 
ATOM     66  C   UNL A   1      43.031  30.070  29.582  1.00  0.00     0.031 C 
ATOM     67  C   UNL A   1      44.384  28.734  31.321  1.00  0.00     0.037 A 
BRANCH  54  68
ATOM     68  C   UNL A   1      46.534  30.797  26.860  1.00  0.00     0.064 A 
ATOM     69  C   UNL A   1      47.679  31.617  26.856  1.00  0.00     0.173 A 
ATOM     70  C   UNL A   1      45.319  31.458  26.571  1.00  0.00     0.173 A 
ATOM     71  F   UNL A   1      48.889  31.104  27.126  1.00  0.00    -0.203 F 
ATOM     72  C   UNL A   1      47.598  33.002  26.680  1.00  0.00     0.198 A 
ATOM     73  C   UNL A   1      45.249  32.831  26.342  1.00  0.00     0.198 A 
ATOM     74  F   UNL A   1      44.134  30.838  26.606  1.00  0.00    -0.203 F 
ATOM     75  F   UNL A   1      48.697  33.755  26.828  1.00  0.00    -0.200 F 
ATOM     76  C   UNL A   1      46.382  33.609  26.434  1.00  0.00     0.200 A 
ATOM     77  F   UNL A   1      44.056  33.401  26.119  1.00  0.00    -0.200 F 
ATOM     78  F   UNL A   1      46.291  34.940  26.334  1.00  0.00    -0.200 F 
ENDBRANCH  54  68
BRANCH  55  79
ATOM     79  C   UNL A   1      38.796  28.585  29.433  1.00  0.00     0.064 A 
ATOM     80  C   UNL A   1      37.928  28.850  30.509  1.00  0.00     0.173 A 
ATOM     81  C   UNL A   1      38.372  29.038  28.169  1.00  0.00     0.173 A 
ATOM     82  F   UNL A   1      38.267  28.484  31.754  1.00  0.00    -0.203 F 
ATOM     83  C   UNL A   1      36.738  29.566  30.338  1.00  0.00     0.198 A 
ATOM     84  C   UNL A   1      37.180  29.747  27.999  1.00  0.00     0.198 A 
ATOM     85  F   UNL A   1      39.150  28.892  27.088  1.00  0.00    -0.203 F 
ATOM     86  F   UNL A   1      35.977  29.863  31.402  1.00  0.00    -0.200 F 
ATOM     87  C   UNL A   1      36.373  30.028  29.085  1.00  0.00     0.200 A 
ATOM     88  F   UNL A   1      36.853  30.213  26.786  1.00  0.00    -0.200 F 
ATOM     89  F   UNL A   1      35.269  30.773  28.932  1.00  0.00    -0.200 F 
ENDBRANCH  55  79
BRANCH  67  90
ATOM     90  C   UNL A   1      44.248  27.816  32.505  1.00  0.00     0.064 A 
ATOM     91  C   UNL A   1      44.066  26.423  32.419  1.00  0.00     0.173 A 
ATOM     92  C   UNL A   1      44.443  28.358  33.782  1.00  0.00     0.173 A 
ATOM     93  F   UNL A   1      43.982  25.807  31.235  1.00  0.00    -0.203 F 
ATOM     94  C   UNL A   1      44.028  25.627  33.565  1.00  0.00     0.198 A 
ATOM     95  C   UNL A   1      44.445  27.557  34.919  1.00  0.00     0.198 A 
ATOM     96  F   UNL A   1      44.677  29.673  33.924  1.00  0.00    -0.203 F 
ATOM     97  F   UNL A   1      43.834  24.304  33.457  1.00  0.00    -0.200 F 
ATOM     98  C   UNL A   1      44.223  26.195  34.812  1.00  0.00     0.200 A 
ATOM     99  F   UNL A   1      44.686  28.105  36.118  1.00  0.00    -0.200 F 
ATOM    100  F   UNL A   1      44.222  25.425  35.910  1.00  0.00    -0.200 F 
ENDBRANCH  67  90
ENDBRANCH  41  42
ENDBRANCH  33  36
ENDBRANCH  31  32
ENDBRANCH  30  31
ENDBRANCH  29  30
ENDBRANCH   1  29
TORSDOF 16
ENDMDL
MODEL 2
REMARK VINA RESULT:     -12.2      1.082      3.014
REMARK SMILES Nc1ccc(C(=O)N2Cc3nc[nH]c3C[C@H]2C(=O)NCCCCCCNC(=O)c2ccc(-c3c4nc(c(-c5c(F)c(F)c(F)c(F)c5F)c5ccc([nH]5)c(-c5c(F)c(F)c(F)c(F)c5F)c5nc(c(-c6c(F)c(F)c(F)c(F)c6F)c6ccc3[nH]6)C=C5)C=C4)cc2)cc1
REMARK SMILES IDX 22 1 21 2 20 3 19 4 17 5 18 6 16 8 8 9 9 10 10 11 15 12
REMARK SMILES IDX 11 13 14 14 12 15 13 16 6 18 7 19 5 20 2 21 3 22 93 23 4 24
REMARK SMILES IDX 92 25 1 26 23 29 24 30 25 31 26 32 27 33 28 35 29 36 30 37
REMARK SMILES IDX 91 38 31 39 90 40 32 41 33 42 34 43 84 44 35 45 89 46 83 47
REMARK SMILES IDX 85 48 36 49 88 50 82 51 81 52 37 54 69 55 49 56 68 57 50 58
REMARK SMILES IDX 53 59 67 60 86 61 51 62 52 63 66 65 87 66 54 67 38 68 39 69
REMARK SMILES IDX 47 70 40 71 41 72 45 73 48 74 42 75 43 76 46 77 44 78 70 79
REMARK SMILES IDX 71 80 79 81 72 82 73 83 77 84 80 85 74 86 75 87 78 88 76 89
REMARK SMILES IDX 55 90 56 91 64 92 57 93 58 94 62 95 65 96 59 97 60 98 63 99
REMARK SMILES IDX 61 100
REMARK H PARENT 19 7 13 17 1 27 1 28 26 34 85 53 53 64
REMARK Flexibility Score: inf
ROOT
ATOM      1  C   UNL A   1      39.714  22.798  26.095  1.00  0.00     0.002 C 
ENDROOT
BRANCH   1   2
ATOM      2  C   UNL A   1      38.620  23.674  26.703  1.00  0.00     0.021 C 
BRANCH   2   3
ATOM      3  C   UNL A   1      37.308  23.644  25.935  1.00  0.00     0.116 C 
BRANCH   3   4
ATOM      4  N   UNL A   1      37.385  23.102  24.605  1.00  0.00    -0.354 N 
ATOM      5  C   UNL A   1      36.398  22.972  23.675  1.00  0.00     0.243 C 
ATOM      6  O   UNL A   1      36.776  22.977  22.496  1.00  0.00    -0.273 OA
ATOM      7  H   UNL A   1      38.274  22.780  24.329  1.00  0.00     0.163 HD
BRANCH   5   8
ATOM      8  C   UNL A   1      34.870  22.901  23.988  1.00  0.00     0.181 C 
ATOM      9  N   UNL A   1      34.411  22.738  25.416  1.00  0.00    -0.320 N 
ATOM     10  C   UNL A   1      34.012  23.908  26.232  1.00  0.00     0.178 C 
ATOM     11  C   UNL A   1      33.730  25.111  25.408  1.00  0.00     0.081 A 
ATOM     12  C   UNL A   1      34.076  23.973  23.175  1.00  0.00     0.091 C 
ATOM     13  N   UNL A   1      33.706  26.391  25.907  1.00  0.00    -0.240 NA
ATOM     14  C   UNL A   1      33.772  25.139  24.033  1.00  0.00     0.042 A 
ATOM     15  C   UNL A   1      33.691  27.174  24.850  1.00  0.00     0.197 A 
ATOM     16  N   UNL A   1      33.692  26.457  23.682  1.00  0.00    -0.348 N 
ATOM     17  H   UNL A   1      33.645  26.819  22.768  1.00  0.00     0.167 HD
BRANCH   9  18
ATOM     18  C   UNL A   1      34.170  21.500  26.029  1.00  0.00     0.254 C 
ATOM     19  O   UNL A   1      34.208  21.365  27.253  1.00  0.00    -0.269 OA
BRANCH  18  20
ATOM     20  C   UNL A   1      33.926  20.263  25.240  1.00  0.00     0.040 A 
ATOM     21  C   UNL A   1      33.373  17.769  24.034  1.00  0.00     0.031 A 
ATOM     22  C   UNL A   1      32.334  18.623  24.409  1.00  0.00     0.026 A 
ATOM     23  C   UNL A   1      34.684  18.151  24.320  1.00  0.00     0.026 A 
ATOM     24  C   UNL A   1      32.606  19.868  24.992  1.00  0.00     0.016 A 
ATOM     25  C   UNL A   1      34.957  19.374  24.941  1.00  0.00     0.016 A 
BRANCH  21  26
ATOM     26  N   UNL A   1      33.108  16.503  23.540  1.00  0.00    -0.399 N 
ATOM     27  H   UNL A   1      33.850  15.897  23.313  1.00  0.00     0.156 HD
ATOM     28  H   UNL A   1      32.176  16.209  23.413  1.00  0.00     0.156 HD
ENDBRANCH  21  26
ENDBRANCH  18  20
ENDBRANCH   9  18
ENDBRANCH   5   8
ENDBRANCH   3   4
ENDBRANCH   2   3
ENDBRANCH   1   2
BRANCH   1  29
ATOM     29  C   UNL A   1      40.150  21.583  26.934  1.00  0.00     0.002 C 
BRANCH  29  30
ATOM     30  C   UNL A   1      40.857  20.440  26.187  1.00  0.00     0.021 C 
BRANCH  30  31
ATOM     31  C   UNL A   1      42.145  19.983  26.853  1.00  0.00     0.116 C 
BRANCH  31  32
ATOM     32  N   UNL A   1      43.241  19.843  25.893  1.00  0.00    -0.352 N 
ATOM     33  C   UNL A   1      43.923  20.823  25.199  1.00  0.00     0.251 C 
ATOM     34  H   UNL A   1      43.532  18.919  25.716  1.00  0.00     0.163 HD
ATOM     35  O   UNL A   1      44.572  20.556  24.203  1.00  0.00    -0.269 OA
BRANCH  33  36
ATOM     36  C   UNL A   1      43.864  22.208  25.696  1.00  0.00     0.039 A 
ATOM     37  C   UNL A   1      43.085  23.179  25.059  1.00  0.00     0.014 A 
ATOM     38  C   UNL A   1      44.602  22.519  26.833  1.00  0.00     0.014 A 
ATOM     39  C   UNL A   1      43.008  24.448  25.623  1.00  0.00     0.010 A 
ATOM     40  C   UNL A   1      44.379  23.699  27.485  1.00  0.00     0.010 A 
ATOM     41  C   UNL A   1      43.652  24.693  26.846  1.00  0.00    -0.014 A 
BRANCH  41  42
ATOM     42  C   UNL A   1      43.476  25.949  27.560  1.00  0.00     0.031 A 
ATOM     43  C   UNL A   1      44.414  27.019  27.123  1.00  0.00     0.074 A 
ATOM     44  C   UNL A   1      42.394  26.182  28.337  1.00  0.00     0.049 A 
ATOM     45  N   UNL A   1      45.319  27.613  27.828  1.00  0.00    -0.248 NA
ATOM     46  C   UNL A   1      44.460  27.365  25.690  1.00  0.00     0.031 C 
ATOM     47  C   UNL A   1      41.235  25.310  28.568  1.00  0.00     0.029 A 
ATOM     48  N   UNL A   1      42.033  27.319  28.992  1.00  0.00    -0.354 N 
ATOM     49  C   UNL A   1      45.897  28.560  26.987  1.00  0.00     0.074 A 
ATOM     50  C   UNL A   1      45.482  28.222  25.652  1.00  0.00     0.031 C 
ATOM     51  C   UNL A   1      40.215  26.033  29.082  1.00  0.00     0.029 A 
ATOM     52  C   UNL A   1      40.691  27.371  29.368  1.00  0.00     0.049 A 
ATOM     53  H   UNL A   1      42.669  28.046  29.184  1.00  0.00     0.167 HD
ATOM     54  C   UNL A   1      46.431  29.704  27.499  1.00  0.00     0.037 A 
ATOM     55  C   UNL A   1      40.032  28.468  29.822  1.00  0.00     0.037 A 
ATOM     56  C   UNL A   1      46.703  29.554  28.910  1.00  0.00     0.049 A 
ATOM     57  C   UNL A   1      41.066  29.443  30.263  1.00  0.00     0.074 A 
ATOM     58  C   UNL A   1      47.454  28.667  29.659  1.00  0.00     0.029 A 
ATOM     59  N   UNL A   1      45.839  30.141  29.803  1.00  0.00    -0.354 N 
ATOM     60  N   UNL A   1      41.840  29.257  31.297  1.00  0.00    -0.248 NA
ATOM     61  C   UNL A   1      41.567  30.371  29.260  1.00  0.00     0.031 C 
ATOM     62  C   UNL A   1      46.653  28.388  30.807  1.00  0.00     0.029 A 
ATOM     63  C   UNL A   1      45.518  29.193  30.740  1.00  0.00     0.049 A 
ATOM     64  H   UNL A   1      45.511  31.069  29.774  1.00  0.00     0.167 HD
ATOM     65  C   UNL A   1      43.092  29.676  30.873  1.00  0.00     0.074 A 
ATOM     66  C   UNL A   1      42.851  30.403  29.626  1.00  0.00     0.031 C 
ATOM     67  C   UNL A   1      44.233  29.138  31.394  1.00  0.00     0.037 A 
BRANCH  54  68
ATOM     68  C   UNL A   1      46.316  31.062  26.841  1.00  0.00     0.064 A 
ATOM     69  C   UNL A   1      47.452  31.897  26.808  1.00  0.00     0.173 A 
ATOM     70  C   UNL A   1      45.093  31.698  26.530  1.00  0.00     0.173 A 
ATOM     71  F   UNL A   1      48.668  31.408  27.095  1.00  0.00    -0.203 F 
ATOM     72  C   UNL A   1      47.353  33.273  26.587  1.00  0.00     0.198 A 
ATOM     73  C   UNL A   1      45.006  33.062  26.255  1.00  0.00     0.198 A 
ATOM     74  F   UNL A   1      43.917  31.065  26.587  1.00  0.00    -0.203 F 
ATOM     75  F   UNL A   1      48.442  34.045  26.709  1.00  0.00    -0.200 F 
ATOM     76  C   UNL A   1      46.129  33.856  26.321  1.00  0.00     0.200 A 
ATOM     77  F   UNL A   1      43.806  33.608  26.014  1.00  0.00    -0.200 F 
ATOM     78  F   UNL A   1      46.021  35.182  26.177  1.00  0.00    -0.200 F 
ENDBRANCH  54  68
BRANCH  55  79
ATOM     79  C   UNL A   1      38.626  28.883  29.577  1.00  0.00     0.064 A 
ATOM     80  C   UNL A   1      37.779  29.212  30.652  1.00  0.00     0.173 A 
ATOM     81  C   UNL A   1      38.176  29.257  28.297  1.00  0.00     0.173 A 
ATOM     82  F   UNL A   1      38.144  28.925  31.910  1.00  0.00    -0.203 F 
ATOM     83  C   UNL A   1      36.584  29.914  30.461  1.00  0.00     0.198 A 
ATOM     84  C   UNL A   1      36.978  29.951  28.106  1.00  0.00     0.198 A 
ATOM     85  F   UNL A   1      38.933  29.045  27.211  1.00  0.00    -0.203 F 
ATOM     86  F   UNL A   1      35.843  30.274  31.519  1.00  0.00    -0.200 F 
ATOM     87  C   UNL A   1      36.192  30.297  29.190  1.00  0.00     0.200 A 
ATOM     88  F   UNL A   1      36.626  30.341  26.874  1.00  0.00    -0.200 F 
ATOM     89  F   UNL A   1      35.083  31.030  29.013  1.00  0.00    -0.200 F 
ENDBRANCH  55  79
BRANCH  67  90
ATOM     90  C   UNL A   1      44.119  28.259  32.610  1.00  0.00     0.064 A 
ATOM     91  C   UNL A   1      43.924  26.866  32.574  1.00  0.00     0.173 A 
ATOM     92  C   UNL A   1      44.347  28.841  33.864  1.00  0.00     0.173 A 
ATOM     93  F   UNL A   1      43.808  26.212  31.412  1.00  0.00    -0.203 F 
ATOM     94  C   UNL A   1      43.907  26.107  33.745  1.00  0.00     0.198 A 
ATOM     95  C   UNL A   1      44.369  28.077  35.026  1.00  0.00     0.198 A 
ATOM     96  F   UNL A   1      44.594  30.158  33.957  1.00  0.00    -0.203 F 
ATOM     97  F   UNL A   1      43.700  24.783  33.685  1.00  0.00    -0.200 F 
ATOM     98  C   UNL A   1      44.135  26.714  34.968  1.00  0.00     0.200 A 
ATOM     99  F   UNL A   1      44.642  28.662  36.200  1.00  0.00    -0.200 F 
ATOM    100  F   UNL A   1      44.153  25.980  36.091  1.00  0.00    -0.200 F 
ENDBRANCH  67  90
ENDBRANCH  41  42
ENDBRANCH  33  36
ENDBRANCH  31  32
ENDBRANCH  30  31
ENDBRANCH  29  30
ENDBRANCH   1  29
TORSDOF 16
ENDMDL
MODEL 3
REMARK VINA RESULT:     -12.1      1.998      6.535
REMARK SMILES Nc1ccc(C(=O)N2Cc3nc[nH]c3C[C@H]2C(=O)NCCCCCCNC(=O)c2ccc(-c3c4nc(c(-c5c(F)c(F)c(F)c(F)c5F)c5ccc([nH]5)c(-c5c(F)c(F)c(F)c(F)c5F)c5nc(c(-c6c(F)c(F)c(F)c(F)c6F)c6ccc3[nH]6)C=C5)C=C4)cc2)cc1
REMARK SMILES IDX 22 1 21 2 20 3 19 4 17 5 18 6 16 8 8 9 9 10 10 11 15 12
REMARK SMILES IDX 11 13 14 14 12 15 13 16 6 18 7 19 5 20 2 21 3 22 93 23 4 24
REMARK SMILES IDX 92 25 1 26 23 29 24 30 25 31 26 32 27 33 28 35 29 36 30 37
REMARK SMILES IDX 91 38 31 39 90 40 32 41 33 42 34 43 84 44 35 45 89 46 83 47
REMARK SMILES IDX 85 48 36 49 88 50 82 51 81 52 37 54 69 55 49 56 68 57 50 58
REMARK SMILES IDX 53 59 67 60 86 61 51 62 52 63 66 65 87 66 54 67 38 68 39 69
REMARK SMILES IDX 47 70 40 71 41 72 45 73 48 74 42 75 43 76 46 77 44 78 70 79
REMARK SMILES IDX 71 80 79 81 72 82 73 83 77 84 80 85 74 86 75 87 78 88 76 89
REMARK SMILES IDX 55 90 56 91 64 92 57 93 58 94 62 95 65 96 59 97 60 98 63 99
REMARK SMILES IDX 61 100
REMARK H PARENT 19 7 13 17 1 27 1 28 26 34 85 53 53 64
REMARK Flexibility Score: inf
ROOT
ATOM      1  C   UNL A   1      38.344  22.170  25.789  1.00  0.00     0.002 C 
ENDROOT
BRANCH   1   2
ATOM      2  C   UNL A   1      37.615  23.485  25.516  1.00  0.00     0.021 C 
BRANCH   2   3
ATOM      3  C   UNL A   1      36.100  23.377  25.586  1.00  0.00     0.116 C 
BRANCH   3   4
ATOM      4  N   UNL A   1      35.378  24.302  24.754  1.00  0.00    -0.354 N 
ATOM      5  C   UNL A   1      34.210  24.954  25.012  1.00  0.00     0.243 C 
ATOM      6  O   UNL A   1      34.063  26.033  24.422  1.00  0.00    -0.273 OA
ATOM      7  H   UNL A   1      35.784  24.488  23.876  1.00  0.00     0.163 HD
BRANCH   5   8
ATOM      8  C   UNL A   1      33.122  24.485  26.030  1.00  0.00     0.181 C 
ATOM      9  N   UNL A   1      31.688  24.365  25.581  1.00  0.00    -0.320 N 
ATOM     10  C   UNL A   1      31.125  23.066  25.147  1.00  0.00     0.178 C 
ATOM     11  C   UNL A   1      31.951  21.910  25.583  1.00  0.00     0.081 A 
ATOM     12  C   UNL A   1      33.632  23.281  26.885  1.00  0.00     0.091 C 
ATOM     13  N   UNL A   1      31.872  20.659  25.022  1.00  0.00    -0.240 NA
ATOM     14  C   UNL A   1      33.085  22.013  26.355  1.00  0.00     0.042 A 
ATOM     15  C   UNL A   1      32.918  20.006  25.482  1.00  0.00     0.197 A 
ATOM     16  N   UNL A   1      33.670  20.779  26.329  1.00  0.00    -0.348 N 
ATOM     17  H   UNL A   1      34.474  20.499  26.824  1.00  0.00     0.167 HD
BRANCH   9  18
ATOM     18  C   UNL A   1      30.743  25.396  25.683  1.00  0.00     0.254 C 
ATOM     19  O   UNL A   1      29.813  25.345  26.491  1.00  0.00    -0.269 OA
BRANCH  18  20
ATOM     20  C   UNL A   1      30.760  26.576  24.778  1.00  0.00     0.040 A 
ATOM     21  C   UNL A   1      31.079  28.691  22.933  1.00  0.00     0.031 A 
ATOM     22  C   UNL A   1      30.616  27.443  22.510  1.00  0.00     0.026 A 
ATOM     23  C   UNL A   1      31.432  28.851  24.273  1.00  0.00     0.026 A 
ATOM     24  C   UNL A   1      30.440  26.397  23.427  1.00  0.00     0.016 A 
ATOM     25  C   UNL A   1      31.299  27.796  25.182  1.00  0.00     0.016 A 
BRANCH  21  26
ATOM     26  N   UNL A   1      31.336  29.698  22.018  1.00  0.00    -0.399 N 
ATOM     27  H   UNL A   1      30.712  29.859  21.274  1.00  0.00     0.156 HD
ATOM     28  H   UNL A   1      32.145  30.253  22.112  1.00  0.00     0.156 HD
ENDBRANCH  21  26
ENDBRANCH  18  20
ENDBRANCH   9  18
ENDBRANCH   5   8
ENDBRANCH   3   4
ENDBRANCH   2   3
ENDBRANCH   1   2
BRANCH   1  29
ATOM     29  C   UNL A   1      37.790  20.929  25.065  1.00  0.00     0.002 C 
BRANCH  29  30
ATOM     30  C   UNL A   1      38.665  19.665  25.083  1.00  0.00     0.021 C 
BRANCH  30  31
ATOM     31  C   UNL A   1      39.676  19.641  26.219  1.00  0.00     0.116 C 
BRANCH  31  32
ATOM     32  N   UNL A   1      40.945  19.037  25.813  1.00  0.00    -0.352 N 
ATOM     33  C   UNL A   1      42.187  19.627  25.673  1.00  0.00     0.251 C 
ATOM     34  H   UNL A   1      40.910  18.074  25.611  1.00  0.00     0.163 HD
ATOM     35  O   UNL A   1      43.068  19.095  25.020  1.00  0.00    -0.269 OA
BRANCH  33  36
ATOM     36  C   UNL A   1      42.433  20.914  26.343  1.00  0.00     0.039 A 
ATOM     37  C   UNL A   1      42.809  22.052  25.621  1.00  0.00     0.014 A 
ATOM     38  C   UNL A   1      42.268  20.967  27.723  1.00  0.00     0.014 A 
ATOM     39  C   UNL A   1      42.951  23.257  26.302  1.00  0.00     0.010 A 
ATOM     40  C   UNL A   1      42.223  22.177  28.355  1.00  0.00     0.010 A 
ATOM     41  C   UNL A   1      42.642  23.310  27.670  1.00  0.00    -0.014 A 
BRANCH  41  42
ATOM     42  C   UNL A   1      42.618  24.571  28.396  1.00  0.00     0.031 A 
ATOM     43  C   UNL A   1      41.350  25.332  28.226  1.00  0.00     0.074 A 
ATOM     44  C   UNL A   1      43.543  24.870  29.336  1.00  0.00     0.049 A 
ATOM     45  N   UNL A   1      41.195  26.499  27.696  1.00  0.00    -0.248 NA
ATOM     46  C   UNL A   1      40.079  24.652  28.542  1.00  0.00     0.031 C 
ATOM     47  C   UNL A   1      44.650  24.036  29.821  1.00  0.00     0.029 A 
ATOM     48  N   UNL A   1      43.614  25.949  30.162  1.00  0.00    -0.354 N 
ATOM     49  C   UNL A   1      39.838  26.793  27.812  1.00  0.00     0.074 A 
ATOM     50  C   UNL A   1      39.184  25.556  28.141  1.00  0.00     0.031 C 
ATOM     51  C   UNL A   1      45.104  24.518  30.999  1.00  0.00     0.029 A 
ATOM     52  C   UNL A   1      44.440  25.777  31.272  1.00  0.00     0.049 A 
ATOM     53  H   UNL A   1      43.120  26.783  29.990  1.00  0.00     0.167 HD
ATOM     54  C   UNL A   1      39.418  28.085  27.906  1.00  0.00     0.037 A 
ATOM     55  C   UNL A   1      44.506  26.597  32.353  1.00  0.00     0.037 A 
ATOM     56  C   UNL A   1      40.437  28.992  27.431  1.00  0.00     0.049 A 
ATOM     57  C   UNL A   1      43.905  27.896  31.947  1.00  0.00     0.074 A 
ATOM     58  C   UNL A   1      41.129  29.126  26.241  1.00  0.00     0.029 A 
ATOM     59  N   UNL A   1      41.178  29.681  28.361  1.00  0.00    -0.354 N 
ATOM     60  N   UNL A   1      44.446  28.702  31.074  1.00  0.00    -0.248 NA
ATOM     61  C   UNL A   1      42.469  28.046  32.137  1.00  0.00     0.031 C 
ATOM     62  C   UNL A   1      42.472  29.413  26.629  1.00  0.00     0.029 A 
ATOM     63  C   UNL A   1      42.497  29.535  28.017  1.00  0.00     0.049 A 
ATOM     64  H   UNL A   1      40.826  30.184  29.130  1.00  0.00     0.167 HD
ATOM     65  C   UNL A   1      43.383  29.134  30.295  1.00  0.00     0.074 A 
ATOM     66  C   UNL A   1      42.182  28.739  31.031  1.00  0.00     0.031 C 
ATOM     67  C   UNL A   1      43.562  29.489  28.989  1.00  0.00     0.037 A 
BRANCH  54  68
ATOM     68  C   UNL A   1      38.285  28.545  28.800  1.00  0.00     0.064 A 
ATOM     69  C   UNL A   1      37.389  29.516  28.311  1.00  0.00     0.173 A 
ATOM     70  C   UNL A   1      38.226  28.318  30.194  1.00  0.00     0.173 A 
ATOM     71  F   UNL A   1      37.360  29.824  27.006  1.00  0.00    -0.203 F 
ATOM     72  C   UNL A   1      36.577  30.271  29.163  1.00  0.00     0.198 A 
ATOM     73  C   UNL A   1      37.375  29.035  31.034  1.00  0.00     0.198 A 
ATOM     74  F   UNL A   1      39.058  27.483  30.825  1.00  0.00    -0.203 F 
ATOM     75  F   UNL A   1      35.849  31.280  28.665  1.00  0.00    -0.200 F 
ATOM     76  C   UNL A   1      36.578  30.037  30.525  1.00  0.00     0.200 A 
ATOM     77  F   UNL A   1      37.404  28.800  32.354  1.00  0.00    -0.200 F 
ATOM     78  F   UNL A   1      35.855  30.802  31.350  1.00  0.00    -0.200 F 
ENDBRANCH  54  68
BRANCH  55  79
ATOM     79  C   UNL A   1      44.710  26.247  33.783  1.00  0.00     0.064 A 
ATOM     80  C   UNL A   1      45.469  27.084  34.623  1.00  0.00     0.173 A 
ATOM     81  C   UNL A   1      43.929  25.268  34.425  1.00  0.00     0.173 A 
ATOM     82  F   UNL A   1      46.216  28.067  34.099  1.00  0.00    -0.203 F 
ATOM     83  C   UNL A   1      45.410  26.977  36.017  1.00  0.00     0.198 A 
ATOM     84  C   UNL A   1      43.877  25.158  35.817  1.00  0.00     0.198 A 
ATOM     85  F   UNL A   1      43.123  24.460  33.722  1.00  0.00    -0.203 F 
ATOM     86  F   UNL A   1      46.090  27.842  36.784  1.00  0.00    -0.200 F 
ATOM     87  C   UNL A   1      44.602  26.025  36.613  1.00  0.00     0.200 A 
ATOM     88  F   UNL A   1      43.068  24.251  36.381  1.00  0.00    -0.200 F 
ATOM     89  F   UNL A   1      44.491  25.968  37.948  1.00  0.00    -0.200 F 
ENDBRANCH  55  79
BRANCH  67  90
ATOM     90  C   UNL A   1      44.968  29.642  28.475  1.00  0.00     0.064 A 
ATOM     91  C   UNL A   1      45.768  28.583  28.008  1.00  0.00     0.173 A 
ATOM     92  C   UNL A   1      45.476  30.940  28.330  1.00  0.00     0.173 A 
ATOM     93  F   UNL A   1      45.317  27.323  28.006  1.00  0.00    -0.203 F 
ATOM     94  C   UNL A   1      47.035  28.815  27.473  1.00  0.00     0.198 A 
ATOM     95  C   UNL A   1      46.723  31.172  27.760  1.00  0.00     0.198 A 
ATOM     96  F   UNL A   1      44.737  31.996  28.707  1.00  0.00    -0.203 F 
ATOM     97  F   UNL A   1      47.786  27.786  27.052  1.00  0.00    -0.200 F 
ATOM     98  C   UNL A   1      47.508  30.109  27.345  1.00  0.00     0.200 A 
ATOM     99  F   UNL A   1      47.153  32.429  27.591  1.00  0.00    -0.200 F 
ATOM    100  F   UNL A   1      48.712  30.336  26.799  1.00  0.00    -0.200 F 
ENDBRANCH  67  90
ENDBRANCH  41  42
ENDBRANCH  33  36
ENDBRANCH  31  32
ENDBRANCH  30  31
ENDBRANCH  29  30
ENDBRANCH   1  29
TORSDOF 16
ENDMDL
