MODEL 1
REMARK VINA RESULT:     -12.7      0.000      0.000
REMARK SMILES N#CCCn1cc(C(=O)NCCCCCCNC(=O)c2ccc(-c3c4nc(c(-c5c(F)c(F)c(F)c(F)c5F)c5ccc([nH]5)c(-c5c(F)c(F)c(F)c(F)c5F)c5nc(c(-c6c(F)c(F)c(F)c(F)c6F)c6ccc3[nH]6)C=C5)C=C4)cc2)c(-c2cccc([N+](=O)[O-])c2)n1
REMARK SMILES IDX 13 1 12 2 11 3 10 4 8 5 9 6 7 8 5 9 6 10 93 11 83 12 4 13
REMARK SMILES IDX 3 14 2 15 1 16 84 17 85 18 92 19 86 20 88 21 87 22 89 23
REMARK SMILES IDX 90 24 91 25 14 26 15 27 16 28 17 29 18 30 19 32 20 33 21 34
REMARK SMILES IDX 82 35 22 36 81 37 23 38 24 39 25 40 75 41 26 42 80 43 74 44
REMARK SMILES IDX 76 45 27 46 79 47 73 48 72 49 28 51 60 52 40 53 59 54 41 55
REMARK SMILES IDX 44 56 58 57 77 58 42 59 43 60 57 62 78 63 45 64 29 65 30 66
REMARK SMILES IDX 38 67 31 68 32 69 36 70 39 71 33 72 34 73 37 74 35 75 61 76
REMARK SMILES IDX 62 77 70 78 63 79 64 80 68 81 71 82 65 83 66 84 69 85 67 86
REMARK SMILES IDX 46 87 47 88 55 89 48 90 49 91 53 92 56 93 50 94 51 95 54 96
REMARK SMILES IDX 52 97
REMARK H PARENT 10 7 17 31 76 50 44 61
REMARK Flexibility Score: inf
ROOT
ATOM      1  C   UNL A   1      34.268  30.907  27.326  1.00  0.00     0.002 C 
ENDROOT
BRANCH   1   2
ATOM      2  C   UNL A   1      33.685  29.538  27.051  1.00  0.00     0.021 C 
BRANCH   2   3
ATOM      3  C   UNL A   1      32.798  29.680  25.844  1.00  0.00     0.116 C 
BRANCH   3   4
ATOM      4  N   UNL A   1      33.392  29.154  24.658  1.00  0.00    -0.352 N 
ATOM      5  C   UNL A   1      32.767  28.665  23.545  1.00  0.00     0.255 C 
ATOM      6  O   UNL A   1      33.503  28.260  22.647  1.00  0.00    -0.269 OA
ATOM      7  H   UNL A   1      34.377  29.140  24.639  1.00  0.00     0.163 HD
BRANCH   5   8
ATOM      8  C   UNL A   1      31.297  28.656  23.451  1.00  0.00     0.085 A 
ATOM      9  N   UNL A   1      29.154  29.095  23.078  1.00  0.00    -0.270 N 
ATOM     10  C   UNL A   1      30.384  29.645  23.141  1.00  0.00     0.123 A 
ATOM     11  N   UNL A   1      29.142  27.803  23.386  1.00  0.00    -0.172 NA
ATOM     12  C   UNL A   1      30.437  27.522  23.637  1.00  0.00     0.105 A 
BRANCH   9  13
ATOM     13  C   UNL A   1      27.967  29.841  22.717  1.00  0.00     0.159 C 
BRANCH  13  14
ATOM     14  C   UNL A   1      28.138  30.530  21.397  1.00  0.00     0.144 C 
BRANCH  14  15
ATOM     15  C   UNL A   1      28.025  32.037  21.557  1.00  0.00     0.064 C 
ATOM     16  N   UNL A   1      27.930  33.288  21.689  1.00  0.00    -0.198 NA
ENDBRANCH  14  15
ENDBRANCH  13  14
ENDBRANCH   9  13
BRANCH  12  17
ATOM     17  C   UNL A   1      30.846  26.162  23.933  1.00  0.00     0.010 A 
ATOM     18  C   UNL A   1      31.266  25.293  22.920  1.00  0.00     0.011 A 
ATOM     19  C   UNL A   1      30.681  25.696  25.236  1.00  0.00     0.096 A 
ATOM     20  C   UNL A   1      31.418  23.934  23.190  1.00  0.00     0.008 A 
ATOM     21  C   UNL A   1      30.920  24.351  25.514  1.00  0.00     0.270 A 
ATOM     22  C   UNL A   1      31.306  23.467  24.499  1.00  0.00     0.085 A 
BRANCH  21  23
ATOM     23  N   UNL A   1      30.695  23.857  26.874  1.00  0.00     0.062 N 
ATOM     24  O   UNL A   1      29.524  23.766  27.267  1.00  0.00    -0.258 OA
ATOM     25  O   UNL A   1      31.689  23.568  27.556  1.00  0.00    -0.258 OA
ENDBRANCH  21  23
ENDBRANCH  12  17
ENDBRANCH   5   8
ENDBRANCH   3   4
ENDBRANCH   2   3
ENDBRANCH   1   2
BRANCH   1  26
ATOM     26  C   UNL A   1      35.658  30.772  27.969  1.00  0.00     0.002 C 
BRANCH  26  27
ATOM     27  C   UNL A   1      35.583  29.983  29.248  1.00  0.00     0.021 C 
BRANCH  27  28
ATOM     28  C   UNL A   1      36.859  30.189  29.964  1.00  0.00     0.116 C 
BRANCH  28  29
ATOM     29  N   UNL A   1      37.439  28.949  30.437  1.00  0.00    -0.352 N 
ATOM     30  C   UNL A   1      38.556  28.365  29.890  1.00  0.00     0.251 C 
ATOM     31  H   UNL A   1      37.008  28.497  31.196  1.00  0.00     0.163 HD
ATOM     32  O   UNL A   1      38.920  27.255  30.261  1.00  0.00    -0.269 OA
BRANCH  30  33
ATOM     33  C   UNL A   1      39.360  29.279  28.972  1.00  0.00     0.039 A 
ATOM     34  C   UNL A   1      39.066  29.377  27.680  1.00  0.00     0.014 A 
ATOM     35  C   UNL A   1      40.790  29.274  29.096  1.00  0.00     0.014 A 
ATOM     36  C   UNL A   1      40.381  28.966  26.739  1.00  0.00     0.010 A 
ATOM     37  C   UNL A   1      41.935  29.357  28.236  1.00  0.00     0.010 A 
ATOM     38  C   UNL A   1      41.951  28.393  27.255  1.00  0.00    -0.014 A 
BRANCH  38  39
ATOM     39  C   UNL A   1      43.799  27.684  27.052  1.00  0.00     0.031 A 
ATOM     40  C   UNL A   1      42.533  26.106  26.919  1.00  0.00     0.074 A 
ATOM     41  C   UNL A   1      45.462  28.481  26.872  1.00  0.00     0.049 A 
ATOM     42  N   UNL A   1      41.828  25.554  27.960  1.00  0.00    -0.248 NA
ATOM     43  C   UNL A   1      41.120  25.339  25.891  1.00  0.00     0.031 C 
ATOM     44  C   UNL A   1      47.232  29.292  26.676  1.00  0.00     0.029 A 
ATOM     45  N   UNL A   1      47.037  27.625  27.100  1.00  0.00    -0.354 N 
ATOM     46  C   UNL A   1      41.541  24.175  27.535  1.00  0.00     0.074 A 
ATOM     47  C   UNL A   1      40.827  24.091  26.350  1.00  0.00     0.031 C 
ATOM     48  C   UNL A   1      48.593  29.020  26.085  1.00  0.00     0.029 A 
ATOM     49  C   UNL A   1      48.516  27.688  26.267  1.00  0.00     0.049 A 
ATOM     50  H   UNL A   1      47.037  26.997  27.858  1.00  0.00     0.167 HD
ATOM     51  C   UNL A   1      42.546  23.293  27.615  1.00  0.00     0.037 A 
ATOM     52  C   UNL A   1      49.503  26.791  25.812  1.00  0.00     0.037 A 
ATOM     53  C   UNL A   1      43.469  23.870  28.501  1.00  0.00     0.049 A 
ATOM     54  C   UNL A   1      48.653  25.754  26.321  1.00  0.00     0.074 A 
ATOM     55  C   UNL A   1      43.220  24.390  29.753  1.00  0.00     0.029 A 
ATOM     56  N   UNL A   1      44.468  24.591  27.938  1.00  0.00    -0.354 N 
ATOM     57  N   UNL A   1      48.443  25.600  27.610  1.00  0.00    -0.248 NA
ATOM     58  C   UNL A   1      47.614  25.383  25.375  1.00  0.00     0.031 C 
ATOM     59  C   UNL A   1      44.199  25.341  29.997  1.00  0.00     0.029 A 
ATOM     60  C   UNL A   1      45.007  25.396  28.887  1.00  0.00     0.049 A 
ATOM     61  H   UNL A   1      44.755  24.539  26.998  1.00  0.00     0.167 HD
ATOM     62  C   UNL A   1      47.069  25.418  27.695  1.00  0.00     0.074 A 
ATOM     63  C   UNL A   1      46.653  25.162  26.265  1.00  0.00     0.031 C 
ATOM     64  C   UNL A   1      46.287  25.949  28.722  1.00  0.00     0.037 A 
BRANCH  51  65
ATOM     65  C   UNL A   1      42.844  22.156  26.729  1.00  0.00     0.064 A 
ATOM     66  C   UNL A   1      42.241  20.994  27.182  1.00  0.00     0.173 A 
ATOM     67  C   UNL A   1      43.758  22.070  25.655  1.00  0.00     0.173 A 
ATOM     68  F   UNL A   1      41.264  21.075  28.098  1.00  0.00    -0.203 F 
ATOM     69  C   UNL A   1      42.641  19.768  26.710  1.00  0.00     0.198 A 
ATOM     70  C   UNL A   1      44.074  20.837  25.103  1.00  0.00     0.198 A 
ATOM     71  F   UNL A   1      44.361  23.147  25.127  1.00  0.00    -0.203 F 
ATOM     72  F   UNL A   1      42.233  18.666  27.345  1.00  0.00    -0.200 F 
ATOM     73  C   UNL A   1      43.514  19.689  25.637  1.00  0.00     0.200 A 
ATOM     74  F   UNL A   1      44.967  20.755  24.105  1.00  0.00    -0.200 F 
ATOM     75  F   UNL A   1      43.795  18.495  25.105  1.00  0.00    -0.200 F 
ENDBRANCH  51  65
BRANCH  52  76
ATOM     76  C   UNL A   1      50.269  26.819  24.418  1.00  0.00     0.064 A 
ATOM     77  C   UNL A   1      49.787  27.183  23.123  1.00  0.00     0.173 A 
ATOM     78  C   UNL A   1      51.662  26.565  24.425  1.00  0.00     0.173 A 
ATOM     79  F   UNL A   1      48.506  27.542  22.949  1.00  0.00    -0.203 F 
ATOM     80  C   UNL A   1      50.627  27.237  21.964  1.00  0.00     0.198 A 
ATOM     81  C   UNL A   1      52.509  26.704  23.304  1.00  0.00     0.198 A 
ATOM     82  F   UNL A   1      52.247  26.225  25.580  1.00  0.00    -0.203 F 
ATOM     83  F   UNL A   1      50.107  27.434  20.739  1.00  0.00    -0.200 F 
ATOM     84  C   UNL A   1      51.996  27.070  22.077  1.00  0.00     0.200 A 
ATOM     85  F   UNL A   1      53.825  26.482  23.433  1.00  0.00    -0.200 F 
ATOM     86  F   UNL A   1      52.811  27.285  21.031  1.00  0.00    -0.200 F 
ENDBRANCH  52  76
BRANCH  64  87
ATOM     87  C   UNL A   1      46.812  26.823  29.895  1.00  0.00     0.064 A 
ATOM     88  C   UNL A   1      46.417  28.124  30.343  1.00  0.00     0.173 A 
ATOM     89  C   UNL A   1      47.819  26.239  30.641  1.00  0.00     0.173 A 
ATOM     90  F   UNL A   1      45.307  28.746  29.938  1.00  0.00    -0.203 F 
ATOM     91  C   UNL A   1      47.191  28.881  31.211  1.00  0.00     0.198 A 
ATOM     92  C   UNL A   1      48.470  26.930  31.656  1.00  0.00     0.198 A 
ATOM     93  F   UNL A   1      48.130  24.954  30.427  1.00  0.00    -0.203 F 
ATOM     94  F   UNL A   1      47.007  30.209  31.303  1.00  0.00    -0.200 F 
ATOM     95  C   UNL A   1      48.175  28.256  31.926  1.00  0.00     0.200 A 
ATOM     96  F   UNL A   1      49.431  26.310  32.344  1.00  0.00    -0.200 F 
ATOM     97  F   UNL A   1      48.797  28.914  32.910  1.00  0.00    -0.200 F 
ENDBRANCH  64  87
ENDBRANCH  38  39
ENDBRANCH  30  33
ENDBRANCH  28  29
ENDBRANCH  27  28
ENDBRANCH  26  27
ENDBRANCH   1  26
TORSDOF 18
ENDMDL
MODEL 2
REMARK VINA RESULT:     -12.4      6.862     13.044
REMARK SMILES N#CCCn1cc(C(=O)NCCCCCCNC(=O)c2ccc(-c3c4nc(c(-c5c(F)c(F)c(F)c(F)c5F)c5ccc([nH]5)c(-c5c(F)c(F)c(F)c(F)c5F)c5nc(c(-c6c(F)c(F)c(F)c(F)c6F)c6ccc3[nH]6)C=C5)C=C4)cc2)c(-c2cccc([N+](=O)[O-])c2)n1
REMARK SMILES IDX 13 1 12 2 11 3 10 4 8 5 9 6 7 8 5 9 6 10 93 11 83 12 4 13
REMARK SMILES IDX 3 14 2 15 1 16 84 17 85 18 92 19 86 20 88 21 87 22 89 23
REMARK SMILES IDX 90 24 91 25 14 26 15 27 16 28 17 29 18 30 19 32 20 33 21 34
REMARK SMILES IDX 82 35 22 36 81 37 23 38 24 39 25 40 75 41 26 42 80 43 74 44
REMARK SMILES IDX 76 45 27 46 79 47 73 48 72 49 28 51 60 52 40 53 59 54 41 55
REMARK SMILES IDX 44 56 58 57 77 58 42 59 43 60 57 62 78 63 45 64 29 65 30 66
REMARK SMILES IDX 38 67 31 68 32 69 36 70 39 71 33 72 34 73 37 74 35 75 61 76
REMARK SMILES IDX 62 77 70 78 63 79 64 80 68 81 71 82 65 83 66 84 69 85 67 86
REMARK SMILES IDX 46 87 47 88 55 89 48 90 49 91 53 92 56 93 50 94 51 95 54 96
REMARK SMILES IDX 52 97
REMARK H PARENT 10 7 17 31 76 50 44 61
REMARK Flexibility Score: inf
ROOT
ATOM      1  C   UNL A   1      38.182  24.040  26.567  1.00  0.00     0.002 C 
ENDROOT
BRANCH   1   2
ATOM      2  C   UNL A   1      37.797  22.810  25.774  1.00  0.00     0.021 C 
BRANCH   2   3
ATOM      3  C   UNL A   1      36.394  23.037  25.279  1.00  0.00     0.116 C 
BRANCH   3   4
ATOM      4  N   UNL A   1      35.445  23.136  26.340  1.00  0.00    -0.352 N 
ATOM      5  C   UNL A   1      34.245  22.492  26.462  1.00  0.00     0.255 C 
ATOM      6  O   UNL A   1      33.596  22.749  27.476  1.00  0.00    -0.269 OA
ATOM      7  H   UNL A   1      35.683  23.745  27.076  1.00  0.00     0.163 HD
BRANCH   5   8
ATOM      8  C   UNL A   1      33.794  21.540  25.434  1.00  0.00     0.085 A 
ATOM      9  N   UNL A   1      33.257  19.754  24.231  1.00  0.00    -0.270 N 
ATOM     10  C   UNL A   1      33.973  20.177  25.293  1.00  0.00     0.123 A 
ATOM     11  N   UNL A   1      32.644  20.740  23.587  1.00  0.00    -0.172 NA
ATOM     12  C   UNL A   1      32.976  21.839  24.292  1.00  0.00     0.105 A 
BRANCH   9  13
ATOM     13  C   UNL A   1      33.173  18.364  23.832  1.00  0.00     0.159 C 
BRANCH  13  14
ATOM     14  C   UNL A   1      34.163  17.524  24.579  1.00  0.00     0.144 C 
BRANCH  14  15
ATOM     15  C   UNL A   1      33.593  16.144  24.865  1.00  0.00     0.064 C 
ATOM     16  N   UNL A   1      33.120  14.999  25.102  1.00  0.00    -0.198 NA
ENDBRANCH  14  15
ENDBRANCH  13  14
ENDBRANCH   9  13
BRANCH  12  17
ATOM     17  C   UNL A   1      32.419  23.131  23.940  1.00  0.00     0.010 A 
ATOM     18  C   UNL A   1      31.211  23.575  24.490  1.00  0.00     0.011 A 
ATOM     19  C   UNL A   1      33.046  23.865  22.934  1.00  0.00     0.096 A 
ATOM     20  C   UNL A   1      30.578  24.698  23.958  1.00  0.00     0.008 A 
ATOM     21  C   UNL A   1      32.448  25.034  22.469  1.00  0.00     0.270 A 
ATOM     22  C   UNL A   1      31.221  25.467  22.988  1.00  0.00     0.085 A 
BRANCH  21  23
ATOM     23  N   UNL A   1      33.085  25.771  21.377  1.00  0.00     0.062 N 
ATOM     24  O   UNL A   1      33.088  25.249  20.253  1.00  0.00    -0.258 OA
ATOM     25  O   UNL A   1      33.594  26.871  21.641  1.00  0.00    -0.258 OA
ENDBRANCH  21  23
ENDBRANCH  12  17
ENDBRANCH   5   8
ENDBRANCH   3   4
ENDBRANCH   2   3
ENDBRANCH   1   2
BRANCH   1  26
ATOM     26  C   UNL A   1      39.691  24.029  26.864  1.00  0.00     0.002 C 
BRANCH  26  27
ATOM     27  C   UNL A   1      40.439  24.873  25.868  1.00  0.00     0.021 C 
BRANCH  27  28
ATOM     28  C   UNL A   1      41.266  25.826  26.636  1.00  0.00     0.116 C 
BRANCH  28  29
ATOM     29  N   UNL A   1      40.940  27.207  26.346  1.00  0.00    -0.352 N 
ATOM     30  C   UNL A   1      40.365  28.068  27.249  1.00  0.00     0.251 C 
ATOM     31  H   UNL A   1      41.144  27.550  25.447  1.00  0.00     0.163 HD
ATOM     32  O   UNL A   1      40.005  29.185  26.898  1.00  0.00    -0.269 OA
BRANCH  30  33
ATOM     33  C   UNL A   1      40.404  27.584  28.694  1.00  0.00     0.039 A 
ATOM     34  C   UNL A   1      39.373  26.933  29.223  1.00  0.00     0.014 A 
ATOM     35  C   UNL A   1      40.915  28.479  29.693  1.00  0.00     0.014 A 
ATOM     36  C   UNL A   1      38.799  27.727  30.574  1.00  0.00     0.010 A 
ATOM     37  C   UNL A   1      40.632  28.831  31.054  1.00  0.00     0.010 A 
ATOM     38  C   UNL A   1      39.336  29.247  31.251  1.00  0.00    -0.014 A 
BRANCH  38  39
ATOM     39  C   UNL A   1      39.321  30.810  32.482  1.00  0.00     0.031 A 
ATOM     40  C   UNL A   1      37.811  31.078  31.157  1.00  0.00     0.074 A 
ATOM     41  C   UNL A   1      40.234  31.219  34.042  1.00  0.00     0.049 A 
ATOM     42  N   UNL A   1      37.957  31.405  29.831  1.00  0.00    -0.248 NA
ATOM     43  C   UNL A   1      36.154  30.363  30.534  1.00  0.00     0.031 C 
ATOM     44  C   UNL A   1      41.180  31.677  35.692  1.00  0.00     0.029 A 
ATOM     45  N   UNL A   1      40.339  32.871  34.764  1.00  0.00    -0.354 N 
ATOM     46  C   UNL A   1      36.681  32.032  29.452  1.00  0.00     0.074 A 
ATOM     47  C   UNL A   1      35.577  31.218  29.645  1.00  0.00     0.031 C 
ATOM     48  C   UNL A   1      41.023  32.493  36.951  1.00  0.00     0.029 A 
ATOM     49  C   UNL A   1      40.266  33.439  36.364  1.00  0.00     0.049 A 
ATOM     50  H   UNL A   1      40.461  33.585  34.097  1.00  0.00     0.167 HD
ATOM     51  C   UNL A   1      36.485  33.298  29.847  1.00  0.00     0.037 A 
ATOM     52  C   UNL A   1      39.683  34.508  37.073  1.00  0.00     0.037 A 
ATOM     53  C   UNL A   1      37.765  33.789  30.145  1.00  0.00     0.049 A 
ATOM     54  C   UNL A   1      39.100  34.889  35.819  1.00  0.00     0.074 A 
ATOM     55  C   UNL A   1      38.893  33.729  29.356  1.00  0.00     0.029 A 
ATOM     56  N   UNL A   1      38.154  33.700  31.440  1.00  0.00    -0.354 N 
ATOM     57  N   UNL A   1      39.832  35.336  34.822  1.00  0.00    -0.248 NA
ATOM     58  C   UNL A   1      37.875  34.161  35.539  1.00  0.00     0.031 C 
ATOM     59  C   UNL A   1      39.986  33.762  30.209  1.00  0.00     0.029 A 
ATOM     60  C   UNL A   1      39.504  33.819  31.495  1.00  0.00     0.049 A 
ATOM     61  H   UNL A   1      37.557  33.571  32.212  1.00  0.00     0.167 HD
ATOM     62  C   UNL A   1      39.340  34.645  33.723  1.00  0.00     0.074 A 
ATOM     63  C   UNL A   1      38.048  34.044  34.227  1.00  0.00     0.031 C 
ATOM     64  C   UNL A   1      40.150  34.166  32.692  1.00  0.00     0.037 A 
BRANCH  51  65
ATOM     65  C   UNL A   1      35.229  33.950  30.252  1.00  0.00     0.064 A 
ATOM     66  C   UNL A   1      34.653  34.630  29.191  1.00  0.00     0.173 A 
ATOM     67  C   UNL A   1      34.677  34.114  31.542  1.00  0.00     0.173 A 
ATOM     68  F   UNL A   1      35.069  34.373  27.942  1.00  0.00    -0.203 F 
ATOM     69  C   UNL A   1      33.672  35.566  29.411  1.00  0.00     0.198 A 
ATOM     70  C   UNL A   1      33.609  34.976  31.741  1.00  0.00     0.198 A 
ATOM     71  F   UNL A   1      35.147  33.467  32.620  1.00  0.00    -0.203 F 
ATOM     72  F   UNL A   1      33.323  36.383  28.414  1.00  0.00    -0.200 F 
ATOM     73  C   UNL A   1      33.112  35.701  30.671  1.00  0.00     0.200 A 
ATOM     74  F   UNL A   1      33.108  35.155  32.972  1.00  0.00    -0.200 F 
ATOM     75  F   UNL A   1      32.072  36.524  30.843  1.00  0.00    -0.200 F 
ENDBRANCH  51  65
BRANCH  52  76
ATOM     76  C   UNL A   1      38.973  34.454  38.495  1.00  0.00     0.064 A 
ATOM     77  C   UNL A   1      38.222  33.399  39.096  1.00  0.00     0.173 A 
ATOM     78  C   UNL A   1      39.181  35.542  39.378  1.00  0.00     0.173 A 
ATOM     79  F   UNL A   1      38.004  32.253  38.432  1.00  0.00    -0.203 F 
ATOM     80  C   UNL A   1      37.708  33.468  40.431  1.00  0.00     0.198 A 
ATOM     81  C   UNL A   1      38.752  35.576  40.723  1.00  0.00     0.198 A 
ATOM     82  F   UNL A   1      39.883  36.595  38.944  1.00  0.00    -0.203 F 
ATOM     83  F   UNL A   1      36.878  32.521  40.905  1.00  0.00    -0.200 F 
ATOM     84  C   UNL A   1      38.040  34.525  41.261  1.00  0.00     0.200 A 
ATOM     85  F   UNL A   1      39.044  36.639  41.487  1.00  0.00    -0.200 F 
ATOM     86  F   UNL A   1      37.706  34.519  42.562  1.00  0.00    -0.200 F 
ENDBRANCH  52  76
BRANCH  64  87
ATOM     87  C   UNL A   1      41.696  34.309  32.620  1.00  0.00     0.064 A 
ATOM     88  C   UNL A   1      42.555  35.391  32.990  1.00  0.00     0.173 A 
ATOM     89  C   UNL A   1      42.352  33.195  32.130  1.00  0.00     0.173 A 
ATOM     90  F   UNL A   1      42.161  36.441  33.715  1.00  0.00    -0.203 F 
ATOM     91  C   UNL A   1      43.878  35.468  32.578  1.00  0.00     0.198 A 
ATOM     92  C   UNL A   1      43.723  33.197  31.901  1.00  0.00     0.198 A 
ATOM     93  F   UNL A   1      41.664  32.063  31.935  1.00  0.00    -0.203 F 
ATOM     94  F   UNL A   1      44.530  36.643  32.601  1.00  0.00    -0.200 F 
ATOM     95  C   UNL A   1      44.483  34.338  32.101  1.00  0.00     0.200 A 
ATOM     96  F   UNL A   1      44.301  32.089  31.432  1.00  0.00    -0.200 F 
ATOM     97  F   UNL A   1      45.803  34.333  31.890  1.00  0.00    -0.200 F 
ENDBRANCH  64  87
ENDBRANCH  38  39
ENDBRANCH  30  33
ENDBRANCH  28  29
ENDBRANCH  27  28
ENDBRANCH  26  27
ENDBRANCH   1  26
TORSDOF 18
ENDMDL
MODEL 3
REMARK VINA RESULT:     -12.4      6.934     13.993
REMARK SMILES N#CCCn1cc(C(=O)NCCCCCCNC(=O)c2ccc(-c3c4nc(c(-c5c(F)c(F)c(F)c(F)c5F)c5ccc([nH]5)c(-c5c(F)c(F)c(F)c(F)c5F)c5nc(c(-c6c(F)c(F)c(F)c(F)c6F)c6ccc3[nH]6)C=C5)C=C4)cc2)c(-c2cccc([N+](=O)[O-])c2)n1
REMARK SMILES IDX 13 1 12 2 11 3 10 4 8 5 9 6 7 8 5 9 6 10 93 11 83 12 4 13
REMARK SMILES IDX 3 14 2 15 1 16 84 17 85 18 92 19 86 20 88 21 87 22 89 23
REMARK SMILES IDX 90 24 91 25 14 26 15 27 16 28 17 29 18 30 19 32 20 33 21 34
REMARK SMILES IDX 82 35 22 36 81 37 23 38 24 39 25 40 75 41 26 42 80 43 74 44
REMARK SMILES IDX 76 45 27 46 79 47 73 48 72 49 28 51 60 52 40 53 59 54 41 55
REMARK SMILES IDX 44 56 58 57 77 58 42 59 43 60 57 62 78 63 45 64 29 65 30 66
REMARK SMILES IDX 38 67 31 68 32 69 36 70 39 71 33 72 34 73 37 74 35 75 61 76
REMARK SMILES IDX 62 77 70 78 63 79 64 80 68 81 71 82 65 83 66 84 69 85 67 86
REMARK SMILES IDX 46 87 47 88 55 89 48 90 49 91 53 92 56 93 50 94 51 95 54 96
REMARK SMILES IDX 52 97
REMARK H PARENT 10 7 17 31 76 50 44 61
REMARK Flexibility Score: inf
ROOT
ATOM      1  C   UNL A   1      44.317  25.637  25.071  1.00  0.00     0.002 C 
ENDROOT
BRANCH   1   2
ATOM      2  C   UNL A   1      44.709  24.178  25.154  1.00  0.00     0.021 C 
BRANCH   2   3
ATOM      3  C   UNL A   1      43.494  23.432  25.633  1.00  0.00     0.116 C 
BRANCH   3   4
ATOM      4  N   UNL A   1      43.468  23.272  27.051  1.00  0.00    -0.352 N 
ATOM      5  C   UNL A   1      42.451  22.792  27.828  1.00  0.00     0.255 C 
ATOM      6  O   UNL A   1      42.669  22.755  29.039  1.00  0.00    -0.269 OA
ATOM      7  H   UNL A   1      44.285  23.541  27.530  1.00  0.00     0.163 HD
BRANCH   5   8
ATOM      8  C   UNL A   1      41.189  22.338  27.221  1.00  0.00     0.085 A 
ATOM      9  N   UNL A   1      39.174  22.155  26.308  1.00  0.00    -0.270 N 
ATOM     10  C   UNL A   1      39.980  22.975  27.013  1.00  0.00     0.123 A 
ATOM     11  N   UNL A   1      39.717  20.967  26.068  1.00  0.00    -0.172 NA
ATOM     12  C   UNL A   1      40.937  21.052  26.635  1.00  0.00     0.105 A 
BRANCH   9  13
ATOM     13  C   UNL A   1      37.848  22.532  25.865  1.00  0.00     0.159 C 
BRANCH  13  14
ATOM     14  C   UNL A   1      37.370  21.637  24.762  1.00  0.00     0.144 C 
BRANCH  14  15
ATOM     15  C   UNL A   1      36.765  22.453  23.631  1.00  0.00     0.064 C 
ATOM     16  N   UNL A   1      36.263  23.129  22.692  1.00  0.00    -0.198 NA
ENDBRANCH  14  15
ENDBRANCH  13  14
ENDBRANCH   9  13
BRANCH  12  17
ATOM     17  C   UNL A   1      41.880  19.957  26.509  1.00  0.00     0.010 A 
ATOM     18  C   UNL A   1      41.971  18.960  27.488  1.00  0.00     0.011 A 
ATOM     19  C   UNL A   1      42.792  19.993  25.455  1.00  0.00     0.096 A 
ATOM     20  C   UNL A   1      43.039  18.065  27.469  1.00  0.00     0.008 A 
ATOM     21  C   UNL A   1      43.806  19.038  25.398  1.00  0.00     0.270 A 
ATOM     22  C   UNL A   1      43.926  18.060  26.393  1.00  0.00     0.085 A 
BRANCH  21  23
ATOM     23  N   UNL A   1      44.791  19.113  24.318  1.00  0.00     0.062 N 
ATOM     24  O   UNL A   1      44.564  19.896  23.385  1.00  0.00    -0.258 OA
ATOM     25  O   UNL A   1      45.789  18.383  24.394  1.00  0.00    -0.258 OA
ENDBRANCH  21  23
ENDBRANCH  12  17
ENDBRANCH   5   8
ENDBRANCH   3   4
ENDBRANCH   2   3
ENDBRANCH   1   2
BRANCH   1  26
ATOM     26  C   UNL A   1      44.829  26.396  26.306  1.00  0.00     0.002 C 
BRANCH  26  27
ATOM     27  C   UNL A   1      43.856  27.466  26.721  1.00  0.00     0.021 C 
BRANCH  27  28
ATOM     28  C   UNL A   1      42.506  27.000  26.342  1.00  0.00     0.116 C 
BRANCH  28  29
ATOM     29  N   UNL A   1      41.592  28.093  26.081  1.00  0.00    -0.352 N 
ATOM     30  C   UNL A   1      40.533  28.421  26.891  1.00  0.00     0.251 C 
ATOM     31  H   UNL A   1      41.739  28.635  25.273  1.00  0.00     0.163 HD
ATOM     32  O   UNL A   1      39.730  29.280  26.546  1.00  0.00    -0.269 OA
BRANCH  30  33
ATOM     33  C   UNL A   1      40.576  27.781  28.275  1.00  0.00     0.039 A 
ATOM     34  C   UNL A   1      39.574  27.023  28.707  1.00  0.00     0.014 A 
ATOM     35  C   UNL A   1      41.025  28.583  29.377  1.00  0.00     0.014 A 
ATOM     36  C   UNL A   1      38.939  27.630  30.125  1.00  0.00     0.010 A 
ATOM     37  C   UNL A   1      40.704  28.765  30.763  1.00  0.00     0.010 A 
ATOM     38  C   UNL A   1      39.385  29.091  30.979  1.00  0.00    -0.014 A 
BRANCH  38  39
ATOM     39  C   UNL A   1      39.270  30.503  32.375  1.00  0.00     0.031 A 
ATOM     40  C   UNL A   1      37.871  30.933  30.972  1.00  0.00     0.074 A 
ATOM     41  C   UNL A   1      40.054  30.723  34.039  1.00  0.00     0.049 A 
ATOM     42  N   UNL A   1      38.124  31.409  29.708  1.00  0.00    -0.248 NA
ATOM     43  C   UNL A   1      36.271  30.308  30.141  1.00  0.00     0.031 C 
ATOM     44  C   UNL A   1      40.864  30.982  35.802  1.00  0.00     0.029 A 
ATOM     45  N   UNL A   1      40.099  32.281  34.952  1.00  0.00    -0.354 N 
ATOM     46  C   UNL A   1      36.882  32.085  29.303  1.00  0.00     0.074 A 
ATOM     47  C   UNL A   1      35.766  31.264  29.312  1.00  0.00     0.031 C 
ATOM     48  C   UNL A   1      40.605  31.650  37.129  1.00  0.00     0.029 A 
ATOM     49  C   UNL A   1      39.898  32.663  36.595  1.00  0.00     0.049 A 
ATOM     50  H   UNL A   1      40.275  33.065  34.383  1.00  0.00     0.167 HD
ATOM     51  C   UNL A   1      36.654  33.299  29.823  1.00  0.00     0.037 A 
ATOM     52  C   UNL A   1      39.258  33.649  37.372  1.00  0.00     0.037 A 
ATOM     53  C   UNL A   1      37.906  33.742  30.277  1.00  0.00     0.049 A 
ATOM     54  C   UNL A   1      38.778  34.176  36.128  1.00  0.00     0.074 A 
ATOM     55  C   UNL A   1      39.094  33.763  29.579  1.00  0.00     0.029 A 
ATOM     56  N   UNL A   1      38.189  33.503  31.580  1.00  0.00    -0.354 N 
ATOM     57  N   UNL A   1      39.587  34.728  35.250  1.00  0.00    -0.248 NA
ATOM     58  C   UNL A   1      37.580  33.496  35.670  1.00  0.00     0.031 C 
ATOM     59  C   UNL A   1      40.114  33.689  30.515  1.00  0.00     0.029 A 
ATOM     60  C   UNL A   1      39.530  33.603  31.756  1.00  0.00     0.049 A 
ATOM     61  H   UNL A   1      37.532  33.291  32.282  1.00  0.00     0.167 HD
ATOM     62  C   UNL A   1      39.186  34.171  34.044  1.00  0.00     0.074 A 
ATOM     63  C   UNL A   1      37.859  33.528  34.371  1.00  0.00     0.031 C 
ATOM     64  C   UNL A   1      40.077  33.806  33.033  1.00  0.00     0.037 A 
BRANCH  51  65
ATOM     65  C   UNL A   1      35.369  33.912  30.197  1.00  0.00     0.064 A 
ATOM     66  C   UNL A   1      34.833  34.635  29.145  1.00  0.00     0.173 A 
ATOM     67  C   UNL A   1      34.753  34.003  31.466  1.00  0.00     0.173 A 
ATOM     68  F   UNL A   1      35.312  34.447  27.906  1.00  0.00    -0.203 F 
ATOM     69  C   UNL A   1      33.827  35.545  29.363  1.00  0.00     0.198 A 
ATOM     70  C   UNL A   1      33.662  34.838  31.655  1.00  0.00     0.198 A 
ATOM     71  F   UNL A   1      35.182  33.310  32.533  1.00  0.00    -0.203 F 
ATOM     72  F   UNL A   1      33.512  36.406  28.391  1.00  0.00    -0.200 F 
ATOM     73  C   UNL A   1      33.205  35.609  30.599  1.00  0.00     0.200 A 
ATOM     74  F   UNL A   1      33.100  34.948  32.867  1.00  0.00    -0.200 F 
ATOM     75  F   UNL A   1      32.143  36.406  30.760  1.00  0.00    -0.200 F 
ENDBRANCH  51  65
BRANCH  52  76
ATOM     76  C   UNL A   1      38.436  33.440  38.718  1.00  0.00     0.064 A 
ATOM     77  C   UNL A   1      37.588  32.358  39.105  1.00  0.00     0.173 A 
ATOM     78  C   UNL A   1      38.627  34.378  39.761  1.00  0.00     0.173 A 
ATOM     79  F   UNL A   1      37.367  31.332  38.269  1.00  0.00    -0.203 F 
ATOM     80  C   UNL A   1      36.974  32.270  40.396  1.00  0.00     0.198 A 
ATOM     81  C   UNL A   1      38.095  34.250  41.063  1.00  0.00     0.198 A 
ATOM     82  F   UNL A   1      39.412  35.438  39.535  1.00  0.00    -0.203 F 
ATOM     83  F   UNL A   1      36.063  31.319  40.668  1.00  0.00    -0.200 F 
ATOM     84  C   UNL A   1      37.291  33.179  41.391  1.00  0.00     0.200 A 
ATOM     85  F   UNL A   1      38.378  35.176  41.991  1.00  0.00    -0.200 F 
ATOM     86  F   UNL A   1      36.855  33.010  42.650  1.00  0.00    -0.200 F 
ENDBRANCH  52  76
BRANCH  64  87
ATOM     87  C   UNL A   1      41.623  33.942  33.102  1.00  0.00     0.064 A 
ATOM     88  C   UNL A   1      42.661  32.994  32.832  1.00  0.00     0.173 A 
ATOM     89  C   UNL A   1      42.073  35.197  33.471  1.00  0.00     0.173 A 
ATOM     90  F   UNL A   1      42.460  31.825  32.220  1.00  0.00    -0.203 F 
ATOM     91  C   UNL A   1      43.974  33.190  33.234  1.00  0.00     0.198 A 
ATOM     92  C   UNL A   1      43.422  35.456  33.683  1.00  0.00     0.198 A 
ATOM     93  F   UNL A   1      41.196  36.205  33.560  1.00  0.00    -0.203 F 
ATOM     94  F   UNL A   1      44.821  32.150  33.321  1.00  0.00    -0.200 F 
ATOM     95  C   UNL A   1      44.370  34.450  33.590  1.00  0.00     0.200 A 
ATOM     96  F   UNL A   1      43.794  36.689  34.034  1.00  0.00    -0.200 F 
ATOM     97  F   UNL A   1      45.668  34.706  33.785  1.00  0.00    -0.200 F 
ENDBRANCH  64  87
ENDBRANCH  38  39
ENDBRANCH  30  33
ENDBRANCH  28  29
ENDBRANCH  27  28
ENDBRANCH  26  27
ENDBRANCH   1  26
TORSDOF 18
ENDMDL
