MODEL 1
REMARK VINA RESULT:     -12.4      0.000      0.000
REMARK SMILES C[NH+]1CCN(C(=O)c2ccc3c(c2)N(CC(=O)NCCCCCCNC(=O)c2ccc(-c4c5nc(c(-c6c(F)c(F)c(F)c(F)c6F)c6ccc([nH]6)c(-c6c(F)c(F)c(F)c(F)c6F)c6nc(c(-c7c(F)c(F)c(F)c(F)c7F)c7ccc4[nH]7)C=C6)C=C5)cc2)C(=O)CO3)CC1
REMARK SMILES IDX 21 1 20 2 19 3 18 4 16 5 17 6 15 8 14 9 8 10 9 11 13 12
REMARK SMILES IDX 10 13 12 14 11 15 94 16 91 17 93 18 92 19 6 20 1 21 2 22
REMARK SMILES IDX 3 23 96 24 4 26 95 27 5 28 7 29 22 30 23 31 24 32 25 33
REMARK SMILES IDX 26 34 27 36 28 37 29 38 90 39 30 40 89 41 31 42 32 43 33 44
REMARK SMILES IDX 83 45 34 46 88 47 82 48 84 49 35 50 87 51 81 52 80 53 36 55
REMARK SMILES IDX 68 56 48 57 67 58 49 59 52 60 66 61 85 62 50 63 51 64 65 66
REMARK SMILES IDX 86 67 53 68 37 69 38 70 46 71 39 72 40 73 44 74 47 75 41 76
REMARK SMILES IDX 42 77 45 78 43 79 69 80 70 81 78 82 71 83 72 84 76 85 79 86
REMARK SMILES IDX 73 87 74 88 77 89 75 90 54 91 55 92 63 93 56 94 57 95 61 96
REMARK SMILES IDX 64 97 58 98 59 99 62 100 60 101
REMARK H PARENT 18 7 2 25 25 35 84 54 52 65
REMARK Flexibility Score: inf
ROOT
ATOM      1  C   UNL A   1      41.848  21.460  27.297  1.00  0.00     0.002 C 
ENDROOT
BRANCH   1   2
ATOM      2  C   UNL A   1      41.019  22.038  26.143  1.00  0.00     0.021 C 
BRANCH   2   3
ATOM      3  C   UNL A   1      39.557  21.596  26.139  1.00  0.00     0.116 C 
BRANCH   3   4
ATOM      4  N   UNL A   1      38.663  22.700  26.412  1.00  0.00    -0.355 N 
ATOM      5  C   UNL A   1      37.587  23.141  25.704  1.00  0.00     0.240 C 
ATOM      6  O   UNL A   1      36.922  24.058  26.192  1.00  0.00    -0.273 OA
ATOM      7  H   UNL A   1      38.862  23.209  27.232  1.00  0.00     0.163 HD
BRANCH   5   8
ATOM      8  C   UNL A   1      37.151  22.469  24.393  1.00  0.00     0.225 C 
BRANCH   8   9
ATOM      9  N   UNL A   1      35.809  21.883  24.399  1.00  0.00    -0.296 N 
ATOM     10  C   UNL A   1      33.618  24.647  23.126  1.00  0.00     0.042 A 
ATOM     11  C   UNL A   1      32.418  23.963  22.923  1.00  0.00     0.018 A 
ATOM     12  C   UNL A   1      34.735  23.990  23.661  1.00  0.00     0.044 A 
ATOM     13  C   UNL A   1      32.347  22.605  23.216  1.00  0.00     0.049 A 
ATOM     14  C   UNL A   1      34.678  22.618  23.943  1.00  0.00     0.087 A 
ATOM     15  C   UNL A   1      33.465  21.943  23.727  1.00  0.00     0.143 A 
ATOM     16  O   UNL A   1      33.308  20.598  23.928  1.00  0.00    -0.482 OA
ATOM     17  C   UNL A   1      35.646  20.584  24.861  1.00  0.00     0.265 C 
ATOM     18  C   UNL A   1      34.210  20.078  24.884  1.00  0.00     0.330 C 
ATOM     19  O   UNL A   1      36.569  19.887  25.283  1.00  0.00    -0.270 OA
BRANCH  10  20
ATOM     20  C   UNL A   1      33.661  26.093  22.823  1.00  0.00     0.254 C 
ATOM     21  C   UNL A   1      31.947  29.795  26.655  1.00  0.00     0.332 C 
ATOM     22  N   UNL A   1      32.899  29.011  25.869  1.00  0.00    -0.334 N 
ATOM     23  C   UNL A   1      32.726  29.286  24.424  1.00  0.00     0.283 C 
ATOM     24  C   UNL A   1      32.701  27.568  26.117  1.00  0.00     0.283 C 
ATOM     25  H   UNL A   1      33.841  29.280  26.152  1.00  0.00     0.347 HD
ATOM     26  C   UNL A   1      33.670  28.439  23.546  1.00  0.00     0.181 C 
ATOM     27  C   UNL A   1      33.683  26.711  25.297  1.00  0.00     0.181 C 
ATOM     28  N   UNL A   1      33.589  27.011  23.862  1.00  0.00    -0.327 N 
ATOM     29  O   UNL A   1      33.782  26.409  21.641  1.00  0.00    -0.269 OA
ENDBRANCH  10  20
ENDBRANCH   8   9
ENDBRANCH   5   8
ENDBRANCH   3   4
ENDBRANCH   2   3
ENDBRANCH   1   2
BRANCH   1  30
ATOM     30  C   UNL A   1      41.619  19.975  27.596  1.00  0.00     0.002 C 
BRANCH  30  31
ATOM     31  C   UNL A   1      42.541  19.007  26.849  1.00  0.00     0.021 C 
BRANCH  31  32
ATOM     32  C   UNL A   1      42.540  19.165  25.332  1.00  0.00     0.116 C 
BRANCH  32  33
ATOM     33  N   UNL A   1      43.801  18.756  24.734  1.00  0.00    -0.352 N 
ATOM     34  C   UNL A   1      44.897  19.515  24.411  1.00  0.00     0.251 C 
ATOM     35  H   UNL A   1      43.878  17.796  24.530  1.00  0.00     0.163 HD
ATOM     36  O   UNL A   1      45.808  19.027  23.745  1.00  0.00    -0.269 OA
BRANCH  34  37
ATOM     37  C   UNL A   1      44.982  20.925  24.846  1.00  0.00     0.039 A 
ATOM     38  C   UNL A   1      45.413  21.206  26.146  1.00  0.00     0.014 A 
ATOM     39  C   UNL A   1      44.613  21.967  23.990  1.00  0.00     0.014 A 
ATOM     40  C   UNL A   1      45.522  22.533  26.571  1.00  0.00     0.010 A 
ATOM     41  C   UNL A   1      44.785  23.290  24.392  1.00  0.00     0.010 A 
ATOM     42  C   UNL A   1      45.232  23.586  25.689  1.00  0.00    -0.014 A 
BRANCH  42  43
ATOM     43  C   UNL A   1      45.366  25.003  26.110  1.00  0.00     0.031 A 
ATOM     44  C   UNL A   1      46.705  25.685  26.035  1.00  0.00     0.074 A 
ATOM     45  C   UNL A   1      44.301  25.658  26.610  1.00  0.00     0.049 A 
ATOM     46  N   UNL A   1      47.047  26.885  26.432  1.00  0.00    -0.248 NA
ATOM     47  C   UNL A   1      47.812  24.904  25.462  1.00  0.00     0.031 C 
ATOM     48  C   UNL A   1      42.959  25.096  26.767  1.00  0.00     0.029 A 
ATOM     49  N   UNL A   1      44.184  26.939  27.091  1.00  0.00    -0.354 N 
ATOM     50  C   UNL A   1      48.407  26.995  26.171  1.00  0.00     0.074 A 
ATOM     51  C   UNL A   1      48.839  25.724  25.630  1.00  0.00     0.031 C 
ATOM     52  C   UNL A   1      42.149  26.032  27.290  1.00  0.00     0.029 A 
ATOM     53  C   UNL A   1      42.922  27.246  27.538  1.00  0.00     0.049 A 
ATOM     54  H   UNL A   1      44.932  27.576  27.114  1.00  0.00     0.167 HD
ATOM     55  C   UNL A   1      49.218  28.065  26.343  1.00  0.00     0.037 A 
ATOM     56  C   UNL A   1      42.445  28.376  28.093  1.00  0.00     0.037 A 
ATOM     57  C   UNL A   1      48.781  29.339  26.854  1.00  0.00     0.049 A 
ATOM     58  C   UNL A   1      43.369  29.551  28.277  1.00  0.00     0.074 A 
ATOM     59  C   UNL A   1      49.515  30.499  27.025  1.00  0.00     0.029 A 
ATOM     60  N   UNL A   1      47.487  29.618  27.272  1.00  0.00    -0.354 N 
ATOM     61  N   UNL A   1      44.640  29.660  27.978  1.00  0.00    -0.248 NA
ATOM     62  C   UNL A   1      42.788  30.763  28.872  1.00  0.00     0.031 C 
ATOM     63  C   UNL A   1      48.676  31.470  27.581  1.00  0.00     0.029 A 
ATOM     64  C   UNL A   1      47.407  30.930  27.711  1.00  0.00     0.049 A 
ATOM     65  H   UNL A   1      46.738  28.980  27.256  1.00  0.00     0.167 HD
ATOM     66  C   UNL A   1      45.001  30.958  28.312  1.00  0.00     0.074 A 
ATOM     67  C   UNL A   1      43.812  31.603  28.827  1.00  0.00     0.031 C 
ATOM     68  C   UNL A   1      46.209  31.562  28.201  1.00  0.00     0.037 A 
BRANCH  55  69
ATOM     69  C   UNL A   1      50.662  27.912  25.968  1.00  0.00     0.064 A 
ATOM     70  C   UNL A   1      51.643  27.626  26.931  1.00  0.00     0.173 A 
ATOM     71  C   UNL A   1      51.067  28.008  24.628  1.00  0.00     0.173 A 
ATOM     72  F   UNL A   1      51.311  27.535  28.227  1.00  0.00    -0.203 F 
ATOM     73  C   UNL A   1      52.979  27.468  26.569  1.00  0.00     0.198 A 
ATOM     74  C   UNL A   1      52.399  27.821  24.266  1.00  0.00     0.198 A 
ATOM     75  F   UNL A   1      50.169  28.274  23.668  1.00  0.00    -0.203 F 
ATOM     76  F   UNL A   1      53.904  27.241  27.512  1.00  0.00    -0.200 F 
ATOM     77  C   UNL A   1      53.354  27.558  25.237  1.00  0.00     0.200 A 
ATOM     78  F   UNL A   1      52.759  27.895  22.977  1.00  0.00    -0.200 F 
ATOM     79  F   UNL A   1      54.638  27.398  24.889  1.00  0.00    -0.200 F 
ENDBRANCH  55  69
BRANCH  56  80
ATOM     80  C   UNL A   1      41.016  28.468  28.493  1.00  0.00     0.064 A 
ATOM     81  C   UNL A   1      40.052  28.959  27.601  1.00  0.00     0.173 A 
ATOM     82  C   UNL A   1      40.589  28.089  29.773  1.00  0.00     0.173 A 
ATOM     83  F   UNL A   1      40.415  29.354  26.373  1.00  0.00    -0.203 F 
ATOM     84  C   UNL A   1      38.719  29.094  27.985  1.00  0.00     0.198 A 
ATOM     85  C   UNL A   1      39.251  28.197  30.146  1.00  0.00     0.198 A 
ATOM     86  F   UNL A   1      41.470  27.609  30.661  1.00  0.00    -0.203 F 
ATOM     87  F   UNL A   1      37.828  29.615  27.131  1.00  0.00    -0.200 F 
ATOM     88  C   UNL A   1      38.318  28.708  29.255  1.00  0.00     0.200 A 
ATOM     89  F   UNL A   1      38.865  27.811  31.370  1.00  0.00    -0.200 F 
ATOM     90  F   UNL A   1      37.037  28.839  29.624  1.00  0.00    -0.200 F 
ENDBRANCH  56  80
BRANCH  68  91
ATOM     91  C   UNL A   1      46.296  33.007  28.597  1.00  0.00     0.064 A 
ATOM     92  C   UNL A   1      46.636  33.396  29.901  1.00  0.00     0.173 A 
ATOM     93  C   UNL A   1      46.076  34.015  27.645  1.00  0.00     0.173 A 
ATOM     94  F   UNL A   1      46.840  32.469  30.849  1.00  0.00    -0.203 F 
ATOM     95  C   UNL A   1      46.726  34.742  30.243  1.00  0.00     0.198 A 
ATOM     96  C   UNL A   1      46.197  35.359  27.984  1.00  0.00     0.198 A 
ATOM     97  F   UNL A   1      45.757  33.694  26.383  1.00  0.00    -0.203 F 
ATOM     98  F   UNL A   1      47.007  35.092  31.507  1.00  0.00    -0.200 F 
ATOM     99  C   UNL A   1      46.515  35.721  29.285  1.00  0.00     0.200 A 
ATOM    100  F   UNL A   1      46.005  36.304  27.054  1.00  0.00    -0.200 F 
ATOM    101  F   UNL A   1      46.610  37.017  29.615  1.00  0.00    -0.200 F 
ENDBRANCH  68  91
ENDBRANCH  42  43
ENDBRANCH  34  37
ENDBRANCH  32  33
ENDBRANCH  31  32
ENDBRANCH  30  31
ENDBRANCH   1  30
TORSDOF 15
ENDMDL
MODEL 2
REMARK VINA RESULT:     -12.3      6.509     12.459
REMARK SMILES C[NH+]1CCN(C(=O)c2ccc3c(c2)N(CC(=O)NCCCCCCNC(=O)c2ccc(-c4c5nc(c(-c6c(F)c(F)c(F)c(F)c6F)c6ccc([nH]6)c(-c6c(F)c(F)c(F)c(F)c6F)c6nc(c(-c7c(F)c(F)c(F)c(F)c7F)c7ccc4[nH]7)C=C6)C=C5)cc2)C(=O)CO3)CC1
REMARK SMILES IDX 21 1 20 2 19 3 18 4 16 5 17 6 15 8 14 9 8 10 9 11 13 12
REMARK SMILES IDX 10 13 12 14 11 15 94 16 91 17 93 18 92 19 6 20 1 21 2 22
REMARK SMILES IDX 3 23 96 24 4 26 95 27 5 28 7 29 22 30 23 31 24 32 25 33
REMARK SMILES IDX 26 34 27 36 28 37 29 38 90 39 30 40 89 41 31 42 32 43 33 44
REMARK SMILES IDX 83 45 34 46 88 47 82 48 84 49 35 50 87 51 81 52 80 53 36 55
REMARK SMILES IDX 68 56 48 57 67 58 49 59 52 60 66 61 85 62 50 63 51 64 65 66
REMARK SMILES IDX 86 67 53 68 37 69 38 70 46 71 39 72 40 73 44 74 47 75 41 76
REMARK SMILES IDX 42 77 45 78 43 79 69 80 70 81 78 82 71 83 72 84 76 85 79 86
REMARK SMILES IDX 73 87 74 88 77 89 75 90 54 91 55 92 63 93 56 94 57 95 61 96
REMARK SMILES IDX 64 97 58 98 59 99 62 100 60 101
REMARK H PARENT 18 7 2 25 25 35 84 54 52 65
REMARK Flexibility Score: inf
ROOT
ATOM      1  C   UNL A   1      35.396  33.383  28.437  1.00  0.00     0.002 C 
ENDROOT
BRANCH   1   2
ATOM      2  C   UNL A   1      34.388  32.380  29.015  1.00  0.00     0.021 C 
BRANCH   2   3
ATOM      3  C   UNL A   1      33.572  31.634  27.961  1.00  0.00     0.116 C 
BRANCH   3   4
ATOM      4  N   UNL A   1      34.203  30.390  27.578  1.00  0.00    -0.355 N 
ATOM      5  C   UNL A   1      33.637  29.197  27.246  1.00  0.00     0.240 C 
ATOM      6  O   UNL A   1      34.390  28.296  26.866  1.00  0.00    -0.273 OA
ATOM      7  H   UNL A   1      35.187  30.407  27.555  1.00  0.00     0.163 HD
BRANCH   5   8
ATOM      8  C   UNL A   1      32.114  28.995  27.248  1.00  0.00     0.225 C 
BRANCH   8   9
ATOM      9  N   UNL A   1      31.522  28.639  25.957  1.00  0.00    -0.296 N 
ATOM     10  C   UNL A   1      31.391  24.892  26.035  1.00  0.00     0.042 A 
ATOM     11  C   UNL A   1      30.607  24.630  24.910  1.00  0.00     0.018 A 
ATOM     12  C   UNL A   1      31.747  26.207  26.369  1.00  0.00     0.044 A 
ATOM     13  C   UNL A   1      30.141  25.691  24.140  1.00  0.00     0.049 A 
ATOM     14  C   UNL A   1      31.268  27.282  25.609  1.00  0.00     0.087 A 
ATOM     15  C   UNL A   1      30.474  27.002  24.483  1.00  0.00     0.143 A 
ATOM     16  O   UNL A   1      29.919  27.973  23.695  1.00  0.00    -0.482 OA
ATOM     17  C   UNL A   1      31.205  29.652  25.062  1.00  0.00     0.265 C 
ATOM     18  C   UNL A   1      30.647  29.185  23.724  1.00  0.00     0.330 C 
ATOM     19  O   UNL A   1      31.404  30.847  25.281  1.00  0.00    -0.270 OA
BRANCH  10  20
ATOM     20  C   UNL A   1      31.889  23.747  26.826  1.00  0.00     0.254 C 
ATOM     21  C   UNL A   1      36.654  21.204  25.355  1.00  0.00     0.332 C 
ATOM     22  N   UNL A   1      35.782  22.098  26.117  1.00  0.00    -0.334 N 
ATOM     23  C   UNL A   1      34.682  21.333  26.747  1.00  0.00     0.283 C 
ATOM     24  C   UNL A   1      35.209  23.133  25.230  1.00  0.00     0.283 C 
ATOM     25  H   UNL A   1      36.341  22.543  26.844  1.00  0.00     0.347 HD
ATOM     26  C   UNL A   1      33.699  22.238  27.516  1.00  0.00     0.181 C 
ATOM     27  C   UNL A   1      34.278  24.087  26.000  1.00  0.00     0.181 C 
ATOM     28  N   UNL A   1      33.214  23.353  26.698  1.00  0.00    -0.327 N 
ATOM     29  O   UNL A   1      31.086  23.208  27.586  1.00  0.00    -0.269 OA
ENDBRANCH  10  20
ENDBRANCH   8   9
ENDBRANCH   5   8
ENDBRANCH   3   4
ENDBRANCH   2   3
ENDBRANCH   1   2
BRANCH   1  30
ATOM     30  C   UNL A   1      34.906  34.833  28.345  1.00  0.00     0.002 C 
BRANCH  30  31
ATOM     31  C   UNL A   1      33.543  35.105  28.986  1.00  0.00     0.021 C 
BRANCH  31  32
ATOM     32  C   UNL A   1      33.410  36.470  29.653  1.00  0.00     0.116 C 
BRANCH  32  33
ATOM     33  N   UNL A   1      32.448  36.461  30.743  1.00  0.00    -0.352 N 
ATOM     34  C   UNL A   1      32.483  35.773  31.928  1.00  0.00     0.251 C 
ATOM     35  H   UNL A   1      31.656  37.030  30.610  1.00  0.00     0.163 HD
ATOM     36  O   UNL A   1      31.492  35.748  32.656  1.00  0.00    -0.269 OA
BRANCH  34  37
ATOM     37  C   UNL A   1      33.704  35.043  32.331  1.00  0.00     0.039 A 
ATOM     38  C   UNL A   1      33.575  33.762  32.876  1.00  0.00     0.014 A 
ATOM     39  C   UNL A   1      34.968  35.624  32.201  1.00  0.00     0.014 A 
ATOM     40  C   UNL A   1      34.717  33.045  33.243  1.00  0.00     0.010 A 
ATOM     41  C   UNL A   1      36.108  34.884  32.505  1.00  0.00     0.010 A 
ATOM     42  C   UNL A   1      35.994  33.591  33.037  1.00  0.00    -0.014 A 
BRANCH  42  43
ATOM     43  C   UNL A   1      37.222  32.837  33.396  1.00  0.00     0.031 A 
ATOM     44  C   UNL A   1      37.934  33.133  34.687  1.00  0.00     0.074 A 
ATOM     45  C   UNL A   1      37.726  31.929  32.538  1.00  0.00     0.049 A 
ATOM     46  N   UNL A   1      39.062  32.648  35.142  1.00  0.00    -0.248 NA
ATOM     47  C   UNL A   1      37.308  34.126  35.573  1.00  0.00     0.031 C 
ATOM     48  C   UNL A   1      37.149  31.578  31.240  1.00  0.00     0.029 A 
ATOM     49  N   UNL A   1      38.849  31.144  32.626  1.00  0.00    -0.354 N 
ATOM     50  C   UNL A   1      39.286  33.287  36.355  1.00  0.00     0.074 A 
ATOM     51  C   UNL A   1      38.206  34.232  36.542  1.00  0.00     0.031 C 
ATOM     52  C   UNL A   1      37.910  30.636  30.661  1.00  0.00     0.029 A 
ATOM     53  C   UNL A   1      39.047  30.342  31.528  1.00  0.00     0.049 A 
ATOM     54  H   UNL A   1      39.455  31.154  33.401  1.00  0.00     0.167 HD
ATOM     55  C   UNL A   1      40.288  33.087  37.243  1.00  0.00     0.037 A 
ATOM     56  C   UNL A   1      40.039  29.474  31.251  1.00  0.00     0.037 A 
ATOM     57  C   UNL A   1      41.345  32.126  37.070  1.00  0.00     0.049 A 
ATOM     58  C   UNL A   1      41.143  29.274  32.255  1.00  0.00     0.074 A 
ATOM     59  C   UNL A   1      42.383  31.818  37.933  1.00  0.00     0.029 A 
ATOM     60  N   UNL A   1      41.497  31.314  35.956  1.00  0.00    -0.354 N 
ATOM     61  N   UNL A   1      41.315  29.846  33.422  1.00  0.00    -0.248 NA
ATOM     62  C   UNL A   1      42.188  28.302  31.905  1.00  0.00     0.031 C 
ATOM     63  C   UNL A   1      43.182  30.845  37.325  1.00  0.00     0.029 A 
ATOM     64  C   UNL A   1      42.618  30.513  36.105  1.00  0.00     0.049 A 
ATOM     65  H   UNL A   1      40.896  31.307  35.176  1.00  0.00     0.167 HD
ATOM     66  C   UNL A   1      42.462  29.279  33.959  1.00  0.00     0.074 A 
ATOM     67  C   UNL A   1      42.940  28.310  32.996  1.00  0.00     0.031 C 
ATOM     68  C   UNL A   1      43.067  29.538  35.145  1.00  0.00     0.037 A 
BRANCH  55  69
ATOM     69  C   UNL A   1      40.285  33.919  38.493  1.00  0.00     0.064 A 
ATOM     70  C   UNL A   1      40.972  35.141  38.561  1.00  0.00     0.173 A 
ATOM     71  C   UNL A   1      39.554  33.514  39.619  1.00  0.00     0.173 A 
ATOM     72  F   UNL A   1      41.695  35.568  37.515  1.00  0.00    -0.203 F 
ATOM     73  C   UNL A   1      40.948  35.913  39.720  1.00  0.00     0.198 A 
ATOM     74  C   UNL A   1      39.508  34.302  40.766  1.00  0.00     0.198 A 
ATOM     75  F   UNL A   1      38.875  32.357  39.605  1.00  0.00    -0.203 F 
ATOM     76  F   UNL A   1      41.649  37.054  39.777  1.00  0.00    -0.200 F 
ATOM     77  C   UNL A   1      40.211  35.497  40.819  1.00  0.00     0.200 A 
ATOM     78  F   UNL A   1      38.785  33.906  41.823  1.00  0.00    -0.200 F 
ATOM     79  F   UNL A   1      40.182  36.245  41.930  1.00  0.00    -0.200 F 
ENDBRANCH  55  69
BRANCH  56  80
ATOM     80  C   UNL A   1      40.025  28.706  29.979  1.00  0.00     0.064 A 
ATOM     81  C   UNL A   1      39.428  27.438  29.913  1.00  0.00     0.173 A 
ATOM     82  C   UNL A   1      40.623  29.207  28.815  1.00  0.00     0.173 A 
ATOM     83  F   UNL A   1      38.862  26.907  31.006  1.00  0.00    -0.203 F 
ATOM     84  C   UNL A   1      39.454  26.691  28.737  1.00  0.00     0.198 A 
ATOM     85  C   UNL A   1      40.623  28.471  27.631  1.00  0.00     0.198 A 
ATOM     86  F   UNL A   1      41.204  30.415  28.824  1.00  0.00    -0.203 F 
ATOM     87  F   UNL A   1      38.922  25.461  28.716  1.00  0.00    -0.200 F 
ATOM     88  C   UNL A   1      40.047  27.209  27.596  1.00  0.00     0.200 A 
ATOM     89  F   UNL A   1      41.186  28.981  26.527  1.00  0.00    -0.200 F 
ATOM     90  F   UNL A   1      40.073  26.490  26.466  1.00  0.00    -0.200 F 
ENDBRANCH  56  80
BRANCH  68  91
ATOM     91  C   UNL A   1      44.280  28.726  35.491  1.00  0.00     0.064 A 
ATOM     92  C   UNL A   1      45.572  29.144  35.139  1.00  0.00     0.173 A 
ATOM     93  C   UNL A   1      44.150  27.535  36.222  1.00  0.00     0.173 A 
ATOM     94  F   UNL A   1      45.747  30.268  34.427  1.00  0.00    -0.203 F 
ATOM     95  C   UNL A   1      46.686  28.385  35.483  1.00  0.00     0.198 A 
ATOM     96  C   UNL A   1      45.269  26.794  36.591  1.00  0.00     0.198 A 
ATOM     97  F   UNL A   1      42.937  27.097  36.589  1.00  0.00    -0.203 F 
ATOM     98  F   UNL A   1      47.908  28.779  35.097  1.00  0.00    -0.200 F 
ATOM     99  C   UNL A   1      46.535  27.216  36.215  1.00  0.00     0.200 A 
ATOM    100  F   UNL A   1      45.122  25.673  37.308  1.00  0.00    -0.200 F 
ATOM    101  F   UNL A   1      47.611  26.490  36.552  1.00  0.00    -0.200 F 
ENDBRANCH  68  91
ENDBRANCH  42  43
ENDBRANCH  34  37
ENDBRANCH  32  33
ENDBRANCH  31  32
ENDBRANCH  30  31
ENDBRANCH   1  30
TORSDOF 15
ENDMDL
MODEL 3
REMARK VINA RESULT:     -12.0      6.537     12.404
REMARK SMILES C[NH+]1CCN(C(=O)c2ccc3c(c2)N(CC(=O)NCCCCCCNC(=O)c2ccc(-c4c5nc(c(-c6c(F)c(F)c(F)c(F)c6F)c6ccc([nH]6)c(-c6c(F)c(F)c(F)c(F)c6F)c6nc(c(-c7c(F)c(F)c(F)c(F)c7F)c7ccc4[nH]7)C=C6)C=C5)cc2)C(=O)CO3)CC1
REMARK SMILES IDX 21 1 20 2 19 3 18 4 16 5 17 6 15 8 14 9 8 10 9 11 13 12
REMARK SMILES IDX 10 13 12 14 11 15 94 16 91 17 93 18 92 19 6 20 1 21 2 22
REMARK SMILES IDX 3 23 96 24 4 26 95 27 5 28 7 29 22 30 23 31 24 32 25 33
REMARK SMILES IDX 26 34 27 36 28 37 29 38 90 39 30 40 89 41 31 42 32 43 33 44
REMARK SMILES IDX 83 45 34 46 88 47 82 48 84 49 35 50 87 51 81 52 80 53 36 55
REMARK SMILES IDX 68 56 48 57 67 58 49 59 52 60 66 61 85 62 50 63 51 64 65 66
REMARK SMILES IDX 86 67 53 68 37 69 38 70 46 71 39 72 40 73 44 74 47 75 41 76
REMARK SMILES IDX 42 77 45 78 43 79 69 80 70 81 78 82 71 83 72 84 76 85 79 86
REMARK SMILES IDX 73 87 74 88 77 89 75 90 54 91 55 92 63 93 56 94 57 95 61 96
REMARK SMILES IDX 64 97 58 98 59 99 62 100 60 101
REMARK H PARENT 18 7 2 25 25 35 84 54 52 65
REMARK Flexibility Score: inf
ROOT
ATOM      1  C   UNL A   1      35.343  33.276  28.243  1.00  0.00     0.002 C 
ENDROOT
BRANCH   1   2
ATOM      2  C   UNL A   1      34.556  32.080  28.796  1.00  0.00     0.021 C 
BRANCH   2   3
ATOM      3  C   UNL A   1      33.709  31.351  27.754  1.00  0.00     0.116 C 
BRANCH   3   4
ATOM      4  N   UNL A   1      34.222  30.027  27.478  1.00  0.00    -0.355 N 
ATOM      5  C   UNL A   1      33.548  28.876  27.207  1.00  0.00     0.240 C 
ATOM      6  O   UNL A   1      34.217  27.880  26.915  1.00  0.00    -0.273 OA
ATOM      7  H   UNL A   1      35.203  29.946  27.488  1.00  0.00     0.163 HD
BRANCH   5   8
ATOM      8  C   UNL A   1      32.013  28.825  27.170  1.00  0.00     0.225 C 
BRANCH   8   9
ATOM      9  N   UNL A   1      31.423  28.501  25.871  1.00  0.00    -0.296 N 
ATOM     10  C   UNL A   1      31.132  24.763  25.924  1.00  0.00     0.042 A 
ATOM     11  C   UNL A   1      30.352  24.540  24.789  1.00  0.00     0.018 A 
ATOM     12  C   UNL A   1      31.540  26.059  26.270  1.00  0.00     0.044 A 
ATOM     13  C   UNL A   1      29.940  25.624  24.019  1.00  0.00     0.049 A 
ATOM     14  C   UNL A   1      31.115  27.158  25.511  1.00  0.00     0.087 A 
ATOM     15  C   UNL A   1      30.325  26.918  24.374  1.00  0.00     0.143 A 
ATOM     16  O   UNL A   1      29.821  27.916  23.585  1.00  0.00    -0.482 OA
ATOM     17  C   UNL A   1      31.160  29.531  24.977  1.00  0.00     0.265 C 
ATOM     18  C   UNL A   1      30.599  29.096  23.630  1.00  0.00     0.330 C 
ATOM     19  O   UNL A   1      31.407  30.715  25.206  1.00  0.00    -0.270 OA
BRANCH  10  20
ATOM     20  C   UNL A   1      31.571  23.593  26.714  1.00  0.00     0.254 C 
ATOM     21  C   UNL A   1      36.193  20.805  25.234  1.00  0.00     0.332 C 
ATOM     22  N   UNL A   1      35.370  21.742  25.998  1.00  0.00    -0.334 N 
ATOM     23  C   UNL A   1      34.233  21.036  26.630  1.00  0.00     0.283 C 
ATOM     24  C   UNL A   1      34.851  22.806  25.112  1.00  0.00     0.283 C 
ATOM     25  H   UNL A   1      35.954  22.158  26.723  1.00  0.00     0.347 HD
ATOM     26  C   UNL A   1      33.301  21.992  27.401  1.00  0.00     0.181 C 
ATOM     27  C   UNL A   1      33.972  23.808  25.883  1.00  0.00     0.181 C 
ATOM     28  N   UNL A   1      32.873  23.130  26.583  1.00  0.00    -0.327 N 
ATOM     29  O   UNL A   1      30.743  23.097  27.476  1.00  0.00    -0.269 OA
ENDBRANCH  10  20
ENDBRANCH   8   9
ENDBRANCH   5   8
ENDBRANCH   3   4
ENDBRANCH   2   3
ENDBRANCH   1   2
BRANCH   1  30
ATOM     30  C   UNL A   1      35.121  34.606  28.973  1.00  0.00     0.002 C 
BRANCH  30  31
ATOM     31  C   UNL A   1      33.664  35.066  29.065  1.00  0.00     0.021 C 
BRANCH  31  32
ATOM     32  C   UNL A   1      33.467  36.445  29.684  1.00  0.00     0.116 C 
BRANCH  32  33
ATOM     33  N   UNL A   1      32.497  36.431  30.767  1.00  0.00    -0.352 N 
ATOM     34  C   UNL A   1      32.527  35.744  31.953  1.00  0.00     0.251 C 
ATOM     35  H   UNL A   1      31.703  36.997  30.628  1.00  0.00     0.163 HD
ATOM     36  O   UNL A   1      31.531  35.714  32.674  1.00  0.00    -0.269 OA
BRANCH  34  37
ATOM     37  C   UNL A   1      33.749  35.022  32.365  1.00  0.00     0.039 A 
ATOM     38  C   UNL A   1      33.662  33.656  32.653  1.00  0.00     0.014 A 
ATOM     39  C   UNL A   1      34.971  35.687  32.496  1.00  0.00     0.014 A 
ATOM     40  C   UNL A   1      34.808  32.948  33.022  1.00  0.00     0.010 A 
ATOM     41  C   UNL A   1      36.125  34.968  32.800  1.00  0.00     0.010 A 
ATOM     42  C   UNL A   1      36.054  33.594  33.075  1.00  0.00    -0.014 A 
BRANCH  42  43
ATOM     43  C   UNL A   1      37.289  32.856  33.439  1.00  0.00     0.031 A 
ATOM     44  C   UNL A   1      37.983  33.151  34.741  1.00  0.00     0.074 A 
ATOM     45  C   UNL A   1      37.817  31.964  32.580  1.00  0.00     0.049 A 
ATOM     46  N   UNL A   1      39.114  32.680  35.204  1.00  0.00    -0.248 NA
ATOM     47  C   UNL A   1      37.332  34.127  35.629  1.00  0.00     0.031 C 
ATOM     48  C   UNL A   1      37.259  31.616  31.272  1.00  0.00     0.029 A 
ATOM     49  N   UNL A   1      38.952  31.196  32.673  1.00  0.00    -0.354 N 
ATOM     50  C   UNL A   1      39.314  33.312  36.425  1.00  0.00     0.074 A 
ATOM     51  C   UNL A   1      38.218  34.238  36.609  1.00  0.00     0.031 C 
ATOM     52  C   UNL A   1      38.042  30.691  30.693  1.00  0.00     0.029 A 
ATOM     53  C   UNL A   1      39.174  30.407  31.570  1.00  0.00     0.049 A 
ATOM     54  H   UNL A   1      39.549  31.209  33.454  1.00  0.00     0.167 HD
ATOM     55  C   UNL A   1      40.310  33.120  37.322  1.00  0.00     0.037 A 
ATOM     56  C   UNL A   1      40.183  29.558  31.296  1.00  0.00     0.037 A 
ATOM     57  C   UNL A   1      41.384  32.178  37.152  1.00  0.00     0.049 A 
ATOM     58  C   UNL A   1      41.279  29.367  32.310  1.00  0.00     0.074 A 
ATOM     59  C   UNL A   1      42.417  31.878  38.023  1.00  0.00     0.029 A 
ATOM     60  N   UNL A   1      41.561  31.378  36.032  1.00  0.00    -0.354 N 
ATOM     61  N   UNL A   1      41.429  29.930  33.484  1.00  0.00    -0.248 NA
ATOM     62  C   UNL A   1      42.343  28.414  31.963  1.00  0.00     0.031 C 
ATOM     63  C   UNL A   1      43.239  30.923  37.416  1.00  0.00     0.029 A 
ATOM     64  C   UNL A   1      42.692  30.593  36.186  1.00  0.00     0.049 A 
ATOM     65  H   UNL A   1      40.969  31.368  35.246  1.00  0.00     0.167 HD
ATOM     66  C   UNL A   1      42.580  29.377  34.029  1.00  0.00     0.074 A 
ATOM     67  C   UNL A   1      43.083  28.424  33.062  1.00  0.00     0.031 C 
ATOM     68  C   UNL A   1      43.167  29.634  35.223  1.00  0.00     0.037 A 
BRANCH  55  69
ATOM     69  C   UNL A   1      40.280  33.940  38.579  1.00  0.00     0.064 A 
ATOM     70  C   UNL A   1      39.596  33.503  39.724  1.00  0.00     0.173 A 
ATOM     71  C   UNL A   1      40.977  35.155  38.656  1.00  0.00     0.173 A 
ATOM     72  F   UNL A   1      38.905  32.354  39.699  1.00  0.00    -0.203 F 
ATOM     73  C   UNL A   1      39.590  34.264  40.890  1.00  0.00     0.198 A 
ATOM     74  C   UNL A   1      40.993  35.900  39.833  1.00  0.00     0.198 A 
ATOM     75  F   UNL A   1      41.652  35.617  37.592  1.00  0.00    -0.203 F 
ATOM     76  F   UNL A   1      38.892  33.847  41.956  1.00  0.00    -0.200 F 
ATOM     77  C   UNL A   1      40.294  35.457  40.946  1.00  0.00     0.200 A 
ATOM     78  F   UNL A   1      41.684  37.047  39.890  1.00  0.00    -0.200 F 
ATOM     79  F   UNL A   1      40.295  36.184  42.072  1.00  0.00    -0.200 F 
ENDBRANCH  55  69
BRANCH  56  80
ATOM     80  C   UNL A   1      40.195  28.801  30.017  1.00  0.00     0.064 A 
ATOM     81  C   UNL A   1      40.798  29.339  28.870  1.00  0.00     0.173 A 
ATOM     82  C   UNL A   1      39.590  27.541  29.906  1.00  0.00     0.173 A 
ATOM     83  F   UNL A   1      41.371  30.549  28.921  1.00  0.00    -0.203 F 
ATOM     84  C   UNL A   1      40.771  28.656  27.655  1.00  0.00     0.198 A 
ATOM     85  C   UNL A   1      39.588  26.847  28.698  1.00  0.00     0.198 A 
ATOM     86  F   UNL A   1      39.003  26.981  30.974  1.00  0.00    -0.203 F 
ATOM     87  F   UNL A   1      41.308  29.217  26.564  1.00  0.00    -0.200 F 
ATOM     88  C   UNL A   1      40.170  27.410  27.571  1.00  0.00     0.200 A 
ATOM     89  F   UNL A   1      39.018  25.637  28.623  1.00  0.00    -0.200 F 
ATOM     90  F   UNL A   1      40.143  26.754  26.403  1.00  0.00    -0.200 F 
ENDBRANCH  56  80
BRANCH  68  91
ATOM     91  C   UNL A   1      44.390  28.839  35.575  1.00  0.00     0.064 A 
ATOM     92  C   UNL A   1      45.679  29.282  35.243  1.00  0.00     0.173 A 
ATOM     93  C   UNL A   1      44.270  27.638  36.291  1.00  0.00     0.173 A 
ATOM     94  F   UNL A   1      45.843  30.416  34.546  1.00  0.00    -0.203 F 
ATOM     95  C   UNL A   1      46.801  28.537  35.593  1.00  0.00     0.198 A 
ATOM     96  C   UNL A   1      45.397  26.911  36.666  1.00  0.00     0.198 A 
ATOM     97  F   UNL A   1      43.060  27.176  36.639  1.00  0.00    -0.203 F 
ATOM     98  F   UNL A   1      48.021  28.955  35.225  1.00  0.00    -0.200 F 
ATOM     99  C   UNL A   1      46.660  27.358  36.310  1.00  0.00     0.200 A 
ATOM    100  F   UNL A   1      45.260  25.780  37.369  1.00  0.00    -0.200 F 
ATOM    101  F   UNL A   1      47.744  26.646  36.653  1.00  0.00    -0.200 F 
ENDBRANCH  68  91
ENDBRANCH  42  43
ENDBRANCH  34  37
ENDBRANCH  32  33
ENDBRANCH  31  32
ENDBRANCH  30  31
ENDBRANCH   1  30
TORSDOF 15
ENDMDL
