MODEL 1
REMARK VINA RESULT:     -12.0      0.000      0.000
REMARK SMILES O=C(NCCCCCCNC(=O)[C@H]1CC[C@H](CNC(=O)c2ccccc2O)O1)c1ccc(-c2c3nc(c(-c4c(F)c(F)c(F)c(F)c4F)c4ccc([nH]4)c(-c4c(F)c(F)c(F)c(F)c4F)c4nc(c(-c5c(F)c(F)c(F)c(F)c5F)c5ccc2[nH]5)C=C4)C=C3)cc1
REMARK SMILES IDX 7 1 6 2 5 3 4 4 3 5 1 6 2 7 29 9 30 10 91 11 31 12 90 13
REMARK SMILES IDX 32 14 33 15 34 16 84 17 35 18 89 19 83 20 85 21 36 22 88 23
REMARK SMILES IDX 82 24 81 25 37 27 69 28 49 29 68 30 50 31 53 32 67 33 86 34
REMARK SMILES IDX 51 35 52 36 66 38 87 39 54 40 38 41 39 42 47 43 40 44 41 45
REMARK SMILES IDX 45 46 48 47 42 48 43 49 46 50 44 51 70 52 71 53 79 54 72 55
REMARK SMILES IDX 73 56 77 57 80 58 74 59 75 60 78 61 76 62 55 63 56 64 64 65
REMARK SMILES IDX 57 66 58 67 62 68 65 69 59 70 60 71 63 72 61 73 8 74 9 75
REMARK SMILES IDX 10 76 11 77 12 79 13 80 14 81 28 82 15 83 16 84 17 85 18 86
REMARK SMILES IDX 19 87 20 89 21 90 22 91 26 92 23 93 25 94 24 95 27 96
REMARK H PARENT 3 8 85 26 53 37 10 78 18 88 27 97
REMARK Flexibility Score: inf
ROOT
ATOM      1  C   UNL A   1      31.775  29.627  27.107  1.00  0.00     0.002 C 
ENDROOT
BRANCH   1   2
ATOM      2  C   UNL A   1      31.545  30.717  26.053  1.00  0.00     0.002 C 
BRANCH   2   3
ATOM      3  C   UNL A   1      31.406  32.134  26.613  1.00  0.00     0.021 C 
BRANCH   3   4
ATOM      4  C   UNL A   1      32.724  32.748  27.062  1.00  0.00     0.116 C 
BRANCH   4   5
ATOM      5  N   UNL A   1      32.547  34.122  27.505  1.00  0.00    -0.352 N 
ATOM      6  O   UNL A   1      32.694  35.844  28.961  1.00  0.00    -0.269 OA
ATOM      7  C   UNL A   1      33.137  34.771  28.559  1.00  0.00     0.251 C 
ATOM      8  H   UNL A   1      31.916  34.661  26.976  1.00  0.00     0.163 HD
BRANCH   7   9
ATOM      9  C   UNL A   1      34.314  34.166  29.209  1.00  0.00     0.039 A 
ATOM     10  C   UNL A   1      34.143  33.253  30.253  1.00  0.00     0.014 A 
ATOM     11  C   UNL A   1      35.595  34.498  28.762  1.00  0.00     0.014 A 
ATOM     12  C   UNL A   1      35.250  32.771  30.935  1.00  0.00     0.010 A 
ATOM     13  C   UNL A   1      36.709  33.937  29.387  1.00  0.00     0.010 A 
ATOM     14  C   UNL A   1      36.545  33.082  30.489  1.00  0.00    -0.014 A 
BRANCH  14  15
ATOM     15  C   UNL A   1      37.705  32.424  31.134  1.00  0.00     0.031 A 
ATOM     16  C   UNL A   1      38.467  31.335  30.443  1.00  0.00     0.074 A 
ATOM     17  C   UNL A   1      38.066  32.836  32.364  1.00  0.00     0.049 A 
ATOM     18  N   UNL A   1      39.496  30.649  30.873  1.00  0.00    -0.248 NA
ATOM     19  C   UNL A   1      38.013  30.954  29.098  1.00  0.00     0.031 C 
ATOM     20  C   UNL A   1      37.381  33.878  33.135  1.00  0.00     0.029 A 
ATOM     21  N   UNL A   1      39.093  32.441  33.182  1.00  0.00    -0.354 N 
ATOM     22  C   UNL A   1      39.801  29.746  29.864  1.00  0.00     0.074 A 
ATOM     23  C   UNL A   1      38.828  29.950  28.810  1.00  0.00     0.031 C 
ATOM     24  C   UNL A   1      38.025  34.061  34.296  1.00  0.00     0.029 A 
ATOM     25  C   UNL A   1      39.120  33.104  34.382  1.00  0.00     0.049 A 
ATOM     26  H   UNL A   1      39.746  31.749  32.931  1.00  0.00     0.167 HD
ATOM     27  C   UNL A   1      40.805  28.836  29.825  1.00  0.00     0.037 A 
ATOM     28  C   UNL A   1      39.918  32.939  35.453  1.00  0.00     0.037 A 
ATOM     29  C   UNL A   1      41.767  28.649  30.882  1.00  0.00     0.049 A 
ATOM     30  C   UNL A   1      41.001  31.903  35.393  1.00  0.00     0.074 A 
ATOM     31  C   UNL A   1      42.850  27.788  30.921  1.00  0.00     0.029 A 
ATOM     32  N   UNL A   1      41.754  29.326  32.094  1.00  0.00    -0.354 N 
ATOM     33  N   UNL A   1      41.312  31.087  34.415  1.00  0.00    -0.248 NA
ATOM     34  C   UNL A   1      41.845  31.761  36.586  1.00  0.00     0.031 C 
ATOM     35  C   UNL A   1      43.451  27.897  32.180  1.00  0.00     0.029 A 
ATOM     36  C   UNL A   1      42.788  28.876  32.902  1.00  0.00     0.049 A 
ATOM     37  H   UNL A   1      41.106  30.025  32.344  1.00  0.00     0.167 HD
ATOM     38  C   UNL A   1      42.397  30.350  34.863  1.00  0.00     0.074 A 
ATOM     39  C   UNL A   1      42.704  30.830  36.196  1.00  0.00     0.031 C 
ATOM     40  C   UNL A   1      43.076  29.362  34.230  1.00  0.00     0.037 A 
BRANCH  27  41
ATOM     41  C   UNL A   1      40.898  27.951  28.613  1.00  0.00     0.064 A 
ATOM     42  C   UNL A   1      40.190  26.743  28.518  1.00  0.00     0.173 A 
ATOM     43  C   UNL A   1      41.682  28.336  27.514  1.00  0.00     0.173 A 
ATOM     44  F   UNL A   1      39.432  26.322  29.540  1.00  0.00    -0.203 F 
ATOM     45  C   UNL A   1      40.291  25.939  27.384  1.00  0.00     0.198 A 
ATOM     46  C   UNL A   1      41.755  27.546  26.369  1.00  0.00     0.198 A 
ATOM     47  F   UNL A   1      42.375  29.485  27.545  1.00  0.00    -0.203 F 
ATOM     48  F   UNL A   1      39.649  24.763  27.339  1.00  0.00    -0.200 F 
ATOM     49  C   UNL A   1      41.067  26.344  26.309  1.00  0.00     0.200 A 
ATOM     50  F   UNL A   1      42.494  27.947  25.325  1.00  0.00    -0.200 F 
ATOM     51  F   UNL A   1      41.160  25.571  25.217  1.00  0.00    -0.200 F 
ENDBRANCH  27  41
BRANCH  28  52
ATOM     52  C   UNL A   1      39.697  33.767  36.665  1.00  0.00     0.064 A 
ATOM     53  C   UNL A   1      40.311  35.017  36.813  1.00  0.00     0.173 A 
ATOM     54  C   UNL A   1      38.842  33.334  37.691  1.00  0.00     0.173 A 
ATOM     55  F   UNL A   1      41.148  35.469  35.867  1.00  0.00    -0.203 F 
ATOM     56  C   UNL A   1      40.091  35.796  37.947  1.00  0.00     0.198 A 
ATOM     57  C   UNL A   1      38.596  34.129  38.808  1.00  0.00     0.198 A 
ATOM     58  F   UNL A   1      38.221  32.149  37.594  1.00  0.00    -0.203 F 
ATOM     59  F   UNL A   1      40.723  36.970  38.083  1.00  0.00    -0.200 F 
ATOM     60  C   UNL A   1      39.227  35.356  38.939  1.00  0.00     0.200 A 
ATOM     61  F   UNL A   1      37.743  33.708  39.752  1.00  0.00    -0.200 F 
ATOM     62  F   UNL A   1      39.007  36.111  40.023  1.00  0.00    -0.200 F 
ENDBRANCH  28  52
BRANCH  40  63
ATOM     63  C   UNL A   1      44.238  28.756  34.961  1.00  0.00     0.064 A 
ATOM     64  C   UNL A   1      44.090  27.617  35.768  1.00  0.00     0.173 A 
ATOM     65  C   UNL A   1      45.524  29.303  34.828  1.00  0.00     0.173 A 
ATOM     66  F   UNL A   1      42.880  27.066  35.943  1.00  0.00    -0.203 F 
ATOM     67  C   UNL A   1      45.181  27.067  36.436  1.00  0.00     0.198 A 
ATOM     68  C   UNL A   1      46.617  28.730  35.470  1.00  0.00     0.198 A 
ATOM     69  F   UNL A   1      45.721  30.388  34.065  1.00  0.00    -0.203 F 
ATOM     70  F   UNL A   1      45.006  26.013  37.245  1.00  0.00    -0.200 F 
ATOM     71  C   UNL A   1      46.444  27.619  36.281  1.00  0.00     0.200 A 
ATOM     72  F   UNL A   1      47.839  29.255  35.305  1.00  0.00    -0.200 F 
ATOM     73  F   UNL A   1      47.494  27.083  36.918  1.00  0.00    -0.200 F 
ENDBRANCH  40  63
ENDBRANCH  14  15
ENDBRANCH   7   9
ENDBRANCH   4   5
ENDBRANCH   3   4
ENDBRANCH   2   3
ENDBRANCH   1   2
BRANCH   1  74
ATOM     74  C   UNL A   1      31.556  28.199  26.601  1.00  0.00     0.021 C 
BRANCH  74  75
ATOM     75  C   UNL A   1      32.861  27.445  26.361  1.00  0.00     0.116 C 
BRANCH  75  76
ATOM     76  N   UNL A   1      33.367  27.686  25.031  1.00  0.00    -0.354 N 
ATOM     77  C   UNL A   1      33.588  26.817  24.005  1.00  0.00     0.249 C 
ATOM     78  H   UNL A   1      33.586  28.626  24.834  1.00  0.00     0.163 HD
ATOM     79  O   UNL A   1      34.073  27.280  22.967  1.00  0.00    -0.272 OA
BRANCH  77  80
ATOM     80  C   UNL A   1      33.317  25.300  24.136  1.00  0.00     0.207 C 
ATOM     81  C   UNL A   1      32.373  24.776  23.066  1.00  0.00     0.045 C 
ATOM     82  O   UNL A   1      34.461  24.449  24.168  1.00  0.00    -0.363 OA
ATOM     83  C   UNL A   1      33.207  23.834  22.235  1.00  0.00     0.037 C 
ATOM     84  C   UNL A   1      34.360  23.444  23.144  1.00  0.00     0.138 C 
BRANCH  84  85
ATOM     85  C   UNL A   1      34.219  22.064  23.784  1.00  0.00     0.148 C 
BRANCH  85  86
ATOM     86  N   UNL A   1      33.080  22.014  24.689  1.00  0.00    -0.349 N 
ATOM     87  C   UNL A   1      32.248  20.960  24.981  1.00  0.00     0.255 C 
ATOM     88  H   UNL A   1      32.875  22.854  25.160  1.00  0.00     0.163 HD
ATOM     89  O   UNL A   1      31.211  21.172  25.605  1.00  0.00    -0.269 OA
BRANCH  87  90
ATOM     90  C   UNL A   1      32.543  19.591  24.499  1.00  0.00     0.081 A 
ATOM     91  C   UNL A   1      32.392  19.349  23.124  1.00  0.00     0.018 A 
ATOM     92  C   UNL A   1      32.906  18.537  25.345  1.00  0.00     0.128 A 
ATOM     93  C   UNL A   1      32.661  18.084  22.599  1.00  0.00     0.001 A 
ATOM     94  C   UNL A   1      33.190  17.276  24.816  1.00  0.00     0.047 A 
ATOM     95  C   UNL A   1      33.073  17.055  23.443  1.00  0.00     0.004 A 
BRANCH  92  96
ATOM     96  O   UNL A   1      32.977  18.721  26.699  1.00  0.00    -0.507 OA
ATOM     97  H   UNL A   1      32.222  18.568  27.233  1.00  0.00     0.293 HD
ENDBRANCH  92  96
ENDBRANCH  87  90
ENDBRANCH  85  86
ENDBRANCH  84  85
ENDBRANCH  77  80
ENDBRANCH  75  76
ENDBRANCH  74  75
ENDBRANCH   1  74
TORSDOF 17
ENDMDL
MODEL 2
REMARK VINA RESULT:     -12.0      1.379      2.616
REMARK SMILES O=C(NCCCCCCNC(=O)[C@H]1CC[C@H](CNC(=O)c2ccccc2O)O1)c1ccc(-c2c3nc(c(-c4c(F)c(F)c(F)c(F)c4F)c4ccc([nH]4)c(-c4c(F)c(F)c(F)c(F)c4F)c4nc(c(-c5c(F)c(F)c(F)c(F)c5F)c5ccc2[nH]5)C=C4)C=C3)cc1
REMARK SMILES IDX 7 1 6 2 5 3 4 4 3 5 1 6 2 7 29 9 30 10 91 11 31 12 90 13
REMARK SMILES IDX 32 14 33 15 34 16 84 17 35 18 89 19 83 20 85 21 36 22 88 23
REMARK SMILES IDX 82 24 81 25 37 27 69 28 49 29 68 30 50 31 53 32 67 33 86 34
REMARK SMILES IDX 51 35 52 36 66 38 87 39 54 40 38 41 39 42 47 43 40 44 41 45
REMARK SMILES IDX 45 46 48 47 42 48 43 49 46 50 44 51 70 52 71 53 79 54 72 55
REMARK SMILES IDX 73 56 77 57 80 58 74 59 75 60 78 61 76 62 55 63 56 64 64 65
REMARK SMILES IDX 57 66 58 67 62 68 65 69 59 70 60 71 63 72 61 73 8 74 9 75
REMARK SMILES IDX 10 76 11 77 12 79 13 80 14 81 28 82 15 83 16 84 17 85 18 86
REMARK SMILES IDX 19 87 20 89 21 90 22 91 26 92 23 93 25 94 24 95 27 96
REMARK H PARENT 3 8 85 26 53 37 10 78 18 88 27 97
REMARK Flexibility Score: inf
ROOT
ATOM      1  C   UNL A   1      32.169  30.081  27.186  1.00  0.00     0.002 C 
ENDROOT
BRANCH   1   2
ATOM      2  C   UNL A   1      31.421  30.949  26.165  1.00  0.00     0.002 C 
BRANCH   2   3
ATOM      3  C   UNL A   1      31.389  32.442  26.492  1.00  0.00     0.021 C 
BRANCH   3   4
ATOM      4  C   UNL A   1      32.622  32.934  27.237  1.00  0.00     0.116 C 
BRANCH   4   5
ATOM      5  N   UNL A   1      32.463  34.310  27.681  1.00  0.00    -0.352 N 
ATOM      6  O   UNL A   1      32.617  36.026  29.142  1.00  0.00    -0.269 OA
ATOM      7  C   UNL A   1      33.047  34.946  28.745  1.00  0.00     0.251 C 
ATOM      8  H   UNL A   1      31.849  34.861  27.143  1.00  0.00     0.163 HD
BRANCH   7   9
ATOM      9  C   UNL A   1      34.203  34.319  29.412  1.00  0.00     0.039 A 
ATOM     10  C   UNL A   1      34.004  33.484  30.515  1.00  0.00     0.014 A 
ATOM     11  C   UNL A   1      35.491  34.552  28.924  1.00  0.00     0.014 A 
ATOM     12  C   UNL A   1      35.097  32.984  31.207  1.00  0.00     0.010 A 
ATOM     13  C   UNL A   1      36.585  33.970  29.564  1.00  0.00     0.010 A 
ATOM     14  C   UNL A   1      36.397  33.196  30.721  1.00  0.00    -0.014 A 
BRANCH  14  15
ATOM     15  C   UNL A   1      37.533  32.517  31.387  1.00  0.00     0.031 A 
ATOM     16  C   UNL A   1      38.250  31.374  30.733  1.00  0.00     0.074 A 
ATOM     17  C   UNL A   1      37.914  32.957  32.601  1.00  0.00     0.049 A 
ATOM     18  N   UNL A   1      39.253  30.664  31.186  1.00  0.00    -0.248 NA
ATOM     19  C   UNL A   1      37.776  30.964  29.404  1.00  0.00     0.031 C 
ATOM     20  C   UNL A   1      37.272  34.051  33.336  1.00  0.00     0.029 A 
ATOM     21  N   UNL A   1      38.927  32.551  33.430  1.00  0.00    -0.354 N 
ATOM     22  C   UNL A   1      39.519  29.715  30.209  1.00  0.00     0.074 A 
ATOM     23  C   UNL A   1      38.552  29.920  29.150  1.00  0.00     0.031 C 
ATOM     24  C   UNL A   1      37.926  34.251  34.488  1.00  0.00     0.029 A 
ATOM     25  C   UNL A   1      38.984  33.255  34.606  1.00  0.00     0.049 A 
ATOM     26  H   UNL A   1      39.552  31.826  33.203  1.00  0.00     0.167 HD
ATOM     27  C   UNL A   1      40.486  28.766  30.200  1.00  0.00     0.037 A 
ATOM     28  C   UNL A   1      39.778  33.098  35.680  1.00  0.00     0.037 A 
ATOM     29  C   UNL A   1      41.444  28.580  31.262  1.00  0.00     0.049 A 
ATOM     30  C   UNL A   1      40.820  32.018  35.656  1.00  0.00     0.074 A 
ATOM     31  C   UNL A   1      42.493  27.679  31.330  1.00  0.00     0.029 A 
ATOM     32  N   UNL A   1      41.461  29.299  32.449  1.00  0.00    -0.354 N 
ATOM     33  N   UNL A   1      41.095  31.157  34.707  1.00  0.00    -0.248 NA
ATOM     34  C   UNL A   1      41.661  31.887  36.851  1.00  0.00     0.031 C 
ATOM     35  C   UNL A   1      43.102  27.809  32.582  1.00  0.00     0.029 A 
ATOM     36  C   UNL A   1      42.479  28.838  33.271  1.00  0.00     0.049 A 
ATOM     37  H   UNL A   1      40.842  30.031  32.675  1.00  0.00     0.167 HD
ATOM     38  C   UNL A   1      42.152  30.394  35.178  1.00  0.00     0.074 A 
ATOM     39  C   UNL A   1      42.482  30.909  36.493  1.00  0.00     0.031 C 
ATOM     40  C   UNL A   1      42.791  29.359  34.579  1.00  0.00     0.037 A 
BRANCH  27  41
ATOM     41  C   UNL A   1      40.541  27.836  29.021  1.00  0.00     0.064 A 
ATOM     42  C   UNL A   1      41.397  28.063  27.932  1.00  0.00     0.173 A 
ATOM     43  C   UNL A   1      39.748  26.678  28.995  1.00  0.00     0.173 A 
ATOM     44  F   UNL A   1      42.171  29.157  27.899  1.00  0.00    -0.203 F 
ATOM     45  C   UNL A   1      41.431  27.186  26.850  1.00  0.00     0.198 A 
ATOM     46  C   UNL A   1      39.808  25.787  27.927  1.00  0.00     0.198 A 
ATOM     47  F   UNL A   1      38.915  26.405  30.012  1.00  0.00    -0.203 F 
ATOM     48  F   UNL A   1      42.216  27.454  25.797  1.00  0.00    -0.200 F 
ATOM     49  C   UNL A   1      40.642  26.046  26.851  1.00  0.00     0.200 A 
ATOM     50  F   UNL A   1      39.055  24.677  27.938  1.00  0.00    -0.200 F 
ATOM     51  F   UNL A   1      40.680  25.201  25.811  1.00  0.00    -0.200 F 
ENDBRANCH  27  41
BRANCH  28  52
ATOM     52  C   UNL A   1      39.593  33.976  36.863  1.00  0.00     0.064 A 
ATOM     53  C   UNL A   1      38.797  33.580  37.945  1.00  0.00     0.173 A 
ATOM     54  C   UNL A   1      40.236  35.222  36.946  1.00  0.00     0.173 A 
ATOM     55  F   UNL A   1      38.152  32.404  37.906  1.00  0.00    -0.203 F 
ATOM     56  C   UNL A   1      38.638  34.401  39.058  1.00  0.00     0.198 A 
ATOM     57  C   UNL A   1      40.102  36.027  38.075  1.00  0.00     0.198 A 
ATOM     58  F   UNL A   1      41.017  35.644  35.942  1.00  0.00    -0.203 F 
ATOM     59  F   UNL A   1      37.837  34.017  40.062  1.00  0.00    -0.200 F 
ATOM     60  C   UNL A   1      39.296  35.620  39.127  1.00  0.00     0.200 A 
ATOM     61  F   UNL A   1      40.759  37.193  38.144  1.00  0.00    -0.200 F 
ATOM     62  F   UNL A   1      39.151  36.404  40.203  1.00  0.00    -0.200 F 
ENDBRANCH  28  52
BRANCH  40  63
ATOM     63  C   UNL A   1      43.931  28.734  35.330  1.00  0.00     0.064 A 
ATOM     64  C   UNL A   1      45.255  29.161  35.150  1.00  0.00     0.173 A 
ATOM     65  C   UNL A   1      43.691  27.716  36.266  1.00  0.00     0.173 A 
ATOM     66  F   UNL A   1      45.541  30.118  34.254  1.00  0.00    -0.203 F 
ATOM     67  C   UNL A   1      46.300  28.571  35.857  1.00  0.00     0.198 A 
ATOM     68  C   UNL A   1      44.733  27.152  36.996  1.00  0.00     0.198 A 
ATOM     69  F   UNL A   1      42.442  27.274  36.479  1.00  0.00    -0.203 F 
ATOM     70  F   UNL A   1      47.562  28.956  35.628  1.00  0.00    -0.200 F 
ATOM     71  C   UNL A   1      46.037  27.574  36.784  1.00  0.00     0.200 A 
ATOM     72  F   UNL A   1      44.476  26.201  37.903  1.00  0.00    -0.200 F 
ATOM     73  F   UNL A   1      47.042  27.014  37.471  1.00  0.00    -0.200 F 
ENDBRANCH  40  63
ENDBRANCH  14  15
ENDBRANCH   7   9
ENDBRANCH   4   5
ENDBRANCH   3   4
ENDBRANCH   2   3
ENDBRANCH   1   2
BRANCH   1  74
ATOM     74  C   UNL A   1      32.517  28.676  26.690  1.00  0.00     0.021 C 
BRANCH  74  75
ATOM     75  C   UNL A   1      33.986  28.525  26.308  1.00  0.00     0.116 C 
BRANCH  75  76
ATOM     76  N   UNL A   1      34.198  28.840  24.914  1.00  0.00    -0.354 N 
ATOM     77  C   UNL A   1      33.525  28.421  23.807  1.00  0.00     0.249 C 
ATOM     78  H   UNL A   1      34.946  29.455  24.737  1.00  0.00     0.163 HD
ATOM     79  O   UNL A   1      33.940  28.812  22.711  1.00  0.00    -0.272 OA
BRANCH  77  80
ATOM     80  C   UNL A   1      32.330  27.441  23.889  1.00  0.00     0.207 C 
ATOM     81  C   UNL A   1      31.237  27.759  22.882  1.00  0.00     0.045 C 
ATOM     82  O   UNL A   1      32.636  26.052  23.783  1.00  0.00    -0.363 OA
ATOM     83  C   UNL A   1      31.221  26.582  21.939  1.00  0.00     0.037 C 
ATOM     84  C   UNL A   1      31.867  25.454  22.725  1.00  0.00     0.138 C 
BRANCH  84  85
ATOM     85  C   UNL A   1      30.878  24.447  23.310  1.00  0.00     0.148 C 
BRANCH  85  86
ATOM     86  N   UNL A   1      31.183  23.091  22.874  1.00  0.00    -0.349 N 
ATOM     87  C   UNL A   1      32.066  22.185  23.409  1.00  0.00     0.255 C 
ATOM     88  H   UNL A   1      30.686  22.779  22.084  1.00  0.00     0.163 HD
ATOM     89  O   UNL A   1      32.341  21.171  22.772  1.00  0.00    -0.269 OA
BRANCH  87  90
ATOM     90  C   UNL A   1      32.742  22.440  24.702  1.00  0.00     0.081 A 
ATOM     91  C   UNL A   1      34.075  22.877  24.652  1.00  0.00     0.018 A 
ATOM     92  C   UNL A   1      32.139  22.219  25.945  1.00  0.00     0.128 A 
ATOM     93  C   UNL A   1      34.772  23.145  25.832  1.00  0.00     0.001 A 
ATOM     94  C   UNL A   1      32.832  22.503  27.124  1.00  0.00     0.047 A 
ATOM     95  C   UNL A   1      34.145  22.972  27.064  1.00  0.00     0.004 A 
BRANCH  92  96
ATOM     96  O   UNL A   1      30.870  21.712  26.025  1.00  0.00    -0.507 OA
ATOM     97  H   UNL A   1      30.535  21.177  25.332  1.00  0.00     0.293 HD
ENDBRANCH  92  96
ENDBRANCH  87  90
ENDBRANCH  85  86
ENDBRANCH  84  85
ENDBRANCH  77  80
ENDBRANCH  75  76
ENDBRANCH  74  75
ENDBRANCH   1  74
TORSDOF 17
ENDMDL
MODEL 3
REMARK VINA RESULT:     -11.9      5.085      9.847
REMARK SMILES O=C(NCCCCCCNC(=O)[C@H]1CC[C@H](CNC(=O)c2ccccc2O)O1)c1ccc(-c2c3nc(c(-c4c(F)c(F)c(F)c(F)c4F)c4ccc([nH]4)c(-c4c(F)c(F)c(F)c(F)c4F)c4nc(c(-c5c(F)c(F)c(F)c(F)c5F)c5ccc2[nH]5)C=C4)C=C3)cc1
REMARK SMILES IDX 7 1 6 2 5 3 4 4 3 5 1 6 2 7 29 9 30 10 91 11 31 12 90 13
REMARK SMILES IDX 32 14 33 15 34 16 84 17 35 18 89 19 83 20 85 21 36 22 88 23
REMARK SMILES IDX 82 24 81 25 37 27 69 28 49 29 68 30 50 31 53 32 67 33 86 34
REMARK SMILES IDX 51 35 52 36 66 38 87 39 54 40 38 41 39 42 47 43 40 44 41 45
REMARK SMILES IDX 45 46 48 47 42 48 43 49 46 50 44 51 70 52 71 53 79 54 72 55
REMARK SMILES IDX 73 56 77 57 80 58 74 59 75 60 78 61 76 62 55 63 56 64 64 65
REMARK SMILES IDX 57 66 58 67 62 68 65 69 59 70 60 71 63 72 61 73 8 74 9 75
REMARK SMILES IDX 10 76 11 77 12 79 13 80 14 81 28 82 15 83 16 84 17 85 18 86
REMARK SMILES IDX 19 87 20 89 21 90 22 91 26 92 23 93 25 94 24 95 27 96
REMARK H PARENT 3 8 85 26 53 37 10 78 18 88 27 97
REMARK Flexibility Score: inf
ROOT
ATOM      1  C   UNL A   1      35.788  20.863  24.983  1.00  0.00     0.002 C 
ENDROOT
BRANCH   1   2
ATOM      2  C   UNL A   1      36.705  19.634  24.967  1.00  0.00     0.002 C 
BRANCH   2   3
ATOM      3  C   UNL A   1      38.179  19.936  24.691  1.00  0.00     0.021 C 
BRANCH   3   4
ATOM      4  C   UNL A   1      39.016  20.108  25.950  1.00  0.00     0.116 C 
BRANCH   4   5
ATOM      5  N   UNL A   1      40.133  19.175  25.979  1.00  0.00    -0.352 N 
ATOM      6  O   UNL A   1      42.301  18.565  25.812  1.00  0.00    -0.269 OA
ATOM      7  C   UNL A   1      41.475  19.440  26.059  1.00  0.00     0.251 C 
ATOM      8  H   UNL A   1      39.891  18.222  25.934  1.00  0.00     0.163 HD
BRANCH   7   9
ATOM      9  C   UNL A   1      41.920  20.791  26.446  1.00  0.00     0.039 A 
ATOM     10  C   UNL A   1      42.172  21.752  25.463  1.00  0.00     0.014 A 
ATOM     11  C   UNL A   1      42.071  21.107  27.799  1.00  0.00     0.014 A 
ATOM     12  C   UNL A   1      42.696  22.985  25.822  1.00  0.00     0.010 A 
ATOM     13  C   UNL A   1      42.506  22.381  28.164  1.00  0.00     0.010 A 
ATOM     14  C   UNL A   1      42.838  23.323  27.177  1.00  0.00    -0.014 A 
BRANCH  14  15
ATOM     15  C   UNL A   1      43.246  24.702  27.535  1.00  0.00     0.031 A 
ATOM     16  C   UNL A   1      44.687  25.112  27.544  1.00  0.00     0.074 A 
ATOM     17  C   UNL A   1      42.282  25.589  27.849  1.00  0.00     0.049 A 
ATOM     18  N   UNL A   1      45.212  26.274  27.846  1.00  0.00    -0.248 NA
ATOM     19  C   UNL A   1      45.673  24.086  27.177  1.00  0.00     0.031 C 
ATOM     20  C   UNL A   1      40.847  25.289  27.890  1.00  0.00     0.029 A 
ATOM     21  N   UNL A   1      42.352  26.915  28.189  1.00  0.00    -0.354 N 
ATOM     22  C   UNL A   1      46.585  26.114  27.724  1.00  0.00     0.074 A 
ATOM     23  C   UNL A   1      46.816  24.734  27.349  1.00  0.00     0.031 C 
ATOM     24  C   UNL A   1      40.173  26.404  28.201  1.00  0.00     0.029 A 
ATOM     25  C   UNL A   1      41.129  27.476  28.452  1.00  0.00     0.049 A 
ATOM     26  H   UNL A   1      43.198  27.415  28.238  1.00  0.00     0.167 HD
ATOM     27  C   UNL A   1      47.558  27.040  27.904  1.00  0.00     0.037 A 
ATOM     28  C   UNL A   1      40.808  28.710  28.881  1.00  0.00     0.037 A 
ATOM     29  C   UNL A   1      47.308  28.412  28.273  1.00  0.00     0.049 A 
ATOM     30  C   UNL A   1      41.909  29.706  29.103  1.00  0.00     0.074 A 
ATOM     31  C   UNL A   1      48.220  29.442  28.434  1.00  0.00     0.029 A 
ATOM     32  N   UNL A   1      46.056  28.943  28.550  1.00  0.00    -0.354 N 
ATOM     33  N   UNL A   1      43.201  29.559  28.938  1.00  0.00    -0.248 NA
ATOM     34  C   UNL A   1      41.508  31.038  29.571  1.00  0.00     0.031 C 
ATOM     35  C   UNL A   1      47.527  30.575  28.872  1.00  0.00     0.029 A 
ATOM     36  C   UNL A   1      46.175  30.275  28.917  1.00  0.00     0.049 A 
ATOM     37  H   UNL A   1      45.207  28.447  28.493  1.00  0.00     0.167 HD
ATOM     38  C   UNL A   1      43.768  30.783  29.262  1.00  0.00     0.074 A 
ATOM     39  C   UNL A   1      42.675  31.667  29.614  1.00  0.00     0.031 C 
ATOM     40  C   UNL A   1      45.075  31.140  29.270  1.00  0.00     0.037 A 
BRANCH  27  41
ATOM     41  C   UNL A   1      48.984  26.597  27.735  1.00  0.00     0.064 A 
ATOM     42  C   UNL A   1      49.594  26.515  26.474  1.00  0.00     0.173 A 
ATOM     43  C   UNL A   1      49.764  26.280  28.858  1.00  0.00     0.173 A 
ATOM     44  F   UNL A   1      48.894  26.797  25.366  1.00  0.00    -0.203 F 
ATOM     45  C   UNL A   1      50.918  26.101  26.342  1.00  0.00     0.198 A 
ATOM     46  C   UNL A   1      51.097  25.899  28.725  1.00  0.00     0.198 A 
ATOM     47  F   UNL A   1      49.236  26.348  30.090  1.00  0.00    -0.203 F 
ATOM     48  F   UNL A   1      51.462  25.978  25.123  1.00  0.00    -0.200 F 
ATOM     49  C   UNL A   1      51.670  25.801  27.467  1.00  0.00     0.200 A 
ATOM     50  F   UNL A   1      51.827  25.623  29.816  1.00  0.00    -0.200 F 
ATOM     51  F   UNL A   1      52.946  25.407  27.339  1.00  0.00    -0.200 F 
ENDBRANCH  27  41
BRANCH  28  52
ATOM     52  C   UNL A   1      39.386  29.049  29.142  1.00  0.00     0.064 A 
ATOM     53  C   UNL A   1      38.834  28.925  30.423  1.00  0.00     0.173 A 
ATOM     54  C   UNL A   1      38.558  29.532  28.117  1.00  0.00     0.173 A 
ATOM     55  F   UNL A   1      39.582  28.455  31.432  1.00  0.00    -0.203 F 
ATOM     56  C   UNL A   1      37.503  29.257  30.666  1.00  0.00     0.198 A 
ATOM     57  C   UNL A   1      37.237  29.895  28.369  1.00  0.00     0.198 A 
ATOM     58  F   UNL A   1      39.041  29.678  26.874  1.00  0.00    -0.203 F 
ATOM     59  F   UNL A   1      36.987  29.090  31.892  1.00  0.00    -0.200 F 
ATOM     60  C   UNL A   1      36.708  29.749  29.641  1.00  0.00     0.200 A 
ATOM     61  F   UNL A   1      36.481  30.391  27.380  1.00  0.00    -0.200 F 
ATOM     62  F   UNL A   1      35.432  30.078  29.880  1.00  0.00    -0.200 F 
ENDBRANCH  28  52
BRANCH  40  63
ATOM     63  C   UNL A   1      45.392  32.559  29.644  1.00  0.00     0.064 A 
ATOM     64  C   UNL A   1      45.692  32.925  30.965  1.00  0.00     0.173 A 
ATOM     65  C   UNL A   1      45.426  33.562  28.662  1.00  0.00     0.173 A 
ATOM     66  F   UNL A   1      45.656  32.009  31.945  1.00  0.00    -0.203 F 
ATOM     67  C   UNL A   1      45.986  34.246  31.293  1.00  0.00     0.198 A 
ATOM     68  C   UNL A   1      45.754  34.874  28.988  1.00  0.00     0.198 A 
ATOM     69  F   UNL A   1      45.151  33.264  27.383  1.00  0.00    -0.203 F 
ATOM     70  F   UNL A   1      46.216  34.583  32.569  1.00  0.00    -0.200 F 
ATOM     71  C   UNL A   1      46.025  35.217  30.303  1.00  0.00     0.200 A 
ATOM     72  F   UNL A   1      45.806  35.807  28.027  1.00  0.00    -0.200 F 
ATOM     73  F   UNL A   1      46.316  36.486  30.619  1.00  0.00    -0.200 F 
ENDBRANCH  40  63
ENDBRANCH  14  15
ENDBRANCH   7   9
ENDBRANCH   4   5
ENDBRANCH   3   4
ENDBRANCH   2   3
ENDBRANCH   1   2
BRANCH   1  74
ATOM     74  C   UNL A   1      36.523  22.204  24.915  1.00  0.00     0.021 C 
BRANCH  74  75
ATOM     75  C   UNL A   1      36.088  23.177  26.006  1.00  0.00     0.116 C 
BRANCH  75  76
ATOM     76  N   UNL A   1      35.132  22.568  26.901  1.00  0.00    -0.354 N 
ATOM     77  C   UNL A   1      33.810  22.835  27.087  1.00  0.00     0.249 C 
ATOM     78  H   UNL A   1      35.493  21.845  27.463  1.00  0.00     0.163 HD
ATOM     79  O   UNL A   1      33.219  22.186  27.957  1.00  0.00    -0.272 OA
BRANCH  77  80
ATOM     80  C   UNL A   1      33.074  23.947  26.303  1.00  0.00     0.207 C 
ATOM     81  C   UNL A   1      32.619  23.494  24.925  1.00  0.00     0.045 C 
ATOM     82  O   UNL A   1      31.962  24.557  26.955  1.00  0.00    -0.363 OA
ATOM     83  C   UNL A   1      31.112  23.522  24.983  1.00  0.00     0.037 C 
ATOM     84  C   UNL A   1      30.791  24.471  26.124  1.00  0.00     0.138 C 
BRANCH  84  85
ATOM     85  C   UNL A   1      30.368  25.870  25.679  1.00  0.00     0.148 C 
BRANCH  85  86
ATOM     86  N   UNL A   1      31.013  26.246  24.429  1.00  0.00    -0.349 N 
ATOM     87  C   UNL A   1      31.790  27.345  24.150  1.00  0.00     0.255 C 
ATOM     88  H   UNL A   1      30.874  25.627  23.677  1.00  0.00     0.163 HD
ATOM     89  O   UNL A   1      32.065  27.599  22.979  1.00  0.00    -0.269 OA
BRANCH  87  90
ATOM     90  C   UNL A   1      32.242  28.261  25.221  1.00  0.00     0.081 A 
ATOM     91  C   UNL A   1      33.174  27.759  26.143  1.00  0.00     0.018 A 
ATOM     92  C   UNL A   1      31.751  29.562  25.382  1.00  0.00     0.128 A 
ATOM     93  C   UNL A   1      33.650  28.570  27.175  1.00  0.00     0.001 A 
ATOM     94  C   UNL A   1      32.241  30.378  26.405  1.00  0.00     0.047 A 
ATOM     95  C   UNL A   1      33.194  29.881  27.294  1.00  0.00     0.004 A 
BRANCH  92  96
ATOM     96  O   UNL A   1      30.780  30.049  24.550  1.00  0.00    -0.507 OA
ATOM     97  H   UNL A   1      31.019  30.537  23.786  1.00  0.00     0.293 HD
ENDBRANCH  92  96
ENDBRANCH  87  90
ENDBRANCH  85  86
ENDBRANCH  84  85
ENDBRANCH  77  80
ENDBRANCH  75  76
ENDBRANCH  74  75
ENDBRANCH   1  74
TORSDOF 17
ENDMDL
