MODEL 1
REMARK VINA RESULT:     -12.1      0.000      0.000
REMARK SMILES CC(C)[C@H](/N=C1\C(=O)C(=O)[C@H]1[NH+]1CCCC1)C(=O)NCCCCCCNC(=O)c1ccc(-c2c3nc(c(-c4c(F)c(F)c(F)c(F)c4F)c4ccc([nH]4)c(-c4c(F)c(F)c(F)c(F)c4F)c4nc(c(-c5c(F)c(F)c(F)c(F)c5F)c5ccc2[nH]5)C=C4)C=C3)cc1
REMARK SMILES IDX 22 1 21 2 20 3 19 4 17 5 18 6 4 8 2 9 1 10 3 11 5 12 6 13
REMARK SMILES IDX 7 14 11 15 8 16 9 17 10 18 12 19 13 20 16 21 14 23 15 24
REMARK SMILES IDX 23 25 24 26 25 27 26 28 27 29 28 31 29 32 30 33 91 34 31 35
REMARK SMILES IDX 90 36 32 37 33 38 34 39 84 40 35 41 89 42 83 43 85 44 36 45
REMARK SMILES IDX 88 46 82 47 81 48 37 50 69 51 49 52 68 53 50 54 53 55 67 56
REMARK SMILES IDX 86 57 51 58 52 59 66 61 87 62 54 63 38 64 39 65 47 66 40 67
REMARK SMILES IDX 41 68 45 69 48 70 42 71 43 72 46 73 44 74 70 75 71 76 79 77
REMARK SMILES IDX 72 78 73 79 77 80 80 81 74 82 75 83 78 84 76 85 55 86 56 87
REMARK SMILES IDX 64 88 57 89 58 90 62 91 65 92 59 93 60 94 63 95 61 96
REMARK H PARENT 19 7 12 22 26 30 85 49 53 60
REMARK Flexibility Score: inf
ROOT
ATOM      1  C   UNL A   1      32.433  29.738  27.122  1.00  0.00     0.002 C 
ENDROOT
BRANCH   1   2
ATOM      2  C   UNL A   1      31.790  28.412  27.543  1.00  0.00     0.021 C 
BRANCH   2   3
ATOM      3  C   UNL A   1      32.325  27.154  26.863  1.00  0.00     0.116 C 
BRANCH   3   4
ATOM      4  N   UNL A   1      31.385  26.059  26.855  1.00  0.00    -0.354 N 
ATOM      5  C   UNL A   1      31.079  25.187  25.851  1.00  0.00     0.245 C 
ATOM      6  O   UNL A   1      30.303  24.266  26.128  1.00  0.00    -0.273 OA
ATOM      7  H   UNL A   1      30.892  25.921  27.696  1.00  0.00     0.163 HD
BRANCH   5   8
ATOM      8  C   UNL A   1      31.666  25.311  24.420  1.00  0.00     0.197 C 
BRANCH   8   9
ATOM      9  C   UNL A   1      30.796  26.066  23.381  1.00  0.00     0.017 C 
ATOM     10  C   UNL A   1      30.150  27.379  23.828  1.00  0.00     0.010 C 
ATOM     11  C   UNL A   1      31.518  26.266  22.045  1.00  0.00     0.010 C 
ENDBRANCH   8   9
BRANCH   8  12
ATOM     12  N   UNL A   1      32.104  23.967  23.991  1.00  0.00    -0.266 NA
ATOM     13  C   UNL A   1      33.306  23.597  24.219  1.00  0.00     0.153 C 
ATOM     14  C   UNL A   1      34.537  24.252  24.716  1.00  0.00     0.255 C 
ATOM     15  C   UNL A   1      34.023  22.268  23.942  1.00  0.00     0.314 C 
ATOM     16  O   UNL A   1      34.769  25.285  25.257  1.00  0.00    -0.283 OA
ATOM     17  C   UNL A   1      35.349  23.051  24.296  1.00  0.00     0.268 C 
ATOM     18  O   UNL A   1      36.541  22.918  24.327  1.00  0.00    -0.283 OA
BRANCH  15  19
ATOM     19  N   UNL A   1      33.711  21.121  24.831  1.00  0.00    -0.321 N 
ATOM     20  C   UNL A   1      34.760  20.090  24.817  1.00  0.00     0.263 C 
ATOM     21  C   UNL A   1      32.414  20.472  24.591  1.00  0.00     0.263 C 
ATOM     22  H   UNL A   1      33.661  21.561  25.750  1.00  0.00     0.349 HD
ATOM     23  C   UNL A   1      34.047  18.777  24.529  1.00  0.00     0.067 C 
ATOM     24  C   UNL A   1      32.637  19.033  25.016  1.00  0.00     0.067 C 
ENDBRANCH  15  19
ENDBRANCH   8  12
ENDBRANCH   5   8
ENDBRANCH   3   4
ENDBRANCH   2   3
ENDBRANCH   1   2
BRANCH   1  25
ATOM     25  C   UNL A   1      31.646  30.615  26.144  1.00  0.00     0.002 C 
BRANCH  25  26
ATOM     26  C   UNL A   1      31.420  32.076  26.542  1.00  0.00     0.021 C 
BRANCH  26  27
ATOM     27  C   UNL A   1      32.576  32.783  27.246  1.00  0.00     0.116 C 
BRANCH  27  28
ATOM     28  N   UNL A   1      32.283  34.154  27.621  1.00  0.00    -0.352 N 
ATOM     29  C   UNL A   1      32.938  34.968  28.515  1.00  0.00     0.251 C 
ATOM     30  H   UNL A   1      31.506  34.558  27.170  1.00  0.00     0.163 HD
ATOM     31  O   UNL A   1      32.506  36.093  28.750  1.00  0.00    -0.269 OA
BRANCH  29  32
ATOM     32  C   UNL A   1      34.139  34.485  29.236  1.00  0.00     0.039 A 
ATOM     33  C   UNL A   1      33.957  33.812  30.449  1.00  0.00     0.014 A 
ATOM     34  C   UNL A   1      35.431  34.697  28.745  1.00  0.00     0.014 A 
ATOM     35  C   UNL A   1      35.057  33.279  31.128  1.00  0.00     0.010 A 
ATOM     36  C   UNL A   1      36.527  34.138  29.407  1.00  0.00     0.010 A 
ATOM     37  C   UNL A   1      36.346  33.410  30.593  1.00  0.00    -0.014 A 
BRANCH  37  38
ATOM     38  C   UNL A   1      37.509  32.745  31.229  1.00  0.00     0.031 A 
ATOM     39  C   UNL A   1      38.205  31.602  30.554  1.00  0.00     0.074 A 
ATOM     40  C   UNL A   1      37.898  33.136  32.458  1.00  0.00     0.049 A 
ATOM     41  N   UNL A   1      39.164  30.837  31.010  1.00  0.00    -0.248 NA
ATOM     42  C   UNL A   1      37.759  31.268  29.194  1.00  0.00     0.031 C 
ATOM     43  C   UNL A   1      37.297  34.224  33.230  1.00  0.00     0.029 A 
ATOM     44  N   UNL A   1      38.884  32.648  33.278  1.00  0.00    -0.354 N 
ATOM     45  C   UNL A   1      39.421  29.917  30.006  1.00  0.00     0.074 A 
ATOM     46  C   UNL A   1      38.518  30.217  28.913  1.00  0.00     0.031 C 
ATOM     47  C   UNL A   1      37.929  34.325  34.411  1.00  0.00     0.029 A 
ATOM     48  C   UNL A   1      38.957  33.290  34.488  1.00  0.00     0.049 A 
ATOM     49  H   UNL A   1      39.482  31.909  33.022  1.00  0.00     0.167 HD
ATOM     50  C   UNL A   1      40.333  28.915  29.994  1.00  0.00     0.037 A 
ATOM     51  C   UNL A   1      39.750  33.060  35.551  1.00  0.00     0.037 A 
ATOM     52  C   UNL A   1      41.266  28.636  31.052  1.00  0.00     0.049 A 
ATOM     53  C   UNL A   1      40.735  31.930  35.519  1.00  0.00     0.074 A 
ATOM     54  C   UNL A   1      42.288  27.702  31.080  1.00  0.00     0.029 A 
ATOM     55  N   UNL A   1      41.288  29.290  32.273  1.00  0.00    -0.354 N 
ATOM     56  N   UNL A   1      40.987  31.084  34.553  1.00  0.00    -0.248 NA
ATOM     57  C   UNL A   1      41.535  31.714  36.734  1.00  0.00     0.031 C 
ATOM     58  C   UNL A   1      42.918  27.779  32.329  1.00  0.00     0.029 A 
ATOM     59  C   UNL A   1      42.290  28.765  33.072  1.00  0.00     0.049 A 
ATOM     60  H   UNL A   1      40.682  30.021  32.534  1.00  0.00     0.167 HD
ATOM     61  C   UNL A   1      41.971  30.237  35.037  1.00  0.00     0.074 A 
ATOM     62  C   UNL A   1      42.275  30.669  36.385  1.00  0.00     0.031 C 
ATOM     63  C   UNL A   1      42.569  29.193  34.415  1.00  0.00     0.037 A 
BRANCH  50  64
ATOM     64  C   UNL A   1      40.363  28.037  28.787  1.00  0.00     0.064 A 
ATOM     65  C   UNL A   1      41.115  28.381  27.656  1.00  0.00     0.173 A 
ATOM     66  C   UNL A   1      39.662  26.823  28.775  1.00  0.00     0.173 A 
ATOM     67  F   UNL A   1      41.792  29.540  27.623  1.00  0.00    -0.203 F 
ATOM     68  C   UNL A   1      41.160  27.540  26.548  1.00  0.00     0.198 A 
ATOM     69  C   UNL A   1      39.714  25.981  27.669  1.00  0.00     0.198 A 
ATOM     70  F   UNL A   1      38.926  26.459  29.836  1.00  0.00    -0.203 F 
ATOM     71  F   UNL A   1      41.874  27.891  25.470  1.00  0.00    -0.200 F 
ATOM     72  C   UNL A   1      40.463  26.340  26.557  1.00  0.00     0.200 A 
ATOM     73  F   UNL A   1      39.037  24.825  27.675  1.00  0.00    -0.200 F 
ATOM     74  F   UNL A   1      40.507  25.531  25.489  1.00  0.00    -0.200 F 
ENDBRANCH  50  64
BRANCH  51  75
ATOM     75  C   UNL A   1      39.622  33.913  36.753  1.00  0.00     0.064 A 
ATOM     76  C   UNL A   1      40.307  35.129  36.842  1.00  0.00     0.173 A 
ATOM     77  C   UNL A   1      38.801  33.534  37.822  1.00  0.00     0.173 A 
ATOM     78  F   UNL A   1      41.115  35.517  35.845  1.00  0.00    -0.203 F 
ATOM     79  C   UNL A   1      40.175  35.942  37.965  1.00  0.00     0.198 A 
ATOM     80  C   UNL A   1      38.665  34.350  38.941  1.00  0.00     0.198 A 
ATOM     81  F   UNL A   1      38.132  32.372  37.776  1.00  0.00    -0.203 F 
ATOM     82  F   UNL A   1      40.849  37.098  38.036  1.00  0.00    -0.200 F 
ATOM     83  C   UNL A   1      39.352  35.553  39.012  1.00  0.00     0.200 A 
ATOM     84  F   UNL A   1      37.869  33.972  39.951  1.00  0.00    -0.200 F 
ATOM     85  F   UNL A   1      39.225  36.336  40.092  1.00  0.00    -0.200 F 
ENDBRANCH  51  75
BRANCH  63  86
ATOM     86  C   UNL A   1      43.605  28.445  35.191  1.00  0.00     0.064 A 
ATOM     87  C   UNL A   1      43.246  27.375  36.020  1.00  0.00     0.173 A 
ATOM     88  C   UNL A   1      44.961  28.783  35.086  1.00  0.00     0.173 A 
ATOM     89  F   UNL A   1      41.957  27.032  36.160  1.00  0.00    -0.203 F 
ATOM     90  C   UNL A   1      44.215  26.666  36.725  1.00  0.00     0.198 A 
ATOM     91  C   UNL A   1      45.927  28.068  35.788  1.00  0.00     0.198 A 
ATOM     92  F   UNL A   1      45.344  29.806  34.310  1.00  0.00    -0.203 F 
ATOM     93  F   UNL A   1      43.852  25.655  37.527  1.00  0.00    -0.200 F 
ATOM     94  C   UNL A   1      45.553  27.011  36.607  1.00  0.00     0.200 A 
ATOM     95  F   UNL A   1      47.220  28.405  35.679  1.00  0.00    -0.200 F 
ATOM     96  F   UNL A   1      46.484  26.331  37.290  1.00  0.00    -0.200 F 
ENDBRANCH  63  86
ENDBRANCH  37  38
ENDBRANCH  29  32
ENDBRANCH  27  28
ENDBRANCH  26  27
ENDBRANCH  25  26
ENDBRANCH   1  25
TORSDOF 16
ENDMDL
MODEL 2
REMARK VINA RESULT:     -12.1      1.721      3.683
REMARK SMILES CC(C)[C@H](/N=C1\C(=O)C(=O)[C@H]1[NH+]1CCCC1)C(=O)NCCCCCCNC(=O)c1ccc(-c2c3nc(c(-c4c(F)c(F)c(F)c(F)c4F)c4ccc([nH]4)c(-c4c(F)c(F)c(F)c(F)c4F)c4nc(c(-c5c(F)c(F)c(F)c(F)c5F)c5ccc2[nH]5)C=C4)C=C3)cc1
REMARK SMILES IDX 22 1 21 2 20 3 19 4 17 5 18 6 4 8 2 9 1 10 3 11 5 12 6 13
REMARK SMILES IDX 7 14 11 15 8 16 9 17 10 18 12 19 13 20 16 21 14 23 15 24
REMARK SMILES IDX 23 25 24 26 25 27 26 28 27 29 28 31 29 32 30 33 91 34 31 35
REMARK SMILES IDX 90 36 32 37 33 38 34 39 84 40 35 41 89 42 83 43 85 44 36 45
REMARK SMILES IDX 88 46 82 47 81 48 37 50 69 51 49 52 68 53 50 54 53 55 67 56
REMARK SMILES IDX 86 57 51 58 52 59 66 61 87 62 54 63 38 64 39 65 47 66 40 67
REMARK SMILES IDX 41 68 45 69 48 70 42 71 43 72 46 73 44 74 70 75 71 76 79 77
REMARK SMILES IDX 72 78 73 79 77 80 80 81 74 82 75 83 78 84 76 85 55 86 56 87
REMARK SMILES IDX 64 88 57 89 58 90 62 91 65 92 59 93 60 94 63 95 61 96
REMARK H PARENT 19 7 12 22 26 30 85 49 53 60
REMARK Flexibility Score: inf
ROOT
ATOM      1  C   UNL A   1      32.273  29.744  27.218  1.00  0.00     0.002 C 
ENDROOT
BRANCH   1   2
ATOM      2  C   UNL A   1      32.078  28.231  27.069  1.00  0.00     0.021 C 
BRANCH   2   3
ATOM      3  C   UNL A   1      33.279  27.441  26.556  1.00  0.00     0.116 C 
BRANCH   3   4
ATOM      4  N   UNL A   1      33.942  28.064  25.435  1.00  0.00    -0.354 N 
ATOM      5  C   UNL A   1      33.792  27.826  24.099  1.00  0.00     0.245 C 
ATOM      6  O   UNL A   1      34.408  28.569  23.327  1.00  0.00    -0.273 OA
ATOM      7  H   UNL A   1      34.597  28.761  25.667  1.00  0.00     0.163 HD
BRANCH   5   8
ATOM      8  C   UNL A   1      32.892  26.692  23.541  1.00  0.00     0.197 C 
BRANCH   8   9
ATOM      9  C   UNL A   1      33.613  25.558  22.767  1.00  0.00     0.017 C 
ATOM     10  C   UNL A   1      34.403  24.538  23.589  1.00  0.00     0.010 C 
ATOM     11  C   UNL A   1      32.685  24.834  21.787  1.00  0.00     0.010 C 
ENDBRANCH   8   9
BRANCH   8  12
ATOM     12  N   UNL A   1      31.773  27.319  22.808  1.00  0.00    -0.266 NA
ATOM     13  C   UNL A   1      30.589  27.237  23.283  1.00  0.00     0.153 C 
ATOM     14  C   UNL A   1      29.945  26.502  24.394  1.00  0.00     0.255 C 
ATOM     15  C   UNL A   1      29.259  27.818  22.783  1.00  0.00     0.314 C 
ATOM     16  O   UNL A   1      30.347  25.901  25.337  1.00  0.00    -0.283 OA
ATOM     17  C   UNL A   1      28.585  26.875  23.856  1.00  0.00     0.268 C 
ATOM     18  O   UNL A   1      27.510  26.516  24.251  1.00  0.00    -0.283 OA
BRANCH  15  19
ATOM     19  N   UNL A   1      29.027  29.271  22.984  1.00  0.00    -0.321 N 
ATOM     20  C   UNL A   1      27.622  29.655  22.772  1.00  0.00     0.263 C 
ATOM     21  C   UNL A   1      29.881  30.163  22.188  1.00  0.00     0.263 C 
ATOM     22  H   UNL A   1      29.284  29.403  23.962  1.00  0.00     0.349 HD
ATOM     23  C   UNL A   1      27.654  30.811  21.783  1.00  0.00     0.067 C 
ATOM     24  C   UNL A   1      29.033  31.403  21.985  1.00  0.00     0.067 C 
ENDBRANCH  15  19
ENDBRANCH   8  12
ENDBRANCH   5   8
ENDBRANCH   3   4
ENDBRANCH   2   3
ENDBRANCH   1   2
BRANCH   1  25
ATOM     25  C   UNL A   1      31.597  30.640  26.176  1.00  0.00     0.002 C 
BRANCH  25  26
ATOM     26  C   UNL A   1      31.399  32.112  26.544  1.00  0.00     0.021 C 
BRANCH  26  27
ATOM     27  C   UNL A   1      32.559  32.806  27.253  1.00  0.00     0.116 C 
BRANCH  27  28
ATOM     28  N   UNL A   1      32.281  34.180  27.627  1.00  0.00    -0.352 N 
ATOM     29  C   UNL A   1      32.949  34.990  28.515  1.00  0.00     0.251 C 
ATOM     30  H   UNL A   1      31.505  34.591  27.180  1.00  0.00     0.163 HD
ATOM     31  O   UNL A   1      32.528  36.119  28.751  1.00  0.00    -0.269 OA
BRANCH  29  32
ATOM     32  C   UNL A   1      34.149  34.498  29.231  1.00  0.00     0.039 A 
ATOM     33  C   UNL A   1      33.981  33.946  30.506  1.00  0.00     0.014 A 
ATOM     34  C   UNL A   1      35.429  34.584  28.674  1.00  0.00     0.014 A 
ATOM     35  C   UNL A   1      35.076  33.407  31.187  1.00  0.00     0.010 A 
ATOM     36  C   UNL A   1      36.518  34.018  29.341  1.00  0.00     0.010 A 
ATOM     37  C   UNL A   1      36.347  33.409  30.593  1.00  0.00    -0.014 A 
BRANCH  37  38
ATOM     38  C   UNL A   1      37.494  32.731  31.242  1.00  0.00     0.031 A 
ATOM     39  C   UNL A   1      38.194  31.591  30.567  1.00  0.00     0.074 A 
ATOM     40  C   UNL A   1      37.866  33.108  32.481  1.00  0.00     0.049 A 
ATOM     41  N   UNL A   1      39.142  30.815  31.032  1.00  0.00    -0.248 NA
ATOM     42  C   UNL A   1      37.769  31.273  29.197  1.00  0.00     0.031 C 
ATOM     43  C   UNL A   1      37.258  34.192  33.254  1.00  0.00     0.029 A 
ATOM     44  N   UNL A   1      38.835  32.606  33.313  1.00  0.00    -0.354 N 
ATOM     45  C   UNL A   1      39.410  29.904  30.023  1.00  0.00     0.074 A 
ATOM     46  C   UNL A   1      38.527  30.220  28.918  1.00  0.00     0.031 C 
ATOM     47  C   UNL A   1      37.871  34.276  34.447  1.00  0.00     0.029 A 
ATOM     48  C   UNL A   1      38.892  33.235  34.530  1.00  0.00     0.049 A 
ATOM     49  H   UNL A   1      39.432  31.865  33.060  1.00  0.00     0.167 HD
ATOM     50  C   UNL A   1      40.316  28.897  30.015  1.00  0.00     0.037 A 
ATOM     51  C   UNL A   1      39.665  32.989  35.604  1.00  0.00     0.037 A 
ATOM     52  C   UNL A   1      41.230  28.602  31.086  1.00  0.00     0.049 A 
ATOM     53  C   UNL A   1      40.644  31.854  35.576  1.00  0.00     0.074 A 
ATOM     54  C   UNL A   1      42.246  27.661  31.122  1.00  0.00     0.029 A 
ATOM     55  N   UNL A   1      41.235  29.244  32.313  1.00  0.00    -0.354 N 
ATOM     56  N   UNL A   1      40.907  31.016  34.606  1.00  0.00    -0.248 NA
ATOM     57  C   UNL A   1      41.422  31.621  36.803  1.00  0.00     0.031 C 
ATOM     58  C   UNL A   1      42.855  27.721  32.382  1.00  0.00     0.029 A 
ATOM     59  C   UNL A   1      42.221  28.704  33.124  1.00  0.00     0.049 A 
ATOM     60  H   UNL A   1      40.629  29.975  32.572  1.00  0.00     0.167 HD
ATOM     61  C   UNL A   1      41.878  30.158  35.098  1.00  0.00     0.074 A 
ATOM     62  C   UNL A   1      42.162  30.575  36.456  1.00  0.00     0.031 C 
ATOM     63  C   UNL A   1      42.481  29.117  34.476  1.00  0.00     0.037 A 
BRANCH  50  64
ATOM     64  C   UNL A   1      40.361  28.030  28.800  1.00  0.00     0.064 A 
ATOM     65  C   UNL A   1      41.124  28.388  27.681  1.00  0.00     0.173 A 
ATOM     66  C   UNL A   1      39.664  26.815  28.769  1.00  0.00     0.173 A 
ATOM     67  F   UNL A   1      41.798  29.548  27.666  1.00  0.00    -0.203 F 
ATOM     68  C   UNL A   1      41.183  27.557  26.565  1.00  0.00     0.198 A 
ATOM     69  C   UNL A   1      39.730  25.984  27.656  1.00  0.00     0.198 A 
ATOM     70  F   UNL A   1      38.918  26.439  29.819  1.00  0.00    -0.203 F 
ATOM     71  F   UNL A   1      41.907  27.921  25.498  1.00  0.00    -0.200 F 
ATOM     72  C   UNL A   1      40.489  26.356  26.555  1.00  0.00     0.200 A 
ATOM     73  F   UNL A   1      39.055  24.826  27.644  1.00  0.00    -0.200 F 
ATOM     74  F   UNL A   1      40.546  25.558  25.479  1.00  0.00    -0.200 F 
ENDBRANCH  50  64
BRANCH  51  75
ATOM     75  C   UNL A   1      39.522  33.831  36.812  1.00  0.00     0.064 A 
ATOM     76  C   UNL A   1      38.701  33.427  37.871  1.00  0.00     0.173 A 
ATOM     77  C   UNL A   1      40.216  35.041  36.935  1.00  0.00     0.173 A 
ATOM     78  F   UNL A   1      38.008  32.283  37.782  1.00  0.00    -0.203 F 
ATOM     79  C   UNL A   1      38.578  34.209  39.016  1.00  0.00     0.198 A 
ATOM     80  C   UNL A   1      40.098  35.818  38.083  1.00  0.00     0.198 A 
ATOM     81  F   UNL A   1      41.009  35.464  35.939  1.00  0.00    -0.203 F 
ATOM     82  F   UNL A   1      37.777  33.811  40.014  1.00  0.00    -0.200 F 
ATOM     83  C   UNL A   1      39.278  35.401  39.123  1.00  0.00     0.200 A 
ATOM     84  F   UNL A   1      40.775  36.970  38.184  1.00  0.00    -0.200 F 
ATOM     85  F   UNL A   1      39.160  36.153  40.226  1.00  0.00    -0.200 F 
ENDBRANCH  51  75
BRANCH  63  86
ATOM     86  C   UNL A   1      43.498  28.356  35.261  1.00  0.00     0.064 A 
ATOM     87  C   UNL A   1      43.127  27.247  36.032  1.00  0.00     0.173 A 
ATOM     88  C   UNL A   1      44.851  28.719  35.223  1.00  0.00     0.173 A 
ATOM     89  F   UNL A   1      41.840  26.878  36.108  1.00  0.00    -0.203 F 
ATOM     90  C   UNL A   1      44.080  26.526  36.746  1.00  0.00     0.198 A 
ATOM     91  C   UNL A   1      45.802  27.992  35.933  1.00  0.00     0.198 A 
ATOM     92  F   UNL A   1      45.246  29.779  34.503  1.00  0.00    -0.203 F 
ATOM     93  F   UNL A   1      43.706  25.478  37.493  1.00  0.00    -0.200 F 
ATOM     94  C   UNL A   1      45.417  26.897  36.693  1.00  0.00     0.200 A 
ATOM     95  F   UNL A   1      47.092  28.354  35.887  1.00  0.00    -0.200 F 
ATOM     96  F   UNL A   1      46.332  26.205  37.385  1.00  0.00    -0.200 F 
ENDBRANCH  63  86
ENDBRANCH  37  38
ENDBRANCH  29  32
ENDBRANCH  27  28
ENDBRANCH  26  27
ENDBRANCH  25  26
ENDBRANCH   1  25
TORSDOF 16
ENDMDL
MODEL 3
REMARK VINA RESULT:     -11.9      5.751     10.942
REMARK SMILES CC(C)[C@H](/N=C1\C(=O)C(=O)[C@H]1[NH+]1CCCC1)C(=O)NCCCCCCNC(=O)c1ccc(-c2c3nc(c(-c4c(F)c(F)c(F)c(F)c4F)c4ccc([nH]4)c(-c4c(F)c(F)c(F)c(F)c4F)c4nc(c(-c5c(F)c(F)c(F)c(F)c5F)c5ccc2[nH]5)C=C4)C=C3)cc1
REMARK SMILES IDX 22 1 21 2 20 3 19 4 17 5 18 6 4 8 2 9 1 10 3 11 5 12 6 13
REMARK SMILES IDX 7 14 11 15 8 16 9 17 10 18 12 19 13 20 16 21 14 23 15 24
REMARK SMILES IDX 23 25 24 26 25 27 26 28 27 29 28 31 29 32 30 33 91 34 31 35
REMARK SMILES IDX 90 36 32 37 33 38 34 39 84 40 35 41 89 42 83 43 85 44 36 45
REMARK SMILES IDX 88 46 82 47 81 48 37 50 69 51 49 52 68 53 50 54 53 55 67 56
REMARK SMILES IDX 86 57 51 58 52 59 66 61 87 62 54 63 38 64 39 65 47 66 40 67
REMARK SMILES IDX 41 68 45 69 48 70 42 71 43 72 46 73 44 74 70 75 71 76 79 77
REMARK SMILES IDX 72 78 73 79 77 80 80 81 74 82 75 83 78 84 76 85 55 86 56 87
REMARK SMILES IDX 64 88 57 89 58 90 62 91 65 92 59 93 60 94 63 95 61 96
REMARK H PARENT 19 7 12 22 26 30 85 49 53 60
REMARK Flexibility Score: inf
ROOT
ATOM      1  C   UNL A   1      37.430  22.230  24.941  1.00  0.00     0.002 C 
ENDROOT
BRANCH   1   2
ATOM      2  C   UNL A   1      36.687  23.328  24.172  1.00  0.00     0.021 C 
BRANCH   2   3
ATOM      3  C   UNL A   1      35.562  24.036  24.922  1.00  0.00     0.116 C 
BRANCH   3   4
ATOM      4  N   UNL A   1      35.422  23.605  26.293  1.00  0.00    -0.354 N 
ATOM      5  C   UNL A   1      34.334  23.080  26.928  1.00  0.00     0.245 C 
ATOM      6  O   UNL A   1      34.499  22.694  28.091  1.00  0.00    -0.273 OA
ATOM      7  H   UNL A   1      36.227  23.704  26.850  1.00  0.00     0.163 HD
BRANCH   5   8
ATOM      8  C   UNL A   1      32.944  22.951  26.252  1.00  0.00     0.197 C 
BRANCH   8   9
ATOM      9  C   UNL A   1      31.842  23.921  26.750  1.00  0.00     0.017 C 
ATOM     10  C   UNL A   1      31.862  25.349  26.201  1.00  0.00     0.010 C 
ATOM     11  C   UNL A   1      30.434  23.329  26.618  1.00  0.00     0.010 C 
ENDBRANCH   8   9
BRANCH   8  12
ATOM     12  N   UNL A   1      32.560  21.524  26.273  1.00  0.00    -0.266 NA
ATOM     13  C   UNL A   1      32.596  20.850  25.188  1.00  0.00     0.153 C 
ATOM     14  C   UNL A   1      32.800  21.162  23.755  1.00  0.00     0.255 C 
ATOM     15  C   UNL A   1      32.308  19.367  24.911  1.00  0.00     0.314 C 
ATOM     16  O   UNL A   1      33.198  22.110  23.160  1.00  0.00    -0.283 OA
ATOM     17  C   UNL A   1      32.344  19.772  23.384  1.00  0.00     0.268 C 
ATOM     18  O   UNL A   1      32.168  19.321  22.286  1.00  0.00    -0.283 OA
BRANCH  15  19
ATOM     19  N   UNL A   1      33.335  18.379  25.327  1.00  0.00    -0.321 N 
ATOM     20  C   UNL A   1      34.362  18.161  24.297  1.00  0.00     0.263 C 
ATOM     21  C   UNL A   1      32.817  17.073  25.756  1.00  0.00     0.263 C 
ATOM     22  H   UNL A   1      33.748  18.823  26.148  1.00  0.00     0.349 HD
ATOM     23  C   UNL A   1      34.430  16.654  24.093  1.00  0.00     0.067 C 
ATOM     24  C   UNL A   1      33.929  16.102  25.411  1.00  0.00     0.067 C 
ENDBRANCH  15  19
ENDBRANCH   8  12
ENDBRANCH   5   8
ENDBRANCH   3   4
ENDBRANCH   2   3
ENDBRANCH   1   2
BRANCH   1  25
ATOM     25  C   UNL A   1      36.968  20.787  24.717  1.00  0.00     0.002 C 
BRANCH  25  26
ATOM     26  C   UNL A   1      37.970  19.675  25.038  1.00  0.00     0.021 C 
BRANCH  26  27
ATOM     27  C   UNL A   1      39.256  20.092  25.749  1.00  0.00     0.116 C 
BRANCH  27  28
ATOM     28  N   UNL A   1      40.261  19.047  25.803  1.00  0.00    -0.352 N 
ATOM     29  C   UNL A   1      41.598  19.144  26.110  1.00  0.00     0.251 C 
ATOM     30  H   UNL A   1      39.940  18.140  25.591  1.00  0.00     0.163 HD
ATOM     31  O   UNL A   1      42.315  18.151  26.046  1.00  0.00    -0.269 OA
BRANCH  29  32
ATOM     32  C   UNL A   1      42.196  20.450  26.474  1.00  0.00     0.039 A 
ATOM     33  C   UNL A   1      42.757  21.229  25.456  1.00  0.00     0.014 A 
ATOM     34  C   UNL A   1      42.223  20.908  27.796  1.00  0.00     0.014 A 
ATOM     35  C   UNL A   1      43.270  22.497  25.744  1.00  0.00     0.010 A 
ATOM     36  C   UNL A   1      42.707  22.188  28.079  1.00  0.00     0.010 A 
ATOM     37  C   UNL A   1      43.217  22.998  27.053  1.00  0.00    -0.014 A 
BRANCH  37  38
ATOM     38  C   UNL A   1      43.638  24.387  27.357  1.00  0.00     0.031 A 
ATOM     39  C   UNL A   1      42.652  25.395  27.863  1.00  0.00     0.074 A 
ATOM     40  C   UNL A   1      44.910  24.757  27.112  1.00  0.00     0.049 A 
ATOM     41  N   UNL A   1      42.820  26.676  28.077  1.00  0.00    -0.248 NA
ATOM     42  C   UNL A   1      41.298  24.905  28.157  1.00  0.00     0.031 C 
ATOM     43  C   UNL A   1      45.964  23.877  26.605  1.00  0.00     0.029 A 
ATOM     44  N   UNL A   1      45.525  25.977  27.241  1.00  0.00    -0.354 N 
ATOM     45  C   UNL A   1      41.591  27.150  28.508  1.00  0.00     0.074 A 
ATOM     46  C   UNL A   1      40.683  26.021  28.526  1.00  0.00     0.031 C 
ATOM     47  C   UNL A   1      47.098  24.586  26.470  1.00  0.00     0.029 A 
ATOM     48  C   UNL A   1      46.840  25.971  26.852  1.00  0.00     0.049 A 
ATOM     49  H   UNL A   1      45.065  26.779  27.581  1.00  0.00     0.167 HD
ATOM     50  C   UNL A   1      41.252  28.413  28.862  1.00  0.00     0.037 A 
ATOM     51  C   UNL A   1      47.735  26.974  26.790  1.00  0.00     0.037 A 
ATOM     52  C   UNL A   1      42.154  29.532  28.892  1.00  0.00     0.049 A 
ATOM     53  C   UNL A   1      47.326  28.366  27.168  1.00  0.00     0.074 A 
ATOM     54  C   UNL A   1      41.916  30.823  29.331  1.00  0.00     0.029 A 
ATOM     55  N   UNL A   1      43.470  29.491  28.463  1.00  0.00    -0.354 N 
ATOM     56  N   UNL A   1      46.168  28.796  27.598  1.00  0.00    -0.248 NA
ATOM     57  C   UNL A   1      48.347  29.416  27.032  1.00  0.00     0.031 C 
ATOM     58  C   UNL A   1      43.087  31.571  29.149  1.00  0.00     0.029 A 
ATOM     59  C   UNL A   1      44.052  30.741  28.603  1.00  0.00     0.049 A 
ATOM     60  H   UNL A   1      43.926  28.692  28.111  1.00  0.00     0.167 HD
ATOM     61  C   UNL A   1      46.316  30.161  27.787  1.00  0.00     0.074 A 
ATOM     62  C   UNL A   1      47.679  30.493  27.426  1.00  0.00     0.031 C 
ATOM     63  C   UNL A   1      45.401  31.059  28.224  1.00  0.00     0.037 A 
BRANCH  50  64
ATOM     64  C   UNL A   1      39.829  28.653  29.246  1.00  0.00     0.064 A 
ATOM     65  C   UNL A   1      39.383  28.436  30.557  1.00  0.00     0.173 A 
ATOM     66  C   UNL A   1      38.912  29.138  28.304  1.00  0.00     0.173 A 
ATOM     67  F   UNL A   1      40.227  27.962  31.486  1.00  0.00    -0.203 F 
ATOM     68  C   UNL A   1      38.062  28.692  30.910  1.00  0.00     0.198 A 
ATOM     69  C   UNL A   1      37.593  29.399  28.662  1.00  0.00     0.198 A 
ATOM     70  F   UNL A   1      39.297  29.354  27.037  1.00  0.00    -0.203 F 
ATOM     71  F   UNL A   1      37.649  28.467  32.165  1.00  0.00    -0.200 F 
ATOM     72  C   UNL A   1      37.169  29.177  29.964  1.00  0.00     0.200 A 
ATOM     73  F   UNL A   1      36.730  29.862  27.747  1.00  0.00    -0.200 F 
ATOM     74  F   UNL A   1      35.897  29.421  30.307  1.00  0.00    -0.200 F 
ENDBRANCH  50  64
BRANCH  51  75
ATOM     75  C   UNL A   1      49.112  26.694  26.326  1.00  0.00     0.064 A 
ATOM     76  C   UNL A   1      49.461  26.868  24.982  1.00  0.00     0.173 A 
ATOM     77  C   UNL A   1      50.101  26.265  27.219  1.00  0.00     0.173 A 
ATOM     78  F   UNL A   1      48.536  27.262  24.095  1.00  0.00    -0.203 F 
ATOM     79  C   UNL A   1      50.760  26.622  24.545  1.00  0.00     0.198 A 
ATOM     80  C   UNL A   1      51.401  26.026  26.782  1.00  0.00     0.198 A 
ATOM     81  F   UNL A   1      49.803  26.082  28.514  1.00  0.00    -0.203 F 
ATOM     82  F   UNL A   1      51.072  26.783  23.252  1.00  0.00    -0.200 F 
ATOM     83  C   UNL A   1      51.729  26.204  25.446  1.00  0.00     0.200 A 
ATOM     84  F   UNL A   1      52.335  25.622  27.654  1.00  0.00    -0.200 F 
ATOM     85  F   UNL A   1      52.980  25.967  25.025  1.00  0.00    -0.200 F 
ENDBRANCH  51  75
BRANCH  63  86
ATOM     86  C   UNL A   1      45.843  32.483  28.326  1.00  0.00     0.064 A 
ATOM     87  C   UNL A   1      46.451  32.963  29.493  1.00  0.00     0.173 A 
ATOM     88  C   UNL A   1      45.683  33.362  27.247  1.00  0.00     0.173 A 
ATOM     89  F   UNL A   1      46.607  32.158  30.554  1.00  0.00    -0.203 F 
ATOM     90  C   UNL A   1      46.881  34.285  29.578  1.00  0.00     0.198 A 
ATOM     91  C   UNL A   1      46.120  34.680  27.334  1.00  0.00     0.198 A 
ATOM     92  F   UNL A   1      45.098  32.942  26.116  1.00  0.00    -0.203 F 
ATOM     93  F   UNL A   1      47.445  34.733  30.708  1.00  0.00    -0.200 F 
ATOM     94  C   UNL A   1      46.718  35.141  28.498  1.00  0.00     0.200 A 
ATOM     95  F   UNL A   1      45.956  35.509  26.293  1.00  0.00    -0.200 F 
ATOM     96  F   UNL A   1      47.128  36.413  28.583  1.00  0.00    -0.200 F 
ENDBRANCH  63  86
ENDBRANCH  37  38
ENDBRANCH  29  32
ENDBRANCH  27  28
ENDBRANCH  26  27
ENDBRANCH  25  26
ENDBRANCH   1  25
TORSDOF 16
ENDMDL
