MODEL 1
REMARK VINA RESULT:     -13.1      0.000      0.000
REMARK SMILES Cc1ccc(-n2nc(C(=O)NCCCCCCNC(=O)c3ccc(-c4c5nc(c(-c6c(F)c(F)c(F)c(F)c6F)c6ccc([nH]6)c(-c6c(F)c(F)c(F)c(F)c6F)c6nc(c(-c7c(F)c(F)c(F)c(F)c7F)c7ccc4[nH]7)C=C6)C=C5)cc3)c(C)c(C#N)c2=O)cc1Cl
REMARK SMILES IDX 15 1 14 2 13 3 12 4 11 5 9 6 10 7 8 9 6 10 7 11 89 12 86 13
REMARK SMILES IDX 90 14 84 15 85 16 5 17 1 18 2 19 3 20 92 21 4 22 91 23 93 24
REMARK SMILES IDX 87 25 88 26 16 27 17 28 18 29 19 30 20 32 21 33 22 34 83 35
REMARK SMILES IDX 23 36 82 37 24 38 25 39 26 40 76 41 27 42 81 43 75 44 77 45
REMARK SMILES IDX 28 46 80 47 74 48 73 49 29 51 61 52 41 53 60 54 42 55 45 56
REMARK SMILES IDX 59 57 78 58 43 59 44 60 58 62 79 63 46 64 30 65 31 66 39 67
REMARK SMILES IDX 32 68 33 69 37 70 40 71 34 72 35 73 38 74 36 75 62 76 63 77
REMARK SMILES IDX 71 78 64 79 65 80 69 81 72 82 66 83 67 84 70 85 68 86 47 87
REMARK SMILES IDX 48 88 56 89 49 90 50 91 54 92 57 93 51 94 52 95 55 96 53 97
REMARK H PARENT 11 8 18 31 77 50 45 61
REMARK Flexibility Score: inf
ROOT
ATOM      1  C   UNL A   1      31.461  30.859  26.145  1.00  0.00     0.002 C 
ENDROOT
BRANCH   1   2
ATOM      2  C   UNL A   1      32.348  29.995  27.053  1.00  0.00     0.002 C 
BRANCH   2   3
ATOM      3  C   UNL A   1      31.661  28.742  27.598  1.00  0.00     0.021 C 
BRANCH   3   4
ATOM      4  C   UNL A   1      32.225  27.474  26.970  1.00  0.00     0.116 C 
BRANCH   4   5
ATOM      5  N   UNL A   1      31.256  26.431  26.865  1.00  0.00    -0.351 N 
ATOM      6  C   UNL A   1      31.104  25.288  26.143  1.00  0.00     0.272 C 
ATOM      7  O   UNL A   1      30.302  24.506  26.672  1.00  0.00    -0.267 OA
ATOM      8  H   UNL A   1      30.498  26.578  27.475  1.00  0.00     0.163 HD
BRANCH   6   9
ATOM      9  C   UNL A   1      31.721  24.841  24.787  1.00  0.00     0.153 A 
ATOM     10  N   UNL A   1      32.775  22.978  23.902  1.00  0.00    -0.195 N 
ATOM     11  N   UNL A   1      32.089  23.591  24.891  1.00  0.00    -0.159 NA
ATOM     12  C   UNL A   1      33.043  23.548  22.677  1.00  0.00     0.289 A 
ATOM     13  C   UNL A   1      32.525  24.915  22.500  1.00  0.00     0.124 A 
ATOM     14  O   UNL A   1      33.644  23.003  21.752  1.00  0.00    -0.266 OA
ATOM     15  C   UNL A   1      31.936  25.608  23.501  1.00  0.00     0.006 A 
ATOM     16  C   UNL A   1      31.553  27.027  23.240  1.00  0.00     0.048 C 
BRANCH  10  17
ATOM     17  C   UNL A   1      33.287  21.700  24.234  1.00  0.00     0.070 A 
ATOM     18  C   UNL A   1      35.166  17.850  24.647  1.00  0.00     0.046 C 
ATOM     19  C   UNL A   1      34.462  19.174  24.574  1.00  0.00    -0.032 A 
ATOM     20  C   UNL A   1      35.190  20.335  24.855  1.00  0.00     0.007 A 
ATOM     21  C   UNL A   1      33.117  19.295  24.183  1.00  0.00     0.046 A 
ATOM     22  C   UNL A   1      34.609  21.585  24.673  1.00  0.00     0.029 A 
ATOM     23  C   UNL A   1      32.516  20.551  24.051  1.00  0.00     0.049 A 
ATOM     24  Cl  UNL A   1      32.174  17.902  23.779  1.00  0.00    -0.084 Cl
ENDBRANCH  10  17
BRANCH  13  25
ATOM     25  C   UNL A   1      32.722  25.455  21.191  1.00  0.00     0.105 C 
ATOM     26  N   UNL A   1      32.959  25.889  20.144  1.00  0.00    -0.192 NA
ENDBRANCH  13  25
ENDBRANCH   6   9
ENDBRANCH   4   5
ENDBRANCH   3   4
ENDBRANCH   2   3
ENDBRANCH   1   2
BRANCH   1  27
ATOM     27  C   UNL A   1      31.362  32.328  26.557  1.00  0.00     0.021 C 
BRANCH  27  28
ATOM     28  C   UNL A   1      32.619  32.860  27.232  1.00  0.00     0.116 C 
BRANCH  28  29
ATOM     29  N   UNL A   1      32.466  34.253  27.624  1.00  0.00    -0.352 N 
ATOM     30  C   UNL A   1      33.035  34.933  28.667  1.00  0.00     0.251 C 
ATOM     31  H   UNL A   1      31.862  34.785  27.056  1.00  0.00     0.163 HD
ATOM     32  O   UNL A   1      32.595  36.025  29.012  1.00  0.00    -0.269 OA
BRANCH  30  33
ATOM     33  C   UNL A   1      34.182  34.338  29.376  1.00  0.00     0.039 A 
ATOM     34  C   UNL A   1      33.943  33.514  30.477  1.00  0.00     0.014 A 
ATOM     35  C   UNL A   1      35.488  34.604  28.955  1.00  0.00     0.014 A 
ATOM     36  C   UNL A   1      35.021  32.916  31.129  1.00  0.00     0.010 A 
ATOM     37  C   UNL A   1      36.552  33.939  29.549  1.00  0.00     0.010 A 
ATOM     38  C   UNL A   1      36.329  33.103  30.651  1.00  0.00    -0.014 A 
BRANCH  38  39
ATOM     39  C   UNL A   1      37.479  32.446  31.314  1.00  0.00     0.031 A 
ATOM     40  C   UNL A   1      38.199  31.321  30.627  1.00  0.00     0.074 A 
ATOM     41  C   UNL A   1      37.849  32.838  32.547  1.00  0.00     0.049 A 
ATOM     42  N   UNL A   1      39.209  30.607  31.051  1.00  0.00    -0.248 NA
ATOM     43  C   UNL A   1      37.705  30.930  29.297  1.00  0.00     0.031 C 
ATOM     44  C   UNL A   1      37.197  33.892  33.324  1.00  0.00     0.029 A 
ATOM     45  N   UNL A   1      38.858  32.397  33.364  1.00  0.00    -0.354 N 
ATOM     46  C   UNL A   1      39.465  29.684  30.047  1.00  0.00     0.074 A 
ATOM     47  C   UNL A   1      38.467  29.883  29.021  1.00  0.00     0.031 C 
ATOM     48  C   UNL A   1      37.843  34.040  34.490  1.00  0.00     0.029 A 
ATOM     49  C   UNL A   1      38.924  33.061  34.563  1.00  0.00     0.049 A 
ATOM     50  H   UNL A   1      39.477  31.673  33.114  1.00  0.00     0.167 HD
ATOM     51  C   UNL A   1      40.463  28.772  29.977  1.00  0.00     0.037 A 
ATOM     52  C   UNL A   1      39.759  32.896  35.608  1.00  0.00     0.037 A 
ATOM     53  C   UNL A   1      41.462  28.596  30.997  1.00  0.00     0.049 A 
ATOM     54  C   UNL A   1      40.843  31.857  35.519  1.00  0.00     0.074 A 
ATOM     55  C   UNL A   1      42.549  27.741  30.995  1.00  0.00     0.029 A 
ATOM     56  N   UNL A   1      41.490  29.278  32.206  1.00  0.00    -0.354 N 
ATOM     57  N   UNL A   1      41.125  31.040  34.533  1.00  0.00    -0.248 NA
ATOM     58  C   UNL A   1      41.728  31.719  36.683  1.00  0.00     0.031 C 
ATOM     59  C   UNL A   1      43.191  27.851  32.231  1.00  0.00     0.029 A 
ATOM     60  C   UNL A   1      42.552  28.831  32.975  1.00  0.00     0.049 A 
ATOM     61  H   UNL A   1      40.850  29.976  32.475  1.00  0.00     0.167 HD
ATOM     62  C   UNL A   1      42.228  30.305  34.946  1.00  0.00     0.074 A 
ATOM     63  C   UNL A   1      42.576  30.788  36.267  1.00  0.00     0.031 C 
ATOM     64  C   UNL A   1      42.886  29.318  34.291  1.00  0.00     0.037 A 
BRANCH  51  65
ATOM     65  C   UNL A   1      40.525  27.892  28.762  1.00  0.00     0.064 A 
ATOM     66  C   UNL A   1      39.817  26.682  28.688  1.00  0.00     0.173 A 
ATOM     67  C   UNL A   1      41.259  28.289  27.633  1.00  0.00     0.173 A 
ATOM     68  F   UNL A   1      39.109  26.247  29.742  1.00  0.00    -0.203 F 
ATOM     69  C   UNL A   1      39.860  25.893  27.541  1.00  0.00     0.198 A 
ATOM     70  C   UNL A   1      41.270  27.516  26.475  1.00  0.00     0.198 A 
ATOM     71  F   UNL A   1      41.953  29.437  27.647  1.00  0.00    -0.203 F 
ATOM     72  F   UNL A   1      39.215  24.719  27.513  1.00  0.00    -0.200 F 
ATOM     73  C   UNL A   1      40.577  26.316  26.432  1.00  0.00     0.200 A 
ATOM     74  F   UNL A   1      41.950  27.936  25.399  1.00  0.00    -0.200 F 
ATOM     75  F   UNL A   1      40.604  25.565  25.323  1.00  0.00    -0.200 F 
ENDBRANCH  51  65
BRANCH  52  76
ATOM     76  C   UNL A   1      39.606  33.763  36.806  1.00  0.00     0.064 A 
ATOM     77  C   UNL A   1      40.234  35.013  36.876  1.00  0.00     0.173 A 
ATOM     78  C   UNL A   1      38.782  33.385  37.877  1.00  0.00     0.173 A 
ATOM     79  F   UNL A   1      41.046  35.412  35.887  1.00  0.00    -0.203 F 
ATOM     80  C   UNL A   1      40.044  35.853  37.973  1.00  0.00     0.198 A 
ATOM     81  C   UNL A   1      38.568  34.239  38.957  1.00  0.00     0.198 A 
ATOM     82  F   UNL A   1      38.150  32.202  37.855  1.00  0.00    -0.203 F 
ATOM     83  F   UNL A   1      40.676  37.034  38.027  1.00  0.00    -0.200 F 
ATOM     84  C   UNL A   1      39.201  35.470  39.006  1.00  0.00     0.200 A 
ATOM     85  F   UNL A   1      37.734  33.874  39.941  1.00  0.00    -0.200 F 
ATOM     86  F   UNL A   1      38.998  36.290  40.046  1.00  0.00    -0.200 F 
ENDBRANCH  52  76
BRANCH  64  87
ATOM     87  C   UNL A   1      44.064  28.686  34.980  1.00  0.00     0.064 A 
ATOM     88  C   UNL A   1      45.349  29.238  34.891  1.00  0.00     0.173 A 
ATOM     89  C   UNL A   1      43.886  27.569  35.811  1.00  0.00     0.173 A 
ATOM     90  F   UNL A   1      45.575  30.300  34.102  1.00  0.00    -0.203 F 
ATOM     91  C   UNL A   1      46.416  28.688  35.597  1.00  0.00     0.198 A 
ATOM     92  C   UNL A   1      44.946  27.043  36.545  1.00  0.00     0.198 A 
ATOM     93  F   UNL A   1      42.675  27.007  35.942  1.00  0.00    -0.203 F 
ATOM     94  F   UNL A   1      47.643  29.210  35.467  1.00  0.00    -0.200 F 
ATOM     95  C   UNL A   1      46.211  27.600  36.433  1.00  0.00     0.200 A 
ATOM     96  F   UNL A   1      44.741  26.008  37.369  1.00  0.00    -0.200 F 
ATOM     97  F   UNL A   1      47.234  27.087  37.130  1.00  0.00    -0.200 F 
ENDBRANCH  64  87
ENDBRANCH  38  39
ENDBRANCH  30  33
ENDBRANCH  28  29
ENDBRANCH  27  28
ENDBRANCH   1  27
TORSDOF 15
ENDMDL
MODEL 2
REMARK VINA RESULT:     -13.0      1.111      2.333
REMARK SMILES Cc1ccc(-n2nc(C(=O)NCCCCCCNC(=O)c3ccc(-c4c5nc(c(-c6c(F)c(F)c(F)c(F)c6F)c6ccc([nH]6)c(-c6c(F)c(F)c(F)c(F)c6F)c6nc(c(-c7c(F)c(F)c(F)c(F)c7F)c7ccc4[nH]7)C=C6)C=C5)cc3)c(C)c(C#N)c2=O)cc1Cl
REMARK SMILES IDX 15 1 14 2 13 3 12 4 11 5 9 6 10 7 8 9 6 10 7 11 89 12 86 13
REMARK SMILES IDX 90 14 84 15 85 16 5 17 1 18 2 19 3 20 92 21 4 22 91 23 93 24
REMARK SMILES IDX 87 25 88 26 16 27 17 28 18 29 19 30 20 32 21 33 22 34 83 35
REMARK SMILES IDX 23 36 82 37 24 38 25 39 26 40 76 41 27 42 81 43 75 44 77 45
REMARK SMILES IDX 28 46 80 47 74 48 73 49 29 51 61 52 41 53 60 54 42 55 45 56
REMARK SMILES IDX 59 57 78 58 43 59 44 60 58 62 79 63 46 64 30 65 31 66 39 67
REMARK SMILES IDX 32 68 33 69 37 70 40 71 34 72 35 73 38 74 36 75 62 76 63 77
REMARK SMILES IDX 71 78 64 79 65 80 69 81 72 82 66 83 67 84 70 85 68 86 47 87
REMARK SMILES IDX 48 88 56 89 49 90 50 91 54 92 57 93 51 94 52 95 55 96 53 97
REMARK H PARENT 11 8 18 31 77 50 45 61
REMARK Flexibility Score: inf
ROOT
ATOM      1  C   UNL A   1      31.523  30.820  26.165  1.00  0.00     0.002 C 
ENDROOT
BRANCH   1   2
ATOM      2  C   UNL A   1      32.623  30.021  26.880  1.00  0.00     0.002 C 
BRANCH   2   3
ATOM      3  C   UNL A   1      32.158  28.680  27.451  1.00  0.00     0.021 C 
BRANCH   3   4
ATOM      4  C   UNL A   1      31.229  27.952  26.490  1.00  0.00     0.116 C 
BRANCH   4   5
ATOM      5  N   UNL A   1      31.093  26.565  26.798  1.00  0.00    -0.351 N 
ATOM      6  C   UNL A   1      31.664  25.398  26.393  1.00  0.00     0.272 C 
ATOM      7  O   UNL A   1      31.503  24.489  27.219  1.00  0.00    -0.267 OA
ATOM      8  H   UNL A   1      30.404  26.412  27.484  1.00  0.00     0.163 HD
BRANCH   6   9
ATOM      9  C   UNL A   1      32.420  25.025  25.086  1.00  0.00     0.153 A 
ATOM     10  N   UNL A   1      34.328  23.866  24.468  1.00  0.00    -0.195 N 
ATOM     11  N   UNL A   1      33.421  24.242  25.395  1.00  0.00    -0.159 NA
ATOM     12  C   UNL A   1      34.231  24.158  23.125  1.00  0.00     0.289 A 
ATOM     13  C   UNL A   1      33.041  24.936  22.743  1.00  0.00     0.124 A 
ATOM     14  O   UNL A   1      35.030  23.806  22.259  1.00  0.00    -0.266 OA
ATOM     15  C   UNL A   1      32.169  25.432  23.651  1.00  0.00     0.006 A 
ATOM     16  C   UNL A   1      31.063  26.303  23.157  1.00  0.00     0.048 C 
BRANCH  10  17
ATOM     17  C   UNL A   1      35.464  23.195  24.983  1.00  0.00     0.070 A 
ATOM     18  C   UNL A   1      39.228  21.359  25.979  1.00  0.00     0.046 C 
ATOM     19  C   UNL A   1      37.879  21.957  25.701  1.00  0.00    -0.032 A 
ATOM     20  C   UNL A   1      37.703  23.330  25.900  1.00  0.00     0.007 A 
ATOM     21  C   UNL A   1      36.805  21.202  25.198  1.00  0.00     0.046 A 
ATOM     22  C   UNL A   1      36.511  23.943  25.531  1.00  0.00     0.029 A 
ATOM     23  C   UNL A   1      35.586  21.809  24.877  1.00  0.00     0.049 A 
ATOM     24  Cl  UNL A   1      36.970  19.508  24.887  1.00  0.00    -0.084 Cl
ENDBRANCH  10  17
BRANCH  13  25
ATOM     25  C   UNL A   1      32.900  25.145  21.336  1.00  0.00     0.105 C 
ATOM     26  N   UNL A   1      32.846  25.264  20.186  1.00  0.00    -0.192 NA
ENDBRANCH  13  25
ENDBRANCH   6   9
ENDBRANCH   4   5
ENDBRANCH   3   4
ENDBRANCH   2   3
ENDBRANCH   1   2
BRANCH   1  27
ATOM     27  C   UNL A   1      31.381  32.270  26.628  1.00  0.00     0.021 C 
BRANCH  27  28
ATOM     28  C   UNL A   1      32.628  32.820  27.307  1.00  0.00     0.116 C 
BRANCH  28  29
ATOM     29  N   UNL A   1      32.474  34.227  27.649  1.00  0.00    -0.352 N 
ATOM     30  C   UNL A   1      33.031  34.941  28.674  1.00  0.00     0.251 C 
ATOM     31  H   UNL A   1      31.879  34.739  27.054  1.00  0.00     0.163 HD
ATOM     32  O   UNL A   1      32.591  36.046  28.975  1.00  0.00    -0.269 OA
BRANCH  30  33
ATOM     33  C   UNL A   1      34.167  34.368  29.418  1.00  0.00     0.039 A 
ATOM     34  C   UNL A   1      33.920  33.682  30.608  1.00  0.00     0.014 A 
ATOM     35  C   UNL A   1      35.473  34.520  28.942  1.00  0.00     0.014 A 
ATOM     36  C   UNL A   1      34.985  33.104  31.297  1.00  0.00     0.010 A 
ATOM     37  C   UNL A   1      36.519  33.870  29.581  1.00  0.00     0.010 A 
ATOM     38  C   UNL A   1      36.287  33.171  30.773  1.00  0.00    -0.014 A 
BRANCH  38  39
ATOM     39  C   UNL A   1      37.422  32.531  31.478  1.00  0.00     0.031 A 
ATOM     40  C   UNL A   1      38.136  31.370  30.850  1.00  0.00     0.074 A 
ATOM     41  C   UNL A   1      37.781  32.974  32.698  1.00  0.00     0.049 A 
ATOM     42  N   UNL A   1      39.134  30.664  31.318  1.00  0.00    -0.248 NA
ATOM     43  C   UNL A   1      37.654  30.926  29.533  1.00  0.00     0.031 C 
ATOM     44  C   UNL A   1      37.132  34.068  33.419  1.00  0.00     0.029 A 
ATOM     45  N   UNL A   1      38.775  32.559  33.545  1.00  0.00    -0.354 N 
ATOM     46  C   UNL A   1      39.391  29.695  30.358  1.00  0.00     0.074 A 
ATOM     47  C   UNL A   1      38.407  29.860  29.313  1.00  0.00     0.031 C 
ATOM     48  C   UNL A   1      37.766  34.261  34.585  1.00  0.00     0.029 A 
ATOM     49  C   UNL A   1      38.835  33.274  34.715  1.00  0.00     0.049 A 
ATOM     50  H   UNL A   1      39.389  31.818  33.335  1.00  0.00     0.167 HD
ATOM     51  C   UNL A   1      40.380  28.771  30.341  1.00  0.00     0.037 A 
ATOM     52  C   UNL A   1      39.656  33.147  35.776  1.00  0.00     0.037 A 
ATOM     53  C   UNL A   1      41.365  28.629  31.381  1.00  0.00     0.049 A 
ATOM     54  C   UNL A   1      40.729  32.093  35.747  1.00  0.00     0.074 A 
ATOM     55  C   UNL A   1      42.442  27.764  31.430  1.00  0.00     0.029 A 
ATOM     56  N   UNL A   1      41.385  29.364  32.558  1.00  0.00    -0.354 N 
ATOM     57  N   UNL A   1      41.013  31.231  34.801  1.00  0.00    -0.248 NA
ATOM     58  C   UNL A   1      41.599  31.998  36.926  1.00  0.00     0.031 C 
ATOM     59  C   UNL A   1      43.071  27.921  32.667  1.00  0.00     0.029 A 
ATOM     60  C   UNL A   1      42.434  28.940  33.359  1.00  0.00     0.049 A 
ATOM     61  H   UNL A   1      40.751  30.080  32.789  1.00  0.00     0.167 HD
ATOM     62  C   UNL A   1      42.103  30.503  35.260  1.00  0.00     0.074 A 
ATOM     63  C   UNL A   1      42.441  31.040  36.562  1.00  0.00     0.031 C 
ATOM     64  C   UNL A   1      42.758  29.481  34.657  1.00  0.00     0.037 A 
BRANCH  51  65
ATOM     65  C   UNL A   1      40.446  27.837  29.167  1.00  0.00     0.064 A 
ATOM     66  C   UNL A   1      41.283  28.089  28.068  1.00  0.00     0.173 A 
ATOM     67  C   UNL A   1      39.706  26.645  29.164  1.00  0.00     0.173 A 
ATOM     68  F   UNL A   1      42.004  29.220  28.012  1.00  0.00    -0.203 F 
ATOM     69  C   UNL A   1      41.357  27.196  27.002  1.00  0.00     0.198 A 
ATOM     70  C   UNL A   1      39.811  25.737  28.114  1.00  0.00     0.198 A 
ATOM     71  F   UNL A   1      38.892  26.352  30.190  1.00  0.00    -0.203 F 
ATOM     72  F   UNL A   1      42.126  27.483  25.942  1.00  0.00    -0.200 F 
ATOM     73  C   UNL A   1      40.630  26.016  27.031  1.00  0.00     0.200 A 
ATOM     74  F   UNL A   1      39.120  24.589  28.153  1.00  0.00    -0.200 F 
ATOM     75  F   UNL A   1      40.715  25.149  26.013  1.00  0.00    -0.200 F 
ENDBRANCH  51  65
BRANCH  52  76
ATOM     76  C   UNL A   1      39.498  34.067  36.933  1.00  0.00     0.064 A 
ATOM     77  C   UNL A   1      38.752  33.691  38.057  1.00  0.00     0.173 A 
ATOM     78  C   UNL A   1      40.137  35.316  36.961  1.00  0.00     0.173 A 
ATOM     79  F   UNL A   1      38.107  32.516  38.071  1.00  0.00    -0.203 F 
ATOM     80  C   UNL A   1      38.652  34.529  39.167  1.00  0.00     0.198 A 
ATOM     81  C   UNL A   1      40.062  36.139  38.084  1.00  0.00     0.198 A 
ATOM     82  F   UNL A   1      40.871  35.720  35.913  1.00  0.00    -0.203 F 
ATOM     83  F   UNL A   1      37.912  34.156  40.220  1.00  0.00    -0.200 F 
ATOM     84  C   UNL A   1      39.317  35.746  39.184  1.00  0.00     0.200 A 
ATOM     85  F   UNL A   1      40.726  37.302  38.103  1.00  0.00    -0.200 F 
ATOM     86  F   UNL A   1      39.243  36.537  40.262  1.00  0.00    -0.200 F 
ENDBRANCH  52  76
BRANCH  64  87
ATOM     87  C   UNL A   1      43.920  28.868  35.387  1.00  0.00     0.064 A 
ATOM     88  C   UNL A   1      43.745  27.805  36.284  1.00  0.00     0.173 A 
ATOM     89  C   UNL A   1      45.232  29.288  35.116  1.00  0.00     0.173 A 
ATOM     90  F   UNL A   1      42.511  27.372  36.587  1.00  0.00    -0.203 F 
ATOM     91  C   UNL A   1      44.839  27.195  36.894  1.00  0.00     0.198 A 
ATOM     92  C   UNL A   1      46.325  28.652  35.698  1.00  0.00     0.198 A 
ATOM     93  F   UNL A   1      45.458  30.293  34.257  1.00  0.00    -0.203 F 
ATOM     94  F   UNL A   1      44.645  26.206  37.777  1.00  0.00    -0.200 F 
ATOM     95  C   UNL A   1      46.127  27.610  36.591  1.00  0.00     0.200 A 
ATOM     96  F   UNL A   1      47.569  29.039  35.386  1.00  0.00    -0.200 F 
ATOM     97  F   UNL A   1      47.179  27.005  37.160  1.00  0.00    -0.200 F 
ENDBRANCH  64  87
ENDBRANCH  38  39
ENDBRANCH  30  33
ENDBRANCH  28  29
ENDBRANCH  27  28
ENDBRANCH   1  27
TORSDOF 15
ENDMDL
MODEL 3
REMARK VINA RESULT:     -13.0      2.324      7.754
REMARK SMILES Cc1ccc(-n2nc(C(=O)NCCCCCCNC(=O)c3ccc(-c4c5nc(c(-c6c(F)c(F)c(F)c(F)c6F)c6ccc([nH]6)c(-c6c(F)c(F)c(F)c(F)c6F)c6nc(c(-c7c(F)c(F)c(F)c(F)c7F)c7ccc4[nH]7)C=C6)C=C5)cc3)c(C)c(C#N)c2=O)cc1Cl
REMARK SMILES IDX 15 1 14 2 13 3 12 4 11 5 9 6 10 7 8 9 6 10 7 11 89 12 86 13
REMARK SMILES IDX 90 14 84 15 85 16 5 17 1 18 2 19 3 20 92 21 4 22 91 23 93 24
REMARK SMILES IDX 87 25 88 26 16 27 17 28 18 29 19 30 20 32 21 33 22 34 83 35
REMARK SMILES IDX 23 36 82 37 24 38 25 39 26 40 76 41 27 42 81 43 75 44 77 45
REMARK SMILES IDX 28 46 80 47 74 48 73 49 29 51 61 52 41 53 60 54 42 55 45 56
REMARK SMILES IDX 59 57 78 58 43 59 44 60 58 62 79 63 46 64 30 65 31 66 39 67
REMARK SMILES IDX 32 68 33 69 37 70 40 71 34 72 35 73 38 74 36 75 62 76 63 77
REMARK SMILES IDX 71 78 64 79 65 80 69 81 72 82 66 83 67 84 70 85 68 86 47 87
REMARK SMILES IDX 48 88 56 89 49 90 50 91 54 92 57 93 51 94 52 95 55 96 53 97
REMARK H PARENT 11 8 18 31 77 50 45 61
REMARK Flexibility Score: inf
ROOT
ATOM      1  C   UNL A   1      31.255  28.062  25.336  1.00  0.00     0.002 C 
ENDROOT
BRANCH   1   2
ATOM      2  C   UNL A   1      31.139  29.002  24.126  1.00  0.00     0.002 C 
BRANCH   2   3
ATOM      3  C   UNL A   1      31.355  28.319  22.775  1.00  0.00     0.021 C 
BRANCH   3   4
ATOM      4  C   UNL A   1      32.834  28.201  22.435  1.00  0.00     0.116 C 
BRANCH   4   5
ATOM      5  N   UNL A   1      33.156  26.971  21.786  1.00  0.00    -0.351 N 
ATOM      6  C   UNL A   1      33.057  25.644  22.070  1.00  0.00     0.272 C 
ATOM      7  O   UNL A   1      33.099  24.944  21.049  1.00  0.00    -0.267 OA
ATOM      8  H   UNL A   1      33.555  27.123  20.899  1.00  0.00     0.163 HD
BRANCH   6   9
ATOM      9  C   UNL A   1      32.949  24.890  23.427  1.00  0.00     0.153 A 
ATOM     10  N   UNL A   1      34.346  23.758  24.887  1.00  0.00    -0.195 N 
ATOM     11  N   UNL A   1      34.152  24.542  23.804  1.00  0.00    -0.159 NA
ATOM     12  C   UNL A   1      33.345  23.359  25.744  1.00  0.00     0.289 A 
ATOM     13  C   UNL A   1      32.000  23.849  25.400  1.00  0.00     0.124 A 
ATOM     14  O   UNL A   1      33.500  22.667  26.750  1.00  0.00    -0.266 OA
ATOM     15  C   UNL A   1      31.741  24.537  24.264  1.00  0.00     0.006 A 
ATOM     16  C   UNL A   1      30.321  24.882  23.963  1.00  0.00     0.048 C 
BRANCH  10  17
ATOM     17  C   UNL A   1      35.673  23.291  25.054  1.00  0.00     0.070 A 
ATOM     18  C   UNL A   1      39.453  21.503  26.076  1.00  0.00     0.046 C 
ATOM     19  C   UNL A   1      38.178  22.181  25.665  1.00  0.00    -0.032 A 
ATOM     20  C   UNL A   1      37.252  21.459  24.905  1.00  0.00     0.007 A 
ATOM     21  C   UNL A   1      37.857  23.492  26.058  1.00  0.00     0.046 A 
ATOM     22  C   UNL A   1      36.007  22.006  24.615  1.00  0.00     0.029 A 
ATOM     23  C   UNL A   1      36.625  24.063  25.722  1.00  0.00     0.049 A 
ATOM     24  Cl  UNL A   1      38.938  24.424  27.036  1.00  0.00    -0.084 Cl
ENDBRANCH  10  17
BRANCH  13  25
ATOM     25  C   UNL A   1      30.989  23.512  26.353  1.00  0.00     0.105 C 
ATOM     26  N   UNL A   1      30.195  23.299  27.169  1.00  0.00    -0.192 NA
ENDBRANCH  13  25
ENDBRANCH   6   9
ENDBRANCH   4   5
ENDBRANCH   3   4
ENDBRANCH   2   3
ENDBRANCH   1   2
BRANCH   1  27
ATOM     27  C   UNL A   1      32.295  28.482  26.375  1.00  0.00     0.021 C 
BRANCH  27  28
ATOM     28  C   UNL A   1      33.345  29.444  25.835  1.00  0.00     0.116 C 
BRANCH  28  29
ATOM     29  N   UNL A   1      33.046  30.820  26.203  1.00  0.00    -0.352 N 
ATOM     30  C   UNL A   1      33.572  31.589  27.206  1.00  0.00     0.251 C 
ATOM     31  H   UNL A   1      32.363  31.263  25.649  1.00  0.00     0.163 HD
ATOM     32  O   UNL A   1      33.022  32.632  27.544  1.00  0.00    -0.269 OA
BRANCH  30  33
ATOM     33  C   UNL A   1      34.807  31.149  27.879  1.00  0.00     0.039 A 
ATOM     34  C   UNL A   1      35.890  32.027  27.947  1.00  0.00     0.014 A 
ATOM     35  C   UNL A   1      34.893  29.868  28.432  1.00  0.00     0.014 A 
ATOM     36  C   UNL A   1      37.048  31.632  28.616  1.00  0.00     0.010 A 
ATOM     37  C   UNL A   1      36.011  29.511  29.173  1.00  0.00     0.010 A 
ATOM     38  C   UNL A   1      37.105  30.383  29.257  1.00  0.00    -0.014 A 
BRANCH  38  39
ATOM     39  C   UNL A   1      38.316  29.967  30.000  1.00  0.00     0.031 A 
ATOM     40  C   UNL A   1      38.560  30.483  31.388  1.00  0.00     0.074 A 
ATOM     41  C   UNL A   1      39.212  29.154  29.409  1.00  0.00     0.049 A 
ATOM     42  N   UNL A   1      39.569  30.254  32.189  1.00  0.00    -0.248 NA
ATOM     43  C   UNL A   1      37.549  31.398  31.944  1.00  0.00     0.031 C 
ATOM     44  C   UNL A   1      39.097  28.624  28.050  1.00  0.00     0.029 A 
ATOM     45  N   UNL A   1      40.393  28.635  29.871  1.00  0.00    -0.354 N 
ATOM     46  C   UNL A   1      39.315  30.997  33.333  1.00  0.00     0.074 A 
ATOM     47  C   UNL A   1      38.094  31.735  33.102  1.00  0.00     0.031 C 
ATOM     48  C   UNL A   1      40.147  27.827  27.801  1.00  0.00     0.029 A 
ATOM     49  C   UNL A   1      41.032  27.828  28.962  1.00  0.00     0.049 A 
ATOM     50  H   UNL A   1      40.750  28.822  30.770  1.00  0.00     0.167 HD
ATOM     51  C   UNL A   1      40.026  31.035  34.485  1.00  0.00     0.037 A 
ATOM     52  C   UNL A   1      42.202  27.166  29.053  1.00  0.00     0.037 A 
ATOM     53  C   UNL A   1      41.232  30.281  34.710  1.00  0.00     0.049 A 
ATOM     54  C   UNL A   1      42.989  27.245  30.333  1.00  0.00     0.074 A 
ATOM     55  C   UNL A   1      41.993  30.205  35.862  1.00  0.00     0.029 A 
ATOM     56  N   UNL A   1      41.856  29.484  33.761  1.00  0.00    -0.354 N 
ATOM     57  N   UNL A   1      42.704  27.890  31.438  1.00  0.00    -0.248 NA
ATOM     58  C   UNL A   1      44.255  26.504  30.381  1.00  0.00     0.031 C 
ATOM     59  C   UNL A   1      43.118  29.422  35.588  1.00  0.00     0.029 A 
ATOM     60  C   UNL A   1      43.019  28.945  34.290  1.00  0.00     0.049 A 
ATOM     61  H   UNL A   1      41.522  29.324  32.849  1.00  0.00     0.167 HD
ATOM     62  C   UNL A   1      43.741  27.619  32.319  1.00  0.00     0.074 A 
ATOM     63  C   UNL A   1      44.654  26.734  31.625  1.00  0.00     0.031 C 
ATOM     64  C   UNL A   1      43.921  28.068  33.586  1.00  0.00     0.037 A 
BRANCH  51  65
ATOM     65  C   UNL A   1      39.526  31.921  35.590  1.00  0.00     0.064 A 
ATOM     66  C   UNL A   1      38.583  31.472  36.528  1.00  0.00     0.173 A 
ATOM     67  C   UNL A   1      40.036  33.219  35.746  1.00  0.00     0.173 A 
ATOM     68  F   UNL A   1      38.052  30.243  36.419  1.00  0.00    -0.203 F 
ATOM     69  C   UNL A   1      38.154  32.296  37.566  1.00  0.00     0.198 A 
ATOM     70  C   UNL A   1      39.632  34.026  36.806  1.00  0.00     0.198 A 
ATOM     71  F   UNL A   1      40.941  33.698  34.880  1.00  0.00    -0.203 F 
ATOM     72  F   UNL A   1      37.217  31.861  38.420  1.00  0.00    -0.200 F 
ATOM     73  C   UNL A   1      38.687  33.567  37.710  1.00  0.00     0.200 A 
ATOM     74  F   UNL A   1      40.162  35.248  36.954  1.00  0.00    -0.200 F 
ATOM     75  F   UNL A   1      38.286  34.353  38.719  1.00  0.00    -0.200 F 
ENDBRANCH  51  65
BRANCH  52  76
ATOM     76  C   UNL A   1      42.669  26.352  27.900  1.00  0.00     0.064 A 
ATOM     77  C   UNL A   1      43.470  26.916  26.898  1.00  0.00     0.173 A 
ATOM     78  C   UNL A   1      42.373  24.983  27.807  1.00  0.00     0.173 A 
ATOM     79  F   UNL A   1      43.766  28.222  26.932  1.00  0.00    -0.203 F 
ATOM     80  C   UNL A   1      43.958  26.140  25.847  1.00  0.00     0.198 A 
ATOM     81  C   UNL A   1      42.887  24.204  26.773  1.00  0.00     0.198 A 
ATOM     82  F   UNL A   1      41.617  24.394  28.745  1.00  0.00    -0.203 F 
ATOM     83  F   UNL A   1      44.702  26.709  24.888  1.00  0.00    -0.200 F 
ATOM     84  C   UNL A   1      43.676  24.783  25.793  1.00  0.00     0.200 A 
ATOM     85  F   UNL A   1      42.631  22.889  26.739  1.00  0.00    -0.200 F 
ATOM     86  F   UNL A   1      44.169  24.034  24.797  1.00  0.00    -0.200 F 
ENDBRANCH  52  76
BRANCH  64  87
ATOM     87  C   UNL A   1      45.149  27.609  34.323  1.00  0.00     0.064 A 
ATOM     88  C   UNL A   1      46.351  28.327  34.265  1.00  0.00     0.173 A 
ATOM     89  C   UNL A   1      45.094  26.489  35.167  1.00  0.00     0.173 A 
ATOM     90  F   UNL A   1      46.460  29.399  33.465  1.00  0.00    -0.203 F 
ATOM     91  C   UNL A   1      47.457  27.934  35.015  1.00  0.00     0.198 A 
ATOM     92  C   UNL A   1      46.189  26.120  35.943  1.00  0.00     0.198 A 
ATOM     93  F   UNL A   1      43.965  25.771  35.269  1.00  0.00    -0.203 F 
ATOM     94  F   UNL A   1      48.607  28.614  34.915  1.00  0.00    -0.200 F 
ATOM     95  C   UNL A   1      47.371  26.839  35.862  1.00  0.00     0.200 A 
ATOM     96  F   UNL A   1      46.096  25.077  36.779  1.00  0.00    -0.200 F 
ATOM     97  F   UNL A   1      48.429  26.478  36.601  1.00  0.00    -0.200 F 
ENDBRANCH  64  87
ENDBRANCH  38  39
ENDBRANCH  30  33
ENDBRANCH  28  29
ENDBRANCH  27  28
ENDBRANCH   1  27
TORSDOF 15
ENDMDL
