MODEL 1
REMARK VINA RESULT:     -12.5      0.000      0.000
REMARK SMILES C[C@@](NC(=O)[C@H]1COc2ccccc21)(C(=O)NCCCCCCNC(=O)c1ccc(-c2c3nc(c(-c4c(F)c(F)c(F)c(F)c4F)c4ccc([nH]4)c(-c4c(F)c(F)c(F)c(F)c4F)c4nc(c(-c5c(F)c(F)c(F)c(F)c5F)c5ccc2[nH]5)C=C4)C=C3)cc1)C(F)(F)F
REMARK SMILES IDX 20 1 19 2 18 3 17 4 15 5 16 6 2 8 1 9 3 10 4 11 5 13 6 14
REMARK SMILES IDX 7 15 14 16 8 17 9 18 13 19 10 20 12 21 11 22 90 23 91 24
REMARK SMILES IDX 92 25 93 26 21 27 22 28 23 29 24 30 25 31 26 33 27 34 28 35
REMARK SMILES IDX 89 36 29 37 88 38 30 39 31 40 32 41 82 42 33 43 87 44 81 45
REMARK SMILES IDX 83 46 34 47 86 48 80 49 79 50 35 52 67 53 47 54 66 55 48 56
REMARK SMILES IDX 51 57 65 58 84 59 49 60 50 61 64 63 85 64 52 65 36 66 37 67
REMARK SMILES IDX 45 68 38 69 39 70 43 71 46 72 40 73 41 74 44 75 42 76 68 77
REMARK SMILES IDX 69 78 77 79 70 80 71 81 75 82 78 83 72 84 73 85 76 86 74 87
REMARK SMILES IDX 53 88 54 89 62 90 55 91 56 92 60 93 63 94 57 95 58 96 61 97
REMARK SMILES IDX 59 98
REMARK H PARENT 17 7 3 12 24 32 83 51 51 62
REMARK Flexibility Score: inf
ROOT
ATOM      1  C   UNL A   1      33.103  29.724  26.021  1.00  0.00     0.002 C 
ENDROOT
BRANCH   1   2
ATOM      2  C   UNL A   1      33.998  28.672  26.686  1.00  0.00     0.021 C 
BRANCH   2   3
ATOM      3  C   UNL A   1      33.620  27.228  26.364  1.00  0.00     0.116 C 
BRANCH   3   4
ATOM      4  N   UNL A   1      33.625  26.983  24.929  1.00  0.00    -0.354 N 
ATOM      5  C   UNL A   1      32.779  26.276  24.113  1.00  0.00     0.254 C 
ATOM      6  O   UNL A   1      33.159  26.119  22.951  1.00  0.00    -0.272 OA
ATOM      7  H   UNL A   1      34.379  27.402  24.456  1.00  0.00     0.163 HD
BRANCH   5   8
ATOM      8  C   UNL A   1      31.554  25.548  24.675  1.00  0.00     0.212 C 
ATOM      9  C   UNL A   1      30.939  24.795  23.457  1.00  0.00     0.056 C 
BRANCH   8  10
ATOM     10  N   UNL A   1      31.908  24.539  25.731  1.00  0.00    -0.334 N 
ATOM     11  C   UNL A   1      32.870  23.600  25.906  1.00  0.00     0.232 C 
ATOM     12  H   UNL A   1      31.281  24.567  26.490  1.00  0.00     0.164 HD
ATOM     13  O   UNL A   1      32.972  23.244  27.095  1.00  0.00    -0.274 OA
BRANCH  11  14
ATOM     14  C   UNL A   1      33.691  22.814  24.889  1.00  0.00     0.150 C 
ATOM     15  C   UNL A   1      35.061  22.436  25.459  1.00  0.00     0.248 C 
ATOM     16  C   UNL A   1      33.302  21.484  24.377  1.00  0.00     0.010 A 
ATOM     17  O   UNL A   1      35.073  21.021  25.774  1.00  0.00    -0.492 OA
ATOM     18  C   UNL A   1      34.116  20.511  24.935  1.00  0.00     0.123 A 
ATOM     19  C   UNL A   1      32.384  21.150  23.398  1.00  0.00     0.008 A 
ATOM     20  C   UNL A   1      33.947  19.169  24.660  1.00  0.00     0.047 A 
ATOM     21  C   UNL A   1      32.194  19.799  23.100  1.00  0.00     0.001 A 
ATOM     22  C   UNL A   1      32.957  18.812  23.744  1.00  0.00     0.004 A 
ENDBRANCH  11  14
ENDBRANCH   8  10
BRANCH   8  23
ATOM     23  C   UNL A   1      30.436  26.532  25.097  1.00  0.00     0.420 C 
ATOM     24  F   UNL A   1      29.198  26.141  24.727  1.00  0.00    -0.168 F 
ATOM     25  F   UNL A   1      30.405  26.615  26.461  1.00  0.00    -0.168 F 
ATOM     26  F   UNL A   1      30.622  27.791  24.678  1.00  0.00    -0.168 F 
ENDBRANCH   8  23
ENDBRANCH   5   8
ENDBRANCH   3   4
ENDBRANCH   2   3
ENDBRANCH   1   2
BRANCH   1  27
ATOM     27  C   UNL A   1      31.945  30.249  26.876  1.00  0.00     0.002 C 
BRANCH  27  28
ATOM     28  C   UNL A   1      31.715  31.758  26.839  1.00  0.00     0.021 C 
BRANCH  28  29
ATOM     29  C   UNL A   1      32.862  32.586  27.400  1.00  0.00     0.116 C 
BRANCH  29  30
ATOM     30  N   UNL A   1      32.488  33.970  27.641  1.00  0.00    -0.352 N 
ATOM     31  C   UNL A   1      33.001  34.848  28.564  1.00  0.00     0.251 C 
ATOM     32  H   UNL A   1      31.772  34.325  27.066  1.00  0.00     0.163 HD
ATOM     33  O   UNL A   1      32.481  35.943  28.750  1.00  0.00    -0.269 OA
BRANCH  31  34
ATOM     34  C   UNL A   1      34.173  34.438  29.362  1.00  0.00     0.039 A 
ATOM     35  C   UNL A   1      33.969  33.867  30.619  1.00  0.00     0.014 A 
ATOM     36  C   UNL A   1      35.462  34.559  28.837  1.00  0.00     0.014 A 
ATOM     37  C   UNL A   1      35.057  33.342  31.318  1.00  0.00     0.010 A 
ATOM     38  C   UNL A   1      36.530  33.959  29.494  1.00  0.00     0.010 A 
ATOM     39  C   UNL A   1      36.337  33.343  30.740  1.00  0.00    -0.014 A 
BRANCH  39  40
ATOM     40  C   UNL A   1      37.484  32.685  31.411  1.00  0.00     0.031 A 
ATOM     41  C   UNL A   1      38.166  31.514  30.766  1.00  0.00     0.074 A 
ATOM     42  C   UNL A   1      37.857  33.094  32.640  1.00  0.00     0.049 A 
ATOM     43  N   UNL A   1      39.133  30.761  31.225  1.00  0.00    -0.248 NA
ATOM     44  C   UNL A   1      37.670  31.112  29.441  1.00  0.00     0.031 C 
ATOM     45  C   UNL A   1      37.228  34.177  33.396  1.00  0.00     0.029 A 
ATOM     46  N   UNL A   1      38.845  32.636  33.475  1.00  0.00    -0.354 N 
ATOM     47  C   UNL A   1      39.354  29.798  30.251  1.00  0.00     0.074 A 
ATOM     48  C   UNL A   1      38.375  30.016  29.209  1.00  0.00     0.031 C 
ATOM     49  C   UNL A   1      37.855  34.312  34.575  1.00  0.00     0.029 A 
ATOM     50  C   UNL A   1      38.902  33.301  34.675  1.00  0.00     0.049 A 
ATOM     51  H   UNL A   1      39.454  31.901  33.236  1.00  0.00     0.167 HD
ATOM     52  C   UNL A   1      40.309  28.837  30.215  1.00  0.00     0.037 A 
ATOM     53  C   UNL A   1      39.702  33.109  35.741  1.00  0.00     0.037 A 
ATOM     54  C   UNL A   1      41.285  28.633  31.252  1.00  0.00     0.049 A 
ATOM     55  C   UNL A   1      40.747  32.030  35.685  1.00  0.00     0.074 A 
ATOM     56  C   UNL A   1      42.333  27.731  31.286  1.00  0.00     0.029 A 
ATOM     57  N   UNL A   1      41.326  29.338  32.447  1.00  0.00    -0.354 N 
ATOM     58  N   UNL A   1      41.003  31.175  34.724  1.00  0.00    -0.248 NA
ATOM     59  C   UNL A   1      41.618  31.890  36.860  1.00  0.00     0.031 C 
ATOM     60  C   UNL A   1      42.974  27.852  32.525  1.00  0.00     0.029 A 
ATOM     61  C   UNL A   1      42.362  28.869  33.239  1.00  0.00     0.049 A 
ATOM     62  H   UNL A   1      40.710  30.066  32.695  1.00  0.00     0.167 HD
ATOM     63  C   UNL A   1      42.070  30.407  35.168  1.00  0.00     0.074 A 
ATOM     64  C   UNL A   1      42.429  30.913  36.478  1.00  0.00     0.031 C 
ATOM     65  C   UNL A   1      42.695  29.375  34.549  1.00  0.00     0.037 A 
BRANCH  52  66
ATOM     66  C   UNL A   1      40.332  27.938  29.011  1.00  0.00     0.064 A 
ATOM     67  C   UNL A   1      41.080  28.258  27.867  1.00  0.00     0.173 A 
ATOM     68  C   UNL A   1      39.603  26.740  29.000  1.00  0.00     0.173 A 
ATOM     69  F   UNL A   1      41.787  29.398  27.819  1.00  0.00    -0.203 F 
ATOM     70  C   UNL A   1      41.060  27.438  26.742  1.00  0.00     0.198 A 
ATOM     71  C   UNL A   1      39.613  25.904  27.886  1.00  0.00     0.198 A 
ATOM     72  F   UNL A   1      38.876  26.379  30.068  1.00  0.00    -0.203 F 
ATOM     73  F   UNL A   1      41.727  27.802  25.638  1.00  0.00    -0.200 F 
ATOM     74  C   UNL A   1      40.330  26.260  26.753  1.00  0.00     0.200 A 
ATOM     75  F   UNL A   1      38.919  24.757  27.904  1.00  0.00    -0.200 F 
ATOM     76  F   UNL A   1      40.310  25.472  25.670  1.00  0.00    -0.200 F 
ENDBRANCH  52  66
BRANCH  53  77
ATOM     77  C   UNL A   1      39.543  33.971  36.940  1.00  0.00     0.064 A 
ATOM     78  C   UNL A   1      40.127  35.244  36.998  1.00  0.00     0.173 A 
ATOM     79  C   UNL A   1      38.779  33.554  38.040  1.00  0.00     0.173 A 
ATOM     80  F   UNL A   1      40.883  35.680  35.979  1.00  0.00    -0.203 F 
ATOM     81  C   UNL A   1      39.962  36.062  38.114  1.00  0.00     0.198 A 
ATOM     82  C   UNL A   1      38.590  34.384  39.143  1.00  0.00     0.198 A 
ATOM     83  F   UNL A   1      38.193  32.348  38.032  1.00  0.00    -0.203 F 
ATOM     84  F   UNL A   1      40.559  37.261  38.156  1.00  0.00    -0.200 F 
ATOM     85  C   UNL A   1      39.186  35.635  39.181  1.00  0.00     0.200 A 
ATOM     86  F   UNL A   1      37.826  33.974  40.164  1.00  0.00    -0.200 F 
ATOM     87  F   UNL A   1      39.016  36.429  40.247  1.00  0.00    -0.200 F 
ENDBRANCH  53  77
BRANCH  65  88
ATOM     88  C   UNL A   1      43.833  28.724  35.280  1.00  0.00     0.064 A 
ATOM     89  C   UNL A   1      45.155  29.169  35.122  1.00  0.00     0.173 A 
ATOM     90  C   UNL A   1      43.596  27.675  36.180  1.00  0.00     0.173 A 
ATOM     91  F   UNL A   1      45.436  30.159  34.261  1.00  0.00    -0.203 F 
ATOM     92  C   UNL A   1      46.199  28.571  35.822  1.00  0.00     0.198 A 
ATOM     93  C   UNL A   1      44.638  27.101  36.902  1.00  0.00     0.198 A 
ATOM     94  F   UNL A   1      42.350  27.217  36.372  1.00  0.00    -0.203 F 
ATOM     95  F   UNL A   1      47.459  28.980  35.621  1.00  0.00    -0.200 F 
ATOM     96  C   UNL A   1      45.939  27.544  36.717  1.00  0.00     0.200 A 
ATOM     97  F   UNL A   1      44.384  26.119  37.777  1.00  0.00    -0.200 F 
ATOM     98  F   UNL A   1      46.945  26.976  37.398  1.00  0.00    -0.200 F 
ENDBRANCH  65  88
ENDBRANCH  39  40
ENDBRANCH  31  34
ENDBRANCH  29  30
ENDBRANCH  28  29
ENDBRANCH  27  28
ENDBRANCH   1  27
TORSDOF 16
ENDMDL
MODEL 2
REMARK VINA RESULT:     -12.4      0.948      7.228
REMARK SMILES C[C@@](NC(=O)[C@H]1COc2ccccc21)(C(=O)NCCCCCCNC(=O)c1ccc(-c2c3nc(c(-c4c(F)c(F)c(F)c(F)c4F)c4ccc([nH]4)c(-c4c(F)c(F)c(F)c(F)c4F)c4nc(c(-c5c(F)c(F)c(F)c(F)c5F)c5ccc2[nH]5)C=C4)C=C3)cc1)C(F)(F)F
REMARK SMILES IDX 20 1 19 2 18 3 17 4 15 5 16 6 2 8 1 9 3 10 4 11 5 13 6 14
REMARK SMILES IDX 7 15 14 16 8 17 9 18 13 19 10 20 12 21 11 22 90 23 91 24
REMARK SMILES IDX 92 25 93 26 21 27 22 28 23 29 24 30 25 31 26 33 27 34 28 35
REMARK SMILES IDX 89 36 29 37 88 38 30 39 31 40 32 41 82 42 33 43 87 44 81 45
REMARK SMILES IDX 83 46 34 47 86 48 80 49 79 50 35 52 67 53 47 54 66 55 48 56
REMARK SMILES IDX 51 57 65 58 84 59 49 60 50 61 64 63 85 64 52 65 36 66 37 67
REMARK SMILES IDX 45 68 38 69 39 70 43 71 46 72 40 73 41 74 44 75 42 76 68 77
REMARK SMILES IDX 69 78 77 79 70 80 71 81 75 82 78 83 72 84 73 85 76 86 74 87
REMARK SMILES IDX 53 88 54 89 62 90 55 91 56 92 60 93 63 94 57 95 58 96 61 97
REMARK SMILES IDX 59 98
REMARK H PARENT 17 7 3 12 24 32 83 51 51 62
REMARK Flexibility Score: inf
ROOT
ATOM      1  C   UNL A   1      32.707  29.786  26.900  1.00  0.00     0.002 C 
ENDROOT
BRANCH   1   2
ATOM      2  C   UNL A   1      33.855  29.172  26.090  1.00  0.00     0.021 C 
BRANCH   2   3
ATOM      3  C   UNL A   1      33.558  27.782  25.530  1.00  0.00     0.116 C 
BRANCH   3   4
ATOM      4  N   UNL A   1      33.958  27.673  24.135  1.00  0.00    -0.354 N 
ATOM      5  C   UNL A   1      33.274  27.295  23.008  1.00  0.00     0.254 C 
ATOM      6  O   UNL A   1      33.954  27.145  21.990  1.00  0.00    -0.272 OA
ATOM      7  H   UNL A   1      34.898  27.915  23.969  1.00  0.00     0.163 HD
BRANCH   5   8
ATOM      8  C   UNL A   1      31.802  26.876  23.073  1.00  0.00     0.212 C 
ATOM      9  C   UNL A   1      31.481  26.310  21.657  1.00  0.00     0.056 C 
BRANCH   8  10
ATOM     10  N   UNL A   1      31.546  25.798  24.088  1.00  0.00    -0.334 N 
ATOM     11  C   UNL A   1      32.163  24.656  24.481  1.00  0.00     0.232 C 
ATOM     12  H   UNL A   1      30.719  25.962  24.597  1.00  0.00     0.164 HD
ATOM     13  O   UNL A   1      31.772  24.270  25.598  1.00  0.00    -0.274 OA
BRANCH  11  14
ATOM     14  C   UNL A   1      33.091  23.713  23.722  1.00  0.00     0.150 C 
ATOM     15  C   UNL A   1      34.559  24.018  24.027  1.00  0.00     0.248 C 
ATOM     16  C   UNL A   1      33.129  22.253  23.942  1.00  0.00     0.010 A 
ATOM     17  O   UNL A   1      35.090  22.989  24.899  1.00  0.00    -0.492 OA
ATOM     18  C   UNL A   1      34.282  21.914  24.632  1.00  0.00     0.123 A 
ATOM     19  C   UNL A   1      32.283  21.266  23.469  1.00  0.00     0.008 A 
ATOM     20  C   UNL A   1      34.556  20.614  25.007  1.00  0.00     0.047 A 
ATOM     21  C   UNL A   1      32.538  19.942  23.833  1.00  0.00     0.001 A 
ATOM     22  C   UNL A   1      33.657  19.621  24.616  1.00  0.00     0.004 A 
ENDBRANCH  11  14
ENDBRANCH   8  10
BRANCH   8  23
ATOM     23  C   UNL A   1      30.856  28.095  23.201  1.00  0.00     0.420 C 
ATOM     24  F   UNL A   1      29.798  28.055  22.363  1.00  0.00    -0.168 F 
ATOM     25  F   UNL A   1      30.328  28.120  24.462  1.00  0.00    -0.168 F 
ATOM     26  F   UNL A   1      31.463  29.281  23.057  1.00  0.00    -0.168 F 
ENDBRANCH   8  23
ENDBRANCH   5   8
ENDBRANCH   3   4
ENDBRANCH   2   3
ENDBRANCH   1   2
BRANCH   1  27
ATOM     27  C   UNL A   1      31.775  30.724  26.127  1.00  0.00     0.002 C 
BRANCH  27  28
ATOM     28  C   UNL A   1      31.479  32.068  26.788  1.00  0.00     0.021 C 
BRANCH  28  29
ATOM     29  C   UNL A   1      32.705  32.793  27.323  1.00  0.00     0.116 C 
BRANCH  29  30
ATOM     30  N   UNL A   1      32.442  34.191  27.625  1.00  0.00    -0.352 N 
ATOM     31  C   UNL A   1      33.037  34.992  28.569  1.00  0.00     0.251 C 
ATOM     32  H   UNL A   1      31.745  34.622  27.079  1.00  0.00     0.163 HD
ATOM     33  O   UNL A   1      32.606  36.114  28.808  1.00  0.00    -0.269 OA
BRANCH  31  34
ATOM     34  C   UNL A   1      34.189  34.463  29.327  1.00  0.00     0.039 A 
ATOM     35  C   UNL A   1      33.961  33.823  30.546  1.00  0.00     0.014 A 
ATOM     36  C   UNL A   1      35.479  34.544  28.797  1.00  0.00     0.014 A 
ATOM     37  C   UNL A   1      35.021  33.192  31.197  1.00  0.00     0.010 A 
ATOM     38  C   UNL A   1      36.515  33.842  29.402  1.00  0.00     0.010 A 
ATOM     39  C   UNL A   1      36.295  33.157  30.607  1.00  0.00    -0.014 A 
BRANCH  39  40
ATOM     40  C   UNL A   1      37.406  32.392  31.222  1.00  0.00     0.031 A 
ATOM     41  C   UNL A   1      37.906  32.756  32.590  1.00  0.00     0.074 A 
ATOM     42  C   UNL A   1      38.017  31.423  30.513  1.00  0.00     0.049 A 
ATOM     43  N   UNL A   1      38.910  32.258  33.265  1.00  0.00    -0.248 NA
ATOM     44  C   UNL A   1      37.204  33.850  33.277  1.00  0.00     0.031 C 
ATOM     45  C   UNL A   1      37.664  31.025  29.150  1.00  0.00     0.029 A 
ATOM     46  N   UNL A   1      39.073  30.608  30.834  1.00  0.00    -0.354 N 
ATOM     47  C   UNL A   1      38.963  32.981  34.448  1.00  0.00     0.074 A 
ATOM     48  C   UNL A   1      37.938  33.998  34.370  1.00  0.00     0.031 C 
ATOM     49  C   UNL A   1      38.477  30.031  28.758  1.00  0.00     0.029 A 
ATOM     50  C   UNL A   1      39.432  29.749  29.824  1.00  0.00     0.049 A 
ATOM     51  H   UNL A   1      39.530  30.636  31.706  1.00  0.00     0.167 HD
ATOM     52  C   UNL A   1      39.775  32.794  35.518  1.00  0.00     0.037 A 
ATOM     53  C   UNL A   1      40.427  28.844  29.762  1.00  0.00     0.037 A 
ATOM     54  C   UNL A   1      40.786  31.774  35.591  1.00  0.00     0.049 A 
ATOM     55  C   UNL A   1      41.324  28.660  30.954  1.00  0.00     0.074 A 
ATOM     56  C   UNL A   1      41.619  31.458  36.649  1.00  0.00     0.029 A 
ATOM     57  N   UNL A   1      41.111  30.908  34.555  1.00  0.00    -0.354 N 
ATOM     58  N   UNL A   1      41.313  29.294  32.103  1.00  0.00    -0.248 NA
ATOM     59  C   UNL A   1      42.367  27.632  30.846  1.00  0.00     0.031 C 
ATOM     60  C   UNL A   1      42.484  30.437  36.236  1.00  0.00     0.029 A 
ATOM     61  C   UNL A   1      42.153  30.079  34.939  1.00  0.00     0.049 A 
ATOM     62  H   UNL A   1      40.665  30.885  33.678  1.00  0.00     0.167 HD
ATOM     63  C   UNL A   1      42.334  28.735  32.858  1.00  0.00     0.074 A 
ATOM     64  C   UNL A   1      42.930  27.693  32.045  1.00  0.00     0.031 C 
ATOM     65  C   UNL A   1      42.744  29.056  34.110  1.00  0.00     0.037 A 
BRANCH  52  66
ATOM     66  C   UNL A   1      39.593  33.719  36.687  1.00  0.00     0.064 A 
ATOM     67  C   UNL A   1      40.241  34.963  36.750  1.00  0.00     0.173 A 
ATOM     68  C   UNL A   1      38.759  33.363  37.758  1.00  0.00     0.173 A 
ATOM     69  F   UNL A   1      41.059  35.350  35.758  1.00  0.00    -0.203 F 
ATOM     70  C   UNL A   1      40.098  35.794  37.858  1.00  0.00     0.198 A 
ATOM     71  C   UNL A   1      38.591  34.212  38.849  1.00  0.00     0.198 A 
ATOM     72  F   UNL A   1      38.110  32.189  37.749  1.00  0.00    -0.203 F 
ATOM     73  F   UNL A   1      40.782  36.944  37.924  1.00  0.00    -0.200 F 
ATOM     74  C   UNL A   1      39.270  35.419  38.905  1.00  0.00     0.200 A 
ATOM     75  F   UNL A   1      37.778  33.855  39.854  1.00  0.00    -0.200 F 
ATOM     76  F   UNL A   1      39.134  36.218  39.972  1.00  0.00    -0.200 F 
ENDBRANCH  52  66
BRANCH  53  77
ATOM     77  C   UNL A   1      40.610  28.042  28.525  1.00  0.00     0.064 A 
ATOM     78  C   UNL A   1      39.979  26.801  28.368  1.00  0.00     0.173 A 
ATOM     79  C   UNL A   1      41.395  28.513  27.462  1.00  0.00     0.173 A 
ATOM     80  F   UNL A   1      39.234  26.298  29.364  1.00  0.00    -0.203 F 
ATOM     81  C   UNL A   1      40.133  26.057  27.199  1.00  0.00     0.198 A 
ATOM     82  C   UNL A   1      41.525  27.783  26.283  1.00  0.00     0.198 A 
ATOM     83  F   UNL A   1      42.014  29.699  27.559  1.00  0.00    -0.203 F 
ATOM     84  F   UNL A   1      39.545  24.858  27.089  1.00  0.00    -0.200 F 
ATOM     85  C   UNL A   1      40.899  26.553  26.155  1.00  0.00     0.200 A 
ATOM     86  F   UNL A   1      42.252  28.274  25.270  1.00  0.00    -0.200 F 
ATOM     87  F   UNL A   1      41.034  25.843  25.026  1.00  0.00    -0.200 F 
ENDBRANCH  53  77
BRANCH  65  88
ATOM     88  C   UNL A   1      43.890  28.271  34.680  1.00  0.00     0.064 A 
ATOM     89  C   UNL A   1      45.214  28.720  34.567  1.00  0.00     0.173 A 
ATOM     90  C   UNL A   1      43.658  27.080  35.383  1.00  0.00     0.173 A 
ATOM     91  F   UNL A   1      45.490  29.846  33.890  1.00  0.00    -0.203 F 
ATOM     92  C   UNL A   1      46.265  27.994  35.118  1.00  0.00     0.198 A 
ATOM     93  C   UNL A   1      44.708  26.372  35.960  1.00  0.00     0.198 A 
ATOM     94  F   UNL A   1      42.410  26.610  35.524  1.00  0.00    -0.203 F 
ATOM     95  F   UNL A   1      47.527  28.417  34.958  1.00  0.00    -0.200 F 
ATOM     96  C   UNL A   1      46.011  26.825  35.821  1.00  0.00     0.200 A 
ATOM     97  F   UNL A   1      44.460  25.252  36.651  1.00  0.00    -0.200 F 
ATOM     98  F   UNL A   1      47.024  26.132  36.359  1.00  0.00    -0.200 F 
ENDBRANCH  65  88
ENDBRANCH  39  40
ENDBRANCH  31  34
ENDBRANCH  29  30
ENDBRANCH  28  29
ENDBRANCH  27  28
ENDBRANCH   1  27
TORSDOF 16
ENDMDL
MODEL 3
REMARK VINA RESULT:     -12.4      5.641     11.102
REMARK SMILES C[C@@](NC(=O)[C@H]1COc2ccccc21)(C(=O)NCCCCCCNC(=O)c1ccc(-c2c3nc(c(-c4c(F)c(F)c(F)c(F)c4F)c4ccc([nH]4)c(-c4c(F)c(F)c(F)c(F)c4F)c4nc(c(-c5c(F)c(F)c(F)c(F)c5F)c5ccc2[nH]5)C=C4)C=C3)cc1)C(F)(F)F
REMARK SMILES IDX 20 1 19 2 18 3 17 4 15 5 16 6 2 8 1 9 3 10 4 11 5 13 6 14
REMARK SMILES IDX 7 15 14 16 8 17 9 18 13 19 10 20 12 21 11 22 90 23 91 24
REMARK SMILES IDX 92 25 93 26 21 27 22 28 23 29 24 30 25 31 26 33 27 34 28 35
REMARK SMILES IDX 89 36 29 37 88 38 30 39 31 40 32 41 82 42 33 43 87 44 81 45
REMARK SMILES IDX 83 46 34 47 86 48 80 49 79 50 35 52 67 53 47 54 66 55 48 56
REMARK SMILES IDX 51 57 65 58 84 59 49 60 50 61 64 63 85 64 52 65 36 66 37 67
REMARK SMILES IDX 45 68 38 69 39 70 43 71 46 72 40 73 41 74 44 75 42 76 68 77
REMARK SMILES IDX 69 78 77 79 70 80 71 81 75 82 78 83 72 84 73 85 76 86 74 87
REMARK SMILES IDX 53 88 54 89 62 90 55 91 56 92 60 93 63 94 57 95 58 96 61 97
REMARK SMILES IDX 59 98
REMARK H PARENT 17 7 3 12 24 32 83 51 51 62
REMARK Flexibility Score: inf
ROOT
ATOM      1  C   UNL A   1      36.996  22.620  25.156  1.00  0.00     0.002 C 
ENDROOT
BRANCH   1   2
ATOM      2  C   UNL A   1      36.003  23.432  25.994  1.00  0.00     0.021 C 
BRANCH   2   3
ATOM      3  C   UNL A   1      35.161  24.421  25.191  1.00  0.00     0.116 C 
BRANCH   3   4
ATOM      4  N   UNL A   1      33.802  24.506  25.706  1.00  0.00    -0.354 N 
ATOM      5  C   UNL A   1      32.584  24.227  25.142  1.00  0.00     0.254 C 
ATOM      6  O   UNL A   1      31.596  24.568  25.795  1.00  0.00    -0.272 OA
ATOM      7  H   UNL A   1      33.747  24.826  26.635  1.00  0.00     0.163 HD
BRANCH   5   8
ATOM      8  C   UNL A   1      32.471  23.725  23.698  1.00  0.00     0.212 C 
ATOM      9  C   UNL A   1      30.947  23.496  23.469  1.00  0.00     0.056 C 
BRANCH   8  10
ATOM     10  N   UNL A   1      32.961  24.728  22.692  1.00  0.00    -0.334 N 
ATOM     11  C   UNL A   1      33.167  26.067  22.665  1.00  0.00     0.232 C 
ATOM     12  H   UNL A   1      33.190  24.304  21.833  1.00  0.00     0.164 HD
ATOM     13  O   UNL A   1      33.916  26.411  21.730  1.00  0.00    -0.274 OA
BRANCH  11  14
ATOM     14  C   UNL A   1      32.512  27.193  23.458  1.00  0.00     0.150 C 
ATOM     15  C   UNL A   1      33.165  28.542  23.146  1.00  0.00     0.248 C 
ATOM     16  C   UNL A   1      31.102  27.598  23.288  1.00  0.00     0.010 A 
ATOM     17  O   UNL A   1      32.274  29.324  22.312  1.00  0.00    -0.492 OA
ATOM     18  C   UNL A   1      31.040  28.807  22.614  1.00  0.00     0.123 A 
ATOM     19  C   UNL A   1      29.951  27.021  23.793  1.00  0.00     0.008 A 
ATOM     20  C   UNL A   1      29.839  29.402  22.285  1.00  0.00     0.047 A 
ATOM     21  C   UNL A   1      28.722  27.603  23.476  1.00  0.00     0.001 A 
ATOM     22  C   UNL A   1      28.666  28.776  22.708  1.00  0.00     0.004 A 
ENDBRANCH  11  14
ENDBRANCH   8  10
BRANCH   8  23
ATOM     23  C   UNL A   1      33.083  22.313  23.524  1.00  0.00     0.420 C 
ATOM     24  F   UNL A   1      32.374  21.510  22.702  1.00  0.00    -0.168 F 
ATOM     25  F   UNL A   1      34.318  22.428  22.953  1.00  0.00    -0.168 F 
ATOM     26  F   UNL A   1      33.292  21.658  24.675  1.00  0.00    -0.168 F 
ENDBRANCH   8  23
ENDBRANCH   5   8
ENDBRANCH   3   4
ENDBRANCH   2   3
ENDBRANCH   1   2
BRANCH   1  27
ATOM     27  C   UNL A   1      36.870  21.097  25.265  1.00  0.00     0.002 C 
BRANCH  27  28
ATOM     28  C   UNL A   1      38.125  20.295  24.931  1.00  0.00     0.021 C 
BRANCH  28  29
ATOM     29  C   UNL A   1      39.284  20.504  25.894  1.00  0.00     0.116 C 
BRANCH  29  30
ATOM     30  N   UNL A   1      40.175  19.356  25.955  1.00  0.00    -0.352 N 
ATOM     31  C   UNL A   1      41.538  19.336  26.126  1.00  0.00     0.251 C 
ATOM     32  H   UNL A   1      39.744  18.476  25.863  1.00  0.00     0.163 HD
ATOM     33  O   UNL A   1      42.174  18.294  26.008  1.00  0.00    -0.269 OA
BRANCH  31  34
ATOM     34  C   UNL A   1      42.238  20.604  26.415  1.00  0.00     0.039 A 
ATOM     35  C   UNL A   1      42.639  21.413  25.352  1.00  0.00     0.014 A 
ATOM     36  C   UNL A   1      42.433  21.015  27.736  1.00  0.00     0.014 A 
ATOM     37  C   UNL A   1      43.167  22.678  25.615  1.00  0.00     0.010 A 
ATOM     38  C   UNL A   1      42.878  22.306  27.994  1.00  0.00     0.010 A 
ATOM     39  C   UNL A   1      43.247  23.151  26.935  1.00  0.00    -0.014 A 
BRANCH  39  40
ATOM     40  C   UNL A   1      43.693  24.535  27.230  1.00  0.00     0.031 A 
ATOM     41  C   UNL A   1      42.709  25.553  27.729  1.00  0.00     0.074 A 
ATOM     42  C   UNL A   1      44.966  24.891  26.969  1.00  0.00     0.049 A 
ATOM     43  N   UNL A   1      42.888  26.827  27.973  1.00  0.00    -0.248 NA
ATOM     44  C   UNL A   1      41.333  25.086  27.951  1.00  0.00     0.031 C 
ATOM     45  C   UNL A   1      45.994  24.007  26.420  1.00  0.00     0.029 A 
ATOM     46  N   UNL A   1      45.606  26.095  27.116  1.00  0.00    -0.354 N 
ATOM     47  C   UNL A   1      41.649  27.310  28.369  1.00  0.00     0.074 A 
ATOM     48  C   UNL A   1      40.712  26.213  28.264  1.00  0.00     0.031 C 
ATOM     49  C   UNL A   1      47.140  24.693  26.292  1.00  0.00     0.029 A 
ATOM     50  C   UNL A   1      46.918  26.073  26.712  1.00  0.00     0.049 A 
ATOM     51  H   UNL A   1      45.167  26.900  27.477  1.00  0.00     0.167 HD
ATOM     52  C   UNL A   1      41.327  28.551  28.809  1.00  0.00     0.037 A 
ATOM     53  C   UNL A   1      47.836  27.057  26.673  1.00  0.00     0.037 A 
ATOM     54  C   UNL A   1      42.267  29.635  28.918  1.00  0.00     0.049 A 
ATOM     55  C   UNL A   1      47.456  28.430  27.155  1.00  0.00     0.074 A 
ATOM     56  C   UNL A   1      42.061  30.911  29.409  1.00  0.00     0.029 A 
ATOM     57  N   UNL A   1      43.595  29.571  28.517  1.00  0.00    -0.354 N 
ATOM     58  N   UNL A   1      46.301  28.858  27.606  1.00  0.00    -0.248 NA
ATOM     59  C   UNL A   1      48.507  29.456  27.128  1.00  0.00     0.031 C 
ATOM     60  C   UNL A   1      43.248  31.637  29.256  1.00  0.00     0.029 A 
ATOM     61  C   UNL A   1      44.211  30.796  28.721  1.00  0.00     0.049 A 
ATOM     62  H   UNL A   1      44.034  28.773  28.144  1.00  0.00     0.167 HD
ATOM     63  C   UNL A   1      46.487  30.194  27.930  1.00  0.00     0.074 A 
ATOM     64  C   UNL A   1      47.875  30.501  27.645  1.00  0.00     0.031 C 
ATOM     65  C   UNL A   1      45.591  31.088  28.416  1.00  0.00     0.037 A 
BRANCH  52  66
ATOM     66  C   UNL A   1      39.897  28.791  29.200  1.00  0.00     0.064 A 
ATOM     67  C   UNL A   1      39.439  28.545  30.505  1.00  0.00     0.173 A 
ATOM     68  C   UNL A   1      38.971  29.277  28.265  1.00  0.00     0.173 A 
ATOM     69  F   UNL A   1      40.279  28.068  31.437  1.00  0.00    -0.203 F 
ATOM     70  C   UNL A   1      38.101  28.731  30.845  1.00  0.00     0.198 A 
ATOM     71  C   UNL A   1      37.642  29.495  28.618  1.00  0.00     0.198 A 
ATOM     72  F   UNL A   1      39.354  29.537  27.006  1.00  0.00    -0.203 F 
ATOM     73  F   UNL A   1      37.676  28.421  32.077  1.00  0.00    -0.200 F 
ATOM     74  C   UNL A   1      37.205  29.210  29.902  1.00  0.00     0.200 A 
ATOM     75  F   UNL A   1      36.779  29.973  27.710  1.00  0.00    -0.200 F 
ATOM     76  F   UNL A   1      35.917  29.387  30.230  1.00  0.00    -0.200 F 
ENDBRANCH  52  66
BRANCH  53  77
ATOM     77  C   UNL A   1      49.202  26.766  26.169  1.00  0.00     0.064 A 
ATOM     78  C   UNL A   1      50.184  26.226  27.010  1.00  0.00     0.173 A 
ATOM     79  C   UNL A   1      49.545  26.991  24.827  1.00  0.00     0.173 A 
ATOM     80  F   UNL A   1      49.910  26.011  28.306  1.00  0.00    -0.203 F 
ATOM     81  C   UNL A   1      51.460  25.932  26.532  1.00  0.00     0.198 A 
ATOM     82  C   UNL A   1      50.811  26.670  24.344  1.00  0.00     0.198 A 
ATOM     83  F   UNL A   1      48.640  27.499  23.978  1.00  0.00    -0.203 F 
ATOM     84  F   UNL A   1      52.389  25.447  27.367  1.00  0.00    -0.200 F 
ATOM     85  C   UNL A   1      51.770  26.146  25.198  1.00  0.00     0.200 A 
ATOM     86  F   UNL A   1      51.101  26.863  23.049  1.00  0.00    -0.200 F 
ATOM     87  F   UNL A   1      52.992  25.849  24.736  1.00  0.00    -0.200 F 
ENDBRANCH  53  77
BRANCH  65  88
ATOM     88  C   UNL A   1      46.083  32.483  28.674  1.00  0.00     0.064 A 
ATOM     89  C   UNL A   1      46.668  32.839  29.898  1.00  0.00     0.173 A 
ATOM     90  C   UNL A   1      46.010  33.461  27.671  1.00  0.00     0.173 A 
ATOM     91  F   UNL A   1      46.747  31.943  30.895  1.00  0.00    -0.203 F 
ATOM     92  C   UNL A   1      47.140  34.130  30.117  1.00  0.00     0.198 A 
ATOM     93  C   UNL A   1      46.511  34.742  27.883  1.00  0.00     0.198 A 
ATOM     94  F   UNL A   1      45.465  33.170  26.481  1.00  0.00    -0.203 F 
ATOM     95  F   UNL A   1      47.652  34.461  31.310  1.00  0.00    -0.200 F 
ATOM     96  C   UNL A   1      47.069  35.078  29.107  1.00  0.00     0.200 A 
ATOM     97  F   UNL A   1      46.454  35.652  26.901  1.00  0.00    -0.200 F 
ATOM     98  F   UNL A   1      47.532  36.318  29.316  1.00  0.00    -0.200 F 
ENDBRANCH  65  88
ENDBRANCH  39  40
ENDBRANCH  31  34
ENDBRANCH  29  30
ENDBRANCH  28  29
ENDBRANCH  27  28
ENDBRANCH   1  27
TORSDOF 16
ENDMDL
