MODEL 1
REMARK VINA RESULT:     -12.7      0.000      0.000
REMARK SMILES CCCc1cc2c(cc1Cl)C=C(C(=O)NCCCCCCNC(=O)c1ccc(-c3c4nc(c(-c5c(F)c(F)c(F)c(F)c5F)c5ccc([nH]5)c(-c5c(F)c(F)c(F)c(F)c5F)c5nc(c(-c6c(F)c(F)c(F)c(F)c6F)c6ccc3[nH]6)C=C5)C=C4)cc1)[C@@H](C(F)(F)F)O2
REMARK SMILES IDX 18 1 17 2 16 3 15 4 13 5 14 6 12 8 4 9 5 10 9 11 6 12 8 13
REMARK SMILES IDX 10 14 7 15 93 16 11 17 88 18 3 19 2 20 1 21 89 22 90 23
REMARK SMILES IDX 91 24 92 25 19 26 20 27 21 28 22 29 23 30 24 32 25 33 26 34
REMARK SMILES IDX 87 35 27 36 86 37 28 38 29 39 30 40 80 41 31 42 85 43 79 44
REMARK SMILES IDX 81 45 32 46 84 47 78 48 77 49 33 51 65 52 45 53 64 54 46 55
REMARK SMILES IDX 49 56 63 57 82 58 47 59 48 60 62 62 83 63 50 64 34 65 35 66
REMARK SMILES IDX 43 67 36 68 37 69 41 70 44 71 38 72 39 73 42 74 40 75 66 76
REMARK SMILES IDX 67 77 75 78 68 79 69 80 73 81 76 82 70 83 71 84 74 85 72 86
REMARK SMILES IDX 51 87 52 88 60 89 53 90 54 91 58 92 61 93 55 94 56 95 59 96
REMARK SMILES IDX 57 97
REMARK H PARENT 15 7 22 31 81 50 49 61
REMARK Flexibility Score: inf
ROOT
ATOM      1  C   UNL A   1      32.310  29.840  27.251  1.00  0.00     0.002 C 
ENDROOT
BRANCH   1   2
ATOM      2  C   UNL A   1      32.274  28.328  27.004  1.00  0.00     0.021 C 
BRANCH   2   3
ATOM      3  C   UNL A   1      33.625  27.734  26.613  1.00  0.00     0.116 C 
BRANCH   3   4
ATOM      4  N   UNL A   1      33.775  27.640  25.170  1.00  0.00    -0.352 N 
ATOM      5  C   UNL A   1      33.657  26.689  24.216  1.00  0.00     0.251 C 
ATOM      6  O   UNL A   1      33.860  27.076  23.060  1.00  0.00    -0.270 OA
ATOM      7  H   UNL A   1      34.032  28.507  24.781  1.00  0.00     0.163 HD
BRANCH   5   8
ATOM      8  C   UNL A   1      33.311  25.257  24.459  1.00  0.00     0.067 C 
ATOM      9  C   UNL A   1      33.396  20.267  25.231  1.00  0.00    -0.026 A 
ATOM     10  C   UNL A   1      32.433  21.274  25.364  1.00  0.00     0.052 A 
ATOM     11  C   UNL A   1      34.723  20.670  24.971  1.00  0.00     0.045 A 
ATOM     12  C   UNL A   1      32.759  22.609  25.144  1.00  0.00     0.128 A 
ATOM     13  C   UNL A   1      35.056  22.022  24.795  1.00  0.00     0.032 A 
ATOM     14  Cl  UNL A   1      36.010  19.520  24.858  1.00  0.00    -0.084 Cl
ATOM     15  C   UNL A   1      34.064  23.000  24.859  1.00  0.00     0.019 A 
ATOM     16  O   UNL A   1      31.733  23.504  25.239  1.00  0.00    -0.475 OA
ATOM     17  C   UNL A   1      34.347  24.417  24.656  1.00  0.00     0.025 C 
ATOM     18  C   UNL A   1      31.909  24.718  24.462  1.00  0.00     0.314 C 
BRANCH   9  19
ATOM     19  C   UNL A   1      33.036  18.801  25.374  1.00  0.00     0.037 C 
BRANCH  19  20
ATOM     20  C   UNL A   1      32.531  18.047  24.132  1.00  0.00     0.001 C 
ATOM     21  C   UNL A   1      33.563  17.107  23.519  1.00  0.00     0.004 C 
ENDBRANCH  19  20
ENDBRANCH   9  19
BRANCH  18  22
ATOM     22  C   UNL A   1      31.350  24.513  23.039  1.00  0.00     0.429 C 
ATOM     23  F   UNL A   1      32.272  23.909  22.249  1.00  0.00    -0.167 F 
ATOM     24  F   UNL A   1      30.254  23.716  23.025  1.00  0.00    -0.167 F 
ATOM     25  F   UNL A   1      30.998  25.672  22.440  1.00  0.00    -0.167 F 
ENDBRANCH  18  22
ENDBRANCH   5   8
ENDBRANCH   3   4
ENDBRANCH   2   3
ENDBRANCH   1   2
BRANCH   1  26
ATOM     26  C   UNL A   1      31.605  30.699  26.192  1.00  0.00     0.002 C 
BRANCH  26  27
ATOM     27  C   UNL A   1      31.409  32.172  26.560  1.00  0.00     0.021 C 
BRANCH  27  28
ATOM     28  C   UNL A   1      32.581  32.808  27.298  1.00  0.00     0.116 C 
BRANCH  28  29
ATOM     29  N   UNL A   1      32.341  34.204  27.626  1.00  0.00    -0.352 N 
ATOM     30  C   UNL A   1      32.961  34.998  28.560  1.00  0.00     0.251 C 
ATOM     31  H   UNL A   1      31.633  34.644  27.103  1.00  0.00     0.163 HD
ATOM     32  O   UNL A   1      32.522  36.114  28.816  1.00  0.00    -0.269 OA
BRANCH  30  33
ATOM     33  C   UNL A   1      34.144  34.488  29.283  1.00  0.00     0.039 A 
ATOM     34  C   UNL A   1      35.419  34.586  28.721  1.00  0.00     0.014 A 
ATOM     35  C   UNL A   1      33.972  33.888  30.535  1.00  0.00     0.014 A 
ATOM     36  C   UNL A   1      36.491  33.947  29.332  1.00  0.00     0.010 A 
ATOM     37  C   UNL A   1      35.068  33.316  31.186  1.00  0.00     0.010 A 
ATOM     38  C   UNL A   1      36.327  33.299  30.568  1.00  0.00    -0.014 A 
BRANCH  38  39
ATOM     39  C   UNL A   1      37.487  32.607  31.185  1.00  0.00     0.031 A 
ATOM     40  C   UNL A   1      37.932  32.947  32.581  1.00  0.00     0.074 A 
ATOM     41  C   UNL A   1      38.098  31.618  30.504  1.00  0.00     0.049 A 
ATOM     42  N   UNL A   1      38.894  32.415  33.293  1.00  0.00    -0.248 NA
ATOM     43  C   UNL A   1      37.209  34.027  33.269  1.00  0.00     0.031 C 
ATOM     44  C   UNL A   1      37.749  31.194  29.148  1.00  0.00     0.029 A 
ATOM     45  N   UNL A   1      39.115  30.772  30.867  1.00  0.00    -0.354 N 
ATOM     46  C   UNL A   1      38.898  33.099  34.501  1.00  0.00     0.074 A 
ATOM     47  C   UNL A   1      37.865  34.109  34.419  1.00  0.00     0.031 C 
ATOM     48  C   UNL A   1      38.494  30.129  28.816  1.00  0.00     0.029 A 
ATOM     49  C   UNL A   1      39.414  29.833  29.911  1.00  0.00     0.049 A 
ATOM     50  H   UNL A   1      39.585  30.832  31.730  1.00  0.00     0.167 HD
ATOM     51  C   UNL A   1      39.682  32.892  35.585  1.00  0.00     0.037 A 
ATOM     52  C   UNL A   1      40.329  28.846  29.911  1.00  0.00     0.037 A 
ATOM     53  C   UNL A   1      40.692  31.870  35.674  1.00  0.00     0.049 A 
ATOM     54  C   UNL A   1      41.212  28.665  31.111  1.00  0.00     0.074 A 
ATOM     55  C   UNL A   1      41.520  31.568  36.742  1.00  0.00     0.029 A 
ATOM     56  N   UNL A   1      41.008  30.981  34.659  1.00  0.00    -0.354 N 
ATOM     57  N   UNL A   1      41.199  29.314  32.250  1.00  0.00    -0.248 NA
ATOM     58  C   UNL A   1      42.246  27.625  31.024  1.00  0.00     0.031 C 
ATOM     59  C   UNL A   1      42.364  30.521  36.359  1.00  0.00     0.029 A 
ATOM     60  C   UNL A   1      42.033  30.143  35.068  1.00  0.00     0.049 A 
ATOM     61  H   UNL A   1      40.568  30.949  33.778  1.00  0.00     0.167 HD
ATOM     62  C   UNL A   1      42.213  28.759  33.017  1.00  0.00     0.074 A 
ATOM     63  C   UNL A   1      42.809  27.705  32.222  1.00  0.00     0.031 C 
ATOM     64  C   UNL A   1      42.616  29.099  34.265  1.00  0.00     0.037 A 
BRANCH  51  65
ATOM     65  C   UNL A   1      39.488  33.787  36.774  1.00  0.00     0.064 A 
ATOM     66  C   UNL A   1      38.690  33.399  37.860  1.00  0.00     0.173 A 
ATOM     67  C   UNL A   1      40.166  35.013  36.861  1.00  0.00     0.173 A 
ATOM     68  F   UNL A   1      38.012  32.242  37.821  1.00  0.00    -0.203 F 
ATOM     69  C   UNL A   1      38.569  34.211  38.985  1.00  0.00     0.198 A 
ATOM     70  C   UNL A   1      40.063  35.811  37.998  1.00  0.00     0.198 A 
ATOM     71  F   UNL A   1      40.947  35.426  35.852  1.00  0.00    -0.203 F 
ATOM     72  F   UNL A   1      37.779  33.834  40.000  1.00  0.00    -0.200 F 
ATOM     73  C   UNL A   1      39.262  35.411  39.057  1.00  0.00     0.200 A 
ATOM     74  F   UNL A   1      40.743  36.963  38.070  1.00  0.00    -0.200 F 
ATOM     75  F   UNL A   1      39.156  36.183  40.147  1.00  0.00    -0.200 F 
ENDBRANCH  51  65
BRANCH  52  76
ATOM     76  C   UNL A   1      40.438  27.949  28.733  1.00  0.00     0.064 A 
ATOM     77  C   UNL A   1      39.732  26.740  28.683  1.00  0.00     0.173 A 
ATOM     78  C   UNL A   1      41.217  28.298  27.620  1.00  0.00     0.173 A 
ATOM     79  F   UNL A   1      38.990  26.355  29.731  1.00  0.00    -0.203 F 
ATOM     80  C   UNL A   1      39.802  25.913  27.564  1.00  0.00     0.198 A 
ATOM     81  C   UNL A   1      41.264  27.484  26.491  1.00  0.00     0.198 A 
ATOM     82  F   UNL A   1      41.908  29.447  27.618  1.00  0.00    -0.203 F 
ATOM     83  F   UNL A   1      39.136  24.750  27.551  1.00  0.00    -0.200 F 
ATOM     84  C   UNL A   1      40.559  26.290  26.465  1.00  0.00     0.200 A 
ATOM     85  F   UNL A   1      41.985  27.860  25.426  1.00  0.00    -0.200 F 
ATOM     86  F   UNL A   1      40.612  25.502  25.383  1.00  0.00    -0.200 F 
ENDBRANCH  52  76
BRANCH  64  87
ATOM     87  C   UNL A   1      43.753  28.324  34.859  1.00  0.00     0.064 A 
ATOM     88  C   UNL A   1      45.075  28.779  34.758  1.00  0.00     0.173 A 
ATOM     89  C   UNL A   1      43.510  27.158  35.601  1.00  0.00     0.173 A 
ATOM     90  F   UNL A   1      45.356  29.882  34.047  1.00  0.00    -0.203 F 
ATOM     91  C   UNL A   1      46.116  28.090  35.374  1.00  0.00     0.198 A 
ATOM     92  C   UNL A   1      44.551  26.486  36.235  1.00  0.00     0.198 A 
ATOM     93  F   UNL A   1      42.261  26.687  35.732  1.00  0.00    -0.203 F 
ATOM     94  F   UNL A   1      47.376  28.527  35.243  1.00  0.00    -0.200 F 
ATOM     95  C   UNL A   1      45.852  26.951  36.120  1.00  0.00     0.200 A 
ATOM     96  F   UNL A   1      44.293  25.392  36.966  1.00  0.00    -0.200 F 
ATOM     97  F   UNL A   1      46.854  26.298  36.724  1.00  0.00    -0.200 F 
ENDBRANCH  64  87
ENDBRANCH  38  39
ENDBRANCH  30  33
ENDBRANCH  28  29
ENDBRANCH  27  28
ENDBRANCH  26  27
ENDBRANCH   1  26
TORSDOF 16
ENDMDL
MODEL 2
REMARK VINA RESULT:     -12.4      0.310      7.254
REMARK SMILES CCCc1cc2c(cc1Cl)C=C(C(=O)NCCCCCCNC(=O)c1ccc(-c3c4nc(c(-c5c(F)c(F)c(F)c(F)c5F)c5ccc([nH]5)c(-c5c(F)c(F)c(F)c(F)c5F)c5nc(c(-c6c(F)c(F)c(F)c(F)c6F)c6ccc3[nH]6)C=C5)C=C4)cc1)[C@@H](C(F)(F)F)O2
REMARK SMILES IDX 18 1 17 2 16 3 15 4 13 5 14 6 12 8 4 9 5 10 9 11 6 12 8 13
REMARK SMILES IDX 10 14 7 15 93 16 11 17 88 18 3 19 2 20 1 21 89 22 90 23
REMARK SMILES IDX 91 24 92 25 19 26 20 27 21 28 22 29 23 30 24 32 25 33 26 34
REMARK SMILES IDX 87 35 27 36 86 37 28 38 29 39 30 40 80 41 31 42 85 43 79 44
REMARK SMILES IDX 81 45 32 46 84 47 78 48 77 49 33 51 65 52 45 53 64 54 46 55
REMARK SMILES IDX 49 56 63 57 82 58 47 59 48 60 62 62 83 63 50 64 34 65 35 66
REMARK SMILES IDX 43 67 36 68 37 69 41 70 44 71 38 72 39 73 42 74 40 75 66 76
REMARK SMILES IDX 67 77 75 78 68 79 69 80 73 81 76 82 70 83 71 84 74 85 72 86
REMARK SMILES IDX 51 87 52 88 60 89 53 90 54 91 58 92 61 93 55 94 56 95 59 96
REMARK SMILES IDX 57 97
REMARK H PARENT 15 7 22 31 81 50 49 61
REMARK Flexibility Score: inf
ROOT
ATOM      1  C   UNL A   1      32.457  30.082  27.172  1.00  0.00     0.002 C 
ENDROOT
BRANCH   1   2
ATOM      2  C   UNL A   1      32.262  28.563  27.234  1.00  0.00     0.021 C 
BRANCH   2   3
ATOM      3  C   UNL A   1      33.498  27.764  26.830  1.00  0.00     0.116 C 
BRANCH   3   4
ATOM      4  N   UNL A   1      33.652  27.702  25.387  1.00  0.00    -0.352 N 
ATOM      5  C   UNL A   1      33.534  26.773  24.411  1.00  0.00     0.251 C 
ATOM      6  O   UNL A   1      33.742  27.185  23.264  1.00  0.00    -0.270 OA
ATOM      7  H   UNL A   1      33.914  28.577  25.018  1.00  0.00     0.163 HD
BRANCH   5   8
ATOM      8  C   UNL A   1      33.183  25.337  24.621  1.00  0.00     0.067 C 
ATOM      9  C   UNL A   1      33.248  20.327  25.253  1.00  0.00    -0.026 A 
ATOM     10  C   UNL A   1      32.294  21.336  25.432  1.00  0.00     0.052 A 
ATOM     11  C   UNL A   1      34.572  20.729  24.979  1.00  0.00     0.045 A 
ATOM     12  C   UNL A   1      32.626  22.674  25.243  1.00  0.00     0.128 A 
ATOM     13  C   UNL A   1      34.911  22.083  24.834  1.00  0.00     0.032 A 
ATOM     14  Cl  UNL A   1      35.850  19.574  24.810  1.00  0.00    -0.084 Cl
ATOM     15  C   UNL A   1      33.928  23.065  24.944  1.00  0.00     0.019 A 
ATOM     16  O   UNL A   1      31.607  23.573  25.382  1.00  0.00    -0.475 OA
ATOM     17  C   UNL A   1      34.217  24.486  24.775  1.00  0.00     0.025 C 
ATOM     18  C   UNL A   1      31.778  24.807  24.635  1.00  0.00     0.314 C 
BRANCH   9  19
ATOM     19  C   UNL A   1      32.880  18.860  25.362  1.00  0.00     0.037 C 
BRANCH  19  20
ATOM     20  C   UNL A   1      32.964  17.988  24.097  1.00  0.00     0.001 C 
ATOM     21  C   UNL A   1      32.308  18.614  22.871  1.00  0.00     0.004 C 
ENDBRANCH  19  20
ENDBRANCH   9  19
BRANCH  18  22
ATOM     22  C   UNL A   1      31.190  24.646  23.218  1.00  0.00     0.429 C 
ATOM     23  F   UNL A   1      30.371  25.686  22.923  1.00  0.00    -0.167 F 
ATOM     24  F   UNL A   1      32.149  24.632  22.260  1.00  0.00    -0.167 F 
ATOM     25  F   UNL A   1      30.473  23.510  23.071  1.00  0.00    -0.167 F 
ENDBRANCH  18  22
ENDBRANCH   5   8
ENDBRANCH   3   4
ENDBRANCH   2   3
ENDBRANCH   1   2
BRANCH   1  26
ATOM     26  C   UNL A   1      31.472  30.839  26.270  1.00  0.00     0.002 C 
BRANCH  26  27
ATOM     27  C   UNL A   1      31.396  32.350  26.498  1.00  0.00     0.021 C 
BRANCH  27  28
ATOM     28  C   UNL A   1      32.550  32.934  27.304  1.00  0.00     0.116 C 
BRANCH  28  29
ATOM     29  N   UNL A   1      32.347  34.336  27.632  1.00  0.00    -0.352 N 
ATOM     30  C   UNL A   1      32.955  35.101  28.598  1.00  0.00     0.251 C 
ATOM     31  H   UNL A   1      31.679  34.805  27.083  1.00  0.00     0.163 HD
ATOM     32  O   UNL A   1      32.546  36.231  28.843  1.00  0.00    -0.269 OA
BRANCH  30  33
ATOM     33  C   UNL A   1      34.087  34.544  29.367  1.00  0.00     0.039 A 
ATOM     34  C   UNL A   1      35.381  34.566  28.844  1.00  0.00     0.014 A 
ATOM     35  C   UNL A   1      33.845  33.978  30.622  1.00  0.00     0.014 A 
ATOM     36  C   UNL A   1      36.400  33.883  29.499  1.00  0.00     0.010 A 
ATOM     37  C   UNL A   1      34.889  33.362  31.318  1.00  0.00     0.010 A 
ATOM     38  C   UNL A   1      36.164  33.268  30.740  1.00  0.00    -0.014 A 
BRANCH  38  39
ATOM     39  C   UNL A   1      37.267  32.529  31.405  1.00  0.00     0.031 A 
ATOM     40  C   UNL A   1      38.001  31.431  30.685  1.00  0.00     0.074 A 
ATOM     41  C   UNL A   1      37.651  32.899  32.643  1.00  0.00     0.049 A 
ATOM     42  N   UNL A   1      39.016  30.711  31.095  1.00  0.00    -0.248 NA
ATOM     43  C   UNL A   1      37.536  31.091  29.331  1.00  0.00     0.031 C 
ATOM     44  C   UNL A   1      37.021  33.955  33.435  1.00  0.00     0.029 A 
ATOM     45  N   UNL A   1      38.678  32.454  33.436  1.00  0.00    -0.354 N 
ATOM     46  C   UNL A   1      39.301  29.830  30.059  1.00  0.00     0.074 A 
ATOM     47  C   UNL A   1      38.334  30.081  29.012  1.00  0.00     0.031 C 
ATOM     48  C   UNL A   1      37.711  34.120  34.574  1.00  0.00     0.029 A 
ATOM     49  C   UNL A   1      38.795  33.142  34.618  1.00  0.00     0.049 A 
ATOM     50  H   UNL A   1      39.275  31.713  33.181  1.00  0.00     0.167 HD
ATOM     51  C   UNL A   1      40.290  28.909  29.984  1.00  0.00     0.037 A 
ATOM     52  C   UNL A   1      39.672  33.000  35.629  1.00  0.00     0.037 A 
ATOM     53  C   UNL A   1      41.266  28.679  31.016  1.00  0.00     0.049 A 
ATOM     54  C   UNL A   1      40.733  31.943  35.535  1.00  0.00     0.074 A 
ATOM     55  C   UNL A   1      42.322  27.783  31.019  1.00  0.00     0.029 A 
ATOM     56  N   UNL A   1      41.311  29.353  32.226  1.00  0.00    -0.354 N 
ATOM     57  N   UNL A   1      40.997  31.124  34.546  1.00  0.00    -0.248 NA
ATOM     58  C   UNL A   1      41.612  31.779  36.702  1.00  0.00     0.031 C 
ATOM     59  C   UNL A   1      42.981  27.888  32.247  1.00  0.00     0.029 A 
ATOM     60  C   UNL A   1      42.362  28.878  32.992  1.00  0.00     0.049 A 
ATOM     61  H   UNL A   1      40.687  30.064  32.501  1.00  0.00     0.167 HD
ATOM     62  C   UNL A   1      42.072  30.354  34.965  1.00  0.00     0.074 A 
ATOM     63  C   UNL A   1      42.428  30.818  36.290  1.00  0.00     0.031 C 
ATOM     64  C   UNL A   1      42.703  29.350  34.310  1.00  0.00     0.037 A 
BRANCH  51  65
ATOM     65  C   UNL A   1      40.375  28.069  28.743  1.00  0.00     0.064 A 
ATOM     66  C   UNL A   1      41.141  28.470  27.638  1.00  0.00     0.173 A 
ATOM     67  C   UNL A   1      39.744  26.817  28.686  1.00  0.00     0.173 A 
ATOM     68  F   UNL A   1      41.754  29.663  27.639  1.00  0.00    -0.203 F 
ATOM     69  C   UNL A   1      41.263  27.653  26.517  1.00  0.00     0.198 A 
ATOM     70  C   UNL A   1      39.889  25.991  27.574  1.00  0.00     0.198 A 
ATOM     71  F   UNL A   1      39.005  26.384  29.719  1.00  0.00    -0.203 F 
ATOM     72  F   UNL A   1      41.977  28.068  25.462  1.00  0.00    -0.200 F 
ATOM     73  C   UNL A   1      40.645  26.411  26.490  1.00  0.00     0.200 A 
ATOM     74  F   UNL A   1      39.301  24.787  27.554  1.00  0.00    -0.200 F 
ATOM     75  F   UNL A   1      40.777  25.619  25.416  1.00  0.00    -0.200 F 
ENDBRANCH  51  65
BRANCH  52  76
ATOM     76  C   UNL A   1      39.582  33.899  36.807  1.00  0.00     0.064 A 
ATOM     77  C   UNL A   1      38.849  33.525  37.941  1.00  0.00     0.173 A 
ATOM     78  C   UNL A   1      40.255  35.129  36.839  1.00  0.00     0.173 A 
ATOM     79  F   UNL A   1      38.173  32.368  37.950  1.00  0.00    -0.203 F 
ATOM     80  C   UNL A   1      38.793  34.349  39.064  1.00  0.00     0.198 A 
ATOM     81  C   UNL A   1      40.221  35.939  37.971  1.00  0.00     0.198 A 
ATOM     82  F   UNL A   1      40.973  35.529  35.779  1.00  0.00    -0.203 F 
ATOM     83  F   UNL A   1      38.066  33.980  40.127  1.00  0.00    -0.200 F 
ATOM     84  C   UNL A   1      39.487  35.550  39.082  1.00  0.00     0.200 A 
ATOM     85  F   UNL A   1      40.906  37.090  37.990  1.00  0.00    -0.200 F 
ATOM     86  F   UNL A   1      39.446  36.333  40.168  1.00  0.00    -0.200 F 
ENDBRANCH  52  76
BRANCH  64  87
ATOM     87  C   UNL A   1      43.848  28.681  35.008  1.00  0.00     0.064 A 
ATOM     88  C   UNL A   1      43.651  27.542  35.802  1.00  0.00     0.173 A 
ATOM     89  C   UNL A   1      45.162  29.137  34.821  1.00  0.00     0.173 A 
ATOM     90  F   UNL A   1      42.411  27.078  36.021  1.00  0.00    -0.203 F 
ATOM     91  C   UNL A   1      44.729  26.886  36.389  1.00  0.00     0.198 A 
ATOM     92  C   UNL A   1      46.238  28.464  35.390  1.00  0.00     0.198 A 
ATOM     93  F   UNL A   1      45.401  30.219  34.065  1.00  0.00    -0.203 F 
ATOM     94  F   UNL A   1      44.518  25.815  37.165  1.00  0.00    -0.200 F 
ATOM     95  C   UNL A   1      46.023  27.341  36.174  1.00  0.00     0.200 A 
ATOM     96  F   UNL A   1      47.488  28.897  35.171  1.00  0.00    -0.200 F 
ATOM     97  F   UNL A   1      47.060  26.699  36.728  1.00  0.00    -0.200 F 
ENDBRANCH  64  87
ENDBRANCH  38  39
ENDBRANCH  30  33
ENDBRANCH  28  29
ENDBRANCH  27  28
ENDBRANCH  26  27
ENDBRANCH   1  26
TORSDOF 16
ENDMDL
MODEL 3
REMARK VINA RESULT:     -12.3      2.685      4.894
REMARK SMILES CCCc1cc2c(cc1Cl)C=C(C(=O)NCCCCCCNC(=O)c1ccc(-c3c4nc(c(-c5c(F)c(F)c(F)c(F)c5F)c5ccc([nH]5)c(-c5c(F)c(F)c(F)c(F)c5F)c5nc(c(-c6c(F)c(F)c(F)c(F)c6F)c6ccc3[nH]6)C=C5)C=C4)cc1)[C@@H](C(F)(F)F)O2
REMARK SMILES IDX 18 1 17 2 16 3 15 4 13 5 14 6 12 8 4 9 5 10 9 11 6 12 8 13
REMARK SMILES IDX 10 14 7 15 93 16 11 17 88 18 3 19 2 20 1 21 89 22 90 23
REMARK SMILES IDX 91 24 92 25 19 26 20 27 21 28 22 29 23 30 24 32 25 33 26 34
REMARK SMILES IDX 87 35 27 36 86 37 28 38 29 39 30 40 80 41 31 42 85 43 79 44
REMARK SMILES IDX 81 45 32 46 84 47 78 48 77 49 33 51 65 52 45 53 64 54 46 55
REMARK SMILES IDX 49 56 63 57 82 58 47 59 48 60 62 62 83 63 50 64 34 65 35 66
REMARK SMILES IDX 43 67 36 68 37 69 41 70 44 71 38 72 39 73 42 74 40 75 66 76
REMARK SMILES IDX 67 77 75 78 68 79 69 80 73 81 76 82 70 83 71 84 74 85 72 86
REMARK SMILES IDX 51 87 52 88 60 89 53 90 54 91 58 92 61 93 55 94 56 95 59 96
REMARK SMILES IDX 57 97
REMARK H PARENT 15 7 22 31 81 50 49 61
REMARK Flexibility Score: inf
ROOT
ATOM      1  C   UNL A   1      34.057  26.546  26.168  1.00  0.00     0.002 C 
ENDROOT
BRANCH   1   2
ATOM      2  C   UNL A   1      34.371  25.196  25.514  1.00  0.00     0.021 C 
BRANCH   2   3
ATOM      3  C   UNL A   1      33.502  24.048  26.021  1.00  0.00     0.116 C 
BRANCH   3   4
ATOM      4  N   UNL A   1      32.824  23.363  24.933  1.00  0.00    -0.352 N 
ATOM      5  C   UNL A   1      32.081  23.699  23.853  1.00  0.00     0.251 C 
ATOM      6  O   UNL A   1      31.715  22.750  23.152  1.00  0.00    -0.270 OA
ATOM      7  H   UNL A   1      32.938  22.387  24.999  1.00  0.00     0.163 HD
BRANCH   5   8
ATOM      8  C   UNL A   1      31.690  25.088  23.470  1.00  0.00     0.067 C 
ATOM      9  C   UNL A   1      29.248  29.430  22.643  1.00  0.00    -0.026 A 
ATOM     10  C   UNL A   1      30.590  29.031  22.633  1.00  0.00     0.052 A 
ATOM     11  C   UNL A   1      28.300  28.508  23.134  1.00  0.00     0.045 A 
ATOM     12  C   UNL A   1      30.953  27.738  22.998  1.00  0.00     0.128 A 
ATOM     13  C   UNL A   1      28.678  27.220  23.544  1.00  0.00     0.032 A 
ATOM     14  Cl  UNL A   1      26.624  28.916  23.260  1.00  0.00    -0.084 Cl
ATOM     15  C   UNL A   1      30.011  26.820  23.455  1.00  0.00     0.019 A 
ATOM     16  O   UNL A   1      32.280  27.432  22.895  1.00  0.00    -0.475 OA
ATOM     17  C   UNL A   1      30.456  25.485  23.840  1.00  0.00     0.025 C 
ATOM     18  C   UNL A   1      32.566  26.024  22.687  1.00  0.00     0.314 C 
BRANCH   9  19
ATOM     19  C   UNL A   1      28.826  30.804  22.157  1.00  0.00     0.037 C 
BRANCH  19  20
ATOM     20  C   UNL A   1      28.373  31.842  23.198  1.00  0.00     0.001 C 
ATOM     21  C   UNL A   1      28.880  33.253  22.923  1.00  0.00     0.004 C 
ENDBRANCH  19  20
ENDBRANCH   9  19
BRANCH  18  22
ATOM     22  C   UNL A   1      32.569  25.709  21.177  1.00  0.00     0.429 C 
ATOM     23  F   UNL A   1      33.362  26.585  20.511  1.00  0.00    -0.167 F 
ATOM     24  F   UNL A   1      33.056  24.473  20.908  1.00  0.00    -0.167 F 
ATOM     25  F   UNL A   1      31.338  25.773  20.622  1.00  0.00    -0.167 F 
ENDBRANCH  18  22
ENDBRANCH   5   8
ENDBRANCH   3   4
ENDBRANCH   2   3
ENDBRANCH   1   2
BRANCH   1  26
ATOM     26  C   UNL A   1      32.566  26.849  26.377  1.00  0.00     0.002 C 
BRANCH  26  27
ATOM     27  C   UNL A   1      32.230  28.301  26.724  1.00  0.00     0.021 C 
BRANCH  27  28
ATOM     28  C   UNL A   1      33.081  29.343  26.007  1.00  0.00     0.116 C 
BRANCH  28  29
ATOM     29  N   UNL A   1      32.759  30.701  26.416  1.00  0.00    -0.352 N 
ATOM     30  C   UNL A   1      33.430  31.532  27.281  1.00  0.00     0.251 C 
ATOM     31  H   UNL A   1      31.945  31.080  26.014  1.00  0.00     0.163 HD
ATOM     32  O   UNL A   1      32.928  32.594  27.635  1.00  0.00    -0.269 OA
BRANCH  30  33
ATOM     33  C   UNL A   1      34.748  31.126  27.810  1.00  0.00     0.039 A 
ATOM     34  C   UNL A   1      34.967  29.818  28.246  1.00  0.00     0.014 A 
ATOM     35  C   UNL A   1      35.773  32.074  27.886  1.00  0.00     0.014 A 
ATOM     36  C   UNL A   1      36.151  29.501  28.902  1.00  0.00     0.010 A 
ATOM     37  C   UNL A   1      36.993  31.730  28.473  1.00  0.00     0.010 A 
ATOM     38  C   UNL A   1      37.175  30.454  29.029  1.00  0.00    -0.014 A 
BRANCH  38  39
ATOM     39  C   UNL A   1      38.420  30.091  29.752  1.00  0.00     0.031 A 
ATOM     40  C   UNL A   1      38.668  30.584  31.152  1.00  0.00     0.074 A 
ATOM     41  C   UNL A   1      39.299  29.255  29.166  1.00  0.00     0.049 A 
ATOM     42  N   UNL A   1      39.676  30.331  31.949  1.00  0.00    -0.248 NA
ATOM     43  C   UNL A   1      37.657  31.482  31.733  1.00  0.00     0.031 C 
ATOM     44  C   UNL A   1      39.161  28.705  27.817  1.00  0.00     0.029 A 
ATOM     45  N   UNL A   1      40.461  28.698  29.637  1.00  0.00    -0.354 N 
ATOM     46  C   UNL A   1      39.427  31.044  33.115  1.00  0.00     0.074 A 
ATOM     47  C   UNL A   1      38.190  31.766  32.914  1.00  0.00     0.031 C 
ATOM     48  C   UNL A   1      40.163  27.842  27.591  1.00  0.00     0.029 A 
ATOM     49  C   UNL A   1      41.045  27.823  28.754  1.00  0.00     0.049 A 
ATOM     50  H   UNL A   1      40.839  28.905  30.522  1.00  0.00     0.167 HD
ATOM     51  C   UNL A   1      40.158  31.078  34.254  1.00  0.00     0.037 A 
ATOM     52  C   UNL A   1      42.169  27.090  28.865  1.00  0.00     0.037 A 
ATOM     53  C   UNL A   1      41.374  30.338  34.462  1.00  0.00     0.049 A 
ATOM     54  C   UNL A   1      42.981  27.179  30.125  1.00  0.00     0.074 A 
ATOM     55  C   UNL A   1      42.172  30.289  35.593  1.00  0.00     0.029 A 
ATOM     56  N   UNL A   1      41.968  29.513  33.519  1.00  0.00    -0.354 N 
ATOM     57  N   UNL A   1      42.729  27.850  31.223  1.00  0.00    -0.248 NA
ATOM     58  C   UNL A   1      44.238  26.420  30.159  1.00  0.00     0.031 C 
ATOM     59  C   UNL A   1      43.268  29.466  35.320  1.00  0.00     0.029 A 
ATOM     60  C   UNL A   1      43.132  28.968  34.035  1.00  0.00     0.049 A 
ATOM     61  H   UNL A   1      41.614  29.340  32.616  1.00  0.00     0.167 HD
ATOM     62  C   UNL A   1      43.788  27.590  32.079  1.00  0.00     0.074 A 
ATOM     63  C   UNL A   1      44.677  26.682  31.383  1.00  0.00     0.031 C 
ATOM     64  C   UNL A   1      44.007  28.067  33.329  1.00  0.00     0.037 A 
BRANCH  51  65
ATOM     65  C   UNL A   1      39.668  31.945  35.378  1.00  0.00     0.064 A 
ATOM     66  C   UNL A   1      40.061  33.286  35.491  1.00  0.00     0.173 A 
ATOM     67  C   UNL A   1      38.740  31.450  36.306  1.00  0.00     0.173 A 
ATOM     68  F   UNL A   1      40.955  33.804  34.635  1.00  0.00    -0.203 F 
ATOM     69  C   UNL A   1      39.550  34.098  36.501  1.00  0.00     0.198 A 
ATOM     70  C   UNL A   1      38.212  32.272  37.299  1.00  0.00     0.198 A 
ATOM     71  F   UNL A   1      38.327  30.176  36.237  1.00  0.00    -0.203 F 
ATOM     72  F   UNL A   1      39.960  35.370  36.607  1.00  0.00    -0.200 F 
ATOM     73  C   UNL A   1      38.620  33.593  37.398  1.00  0.00     0.200 A 
ATOM     74  F   UNL A   1      37.304  31.786  38.157  1.00  0.00    -0.200 F 
ATOM     75  F   UNL A   1      38.117  34.381  38.359  1.00  0.00    -0.200 F 
ENDBRANCH  51  65
BRANCH  52  76
ATOM     76  C   UNL A   1      42.576  26.201  27.748  1.00  0.00     0.064 A 
ATOM     77  C   UNL A   1      43.504  26.629  26.791  1.00  0.00     0.173 A 
ATOM     78  C   UNL A   1      42.074  24.896  27.637  1.00  0.00     0.173 A 
ATOM     79  F   UNL A   1      43.996  27.875  26.845  1.00  0.00    -0.203 F 
ATOM     80  C   UNL A   1      43.917  25.784  25.762  1.00  0.00     0.198 A 
ATOM     81  C   UNL A   1      42.508  24.043  26.624  1.00  0.00     0.198 A 
ATOM     82  F   UNL A   1      41.186  24.439  28.531  1.00  0.00    -0.203 F 
ATOM     83  F   UNL A   1      44.788  26.225  24.845  1.00  0.00    -0.200 F 
ATOM     84  C   UNL A   1      43.426  24.488  25.686  1.00  0.00     0.200 A 
ATOM     85  F   UNL A   1      42.043  22.788  26.564  1.00  0.00    -0.200 F 
ATOM     86  F   UNL A   1      43.837  23.672  24.706  1.00  0.00    -0.200 F 
ENDBRANCH  52  76
BRANCH  64  87
ATOM     87  C   UNL A   1      45.250  27.618  34.033  1.00  0.00     0.064 A 
ATOM     88  C   UNL A   1      46.436  28.362  33.961  1.00  0.00     0.173 A 
ATOM     89  C   UNL A   1      45.236  26.475  34.848  1.00  0.00     0.173 A 
ATOM     90  F   UNL A   1      46.502  29.454  33.185  1.00  0.00    -0.203 F 
ATOM     91  C   UNL A   1      47.567  27.975  34.676  1.00  0.00     0.198 A 
ATOM     92  C   UNL A   1      46.360  26.105  35.579  1.00  0.00     0.198 A 
ATOM     93  F   UNL A   1      44.122  25.734  34.953  1.00  0.00    -0.203 F 
ATOM     94  F   UNL A   1      48.698  28.685  34.574  1.00  0.00    -0.200 F 
ATOM     95  C   UNL A   1      47.525  26.853  35.492  1.00  0.00     0.200 A 
ATOM     96  F   UNL A   1      46.314  25.028  36.376  1.00  0.00    -0.200 F 
ATOM     97  F   UNL A   1      48.609  26.491  36.191  1.00  0.00    -0.200 F 
ENDBRANCH  64  87
ENDBRANCH  38  39
ENDBRANCH  30  33
ENDBRANCH  28  29
ENDBRANCH  27  28
ENDBRANCH  26  27
ENDBRANCH   1  26
TORSDOF 16
ENDMDL
