MODEL 1
REMARK VINA RESULT:     -12.8      0.000      0.000
REMARK SMILES O=C(NCCCCCCNC(=O)c1ccc([S@@](=O)[C@H]2CCOC3(CCCC3)C2)cc1)c1ccc(-c2c3nc(c(-c4c(F)c(F)c(F)c(F)c4F)c4ccc([nH]4)c(-c4c(F)c(F)c(F)c(F)c4F)c4nc(c(-c5c(F)c(F)c(F)c(F)c5F)c5ccc2[nH]5)C=C4)C=C3)cc1
REMARK SMILES IDX 6 1 5 2 4 3 3 4 1 5 2 6 31 8 32 9 93 10 33 11 92 12 34 13
REMARK SMILES IDX 35 14 36 15 86 16 37 17 91 18 85 19 87 20 38 21 90 22 84 23
REMARK SMILES IDX 83 24 39 26 71 27 51 28 70 29 52 30 55 31 69 32 88 33 53 34
REMARK SMILES IDX 54 35 68 37 89 38 56 39 40 40 41 41 49 42 42 43 43 44 47 45
REMARK SMILES IDX 50 46 44 47 45 48 48 49 46 50 72 51 73 52 81 53 74 54 75 55
REMARK SMILES IDX 79 56 82 57 76 58 77 59 80 60 78 61 57 62 58 63 66 64 59 65
REMARK SMILES IDX 60 66 64 67 67 68 61 69 62 70 65 71 63 72 7 73 8 74 9 75
REMARK SMILES IDX 10 76 11 77 12 79 13 80 14 81 30 82 15 83 29 84 16 85 17 86
REMARK SMILES IDX 18 87 19 88 20 89 28 90 21 91 23 92 22 93 24 94 27 95 25 96
REMARK SMILES IDX 26 97
REMARK H PARENT 3 7 87 25 55 36 10 78
REMARK Flexibility Score: inf
ROOT
ATOM      1  C   UNL A   1      37.349  21.129  24.627  1.00  0.00     0.002 C 
ENDROOT
BRANCH   1   2
ATOM      2  C   UNL A   1      38.174  19.898  25.001  1.00  0.00     0.021 C 
BRANCH   2   3
ATOM      3  C   UNL A   1      39.303  20.173  25.982  1.00  0.00     0.116 C 
BRANCH   3   4
ATOM      4  N   UNL A   1      40.346  19.163  25.917  1.00  0.00    -0.352 N 
ATOM      5  O   UNL A   1      42.471  18.408  25.745  1.00  0.00    -0.269 OA
ATOM      6  C   UNL A   1      41.705  19.333  26.002  1.00  0.00     0.251 C 
ATOM      7  H   UNL A   1      40.038  18.236  25.795  1.00  0.00     0.163 HD
BRANCH   6   8
ATOM      8  C   UNL A   1      42.242  20.650  26.402  1.00  0.00     0.039 A 
ATOM      9  C   UNL A   1      42.673  21.557  25.428  1.00  0.00     0.014 A 
ATOM     10  C   UNL A   1      42.298  20.986  27.755  1.00  0.00     0.014 A 
ATOM     11  C   UNL A   1      43.257  22.756  25.812  1.00  0.00     0.010 A 
ATOM     12  C   UNL A   1      42.802  22.231  28.137  1.00  0.00     0.010 A 
ATOM     13  C   UNL A   1      43.285  23.124  27.167  1.00  0.00    -0.014 A 
BRANCH  13  14
ATOM     14  C   UNL A   1      43.677  24.507  27.528  1.00  0.00     0.031 A 
ATOM     15  C   UNL A   1      42.659  25.537  27.917  1.00  0.00     0.074 A 
ATOM     16  C   UNL A   1      44.987  24.820  27.479  1.00  0.00     0.049 A 
ATOM     17  N   UNL A   1      42.844  26.797  28.219  1.00  0.00    -0.248 NA
ATOM     18  C   UNL A   1      41.254  25.107  27.971  1.00  0.00     0.031 C 
ATOM     19  C   UNL A   1      46.057  23.894  27.092  1.00  0.00     0.029 A 
ATOM     20  N   UNL A   1      45.648  25.990  27.747  1.00  0.00    -0.354 N 
ATOM     21  C   UNL A   1      41.583  27.318  28.477  1.00  0.00     0.074 A 
ATOM     22  C   UNL A   1      40.635  26.239  28.287  1.00  0.00     0.031 C 
ATOM     23  C   UNL A   1      47.237  24.524  27.168  1.00  0.00     0.029 A 
ATOM     24  C   UNL A   1      47.002  25.914  27.531  1.00  0.00     0.049 A 
ATOM     25  H   UNL A   1      45.195  26.807  28.062  1.00  0.00     0.167 HD
ATOM     26  C   UNL A   1      41.259  28.582  28.837  1.00  0.00     0.037 A 
ATOM     27  C   UNL A   1      47.949  26.869  27.574  1.00  0.00     0.037 A 
ATOM     28  C   UNL A   1      42.219  29.638  29.039  1.00  0.00     0.049 A 
ATOM     29  C   UNL A   1      47.543  28.270  27.934  1.00  0.00     0.074 A 
ATOM     30  C   UNL A   1      41.997  30.929  29.486  1.00  0.00     0.029 A 
ATOM     31  N   UNL A   1      43.580  29.531  28.789  1.00  0.00    -0.354 N 
ATOM     32  N   UNL A   1      46.358  28.728  28.259  1.00  0.00    -0.248 NA
ATOM     33  C   UNL A   1      48.601  29.287  27.928  1.00  0.00     0.031 C 
ATOM     34  C   UNL A   1      43.208  31.624  29.436  1.00  0.00     0.029 A 
ATOM     35  C   UNL A   1      44.199  30.750  29.021  1.00  0.00     0.049 A 
ATOM     36  H   UNL A   1      44.038  28.712  28.492  1.00  0.00     0.167 HD
ATOM     37  C   UNL A   1      46.530  30.082  28.504  1.00  0.00     0.074 A 
ATOM     38  C   UNL A   1      47.939  30.364  28.327  1.00  0.00     0.031 C 
ATOM     39  C   UNL A   1      45.603  31.012  28.835  1.00  0.00     0.037 A 
BRANCH  26  40
ATOM     40  C   UNL A   1      39.809  28.926  29.021  1.00  0.00     0.064 A 
ATOM     41  C   UNL A   1      39.005  29.338  27.950  1.00  0.00     0.173 A 
ATOM     42  C   UNL A   1      39.193  28.728  30.267  1.00  0.00     0.173 A 
ATOM     43  F   UNL A   1      39.544  29.547  26.740  1.00  0.00    -0.203 F 
ATOM     44  C   UNL A   1      37.636  29.540  28.121  1.00  0.00     0.198 A 
ATOM     45  C   UNL A   1      37.822  28.907  30.428  1.00  0.00     0.198 A 
ATOM     46  F   UNL A   1      39.918  28.327  31.322  1.00  0.00    -0.203 F 
ATOM     47  F   UNL A   1      36.887  29.950  27.087  1.00  0.00    -0.200 F 
ATOM     48  C   UNL A   1      37.045  29.312  29.354  1.00  0.00     0.200 A 
ATOM     49  F   UNL A   1      37.252  28.669  31.617  1.00  0.00    -0.200 F 
ATOM     50  F   UNL A   1      35.724  29.482  29.509  1.00  0.00    -0.200 F 
ENDBRANCH  26  40
BRANCH  27  51
ATOM     51  C   UNL A   1      49.353  26.546  27.211  1.00  0.00     0.064 A 
ATOM     52  C   UNL A   1      50.297  26.208  28.189  1.00  0.00     0.173 A 
ATOM     53  C   UNL A   1      49.789  26.599  25.877  1.00  0.00     0.173 A 
ATOM     54  F   UNL A   1      49.936  26.160  29.480  1.00  0.00    -0.203 F 
ATOM     55  C   UNL A   1      51.628  25.970  27.853  1.00  0.00     0.198 A 
ATOM     56  C   UNL A   1      51.110  26.322  25.537  1.00  0.00     0.198 A 
ATOM     57  F   UNL A   1      48.925  26.911  24.899  1.00  0.00    -0.203 F 
ATOM     58  F   UNL A   1      52.524  25.715  28.816  1.00  0.00    -0.200 F 
ATOM     59  C   UNL A   1      52.032  26.023  26.527  1.00  0.00     0.200 A 
ATOM     60  F   UNL A   1      51.489  26.353  24.253  1.00  0.00    -0.200 F 
ATOM     61  F   UNL A   1      53.313  25.798  26.205  1.00  0.00    -0.200 F 
ENDBRANCH  27  51
BRANCH  39  62
ATOM     62  C   UNL A   1      46.086  32.419  29.034  1.00  0.00     0.064 A 
ATOM     63  C   UNL A   1      46.061  33.355  27.990  1.00  0.00     0.173 A 
ATOM     64  C   UNL A   1      46.545  32.845  30.289  1.00  0.00     0.173 A 
ATOM     65  F   UNL A   1      45.651  32.990  26.765  1.00  0.00    -0.203 F 
ATOM     66  C   UNL A   1      46.498  34.661  28.189  1.00  0.00     0.198 A 
ATOM     67  C   UNL A   1      46.948  34.160  30.495  1.00  0.00     0.198 A 
ATOM     68  F   UNL A   1      46.585  31.989  31.322  1.00  0.00    -0.203 F 
ATOM     69  F   UNL A   1      46.512  35.524  27.165  1.00  0.00    -0.200 F 
ATOM     70  C   UNL A   1      46.932  35.065  29.444  1.00  0.00     0.200 A 
ATOM     71  F   UNL A   1      47.352  34.554  31.710  1.00  0.00    -0.200 F 
ATOM     72  F   UNL A   1      47.341  36.327  29.638  1.00  0.00    -0.200 F 
ENDBRANCH  39  62
ENDBRANCH  13  14
ENDBRANCH   6   8
ENDBRANCH   3   4
ENDBRANCH   2   3
ENDBRANCH   1   2
BRANCH   1  73
ATOM     73  C   UNL A   1      35.871  21.063  25.019  1.00  0.00     0.002 C 
BRANCH  73  74
ATOM     74  C   UNL A   1      35.477  21.906  26.236  1.00  0.00     0.021 C 
BRANCH  74  75
ATOM     75  C   UNL A   1      34.245  21.414  26.990  1.00  0.00     0.116 C 
BRANCH  75  76
ATOM     76  N   UNL A   1      33.559  20.351  26.280  1.00  0.00    -0.352 N 
ATOM     77  C   UNL A   1      32.536  20.423  25.371  1.00  0.00     0.251 C 
ATOM     78  H   UNL A   1      33.875  19.441  26.483  1.00  0.00     0.163 HD
ATOM     79  O   UNL A   1      31.954  19.400  25.026  1.00  0.00    -0.269 OA
BRANCH  77  80
ATOM     80  C   UNL A   1      32.112  21.732  24.824  1.00  0.00     0.039 A 
ATOM     81  C   UNL A   1      32.651  22.147  23.605  1.00  0.00     0.015 A 
ATOM     82  C   UNL A   1      31.240  22.574  25.521  1.00  0.00     0.015 A 
ATOM     83  C   UNL A   1      32.261  23.370  23.055  1.00  0.00     0.018 A 
ATOM     84  C   UNL A   1      30.806  23.767  24.938  1.00  0.00     0.018 A 
ATOM     85  C   UNL A   1      31.288  24.154  23.683  1.00  0.00     0.039 A 
BRANCH  85  86
ATOM     86  S   UNL A   1      30.725  25.714  22.982  1.00  0.00     0.056 S 
ATOM     87  O   UNL A   1      29.427  26.014  23.672  1.00  0.00    -0.254 OA
BRANCH  86  88
ATOM     88  C   UNL A   1      31.956  26.915  23.604  1.00  0.00     0.089 C 
ATOM     89  C   UNL A   1      32.851  27.511  22.526  1.00  0.00     0.046 C 
ATOM     90  C   UNL A   1      31.355  28.027  24.460  1.00  0.00     0.053 C 
ATOM     91  C   UNL A   1      33.916  28.385  23.164  1.00  0.00     0.162 C 
ATOM     92  C   UNL A   1      32.472  28.915  25.043  1.00  0.00     0.069 C 
ATOM     93  O   UNL A   1      33.329  29.389  23.991  1.00  0.00    -0.375 OA
ATOM     94  C   UNL A   1      31.890  30.177  25.727  1.00  0.00     0.035 C 
ATOM     95  C   UNL A   1      33.289  28.217  26.152  1.00  0.00     0.035 C 
ATOM     96  C   UNL A   1      32.382  30.151  27.172  1.00  0.00     0.003 C 
ATOM     97  C   UNL A   1      33.658  29.336  27.114  1.00  0.00     0.003 C 
ENDBRANCH  86  88
ENDBRANCH  85  86
ENDBRANCH  77  80
ENDBRANCH  75  76
ENDBRANCH  74  75
ENDBRANCH  73  74
ENDBRANCH   1  73
TORSDOF 15
ENDMDL
MODEL 2
REMARK VINA RESULT:     -12.8      5.449     10.922
REMARK SMILES O=C(NCCCCCCNC(=O)c1ccc([S@@](=O)[C@H]2CCOC3(CCCC3)C2)cc1)c1ccc(-c2c3nc(c(-c4c(F)c(F)c(F)c(F)c4F)c4ccc([nH]4)c(-c4c(F)c(F)c(F)c(F)c4F)c4nc(c(-c5c(F)c(F)c(F)c(F)c5F)c5ccc2[nH]5)C=C4)C=C3)cc1
REMARK SMILES IDX 6 1 5 2 4 3 3 4 1 5 2 6 31 8 32 9 93 10 33 11 92 12 34 13
REMARK SMILES IDX 35 14 36 15 86 16 37 17 91 18 85 19 87 20 38 21 90 22 84 23
REMARK SMILES IDX 83 24 39 26 71 27 51 28 70 29 52 30 55 31 69 32 88 33 53 34
REMARK SMILES IDX 54 35 68 37 89 38 56 39 40 40 41 41 49 42 42 43 43 44 47 45
REMARK SMILES IDX 50 46 44 47 45 48 48 49 46 50 72 51 73 52 81 53 74 54 75 55
REMARK SMILES IDX 79 56 82 57 76 58 77 59 80 60 78 61 57 62 58 63 66 64 59 65
REMARK SMILES IDX 60 66 64 67 67 68 61 69 62 70 65 71 63 72 7 73 8 74 9 75
REMARK SMILES IDX 10 76 11 77 12 79 13 80 14 81 30 82 15 83 29 84 16 85 17 86
REMARK SMILES IDX 18 87 19 88 20 89 28 90 21 91 23 92 22 93 24 94 27 95 25 96
REMARK SMILES IDX 26 97
REMARK H PARENT 3 7 87 25 55 36 10 78
REMARK Flexibility Score: inf
ROOT
ATOM      1  C   UNL A   1      31.402  30.785  26.461  1.00  0.00     0.002 C 
ENDROOT
BRANCH   1   2
ATOM      2  C   UNL A   1      31.430  32.312  26.506  1.00  0.00     0.021 C 
BRANCH   2   3
ATOM      3  C   UNL A   1      32.604  32.897  27.276  1.00  0.00     0.116 C 
BRANCH   3   4
ATOM      4  N   UNL A   1      32.376  34.280  27.661  1.00  0.00    -0.352 N 
ATOM      5  O   UNL A   1      32.564  36.106  28.981  1.00  0.00    -0.269 OA
ATOM      6  C   UNL A   1      32.991  35.002  28.651  1.00  0.00     0.251 C 
ATOM      7  H   UNL A   1      31.690  34.760  27.144  1.00  0.00     0.163 HD
BRANCH   6   8
ATOM      8  C   UNL A   1      34.176  34.435  29.326  1.00  0.00     0.039 A 
ATOM      9  C   UNL A   1      34.029  33.716  30.516  1.00  0.00     0.014 A 
ATOM     10  C   UNL A   1      35.439  34.608  28.756  1.00  0.00     0.014 A 
ATOM     11  C   UNL A   1      35.152  33.260  31.191  1.00  0.00     0.010 A 
ATOM     12  C   UNL A   1      36.561  34.071  29.390  1.00  0.00     0.010 A 
ATOM     13  C   UNL A   1      36.425  33.393  30.612  1.00  0.00    -0.014 A 
BRANCH  13  14
ATOM     14  C   UNL A   1      37.571  32.679  31.223  1.00  0.00     0.031 A 
ATOM     15  C   UNL A   1      38.221  31.509  30.547  1.00  0.00     0.074 A 
ATOM     16  C   UNL A   1      38.006  33.107  32.426  1.00  0.00     0.049 A 
ATOM     17  N   UNL A   1      39.204  30.759  30.974  1.00  0.00    -0.248 NA
ATOM     18  C   UNL A   1      37.703  31.124  29.225  1.00  0.00     0.031 C 
ATOM     19  C   UNL A   1      37.427  34.225  33.179  1.00  0.00     0.029 A 
ATOM     20  N   UNL A   1      39.021  32.660  33.230  1.00  0.00    -0.354 N 
ATOM     21  C   UNL A   1      39.410  29.802  29.991  1.00  0.00     0.074 A 
ATOM     22  C   UNL A   1      38.443  30.057  28.944  1.00  0.00     0.031 C 
ATOM     23  C   UNL A   1      38.108  34.389  34.320  1.00  0.00     0.029 A 
ATOM     24  C   UNL A   1      39.117  33.343  34.418  1.00  0.00     0.049 A 
ATOM     25  H   UNL A   1      39.622  31.920  32.982  1.00  0.00     0.167 HD
ATOM     26  C   UNL A   1      40.326  28.804  29.975  1.00  0.00     0.037 A 
ATOM     27  C   UNL A   1      39.897  33.125  35.491  1.00  0.00     0.037 A 
ATOM     28  C   UNL A   1      41.294  28.577  31.019  1.00  0.00     0.049 A 
ATOM     29  C   UNL A   1      40.870  31.981  35.453  1.00  0.00     0.074 A 
ATOM     30  C   UNL A   1      42.316  27.645  31.055  1.00  0.00     0.029 A 
ATOM     31  N   UNL A   1      41.346  29.274  32.218  1.00  0.00    -0.354 N 
ATOM     32  N   UNL A   1      41.113  31.136  34.481  1.00  0.00    -0.248 NA
ATOM     33  C   UNL A   1      41.673  31.755  36.662  1.00  0.00     0.031 C 
ATOM     34  C   UNL A   1      42.941  27.728  32.303  1.00  0.00     0.029 A 
ATOM     35  C   UNL A   1      42.351  28.755  33.021  1.00  0.00     0.049 A 
ATOM     36  H   UNL A   1      40.759  30.025  32.461  1.00  0.00     0.167 HD
ATOM     37  C   UNL A   1      42.100  30.285  34.955  1.00  0.00     0.074 A 
ATOM     38  C   UNL A   1      42.438  30.739  36.288  1.00  0.00     0.031 C 
ATOM     39  C   UNL A   1      42.669  29.217  34.347  1.00  0.00     0.037 A 
BRANCH  26  40
ATOM     40  C   UNL A   1      40.332  27.854  28.812  1.00  0.00     0.064 A 
ATOM     41  C   UNL A   1      41.082  28.105  27.656  1.00  0.00     0.173 A 
ATOM     42  C   UNL A   1      39.669  26.620  28.911  1.00  0.00     0.173 A 
ATOM     43  F   UNL A   1      41.730  29.270  27.509  1.00  0.00    -0.203 F 
ATOM     44  C   UNL A   1      41.166  27.155  26.639  1.00  0.00     0.198 A 
ATOM     45  C   UNL A   1      39.776  25.665  27.904  1.00  0.00     0.198 A 
ATOM     46  F   UNL A   1      38.944  26.329  30.001  1.00  0.00    -0.203 F 
ATOM     47  F   UNL A   1      41.876  27.422  25.533  1.00  0.00    -0.200 F 
ATOM     48  C   UNL A   1      40.525  25.933  26.769  1.00  0.00     0.200 A 
ATOM     49  F   UNL A   1      39.168  24.478  28.042  1.00  0.00    -0.200 F 
ATOM     50  F   UNL A   1      40.629  25.011  25.801  1.00  0.00    -0.200 F 
ENDBRANCH  26  40
BRANCH  27  51
ATOM     51  C   UNL A   1      39.750  33.967  36.707  1.00  0.00     0.064 A 
ATOM     52  C   UNL A   1      38.950  33.559  37.781  1.00  0.00     0.173 A 
ATOM     53  C   UNL A   1      40.386  35.215  36.806  1.00  0.00     0.173 A 
ATOM     54  F   UNL A   1      38.307  32.383  37.728  1.00  0.00    -0.203 F 
ATOM     55  C   UNL A   1      38.762  34.381  38.891  1.00  0.00     0.198 A 
ATOM     56  C   UNL A   1      40.230  36.017  37.933  1.00  0.00     0.198 A 
ATOM     57  F   UNL A   1      41.170  35.653  35.809  1.00  0.00    -0.203 F 
ATOM     58  F   UNL A   1      37.937  33.995  39.874  1.00  0.00    -0.200 F 
ATOM     59  C   UNL A   1      39.405  35.606  38.968  1.00  0.00     0.200 A 
ATOM     60  F   UNL A   1      40.871  37.191  38.011  1.00  0.00    -0.200 F 
ATOM     61  F   UNL A   1      39.221  36.397  40.034  1.00  0.00    -0.200 F 
ENDBRANCH  27  51
BRANCH  39  62
ATOM     62  C   UNL A   1      43.720  28.472  35.117  1.00  0.00     0.064 A 
ATOM     63  C   UNL A   1      43.394  27.365  35.915  1.00  0.00     0.173 A 
ATOM     64  C   UNL A   1      45.069  28.844  35.027  1.00  0.00     0.173 A 
ATOM     65  F   UNL A   1      42.114  26.983  36.049  1.00  0.00    -0.203 F 
ATOM     66  C   UNL A   1      44.378  26.672  36.613  1.00  0.00     0.198 A 
ATOM     67  C   UNL A   1      46.055  28.128  35.698  1.00  0.00     0.198 A 
ATOM     68  F   UNL A   1      45.433  29.894  34.274  1.00  0.00    -0.203 F 
ATOM     69  F   UNL A   1      44.038  25.649  37.408  1.00  0.00    -0.200 F 
ATOM     70  C   UNL A   1      45.709  27.048  36.496  1.00  0.00     0.200 A 
ATOM     71  F   UNL A   1      47.341  28.482  35.572  1.00  0.00    -0.200 F 
ATOM     72  F   UNL A   1      46.658  26.372  37.158  1.00  0.00    -0.200 F 
ENDBRANCH  39  62
ENDBRANCH  13  14
ENDBRANCH   6   8
ENDBRANCH   3   4
ENDBRANCH   2   3
ENDBRANCH   1   2
BRANCH   1  73
ATOM     73  C   UNL A   1      32.765  30.118  26.253  1.00  0.00     0.002 C 
BRANCH  73  74
ATOM     74  C   UNL A   1      32.759  28.888  25.340  1.00  0.00     0.021 C 
BRANCH  74  75
ATOM     75  C   UNL A   1      32.987  29.183  23.860  1.00  0.00     0.116 C 
BRANCH  75  76
ATOM     76  N   UNL A   1      31.743  29.415  23.152  1.00  0.00    -0.352 N 
ATOM     77  C   UNL A   1      30.878  28.516  22.581  1.00  0.00     0.251 C 
ATOM     78  H   UNL A   1      31.479  30.360  23.068  1.00  0.00     0.163 HD
ATOM     79  O   UNL A   1      29.975  28.917  21.853  1.00  0.00    -0.269 OA
BRANCH  77  80
ATOM     80  C   UNL A   1      31.046  27.064  22.817  1.00  0.00     0.039 A 
ATOM     81  C   UNL A   1      31.906  26.351  21.981  1.00  0.00     0.015 A 
ATOM     82  C   UNL A   1      30.326  26.392  23.810  1.00  0.00     0.015 A 
ATOM     83  C   UNL A   1      32.097  24.984  22.186  1.00  0.00     0.018 A 
ATOM     84  C   UNL A   1      30.567  25.037  24.051  1.00  0.00     0.018 A 
ATOM     85  C   UNL A   1      31.483  24.333  23.262  1.00  0.00     0.039 A 
BRANCH  85  86
ATOM     86  S   UNL A   1      31.740  22.581  23.587  1.00  0.00     0.056 S 
ATOM     87  O   UNL A   1      32.306  22.020  22.317  1.00  0.00    -0.254 OA
BRANCH  86  88
ATOM     88  C   UNL A   1      33.086  22.584  24.825  1.00  0.00     0.089 C 
ATOM     89  C   UNL A   1      32.642  22.221  26.235  1.00  0.00     0.046 C 
ATOM     90  C   UNL A   1      34.294  21.742  24.423  1.00  0.00     0.053 C 
ATOM     91  C   UNL A   1      33.803  22.384  27.200  1.00  0.00     0.162 C 
ATOM     92  C   UNL A   1      35.425  21.903  25.458  1.00  0.00     0.069 C 
ATOM     93  O   UNL A   1      34.933  21.620  26.779  1.00  0.00    -0.375 OA
ATOM     94  C   UNL A   1      36.573  20.894  25.201  1.00  0.00     0.035 C 
ATOM     95  C   UNL A   1      36.108  23.287  25.405  1.00  0.00     0.035 C 
ATOM     96  C   UNL A   1      37.841  21.722  25.010  1.00  0.00     0.003 C 
ATOM     97  C   UNL A   1      37.560  23.008  25.762  1.00  0.00     0.003 C 
ENDBRANCH  86  88
ENDBRANCH  85  86
ENDBRANCH  77  80
ENDBRANCH  75  76
ENDBRANCH  74  75
ENDBRANCH  73  74
ENDBRANCH   1  73
TORSDOF 15
ENDMDL
MODEL 3
REMARK VINA RESULT:     -12.7      1.183      1.684
REMARK SMILES O=C(NCCCCCCNC(=O)c1ccc([S@@](=O)[C@H]2CCOC3(CCCC3)C2)cc1)c1ccc(-c2c3nc(c(-c4c(F)c(F)c(F)c(F)c4F)c4ccc([nH]4)c(-c4c(F)c(F)c(F)c(F)c4F)c4nc(c(-c5c(F)c(F)c(F)c(F)c5F)c5ccc2[nH]5)C=C4)C=C3)cc1
REMARK SMILES IDX 6 1 5 2 4 3 3 4 1 5 2 6 31 8 32 9 93 10 33 11 92 12 34 13
REMARK SMILES IDX 35 14 36 15 86 16 37 17 91 18 85 19 87 20 38 21 90 22 84 23
REMARK SMILES IDX 83 24 39 26 71 27 51 28 70 29 52 30 55 31 69 32 88 33 53 34
REMARK SMILES IDX 54 35 68 37 89 38 56 39 40 40 41 41 49 42 42 43 43 44 47 45
REMARK SMILES IDX 50 46 44 47 45 48 48 49 46 50 72 51 73 52 81 53 74 54 75 55
REMARK SMILES IDX 79 56 82 57 76 58 77 59 80 60 78 61 57 62 58 63 66 64 59 65
REMARK SMILES IDX 60 66 64 67 67 68 61 69 62 70 65 71 63 72 7 73 8 74 9 75
REMARK SMILES IDX 10 76 11 77 12 79 13 80 14 81 30 82 15 83 29 84 16 85 17 86
REMARK SMILES IDX 18 87 19 88 20 89 28 90 21 91 23 92 22 93 24 94 27 95 25 96
REMARK SMILES IDX 26 97
REMARK H PARENT 3 7 87 25 55 36 10 78
REMARK Flexibility Score: inf
ROOT
ATOM      1  C   UNL A   1      37.150  21.014  24.638  1.00  0.00     0.002 C 
ENDROOT
BRANCH   1   2
ATOM      2  C   UNL A   1      38.241  19.953  24.772  1.00  0.00     0.021 C 
BRANCH   2   3
ATOM      3  C   UNL A   1      39.243  20.218  25.885  1.00  0.00     0.116 C 
BRANCH   3   4
ATOM      4  N   UNL A   1      40.256  19.180  25.973  1.00  0.00    -0.352 N 
ATOM      5  O   UNL A   1      42.362  18.357  26.003  1.00  0.00    -0.269 OA
ATOM      6  C   UNL A   1      41.611  19.321  26.131  1.00  0.00     0.251 C 
ATOM      7  H   UNL A   1      39.926  18.254  25.910  1.00  0.00     0.163 HD
BRANCH   6   8
ATOM      8  C   UNL A   1      42.164  20.652  26.452  1.00  0.00     0.039 A 
ATOM      9  C   UNL A   1      42.459  21.555  25.426  1.00  0.00     0.014 A 
ATOM     10  C   UNL A   1      42.370  21.006  27.786  1.00  0.00     0.014 A 
ATOM     11  C   UNL A   1      43.059  22.770  25.727  1.00  0.00     0.010 A 
ATOM     12  C   UNL A   1      42.890  22.265  28.094  1.00  0.00     0.010 A 
ATOM     13  C   UNL A   1      43.238  23.155  27.065  1.00  0.00    -0.014 A 
BRANCH  13  14
ATOM     14  C   UNL A   1      43.641  24.550  27.364  1.00  0.00     0.031 A 
ATOM     15  C   UNL A   1      42.649  25.572  27.835  1.00  0.00     0.074 A 
ATOM     16  C   UNL A   1      44.934  24.881  27.181  1.00  0.00     0.049 A 
ATOM     17  N   UNL A   1      42.842  26.839  28.098  1.00  0.00    -0.248 NA
ATOM     18  C   UNL A   1      41.263  25.121  28.034  1.00  0.00     0.031 C 
ATOM     19  C   UNL A   1      45.976  23.965  26.705  1.00  0.00     0.029 A 
ATOM     20  N   UNL A   1      45.598  26.066  27.364  1.00  0.00    -0.354 N 
ATOM     21  C   UNL A   1      41.604  27.345  28.471  1.00  0.00     0.074 A 
ATOM     22  C   UNL A   1      40.660  26.250  28.392  1.00  0.00     0.031 C 
ATOM     23  C   UNL A   1      47.147  24.613  26.655  1.00  0.00     0.029 A 
ATOM     24  C   UNL A   1      46.926  26.006  27.017  1.00  0.00     0.049 A 
ATOM     25  H   UNL A   1      45.165  26.881  27.710  1.00  0.00     0.167 HD
ATOM     26  C   UNL A   1      41.296  28.610  28.841  1.00  0.00     0.037 A 
ATOM     27  C   UNL A   1      47.857  26.975  26.952  1.00  0.00     0.037 A 
ATOM     28  C   UNL A   1      42.254  29.684  28.931  1.00  0.00     0.049 A 
ATOM     29  C   UNL A   1      47.465  28.376  27.329  1.00  0.00     0.074 A 
ATOM     30  C   UNL A   1      42.055  30.979  29.377  1.00  0.00     0.029 A 
ATOM     31  N   UNL A   1      43.586  29.593  28.550  1.00  0.00    -0.354 N 
ATOM     32  N   UNL A   1      46.311  28.822  27.761  1.00  0.00    -0.248 NA
ATOM     33  C   UNL A   1      48.501  29.409  27.202  1.00  0.00     0.031 C 
ATOM     34  C   UNL A   1      43.244  31.691  29.198  1.00  0.00     0.029 A 
ATOM     35  C   UNL A   1      44.204  30.825  28.701  1.00  0.00     0.049 A 
ATOM     36  H   UNL A   1      44.025  28.776  28.222  1.00  0.00     0.167 HD
ATOM     37  C   UNL A   1      46.484  30.183  27.967  1.00  0.00     0.074 A 
ATOM     38  C   UNL A   1      47.864  30.482  27.648  1.00  0.00     0.031 C 
ATOM     39  C   UNL A   1      45.578  31.105  28.373  1.00  0.00     0.037 A 
BRANCH  26  40
ATOM     40  C   UNL A   1      39.866  28.937  29.162  1.00  0.00     0.064 A 
ATOM     41  C   UNL A   1      38.957  29.329  28.170  1.00  0.00     0.173 A 
ATOM     42  C   UNL A   1      39.375  28.740  30.463  1.00  0.00     0.173 A 
ATOM     43  F   UNL A   1      39.374  29.536  26.913  1.00  0.00    -0.203 F 
ATOM     44  C   UNL A   1      37.608  29.514  28.471  1.00  0.00     0.198 A 
ATOM     45  C   UNL A   1      38.024  28.901  30.753  1.00  0.00     0.198 A 
ATOM     46  F   UNL A   1      40.204  28.357  31.446  1.00  0.00    -0.203 F 
ATOM     47  F   UNL A   1      36.757  29.905  27.511  1.00  0.00    -0.200 F 
ATOM     48  C   UNL A   1      37.141  29.287  29.757  1.00  0.00     0.200 A 
ATOM     49  F   UNL A   1      37.574  28.665  31.993  1.00  0.00    -0.200 F 
ATOM     50  F   UNL A   1      35.839  29.440  30.037  1.00  0.00    -0.200 F 
ENDBRANCH  26  40
BRANCH  27  51
ATOM     51  C   UNL A   1      49.224  26.667  26.458  1.00  0.00     0.064 A 
ATOM     52  C   UNL A   1      50.223  26.204  27.324  1.00  0.00     0.173 A 
ATOM     53  C   UNL A   1      49.568  26.859  25.110  1.00  0.00     0.173 A 
ATOM     54  F   UNL A   1      49.949  26.021  28.624  1.00  0.00    -0.203 F 
ATOM     55  C   UNL A   1      51.521  25.979  26.870  1.00  0.00     0.198 A 
ATOM     56  C   UNL A   1      50.855  26.595  24.649  1.00  0.00     0.198 A 
ATOM     57  F   UNL A   1      48.649  27.294  24.235  1.00  0.00    -0.203 F 
ATOM     58  F   UNL A   1      52.473  25.602  27.734  1.00  0.00    -0.200 F 
ATOM     59  C   UNL A   1      51.835  26.170  25.533  1.00  0.00     0.200 A 
ATOM     60  F   UNL A   1      51.147  26.761  23.352  1.00  0.00    -0.200 F 
ATOM     61  F   UNL A   1      53.084  25.957  25.098  1.00  0.00    -0.200 F 
ENDBRANCH  27  51
BRANCH  39  62
ATOM     62  C   UNL A   1      46.056  32.521  28.502  1.00  0.00     0.064 A 
ATOM     63  C   UNL A   1      45.938  33.431  27.440  1.00  0.00     0.173 A 
ATOM     64  C   UNL A   1      46.603  32.983  29.707  1.00  0.00     0.173 A 
ATOM     65  F   UNL A   1      45.440  33.031  26.260  1.00  0.00    -0.203 F 
ATOM     66  C   UNL A   1      46.371  34.747  27.575  1.00  0.00     0.198 A 
ATOM     67  C   UNL A   1      47.002  34.308  29.850  1.00  0.00     0.198 A 
ATOM     68  F   UNL A   1      46.734  32.153  30.754  1.00  0.00    -0.203 F 
ATOM     69  F   UNL A   1      46.295  35.585  26.533  1.00  0.00    -0.200 F 
ATOM     70  C   UNL A   1      46.893  35.187  28.783  1.00  0.00     0.200 A 
ATOM     71  F   UNL A   1      47.492  34.736  31.022  1.00  0.00    -0.200 F 
ATOM     72  F   UNL A   1      47.298  36.458  28.916  1.00  0.00    -0.200 F 
ENDBRANCH  39  62
ENDBRANCH  13  14
ENDBRANCH   6   8
ENDBRANCH   3   4
ENDBRANCH   2   3
ENDBRANCH   1   2
BRANCH   1  73
ATOM     73  C   UNL A   1      35.875  20.739  25.440  1.00  0.00     0.002 C 
BRANCH  73  74
ATOM     74  C   UNL A   1      35.514  21.803  26.481  1.00  0.00     0.021 C 
BRANCH  74  75
ATOM     75  C   UNL A   1      34.110  21.681  27.067  1.00  0.00     0.116 C 
BRANCH  75  76
ATOM     76  N   UNL A   1      33.313  20.689  26.371  1.00  0.00    -0.352 N 
ATOM     77  C   UNL A   1      32.540  20.818  25.245  1.00  0.00     0.251 C 
ATOM     78  H   UNL A   1      33.327  19.787  26.767  1.00  0.00     0.163 HD
ATOM     79  O   UNL A   1      31.781  19.910  24.920  1.00  0.00    -0.269 OA
BRANCH  77  80
ATOM     80  C   UNL A   1      32.598  22.057  24.437  1.00  0.00     0.039 A 
ATOM     81  C   UNL A   1      31.622  23.032  24.647  1.00  0.00     0.015 A 
ATOM     82  C   UNL A   1      33.563  22.242  23.442  1.00  0.00     0.015 A 
ATOM     83  C   UNL A   1      31.656  24.217  23.911  1.00  0.00     0.018 A 
ATOM     84  C   UNL A   1      33.630  23.455  22.752  1.00  0.00     0.018 A 
ATOM     85  C   UNL A   1      32.697  24.465  23.010  1.00  0.00     0.039 A 
BRANCH  85  86
ATOM     86  S   UNL A   1      32.802  26.001  22.076  1.00  0.00     0.056 S 
ATOM     87  O   UNL A   1      32.198  25.694  20.738  1.00  0.00    -0.254 OA
BRANCH  86  88
ATOM     88  C   UNL A   1      31.637  27.101  22.956  1.00  0.00     0.089 C 
ATOM     89  C   UNL A   1      32.201  27.729  24.223  1.00  0.00     0.046 C 
ATOM     90  C   UNL A   1      31.016  28.177  22.069  1.00  0.00     0.053 C 
ATOM     91  C   UNL A   1      31.115  28.511  24.940  1.00  0.00     0.162 C 
ATOM     92  C   UNL A   1      29.957  28.973  22.857  1.00  0.00     0.069 C 
ATOM     93  O   UNL A   1      30.523  29.480  24.077  1.00  0.00    -0.375 OA
ATOM     94  C   UNL A   1      29.473  30.211  22.060  1.00  0.00     0.035 C 
ATOM     95  C   UNL A   1      28.670  28.166  23.136  1.00  0.00     0.035 C 
ATOM     96  C   UNL A   1      27.960  30.064  21.912  1.00  0.00     0.003 C 
ATOM     97  C   UNL A   1      27.555  29.200  23.089  1.00  0.00     0.003 C 
ENDBRANCH  86  88
ENDBRANCH  85  86
ENDBRANCH  77  80
ENDBRANCH  75  76
ENDBRANCH  74  75
ENDBRANCH  73  74
ENDBRANCH   1  73
TORSDOF 15
ENDMDL
