MODEL 1
REMARK VINA RESULT:     -13.7      0.000      0.000
REMARK SMILES Cc1c(/C=C/C(=O)NCCCCCCNC(=O)c2ccc(-c3c4nc(c(-c5c(F)c(F)c(F)c(F)c5F)c5ccc([nH]5)c(-c5c(F)c(F)c(F)c(F)c5F)c5nc(c(-c6c(F)c(F)c(F)c(F)c6F)c6ccc3[nH]6)C=C5)C=C4)cc2)cccc1C(=O)N1C[C@@H](C)[C@@H](C)C1
REMARK SMILES IDX 11 1 10 2 9 3 8 4 6 5 7 6 5 8 4 9 3 10 1 11 2 12 84 13 81 14
REMARK SMILES IDX 83 15 82 16 85 17 86 18 87 19 88 20 93 21 89 22 91 23 90 24
REMARK SMILES IDX 92 25 12 26 13 27 14 28 15 29 16 30 17 32 18 33 19 34 80 35
REMARK SMILES IDX 20 36 79 37 21 38 22 39 23 40 73 41 24 42 78 43 72 44 74 45
REMARK SMILES IDX 25 46 77 47 71 48 70 49 26 51 58 52 38 53 57 54 39 55 42 56
REMARK SMILES IDX 56 57 75 58 40 59 41 60 55 62 76 63 43 64 27 65 28 66 36 67
REMARK SMILES IDX 29 68 30 69 34 70 37 71 31 72 32 73 35 74 33 75 59 76 60 77
REMARK SMILES IDX 68 78 61 79 62 80 66 81 69 82 63 83 64 84 67 85 65 86 44 87
REMARK SMILES IDX 45 88 53 89 46 90 47 91 51 92 54 93 48 94 49 95 52 96 50 97
REMARK H PARENT 8 7 15 31 74 50 42 61
REMARK Flexibility Score: inf
ROOT
ATOM      1  C   UNL A   1      32.160  27.939  25.756  1.00  0.00     0.002 C 
ENDROOT
BRANCH   1   2
ATOM      2  C   UNL A   1      31.305  28.575  24.652  1.00  0.00     0.021 C 
BRANCH   2   3
ATOM      3  C   UNL A   1      30.990  27.654  23.473  1.00  0.00     0.116 C 
BRANCH   3   4
ATOM      4  N   UNL A   1      32.051  27.662  22.482  1.00  0.00    -0.353 N 
ATOM      5  C   UNL A   1      33.058  26.762  22.289  1.00  0.00     0.243 C 
ATOM      6  O   UNL A   1      33.782  26.833  21.302  1.00  0.00    -0.270 OA
ATOM      7  H   UNL A   1      32.043  28.426  21.861  1.00  0.00     0.163 HD
BRANCH   5   8
ATOM      8  C   UNL A   1      33.209  25.645  23.243  1.00  0.00     0.072 C 
ATOM      9  C   UNL A   1      34.103  24.667  23.032  1.00  0.00     0.014 C 
BRANCH   9  10
ATOM     10  C   UNL A   1      34.348  23.571  23.987  1.00  0.00    -0.022 A 
ATOM     11  C   UNL A   1      32.524  22.178  22.905  1.00  0.00     0.046 C 
ATOM     12  C   UNL A   1      33.591  22.367  23.953  1.00  0.00    -0.031 A 
ATOM     13  C   UNL A   1      33.870  21.365  24.918  1.00  0.00     0.043 A 
ATOM     14  C   UNL A   1      35.305  23.769  24.997  1.00  0.00     0.008 A 
ATOM     15  C   UNL A   1      34.849  21.587  25.903  1.00  0.00     0.014 A 
ATOM     16  C   UNL A   1      35.562  22.782  25.944  1.00  0.00     0.001 A 
BRANCH  13  17
ATOM     17  C   UNL A   1      32.971  20.206  25.170  1.00  0.00     0.254 C 
ATOM     18  O   UNL A   1      31.802  20.465  25.460  1.00  0.00    -0.269 OA
BRANCH  17  19
ATOM     19  N   UNL A   1      33.398  18.904  24.991  1.00  0.00    -0.338 N 
ATOM     20  C   UNL A   1      32.561  17.823  25.471  1.00  0.00     0.123 C 
ATOM     21  C   UNL A   1      34.697  18.424  24.544  1.00  0.00     0.123 C 
ATOM     22  C   UNL A   1      33.462  16.597  25.528  1.00  0.00     0.010 C 
ATOM     23  C   UNL A   1      34.558  16.891  24.481  1.00  0.00     0.010 C 
ATOM     24  C   UNL A   1      32.666  15.310  25.351  1.00  0.00     0.010 C 
ATOM     25  C   UNL A   1      34.243  16.408  23.066  1.00  0.00     0.010 C 
ENDBRANCH  17  19
ENDBRANCH  13  17
ENDBRANCH   9  10
ENDBRANCH   5   8
ENDBRANCH   3   4
ENDBRANCH   2   3
ENDBRANCH   1   2
BRANCH   1  26
ATOM     26  C   UNL A   1      33.554  28.552  25.984  1.00  0.00     0.002 C 
BRANCH  26  27
ATOM     27  C   UNL A   1      33.586  30.046  26.322  1.00  0.00     0.021 C 
BRANCH  27  28
ATOM     28  C   UNL A   1      33.288  30.360  27.786  1.00  0.00     0.116 C 
BRANCH  28  29
ATOM     29  N   UNL A   1      34.069  31.467  28.306  1.00  0.00    -0.352 N 
ATOM     30  C   UNL A   1      35.371  31.482  28.808  1.00  0.00     0.251 C 
ATOM     31  H   UNL A   1      33.612  32.339  28.304  1.00  0.00     0.163 HD
ATOM     32  O   UNL A   1      35.856  32.511  29.239  1.00  0.00    -0.269 OA
BRANCH  30  33
ATOM     33  C   UNL A   1      36.202  30.260  28.667  1.00  0.00     0.039 A 
ATOM     34  C   UNL A   1      36.504  29.561  29.840  1.00  0.00     0.014 A 
ATOM     35  C   UNL A   1      36.850  29.971  27.478  1.00  0.00     0.014 A 
ATOM     36  C   UNL A   1      37.650  28.769  29.875  1.00  0.00     0.010 A 
ATOM     37  C   UNL A   1      38.035  29.268  27.532  1.00  0.00     0.010 A 
ATOM     38  C   UNL A   1      38.476  28.745  28.752  1.00  0.00    -0.014 A 
BRANCH  38  39
ATOM     39  C   UNL A   1      39.874  28.341  28.809  1.00  0.00     0.031 A 
ATOM     40  C   UNL A   1      40.273  26.962  28.475  1.00  0.00     0.074 A 
ATOM     41  C   UNL A   1      40.809  29.286  29.056  1.00  0.00     0.049 A 
ATOM     42  N   UNL A   1      41.407  26.432  28.788  1.00  0.00    -0.248 NA
ATOM     43  C   UNL A   1      39.373  26.033  27.807  1.00  0.00     0.031 C 
ATOM     44  C   UNL A   1      42.250  29.188  28.843  1.00  0.00     0.029 A 
ATOM     45  N   UNL A   1      40.641  30.494  29.758  1.00  0.00    -0.354 N 
ATOM     46  C   UNL A   1      41.507  25.224  28.135  1.00  0.00     0.074 A 
ATOM     47  C   UNL A   1      40.177  24.979  27.632  1.00  0.00     0.031 C 
ATOM     48  C   UNL A   1      42.865  30.091  29.621  1.00  0.00     0.029 A 
ATOM     49  C   UNL A   1      41.847  30.684  30.471  1.00  0.00     0.049 A 
ATOM     50  H   UNL A   1      39.852  31.082  29.752  1.00  0.00     0.167 HD
ATOM     51  C   UNL A   1      42.745  24.662  27.988  1.00  0.00     0.037 A 
ATOM     52  C   UNL A   1      41.876  30.675  31.835  1.00  0.00     0.037 A 
ATOM     53  C   UNL A   1      43.735  25.380  28.800  1.00  0.00     0.049 A 
ATOM     54  C   UNL A   1      42.773  29.614  32.426  1.00  0.00     0.074 A 
ATOM     55  C   UNL A   1      44.705  26.321  28.496  1.00  0.00     0.029 A 
ATOM     56  N   UNL A   1      43.608  25.382  30.187  1.00  0.00    -0.354 N 
ATOM     57  N   UNL A   1      43.174  28.558  31.774  1.00  0.00    -0.248 NA
ATOM     58  C   UNL A   1      43.257  29.638  33.803  1.00  0.00     0.031 C 
ATOM     59  C   UNL A   1      45.113  26.938  29.707  1.00  0.00     0.029 A 
ATOM     60  C   UNL A   1      44.412  26.355  30.748  1.00  0.00     0.049 A 
ATOM     61  H   UNL A   1      43.025  24.774  30.698  1.00  0.00     0.167 HD
ATOM     62  C   UNL A   1      43.925  27.767  32.604  1.00  0.00     0.074 A 
ATOM     63  C   UNL A   1      43.966  28.497  33.858  1.00  0.00     0.031 C 
ATOM     64  C   UNL A   1      44.435  26.571  32.188  1.00  0.00     0.037 A 
BRANCH  51  65
ATOM     65  C   UNL A   1      43.132  23.666  26.900  1.00  0.00     0.064 A 
ATOM     66  C   UNL A   1      42.814  22.293  27.041  1.00  0.00     0.173 A 
ATOM     67  C   UNL A   1      43.896  23.956  25.753  1.00  0.00     0.173 A 
ATOM     68  F   UNL A   1      42.001  21.858  28.012  1.00  0.00    -0.203 F 
ATOM     69  C   UNL A   1      43.317  21.304  26.186  1.00  0.00     0.198 A 
ATOM     70  C   UNL A   1      44.425  22.967  24.916  1.00  0.00     0.198 A 
ATOM     71  F   UNL A   1      44.122  25.205  25.348  1.00  0.00    -0.203 F 
ATOM     72  F   UNL A   1      42.998  20.019  26.394  1.00  0.00    -0.200 F 
ATOM     73  C   UNL A   1      44.152  21.638  25.142  1.00  0.00     0.200 A 
ATOM     74  F   UNL A   1      45.206  23.323  23.885  1.00  0.00    -0.200 F 
ATOM     75  F   UNL A   1      44.664  20.692  24.343  1.00  0.00    -0.200 F 
ENDBRANCH  51  65
BRANCH  52  76
ATOM     76  C   UNL A   1      40.621  31.173  32.455  1.00  0.00     0.064 A 
ATOM     77  C   UNL A   1      40.353  32.553  32.405  1.00  0.00     0.173 A 
ATOM     78  C   UNL A   1      39.551  30.316  32.737  1.00  0.00     0.173 A 
ATOM     79  F   UNL A   1      41.344  33.418  32.134  1.00  0.00    -0.203 F 
ATOM     80  C   UNL A   1      39.054  33.045  32.516  1.00  0.00     0.198 A 
ATOM     81  C   UNL A   1      38.251  30.813  32.859  1.00  0.00     0.198 A 
ATOM     82  F   UNL A   1      39.737  28.989  32.775  1.00  0.00    -0.203 F 
ATOM     83  F   UNL A   1      38.819  34.355  32.353  1.00  0.00    -0.200 F 
ATOM     84  C   UNL A   1      38.001  32.171  32.716  1.00  0.00     0.200 A 
ATOM     85  F   UNL A   1      37.226  29.964  33.020  1.00  0.00    -0.200 F 
ATOM     86  F   UNL A   1      36.741  32.627  32.728  1.00  0.00    -0.200 F 
ENDBRANCH  52  76
BRANCH  64  87
ATOM     87  C   UNL A   1      45.076  25.527  33.071  1.00  0.00     0.064 A 
ATOM     88  C   UNL A   1      46.454  25.258  33.093  1.00  0.00     0.173 A 
ATOM     89  C   UNL A   1      44.310  24.858  34.056  1.00  0.00     0.173 A 
ATOM     90  F   UNL A   1      47.305  25.911  32.291  1.00  0.00    -0.203 F 
ATOM     91  C   UNL A   1      47.015  24.344  33.991  1.00  0.00     0.198 A 
ATOM     92  C   UNL A   1      44.880  23.992  34.988  1.00  0.00     0.198 A 
ATOM     93  F   UNL A   1      42.985  25.048  34.160  1.00  0.00    -0.203 F 
ATOM     94  F   UNL A   1      48.331  24.092  33.945  1.00  0.00    -0.200 F 
ATOM     95  C   UNL A   1      46.232  23.723  34.946  1.00  0.00     0.200 A 
ATOM     96  F   UNL A   1      44.115  23.440  35.940  1.00  0.00    -0.200 F 
ATOM     97  F   UNL A   1      46.782  22.886  35.835  1.00  0.00    -0.200 F 
ENDBRANCH  64  87
ENDBRANCH  38  39
ENDBRANCH  30  33
ENDBRANCH  28  29
ENDBRANCH  27  28
ENDBRANCH  26  27
ENDBRANCH   1  26
TORSDOF 16
ENDMDL
MODEL 2
REMARK VINA RESULT:     -13.4      1.357      1.889
REMARK SMILES Cc1c(/C=C/C(=O)NCCCCCCNC(=O)c2ccc(-c3c4nc(c(-c5c(F)c(F)c(F)c(F)c5F)c5ccc([nH]5)c(-c5c(F)c(F)c(F)c(F)c5F)c5nc(c(-c6c(F)c(F)c(F)c(F)c6F)c6ccc3[nH]6)C=C5)C=C4)cc2)cccc1C(=O)N1C[C@@H](C)[C@@H](C)C1
REMARK SMILES IDX 11 1 10 2 9 3 8 4 6 5 7 6 5 8 4 9 3 10 1 11 2 12 84 13 81 14
REMARK SMILES IDX 83 15 82 16 85 17 86 18 87 19 88 20 93 21 89 22 91 23 90 24
REMARK SMILES IDX 92 25 12 26 13 27 14 28 15 29 16 30 17 32 18 33 19 34 80 35
REMARK SMILES IDX 20 36 79 37 21 38 22 39 23 40 73 41 24 42 78 43 72 44 74 45
REMARK SMILES IDX 25 46 77 47 71 48 70 49 26 51 58 52 38 53 57 54 39 55 42 56
REMARK SMILES IDX 56 57 75 58 40 59 41 60 55 62 76 63 43 64 27 65 28 66 36 67
REMARK SMILES IDX 29 68 30 69 34 70 37 71 31 72 32 73 35 74 33 75 59 76 60 77
REMARK SMILES IDX 68 78 61 79 62 80 66 81 69 82 63 83 64 84 67 85 65 86 44 87
REMARK SMILES IDX 45 88 53 89 46 90 47 91 51 92 54 93 48 94 49 95 52 96 50 97
REMARK H PARENT 8 7 15 31 74 50 42 61
REMARK Flexibility Score: inf
ROOT
ATOM      1  C   UNL A   1      32.181  28.112  25.852  1.00  0.00     0.002 C 
ENDROOT
BRANCH   1   2
ATOM      2  C   UNL A   1      31.399  28.760  24.701  1.00  0.00     0.021 C 
BRANCH   2   3
ATOM      3  C   UNL A   1      30.459  27.817  23.952  1.00  0.00     0.116 C 
BRANCH   3   4
ATOM      4  N   UNL A   1      30.936  27.532  22.610  1.00  0.00    -0.353 N 
ATOM      5  C   UNL A   1      31.538  26.406  22.130  1.00  0.00     0.243 C 
ATOM      6  O   UNL A   1      31.739  26.265  20.929  1.00  0.00    -0.270 OA
ATOM      7  H   UNL A   1      30.807  28.254  21.954  1.00  0.00     0.163 HD
BRANCH   5   8
ATOM      8  C   UNL A   1      31.869  25.317  23.071  1.00  0.00     0.072 C 
ATOM      9  C   UNL A   1      33.060  25.267  23.686  1.00  0.00     0.014 C 
BRANCH   9  10
ATOM     10  C   UNL A   1      33.415  24.247  24.689  1.00  0.00    -0.022 A 
ATOM     11  C   UNL A   1      34.907  23.067  23.010  1.00  0.00     0.046 C 
ATOM     12  C   UNL A   1      34.293  23.171  24.383  1.00  0.00    -0.031 A 
ATOM     13  C   UNL A   1      34.571  22.216  25.394  1.00  0.00     0.043 A 
ATOM     14  C   UNL A   1      32.801  24.312  25.952  1.00  0.00     0.008 A 
ATOM     15  C   UNL A   1      33.955  22.322  26.654  1.00  0.00     0.014 A 
ATOM     16  C   UNL A   1      33.074  23.363  26.931  1.00  0.00     0.001 A 
BRANCH  13  17
ATOM     17  C   UNL A   1      35.227  20.908  25.120  1.00  0.00     0.254 C 
ATOM     18  O   UNL A   1      36.444  20.850  25.304  1.00  0.00    -0.269 OA
BRANCH  17  19
ATOM     19  N   UNL A   1      34.495  19.787  24.773  1.00  0.00    -0.338 N 
ATOM     20  C   UNL A   1      35.185  18.522  24.626  1.00  0.00     0.123 C 
ATOM     21  C   UNL A   1      33.112  19.704  24.330  1.00  0.00     0.123 C 
ATOM     22  C   UNL A   1      34.238  17.624  23.842  1.00  0.00     0.010 C 
ATOM     23  C   UNL A   1      32.838  18.198  24.153  1.00  0.00     0.010 C 
ATOM     24  C   UNL A   1      34.467  16.153  24.166  1.00  0.00     0.010 C 
ATOM     25  C   UNL A   1      32.154  17.597  25.379  1.00  0.00     0.010 C 
ENDBRANCH  17  19
ENDBRANCH  13  17
ENDBRANCH   9  10
ENDBRANCH   5   8
ENDBRANCH   3   4
ENDBRANCH   2   3
ENDBRANCH   1   2
BRANCH   1  26
ATOM     26  C   UNL A   1      32.127  28.835  27.210  1.00  0.00     0.002 C 
BRANCH  26  27
ATOM     27  C   UNL A   1      32.730  30.242  27.249  1.00  0.00     0.021 C 
BRANCH  27  28
ATOM     28  C   UNL A   1      34.255  30.267  27.240  1.00  0.00     0.116 C 
BRANCH  28  29
ATOM     29  N   UNL A   1      34.821  31.182  28.215  1.00  0.00    -0.352 N 
ATOM     30  C   UNL A   1      35.966  31.050  29.002  1.00  0.00     0.251 C 
ATOM     31  H   UNL A   1      34.322  32.021  28.340  1.00  0.00     0.163 HD
ATOM     32  O   UNL A   1      36.270  31.915  29.802  1.00  0.00    -0.269 OA
BRANCH  30  33
ATOM     33  C   UNL A   1      36.883  29.913  28.739  1.00  0.00     0.039 A 
ATOM     34  C   UNL A   1      37.007  28.953  29.748  1.00  0.00     0.014 A 
ATOM     35  C   UNL A   1      37.755  29.933  27.663  1.00  0.00     0.014 A 
ATOM     36  C   UNL A   1      38.175  28.194  29.815  1.00  0.00     0.010 A 
ATOM     37  C   UNL A   1      38.951  29.257  27.777  1.00  0.00     0.010 A 
ATOM     38  C   UNL A   1      39.193  28.459  28.900  1.00  0.00    -0.014 A 
BRANCH  38  39
ATOM     39  C   UNL A   1      40.579  28.076  29.128  1.00  0.00     0.031 A 
ATOM     40  C   UNL A   1      41.104  26.804  28.600  1.00  0.00     0.074 A 
ATOM     41  C   UNL A   1      41.403  28.964  29.729  1.00  0.00     0.049 A 
ATOM     42  N   UNL A   1      42.194  26.240  29.001  1.00  0.00    -0.248 NA
ATOM     43  C   UNL A   1      40.388  26.020  27.604  1.00  0.00     0.031 C 
ATOM     44  C   UNL A   1      42.862  28.937  29.767  1.00  0.00     0.029 A 
ATOM     45  N   UNL A   1      41.049  29.995  30.618  1.00  0.00    -0.354 N 
ATOM     46  C   UNL A   1      42.472  25.197  28.146  1.00  0.00     0.074 A 
ATOM     47  C   UNL A   1      41.267  25.041  27.369  1.00  0.00     0.031 C 
ATOM     48  C   UNL A   1      43.281  29.667  30.812  1.00  0.00     0.029 A 
ATOM     49  C   UNL A   1      42.099  30.051  31.564  1.00  0.00     0.049 A 
ATOM     50  H   UNL A   1      40.243  30.558  30.588  1.00  0.00     0.167 HD
ATOM     51  C   UNL A   1      43.746  24.699  28.117  1.00  0.00     0.037 A 
ATOM     52  C   UNL A   1      41.889  29.757  32.880  1.00  0.00     0.037 A 
ATOM     53  C   UNL A   1      44.537  25.248  29.224  1.00  0.00     0.049 A 
ATOM     54  C   UNL A   1      42.725  28.611  33.396  1.00  0.00     0.074 A 
ATOM     55  C   UNL A   1      45.493  26.248  29.301  1.00  0.00     0.029 A 
ATOM     56  N   UNL A   1      44.169  24.957  30.536  1.00  0.00    -0.354 N 
ATOM     57  N   UNL A   1      43.291  27.722  32.628  1.00  0.00    -0.248 NA
ATOM     58  C   UNL A   1      42.958  28.355  34.815  1.00  0.00     0.031 C 
ATOM     59  C   UNL A   1      45.648  26.605  30.666  1.00  0.00     0.029 A 
ATOM     60  C   UNL A   1      44.808  25.804  31.421  1.00  0.00     0.049 A 
ATOM     61  H   UNL A   1      43.539  24.246  30.797  1.00  0.00     0.167 HD
ATOM     62  C   UNL A   1      43.927  26.788  33.403  1.00  0.00     0.074 A 
ATOM     63  C   UNL A   1      43.707  27.239  34.765  1.00  0.00     0.031 C 
ATOM     64  C   UNL A   1      44.567  25.714  32.854  1.00  0.00     0.037 A 
BRANCH  51  65
ATOM     65  C   UNL A   1      44.371  23.960  26.939  1.00  0.00     0.064 A 
ATOM     66  C   UNL A   1      44.035  22.609  26.682  1.00  0.00     0.173 A 
ATOM     67  C   UNL A   1      45.372  24.467  26.087  1.00  0.00     0.173 A 
ATOM     68  F   UNL A   1      43.027  22.003  27.324  1.00  0.00    -0.203 F 
ATOM     69  C   UNL A   1      44.722  21.817  25.752  1.00  0.00     0.198 A 
ATOM     70  C   UNL A   1      46.080  23.670  25.180  1.00  0.00     0.198 A 
ATOM     71  F   UNL A   1      45.677  25.763  26.043  1.00  0.00    -0.203 F 
ATOM     72  F   UNL A   1      44.370  20.535  25.581  1.00  0.00    -0.200 F 
ATOM     73  C   UNL A   1      45.768  22.340  25.024  1.00  0.00     0.200 A 
ATOM     74  F   UNL A   1      47.070  24.214  24.457  1.00  0.00    -0.200 F 
ATOM     75  F   UNL A   1      46.450  21.577  24.159  1.00  0.00    -0.200 F 
ENDBRANCH  51  65
BRANCH  52  76
ATOM     76  C   UNL A   1      40.519  30.093  33.347  1.00  0.00     0.064 A 
ATOM     77  C   UNL A   1      40.213  31.442  33.603  1.00  0.00     0.173 A 
ATOM     78  C   UNL A   1      39.449  29.206  33.181  1.00  0.00     0.173 A 
ATOM     79  F   UNL A   1      41.203  32.334  33.766  1.00  0.00    -0.203 F 
ATOM     80  C   UNL A   1      38.899  31.905  33.580  1.00  0.00     0.198 A 
ATOM     81  C   UNL A   1      38.132  29.673  33.170  1.00  0.00     0.198 A 
ATOM     82  F   UNL A   1      39.675  27.913  32.912  1.00  0.00    -0.203 F 
ATOM     83  F   UNL A   1      38.649  33.216  33.719  1.00  0.00    -0.200 F 
ATOM     84  C   UNL A   1      37.862  31.023  33.336  1.00  0.00     0.200 A 
ATOM     85  F   UNL A   1      37.128  28.824  32.901  1.00  0.00    -0.200 F 
ATOM     86  F   UNL A   1      36.607  31.478  33.217  1.00  0.00    -0.200 F 
ENDBRANCH  52  76
BRANCH  64  87
ATOM     87  C   UNL A   1      45.099  24.519  33.608  1.00  0.00     0.064 A 
ATOM     88  C   UNL A   1      44.354  23.355  33.857  1.00  0.00     0.173 A 
ATOM     89  C   UNL A   1      46.465  24.458  33.975  1.00  0.00     0.173 A 
ATOM     90  F   UNL A   1      43.082  23.241  33.453  1.00  0.00    -0.203 F 
ATOM     91  C   UNL A   1      44.916  22.237  34.482  1.00  0.00     0.198 A 
ATOM     92  C   UNL A   1      47.037  23.321  34.544  1.00  0.00     0.198 A 
ATOM     93  F   UNL A   1      47.292  25.494  33.766  1.00  0.00    -0.203 F 
ATOM     94  F   UNL A   1      44.153  21.164  34.734  1.00  0.00    -0.200 F 
ATOM     95  C   UNL A   1      46.259  22.215  34.812  1.00  0.00     0.200 A 
ATOM     96  F   UNL A   1      48.351  23.298  34.809  1.00  0.00    -0.200 F 
ATOM     97  F   UNL A   1      46.803  21.124  35.365  1.00  0.00    -0.200 F 
ENDBRANCH  64  87
ENDBRANCH  38  39
ENDBRANCH  30  33
ENDBRANCH  28  29
ENDBRANCH  27  28
ENDBRANCH  26  27
ENDBRANCH   1  26
TORSDOF 16
ENDMDL
MODEL 3
REMARK VINA RESULT:     -13.3      1.767      2.604
REMARK SMILES Cc1c(/C=C/C(=O)NCCCCCCNC(=O)c2ccc(-c3c4nc(c(-c5c(F)c(F)c(F)c(F)c5F)c5ccc([nH]5)c(-c5c(F)c(F)c(F)c(F)c5F)c5nc(c(-c6c(F)c(F)c(F)c(F)c6F)c6ccc3[nH]6)C=C5)C=C4)cc2)cccc1C(=O)N1C[C@@H](C)[C@@H](C)C1
REMARK SMILES IDX 11 1 10 2 9 3 8 4 6 5 7 6 5 8 4 9 3 10 1 11 2 12 84 13 81 14
REMARK SMILES IDX 83 15 82 16 85 17 86 18 87 19 88 20 93 21 89 22 91 23 90 24
REMARK SMILES IDX 92 25 12 26 13 27 14 28 15 29 16 30 17 32 18 33 19 34 80 35
REMARK SMILES IDX 20 36 79 37 21 38 22 39 23 40 73 41 24 42 78 43 72 44 74 45
REMARK SMILES IDX 25 46 77 47 71 48 70 49 26 51 58 52 38 53 57 54 39 55 42 56
REMARK SMILES IDX 56 57 75 58 40 59 41 60 55 62 76 63 43 64 27 65 28 66 36 67
REMARK SMILES IDX 29 68 30 69 34 70 37 71 31 72 32 73 35 74 33 75 59 76 60 77
REMARK SMILES IDX 68 78 61 79 62 80 66 81 69 82 63 83 64 84 67 85 65 86 44 87
REMARK SMILES IDX 45 88 53 89 46 90 47 91 51 92 54 93 48 94 49 95 52 96 50 97
REMARK H PARENT 8 7 15 31 74 50 42 61
REMARK Flexibility Score: inf
ROOT
ATOM      1  C   UNL A   1      33.908  28.619  25.662  1.00  0.00     0.002 C 
ENDROOT
BRANCH   1   2
ATOM      2  C   UNL A   1      33.074  29.314  24.578  1.00  0.00     0.021 C 
BRANCH   2   3
ATOM      3  C   UNL A   1      31.562  29.146  24.725  1.00  0.00     0.116 C 
BRANCH   3   4
ATOM      4  N   UNL A   1      30.847  29.650  23.567  1.00  0.00    -0.353 N 
ATOM      5  C   UNL A   1      30.365  28.970  22.487  1.00  0.00     0.243 C 
ATOM      6  O   UNL A   1      29.643  29.525  21.667  1.00  0.00    -0.270 OA
ATOM      7  H   UNL A   1      30.687  30.621  23.559  1.00  0.00     0.163 HD
BRANCH   5   8
ATOM      8  C   UNL A   1      30.656  27.527  22.365  1.00  0.00     0.072 C 
ATOM      9  C   UNL A   1      31.918  27.071  22.363  1.00  0.00     0.014 C 
BRANCH   9  10
ATOM     10  C   UNL A   1      32.264  25.638  22.319  1.00  0.00    -0.022 A 
ATOM     11  C   UNL A   1      31.931  25.449  24.828  1.00  0.00     0.046 C 
ATOM     12  C   UNL A   1      32.289  24.839  23.496  1.00  0.00    -0.031 A 
ATOM     13  C   UNL A   1      32.652  23.473  23.378  1.00  0.00     0.043 A 
ATOM     14  C   UNL A   1      32.650  25.083  21.087  1.00  0.00     0.008 A 
ATOM     15  C   UNL A   1      33.013  22.944  22.126  1.00  0.00     0.014 A 
ATOM     16  C   UNL A   1      33.013  23.744  20.987  1.00  0.00     0.001 A 
BRANCH  13  17
ATOM     17  C   UNL A   1      32.995  22.618  24.547  1.00  0.00     0.254 C 
ATOM     18  O   UNL A   1      32.089  21.922  25.008  1.00  0.00    -0.269 OA
BRANCH  17  19
ATOM     19  N   UNL A   1      34.287  22.534  25.031  1.00  0.00    -0.338 N 
ATOM     20  C   UNL A   1      35.109  21.409  24.632  1.00  0.00     0.123 C 
ATOM     21  C   UNL A   1      34.925  23.328  26.070  1.00  0.00     0.123 C 
ATOM     22  C   UNL A   1      36.258  21.362  25.630  1.00  0.00     0.010 C 
ATOM     23  C   UNL A   1      36.378  22.820  26.127  1.00  0.00     0.010 C 
ATOM     24  C   UNL A   1      37.504  20.738  25.017  1.00  0.00     0.010 C 
ATOM     25  C   UNL A   1      37.320  23.703  25.312  1.00  0.00     0.010 C 
ENDBRANCH  17  19
ENDBRANCH  13  17
ENDBRANCH   9  10
ENDBRANCH   5   8
ENDBRANCH   3   4
ENDBRANCH   2   3
ENDBRANCH   1   2
BRANCH   1  26
ATOM     26  C   UNL A   1      33.417  28.777  27.113  1.00  0.00     0.002 C 
BRANCH  26  27
ATOM     27  C   UNL A   1      33.266  30.214  27.620  1.00  0.00     0.021 C 
BRANCH  27  28
ATOM     28  C   UNL A   1      34.482  31.099  27.358  1.00  0.00     0.116 C 
BRANCH  28  29
ATOM     29  N   UNL A   1      34.980  31.758  28.552  1.00  0.00    -0.352 N 
ATOM     30  C   UNL A   1      35.932  31.327  29.477  1.00  0.00     0.251 C 
ATOM     31  H   UNL A   1      34.587  32.641  28.737  1.00  0.00     0.163 HD
ATOM     32  O   UNL A   1      36.201  32.006  30.450  1.00  0.00    -0.269 OA
BRANCH  30  33
ATOM     33  C   UNL A   1      36.717  30.104  29.174  1.00  0.00     0.039 A 
ATOM     34  C   UNL A   1      36.895  29.191  30.217  1.00  0.00     0.014 A 
ATOM     35  C   UNL A   1      37.442  29.995  27.999  1.00  0.00     0.014 A 
ATOM     36  C   UNL A   1      37.999  28.340  30.186  1.00  0.00     0.010 A 
ATOM     37  C   UNL A   1      38.587  29.226  28.005  1.00  0.00     0.010 A 
ATOM     38  C   UNL A   1      38.908  28.470  29.137  1.00  0.00    -0.014 A 
BRANCH  38  39
ATOM     39  C   UNL A   1      40.278  27.982  29.215  1.00  0.00     0.031 A 
ATOM     40  C   UNL A   1      40.621  26.626  28.752  1.00  0.00     0.074 A 
ATOM     41  C   UNL A   1      41.247  28.840  29.608  1.00  0.00     0.049 A 
ATOM     42  N   UNL A   1      41.709  26.002  29.058  1.00  0.00    -0.248 NA
ATOM     43  C   UNL A   1      39.712  25.826  27.945  1.00  0.00     0.031 C 
ATOM     44  C   UNL A   1      42.689  28.683  29.453  1.00  0.00     0.029 A 
ATOM     45  N   UNL A   1      41.105  29.975  30.428  1.00  0.00    -0.354 N 
ATOM     46  C   UNL A   1      41.780  24.866  28.283  1.00  0.00     0.074 A 
ATOM     47  C   UNL A   1      40.468  24.753  27.694  1.00  0.00     0.031 C 
ATOM     48  C   UNL A   1      43.309  29.461  30.353  1.00  0.00     0.029 A 
ATOM     49  C   UNL A   1      42.280  30.018  31.214  1.00  0.00     0.049 A 
ATOM     50  H   UNL A   1      40.349  30.605  30.449  1.00  0.00     0.167 HD
ATOM     51  C   UNL A   1      42.993  24.253  28.134  1.00  0.00     0.037 A 
ATOM     52  C   UNL A   1      42.236  29.863  32.569  1.00  0.00     0.037 A 
ATOM     53  C   UNL A   1      43.974  24.822  29.064  1.00  0.00     0.049 A 
ATOM     54  C   UNL A   1      43.044  28.694  33.082  1.00  0.00     0.074 A 
ATOM     55  C   UNL A   1      45.007  25.733  28.911  1.00  0.00     0.029 A 
ATOM     56  N   UNL A   1      43.775  24.684  30.436  1.00  0.00    -0.354 N 
ATOM     57  N   UNL A   1      43.424  27.693  32.338  1.00  0.00    -0.248 NA
ATOM     58  C   UNL A   1      43.455  28.545  34.475  1.00  0.00     0.031 C 
ATOM     59  C   UNL A   1      45.382  26.193  30.200  1.00  0.00     0.029 A 
ATOM     60  C   UNL A   1      44.598  25.544  31.137  1.00  0.00     0.049 A 
ATOM     61  H   UNL A   1      43.134  24.060  30.849  1.00  0.00     0.167 HD
ATOM     62  C   UNL A   1      44.087  26.776  33.111  1.00  0.00     0.074 A 
ATOM     63  C   UNL A   1      44.100  27.365  34.437  1.00  0.00     0.031 C 
ATOM     64  C   UNL A   1      44.556  25.604  32.592  1.00  0.00     0.037 A 
BRANCH  51  65
ATOM     65  C   UNL A   1      43.384  23.358  26.963  1.00  0.00     0.064 A 
ATOM     66  C   UNL A   1      42.946  22.012  26.913  1.00  0.00     0.173 A 
ATOM     67  C   UNL A   1      44.259  23.707  25.916  1.00  0.00     0.173 A 
ATOM     68  F   UNL A   1      42.026  21.543  27.765  1.00  0.00    -0.203 F 
ATOM     69  C   UNL A   1      43.436  21.086  25.982  1.00  0.00     0.198 A 
ATOM     70  C   UNL A   1      44.773  22.777  25.005  1.00  0.00     0.198 A 
ATOM     71  F   UNL A   1      44.617  24.970  25.682  1.00  0.00    -0.203 F 
ATOM     72  F   UNL A   1      42.998  19.819  26.011  1.00  0.00    -0.200 F 
ATOM     73  C   UNL A   1      44.375  21.461  25.048  1.00  0.00     0.200 A 
ATOM     74  F   UNL A   1      45.660  23.178  24.082  1.00  0.00    -0.200 F 
ATOM     75  F   UNL A   1      44.872  20.572  24.179  1.00  0.00    -0.200 F 
ENDBRANCH  51  65
BRANCH  52  76
ATOM     76  C   UNL A   1      40.977  30.363  33.180  1.00  0.00     0.064 A 
ATOM     77  C   UNL A   1      40.808  31.753  33.318  1.00  0.00     0.173 A 
ATOM     78  C   UNL A   1      39.835  29.560  33.267  1.00  0.00     0.173 A 
ATOM     79  F   UNL A   1      41.873  32.567  33.237  1.00  0.00    -0.203 F 
ATOM     80  C   UNL A   1      39.542  32.323  33.423  1.00  0.00     0.198 A 
ATOM     81  C   UNL A   1      38.566  30.135  33.384  1.00  0.00     0.198 A 
ATOM     82  F   UNL A   1      39.926  28.231  33.121  1.00  0.00    -0.203 F 
ATOM     83  F   UNL A   1      39.409  33.658  33.442  1.00  0.00    -0.200 F 
ATOM     84  C   UNL A   1      38.420  31.514  33.429  1.00  0.00     0.200 A 
ATOM     85  F   UNL A   1      37.476  29.354  33.357  1.00  0.00    -0.200 F 
ATOM     86  F   UNL A   1      37.196  32.061  33.433  1.00  0.00    -0.200 F 
ENDBRANCH  52  76
BRANCH  64  87
ATOM     87  C   UNL A   1      45.094  24.437  33.384  1.00  0.00     0.064 A 
ATOM     88  C   UNL A   1      44.354  23.278  33.673  1.00  0.00     0.173 A 
ATOM     89  C   UNL A   1      46.461  24.393  33.751  1.00  0.00     0.173 A 
ATOM     90  F   UNL A   1      43.082  23.145  33.275  1.00  0.00    -0.203 F 
ATOM     91  C   UNL A   1      44.922  22.184  34.334  1.00  0.00     0.198 A 
ATOM     92  C   UNL A   1      47.038  23.278  34.357  1.00  0.00     0.198 A 
ATOM     93  F   UNL A   1      47.284  25.425  33.507  1.00  0.00    -0.203 F 
ATOM     94  F   UNL A   1      44.163  21.117  34.622  1.00  0.00    -0.200 F 
ATOM     95  C   UNL A   1      46.265  22.178  34.662  1.00  0.00     0.200 A 
ATOM     96  F   UNL A   1      48.353  23.269  34.620  1.00  0.00    -0.200 F 
ATOM     97  F   UNL A   1      46.815  21.108  35.250  1.00  0.00    -0.200 F 
ENDBRANCH  64  87
ENDBRANCH  38  39
ENDBRANCH  30  33
ENDBRANCH  28  29
ENDBRANCH  27  28
ENDBRANCH  26  27
ENDBRANCH   1  26
TORSDOF 16
ENDMDL
