MODEL 1
REMARK VINA RESULT:     -12.6      0.000      0.000
REMARK SMILES C[C@@H](C(=O)NCCCCCCNC(=O)c1ccc(-c2c3nc(c(-c4c(F)c(F)c(F)c(F)c4F)c4ccc([nH]4)c(-c4c(F)c(F)c(F)c(F)c4F)c4nc(c(-c5c(F)c(F)c(F)c(F)c5F)c5ccc2[nH]5)C=C4)C=C3)cc1)c1ccc(C[C@H]2CCCC2=O)c(-c2ccc(OC(F)(F)F)cc2)c1
REMARK SMILES IDX 7 1 6 2 5 3 3 4 4 5 2 7 1 8 78 9 79 10 101 11 80 12 89 13
REMARK SMILES IDX 81 14 90 15 91 16 100 17 92 18 99 19 93 20 94 21 95 22 96 23
REMARK SMILES IDX 97 24 98 25 82 26 83 27 84 28 87 29 85 30 86 31 88 32 8 33
REMARK SMILES IDX 9 34 10 35 11 36 12 37 13 38 14 40 15 41 16 42 77 43 17 44
REMARK SMILES IDX 76 45 18 46 19 47 20 48 70 49 21 50 75 51 69 52 71 53 22 54
REMARK SMILES IDX 74 55 68 56 67 57 23 59 55 60 35 61 54 62 36 63 39 64 53 65
REMARK SMILES IDX 72 66 37 67 38 68 52 70 73 71 40 72 24 73 25 74 33 75 26 76
REMARK SMILES IDX 27 77 31 78 34 79 28 80 29 81 32 82 30 83 56 84 57 85 65 86
REMARK SMILES IDX 58 87 59 88 63 89 66 90 60 91 61 92 64 93 62 94 41 95 42 96
REMARK SMILES IDX 50 97 43 98 44 99 48 100 51 101 45 102 46 103 49 104 47 105
REMARK H PARENT 5 6 12 39 71 58 39 69
REMARK Flexibility Score: inf
ROOT
ATOM      1  C   UNL A   1      36.056  33.107  28.434  1.00  0.00     0.021 C 
ENDROOT
BRANCH   1   2
ATOM      2  C   UNL A   1      35.627  31.840  27.684  1.00  0.00     0.116 C 
BRANCH   2   3
ATOM      3  N   UNL A   1      34.181  31.765  27.625  1.00  0.00    -0.356 N 
ATOM      4  C   UNL A   1      33.375  30.703  27.329  1.00  0.00     0.227 C 
ATOM      5  O   UNL A   1      32.214  30.968  27.009  1.00  0.00    -0.274 OA
ATOM      6  H   UNL A   1      33.710  32.605  27.829  1.00  0.00     0.163 HD
BRANCH   4   7
ATOM      7  C   UNL A   1      33.926  29.264  27.438  1.00  0.00     0.105 C 
ATOM      8  C   UNL A   1      35.366  29.327  27.972  1.00  0.00     0.023 C 
BRANCH   7   9
ATOM      9  C   UNL A   1      33.818  28.473  26.126  1.00  0.00    -0.035 A 
ATOM     10  C   UNL A   1      33.506  29.094  24.913  1.00  0.00     0.005 A 
ATOM     11  C   UNL A   1      34.052  27.085  26.093  1.00  0.00     0.013 A 
ATOM     12  C   UNL A   1      33.297  28.344  23.758  1.00  0.00     0.004 A 
ATOM     13  C   UNL A   1      33.810  26.293  24.946  1.00  0.00    -0.015 A 
ATOM     14  C   UNL A   1      33.368  26.940  23.771  1.00  0.00    -0.039 A 
BRANCH  13  15
ATOM     15  C   UNL A   1      33.992  24.830  25.051  1.00  0.00    -0.018 A 
ATOM     16  C   UNL A   1      34.890  24.143  24.222  1.00  0.00     0.012 A 
ATOM     17  C   UNL A   1      33.271  24.080  25.994  1.00  0.00     0.012 A 
ATOM     18  C   UNL A   1      35.010  22.751  24.290  1.00  0.00     0.047 A 
ATOM     19  C   UNL A   1      33.404  22.687  26.076  1.00  0.00     0.047 A 
ATOM     20  C   UNL A   1      34.263  22.012  25.211  1.00  0.00     0.129 A 
BRANCH  20  21
ATOM     21  O   UNL A   1      34.465  20.664  25.149  1.00  0.00    -0.406 OA
BRANCH  21  22
ATOM     22  C   UNL A   1      33.446  19.868  24.571  1.00  0.00     0.573 C 
ATOM     23  F   UNL A   1      32.788  20.547  23.606  1.00  0.00    -0.132 F 
ATOM     24  F   UNL A   1      33.947  18.723  24.058  1.00  0.00    -0.132 F 
ATOM     25  F   UNL A   1      32.556  19.539  25.534  1.00  0.00    -0.132 F 
ENDBRANCH  21  22
ENDBRANCH  20  21
ENDBRANCH  13  15
BRANCH  14  26
ATOM     26  C   UNL A   1      32.900  26.213  22.524  1.00  0.00     0.047 C 
BRANCH  26  27
ATOM     27  C   UNL A   1      31.398  25.898  22.436  1.00  0.00     0.060 C 
ATOM     28  C   UNL A   1      30.846  24.882  23.442  1.00  0.00     0.012 C 
ATOM     29  C   UNL A   1      30.520  27.101  22.693  1.00  0.00     0.136 C 
ATOM     30  C   UNL A   1      30.218  25.694  24.568  1.00  0.00     0.009 C 
ATOM     31  C   UNL A   1      29.633  26.928  23.898  1.00  0.00     0.076 C 
ATOM     32  O   UNL A   1      30.512  28.103  21.986  1.00  0.00    -0.299 OA
ENDBRANCH  26  27
ENDBRANCH  14  26
ENDBRANCH   7   9
ENDBRANCH   4   7
ENDBRANCH   2   3
ENDBRANCH   1   2
BRANCH   1  33
ATOM     33  C   UNL A   1      34.887  33.958  28.951  1.00  0.00     0.002 C 
BRANCH  33  34
ATOM     34  C   UNL A   1      34.720  35.314  28.262  1.00  0.00     0.002 C 
BRANCH  34  35
ATOM     35  C   UNL A   1      33.616  36.196  28.846  1.00  0.00     0.021 C 
BRANCH  35  36
ATOM     36  C   UNL A   1      32.639  35.459  29.753  1.00  0.00     0.116 C 
BRANCH  36  37
ATOM     37  N   UNL A   1      32.285  36.241  30.928  1.00  0.00    -0.352 N 
ATOM     38  C   UNL A   1      32.771  36.128  32.206  1.00  0.00     0.251 C 
ATOM     39  H   UNL A   1      31.610  36.944  30.787  1.00  0.00     0.163 HD
ATOM     40  O   UNL A   1      32.249  36.732  33.137  1.00  0.00    -0.269 OA
BRANCH  38  41
ATOM     41  C   UNL A   1      33.928  35.245  32.454  1.00  0.00     0.039 A 
ATOM     42  C   UNL A   1      35.218  35.721  32.210  1.00  0.00     0.014 A 
ATOM     43  C   UNL A   1      33.727  33.958  32.958  1.00  0.00     0.014 A 
ATOM     44  C   UNL A   1      36.318  34.925  32.535  1.00  0.00     0.010 A 
ATOM     45  C   UNL A   1      34.821  33.196  33.345  1.00  0.00     0.010 A 
ATOM     46  C   UNL A   1      36.126  33.670  33.134  1.00  0.00    -0.014 A 
BRANCH  46  47
ATOM     47  C   UNL A   1      37.263  32.805  33.535  1.00  0.00     0.031 A 
ATOM     48  C   UNL A   1      37.996  33.101  34.812  1.00  0.00     0.074 A 
ATOM     49  C   UNL A   1      37.709  31.847  32.703  1.00  0.00     0.049 A 
ATOM     50  N   UNL A   1      39.124  32.609  35.255  1.00  0.00    -0.248 NA
ATOM     51  C   UNL A   1      37.395  34.119  35.685  1.00  0.00     0.031 C 
ATOM     52  C   UNL A   1      37.103  31.491  31.419  1.00  0.00     0.029 A 
ATOM     53  N   UNL A   1      38.800  31.020  32.798  1.00  0.00    -0.354 N 
ATOM     54  C   UNL A   1      39.386  33.286  36.440  1.00  0.00     0.074 A 
ATOM     55  C   UNL A   1      38.323  34.251  36.621  1.00  0.00     0.031 C 
ATOM     56  C   UNL A   1      37.834  30.523  30.844  1.00  0.00     0.029 A 
ATOM     57  C   UNL A   1      38.983  30.222  31.695  1.00  0.00     0.049 A 
ATOM     58  H   UNL A   1      39.396  30.999  33.582  1.00  0.00     0.167 HD
ATOM     59  C   UNL A   1      40.414  33.107  37.302  1.00  0.00     0.037 A 
ATOM     60  C   UNL A   1      39.978  29.367  31.391  1.00  0.00     0.037 A 
ATOM     61  C   UNL A   1      41.447  32.122  37.128  1.00  0.00     0.049 A 
ATOM     62  C   UNL A   1      41.105  29.173  32.367  1.00  0.00     0.074 A 
ATOM     63  C   UNL A   1      42.491  31.806  37.979  1.00  0.00     0.029 A 
ATOM     64  N   UNL A   1      41.567  31.293  36.022  1.00  0.00    -0.354 N 
ATOM     65  N   UNL A   1      41.316  29.774  33.513  1.00  0.00    -0.248 NA
ATOM     66  C   UNL A   1      42.131  28.182  32.011  1.00  0.00     0.031 C 
ATOM     67  C   UNL A   1      43.270  30.821  37.366  1.00  0.00     0.029 A 
ATOM     68  C   UNL A   1      42.681  30.481  36.158  1.00  0.00     0.049 A 
ATOM     69  H   UNL A   1      40.950  31.283  35.254  1.00  0.00     0.167 HD
ATOM     70  C   UNL A   1      42.476  29.214  34.031  1.00  0.00     0.074 A 
ATOM     71  C   UNL A   1      42.927  28.226  33.073  1.00  0.00     0.031 C 
ATOM     72  C   UNL A   1      43.106  29.491  35.200  1.00  0.00     0.037 A 
BRANCH  59  73
ATOM     73  C   UNL A   1      40.472  34.012  38.500  1.00  0.00     0.064 A 
ATOM     74  C   UNL A   1      39.823  33.692  39.703  1.00  0.00     0.173 A 
ATOM     75  C   UNL A   1      41.187  35.218  38.442  1.00  0.00     0.173 A 
ATOM     76  F   UNL A   1      39.117  32.556  39.807  1.00  0.00    -0.203 F 
ATOM     77  C   UNL A   1      39.845  34.569  40.784  1.00  0.00     0.198 A 
ATOM     78  C   UNL A   1      41.238  36.075  39.538  1.00  0.00     0.198 A 
ATOM     79  F   UNL A   1      41.834  35.569  37.321  1.00  0.00    -0.203 F 
ATOM     80  F   UNL A   1      39.158  34.276  41.896  1.00  0.00    -0.200 F 
ATOM     81  C   UNL A   1      40.556  35.757  40.702  1.00  0.00     0.200 A 
ATOM     82  F   UNL A   1      41.936  37.216  39.462  1.00  0.00    -0.200 F 
ATOM     83  F   UNL A   1      40.572  36.602  41.743  1.00  0.00    -0.200 F 
ENDBRANCH  59  73
BRANCH  60  84
ATOM     84  C   UNL A   1      39.932  28.624  30.105  1.00  0.00     0.064 A 
ATOM     85  C   UNL A   1      40.499  29.163  28.943  1.00  0.00     0.173 A 
ATOM     86  C   UNL A   1      39.364  27.345  30.024  1.00  0.00     0.173 A 
ATOM     87  F   UNL A   1      41.038  30.391  28.969  1.00  0.00    -0.203 F 
ATOM     88  C   UNL A   1      40.497  28.451  27.745  1.00  0.00     0.198 A 
ATOM     89  C   UNL A   1      39.384  26.623  28.831  1.00  0.00     0.198 A 
ATOM     90  F   UNL A   1      38.815  26.783  31.111  1.00  0.00    -0.203 F 
ATOM     91  F   UNL A   1      41.025  28.999  26.642  1.00  0.00    -0.200 F 
ATOM     92  C   UNL A   1      39.948  27.178  27.693  1.00  0.00     0.200 A 
ATOM     93  F   UNL A   1      38.867  25.388  28.790  1.00  0.00    -0.200 F 
ATOM     94  F   UNL A   1      39.961  26.487  26.545  1.00  0.00    -0.200 F 
ENDBRANCH  60  84
BRANCH  72  95
ATOM     95  C   UNL A   1      44.325  28.687  35.543  1.00  0.00     0.064 A 
ATOM     96  C   UNL A   1      45.612  29.113  35.187  1.00  0.00     0.173 A 
ATOM     97  C   UNL A   1      44.206  27.524  36.318  1.00  0.00     0.173 A 
ATOM     98  F   UNL A   1      45.777  30.211  34.434  1.00  0.00    -0.203 F 
ATOM     99  C   UNL A   1      46.737  28.398  35.593  1.00  0.00     0.198 A 
ATOM    100  C   UNL A   1      45.333  26.828  36.743  1.00  0.00     0.198 A 
ATOM    101  F   UNL A   1      42.994  27.080  36.688  1.00  0.00    -0.203 F 
ATOM    102  F   UNL A   1      47.958  28.808  35.223  1.00  0.00    -0.200 F 
ATOM    103  C   UNL A   1      46.596  27.264  36.379  1.00  0.00     0.200 A 
ATOM    104  F   UNL A   1      45.195  25.741  37.516  1.00  0.00    -0.200 F 
ATOM    105  F   UNL A   1      47.682  26.591  36.787  1.00  0.00    -0.200 F 
ENDBRANCH  72  95
ENDBRANCH  46  47
ENDBRANCH  38  41
ENDBRANCH  36  37
ENDBRANCH  35  36
ENDBRANCH  34  35
ENDBRANCH  33  34
ENDBRANCH   1  33
TORSDOF 19
ENDMDL
MODEL 2
REMARK VINA RESULT:     -12.5      0.322      1.579
REMARK SMILES C[C@@H](C(=O)NCCCCCCNC(=O)c1ccc(-c2c3nc(c(-c4c(F)c(F)c(F)c(F)c4F)c4ccc([nH]4)c(-c4c(F)c(F)c(F)c(F)c4F)c4nc(c(-c5c(F)c(F)c(F)c(F)c5F)c5ccc2[nH]5)C=C4)C=C3)cc1)c1ccc(C[C@H]2CCCC2=O)c(-c2ccc(OC(F)(F)F)cc2)c1
REMARK SMILES IDX 7 1 6 2 5 3 3 4 4 5 2 7 1 8 78 9 79 10 101 11 80 12 89 13
REMARK SMILES IDX 81 14 90 15 91 16 100 17 92 18 99 19 93 20 94 21 95 22 96 23
REMARK SMILES IDX 97 24 98 25 82 26 83 27 84 28 87 29 85 30 86 31 88 32 8 33
REMARK SMILES IDX 9 34 10 35 11 36 12 37 13 38 14 40 15 41 16 42 77 43 17 44
REMARK SMILES IDX 76 45 18 46 19 47 20 48 70 49 21 50 75 51 69 52 71 53 22 54
REMARK SMILES IDX 74 55 68 56 67 57 23 59 55 60 35 61 54 62 36 63 39 64 53 65
REMARK SMILES IDX 72 66 37 67 38 68 52 70 73 71 40 72 24 73 25 74 33 75 26 76
REMARK SMILES IDX 27 77 31 78 34 79 28 80 29 81 32 82 30 83 56 84 57 85 65 86
REMARK SMILES IDX 58 87 59 88 63 89 66 90 60 91 61 92 64 93 62 94 41 95 42 96
REMARK SMILES IDX 50 97 43 98 44 99 48 100 51 101 45 102 46 103 49 104 47 105
REMARK H PARENT 5 6 12 39 71 58 39 69
REMARK Flexibility Score: inf
ROOT
ATOM      1  C   UNL A   1      34.893  32.798  29.216  1.00  0.00     0.021 C 
ENDROOT
BRANCH   1   2
ATOM      2  C   UNL A   1      34.851  31.872  27.995  1.00  0.00     0.116 C 
BRANCH   2   3
ATOM      3  N   UNL A   1      33.495  31.413  27.768  1.00  0.00    -0.356 N 
ATOM      4  C   UNL A   1      33.051  30.224  27.261  1.00  0.00     0.227 C 
ATOM      5  O   UNL A   1      31.889  30.205  26.847  1.00  0.00    -0.274 OA
ATOM      6  H   UNL A   1      32.789  32.052  28.015  1.00  0.00     0.163 HD
BRANCH   4   7
ATOM      7  C   UNL A   1      33.981  28.991  27.260  1.00  0.00     0.105 C 
ATOM      8  C   UNL A   1      35.410  29.454  27.586  1.00  0.00     0.023 C 
BRANCH   7   9
ATOM      9  C   UNL A   1      33.908  28.178  25.959  1.00  0.00    -0.035 A 
ATOM     10  C   UNL A   1      33.652  28.781  24.724  1.00  0.00     0.005 A 
ATOM     11  C   UNL A   1      34.116  26.786  25.960  1.00  0.00     0.013 A 
ATOM     12  C   UNL A   1      33.471  28.013  23.576  1.00  0.00     0.004 A 
ATOM     13  C   UNL A   1      33.902  25.976  24.819  1.00  0.00    -0.015 A 
ATOM     14  C   UNL A   1      33.516  26.609  23.617  1.00  0.00    -0.039 A 
BRANCH  13  15
ATOM     15  C   UNL A   1      34.053  24.513  24.957  1.00  0.00    -0.018 A 
ATOM     16  C   UNL A   1      34.919  23.785  24.130  1.00  0.00     0.012 A 
ATOM     17  C   UNL A   1      33.333  23.803  25.932  1.00  0.00     0.012 A 
ATOM     18  C   UNL A   1      35.008  22.393  24.230  1.00  0.00     0.047 A 
ATOM     19  C   UNL A   1      33.436  22.410  26.047  1.00  0.00     0.047 A 
ATOM     20  C   UNL A   1      34.262  21.694  25.183  1.00  0.00     0.129 A 
BRANCH  20  21
ATOM     21  O   UNL A   1      34.433  20.341  25.151  1.00  0.00    -0.406 OA
BRANCH  21  22
ATOM     22  C   UNL A   1      33.377  19.553  24.630  1.00  0.00     0.573 C 
ATOM     23  F   UNL A   1      32.578  19.097  25.618  1.00  0.00    -0.132 F 
ATOM     24  F   UNL A   1      32.639  20.249  23.736  1.00  0.00    -0.132 F 
ATOM     25  F   UNL A   1      33.907  18.487  23.992  1.00  0.00    -0.132 F 
ENDBRANCH  21  22
ENDBRANCH  20  21
ENDBRANCH  13  15
BRANCH  14  26
ATOM     26  C   UNL A   1      33.080  25.867  22.367  1.00  0.00     0.047 C 
BRANCH  26  27
ATOM     27  C   UNL A   1      31.579  25.563  22.237  1.00  0.00     0.060 C 
ATOM     28  C   UNL A   1      31.014  24.472  23.151  1.00  0.00     0.012 C 
ATOM     29  C   UNL A   1      30.700  26.745  22.579  1.00  0.00     0.136 C 
ATOM     30  C   UNL A   1      30.374  25.193  24.332  1.00  0.00     0.009 C 
ATOM     31  C   UNL A   1      29.798  26.478  23.756  1.00  0.00     0.076 C 
ATOM     32  O   UNL A   1      30.702  27.800  21.954  1.00  0.00    -0.299 OA
ENDBRANCH  26  27
ENDBRANCH  14  26
ENDBRANCH   7   9
ENDBRANCH   4   7
ENDBRANCH   2   3
ENDBRANCH   1   2
BRANCH   1  33
ATOM     33  C   UNL A   1      35.464  34.193  28.929  1.00  0.00     0.002 C 
BRANCH  33  34
ATOM     34  C   UNL A   1      34.550  35.111  28.114  1.00  0.00     0.002 C 
BRANCH  34  35
ATOM     35  C   UNL A   1      33.722  36.091  28.945  1.00  0.00     0.021 C 
BRANCH  35  36
ATOM     36  C   UNL A   1      32.663  35.432  29.821  1.00  0.00     0.116 C 
BRANCH  36  37
ATOM     37  N   UNL A   1      32.337  36.239  30.987  1.00  0.00    -0.352 N 
ATOM     38  C   UNL A   1      32.844  36.146  32.258  1.00  0.00     0.251 C 
ATOM     39  H   UNL A   1      31.664  36.944  30.845  1.00  0.00     0.163 HD
ATOM     40  O   UNL A   1      32.344  36.772  33.187  1.00  0.00    -0.269 OA
BRANCH  38  41
ATOM     41  C   UNL A   1      33.998  35.258  32.502  1.00  0.00     0.039 A 
ATOM     42  C   UNL A   1      35.291  35.736  32.272  1.00  0.00     0.014 A 
ATOM     43  C   UNL A   1      33.793  33.965  32.988  1.00  0.00     0.014 A 
ATOM     44  C   UNL A   1      36.388  34.934  32.594  1.00  0.00     0.010 A 
ATOM     45  C   UNL A   1      34.884  33.197  33.372  1.00  0.00     0.010 A 
ATOM     46  C   UNL A   1      36.191  33.672  33.176  1.00  0.00    -0.014 A 
BRANCH  46  47
ATOM     47  C   UNL A   1      37.324  32.801  33.573  1.00  0.00     0.031 A 
ATOM     48  C   UNL A   1      38.056  33.086  34.853  1.00  0.00     0.074 A 
ATOM     49  C   UNL A   1      37.768  31.846  32.736  1.00  0.00     0.049 A 
ATOM     50  N   UNL A   1      39.182  32.588  35.295  1.00  0.00    -0.248 NA
ATOM     51  C   UNL A   1      37.457  34.101  35.732  1.00  0.00     0.031 C 
ATOM     52  C   UNL A   1      37.163  31.501  31.449  1.00  0.00     0.029 A 
ATOM     53  N   UNL A   1      38.856  31.015  32.827  1.00  0.00    -0.354 N 
ATOM     54  C   UNL A   1      39.444  33.256  36.484  1.00  0.00     0.074 A 
ATOM     55  C   UNL A   1      38.384  34.224  36.670  1.00  0.00     0.031 C 
ATOM     56  C   UNL A   1      37.891  30.534  30.868  1.00  0.00     0.029 A 
ATOM     57  C   UNL A   1      39.038  30.224  31.719  1.00  0.00     0.049 A 
ATOM     58  H   UNL A   1      39.450  30.987  33.612  1.00  0.00     0.167 HD
ATOM     59  C   UNL A   1      40.470  33.068  37.347  1.00  0.00     0.037 A 
ATOM     60  C   UNL A   1      40.030  29.368  31.412  1.00  0.00     0.037 A 
ATOM     61  C   UNL A   1      41.500  32.081  37.168  1.00  0.00     0.049 A 
ATOM     62  C   UNL A   1      41.156  29.163  32.388  1.00  0.00     0.074 A 
ATOM     63  C   UNL A   1      42.542  31.756  38.019  1.00  0.00     0.029 A 
ATOM     64  N   UNL A   1      41.619  31.258  36.057  1.00  0.00    -0.354 N 
ATOM     65  N   UNL A   1      41.367  29.756  33.538  1.00  0.00    -0.248 NA
ATOM     66  C   UNL A   1      42.179  28.171  32.028  1.00  0.00     0.031 C 
ATOM     67  C   UNL A   1      43.319  30.772  37.400  1.00  0.00     0.029 A 
ATOM     68  C   UNL A   1      42.730  30.442  36.190  1.00  0.00     0.049 A 
ATOM     69  H   UNL A   1      41.004  31.255  35.288  1.00  0.00     0.167 HD
ATOM     70  C   UNL A   1      42.524  29.189  34.055  1.00  0.00     0.074 A 
ATOM     71  C   UNL A   1      42.973  28.205  33.091  1.00  0.00     0.031 C 
ATOM     72  C   UNL A   1      43.153  29.457  35.226  1.00  0.00     0.037 A 
BRANCH  59  73
ATOM     73  C   UNL A   1      40.530  33.965  38.550  1.00  0.00     0.064 A 
ATOM     74  C   UNL A   1      41.255  35.167  38.543  1.00  0.00     0.173 A 
ATOM     75  C   UNL A   1      39.853  33.616  39.729  1.00  0.00     0.173 A 
ATOM     76  F   UNL A   1      41.928  35.543  37.445  1.00  0.00    -0.203 F 
ATOM     77  C   UNL A   1      41.342  35.959  39.685  1.00  0.00     0.198 A 
ATOM     78  C   UNL A   1      39.913  34.429  40.858  1.00  0.00     0.198 A 
ATOM     79  F   UNL A   1      39.138  32.483  39.789  1.00  0.00    -0.203 F 
ATOM     80  F   UNL A   1      42.099  37.064  39.675  1.00  0.00    -0.200 F 
ATOM     81  C   UNL A   1      40.667  35.592  40.840  1.00  0.00     0.200 A 
ATOM     82  F   UNL A   1      39.249  34.079  41.969  1.00  0.00    -0.200 F 
ATOM     83  F   UNL A   1      40.755  36.353  41.939  1.00  0.00    -0.200 F 
ENDBRANCH  59  73
BRANCH  60  84
ATOM     84  C   UNL A   1      39.984  28.633  30.121  1.00  0.00     0.064 A 
ATOM     85  C   UNL A   1      40.565  29.172  28.966  1.00  0.00     0.173 A 
ATOM     86  C   UNL A   1      39.401  27.360  30.029  1.00  0.00     0.173 A 
ATOM     87  F   UNL A   1      41.118  30.393  29.002  1.00  0.00    -0.203 F 
ATOM     88  C   UNL A   1      40.562  28.467  27.763  1.00  0.00     0.198 A 
ATOM     89  C   UNL A   1      39.420  26.646  28.832  1.00  0.00     0.198 A 
ATOM     90  F   UNL A   1      38.839  26.799  31.109  1.00  0.00    -0.203 F 
ATOM     91  F   UNL A   1      41.103  29.015  26.668  1.00  0.00    -0.200 F 
ATOM     92  C   UNL A   1      39.998  27.201  27.700  1.00  0.00     0.200 A 
ATOM     93  F   UNL A   1      38.889  25.417  28.780  1.00  0.00    -0.200 F 
ATOM     94  F   UNL A   1      40.010  26.517  26.548  1.00  0.00    -0.200 F 
ENDBRANCH  60  84
BRANCH  72  95
ATOM     95  C   UNL A   1      44.369  28.646  35.565  1.00  0.00     0.064 A 
ATOM     96  C   UNL A   1      44.275  27.432  36.257  1.00  0.00     0.173 A 
ATOM     97  C   UNL A   1      45.634  29.050  35.109  1.00  0.00     0.173 A 
ATOM     98  F   UNL A   1      43.090  27.010  36.725  1.00  0.00    -0.203 F 
ATOM     99  C   UNL A   1      45.407  26.651  36.484  1.00  0.00     0.198 A 
ATOM    100  C   UNL A   1      46.756  28.255  35.315  1.00  0.00     0.198 A 
ATOM    101  F   UNL A   1      45.772  30.203  34.437  1.00  0.00    -0.203 F 
ATOM    102  F   UNL A   1      45.300  25.503  37.168  1.00  0.00    -0.200 F 
ATOM    103  C   UNL A   1      46.642  27.057  36.003  1.00  0.00     0.200 A 
ATOM    104  F   UNL A   1      47.947  28.643  34.837  1.00  0.00    -0.200 F 
ATOM    105  F   UNL A   1      47.726  26.293  36.204  1.00  0.00    -0.200 F 
ENDBRANCH  72  95
ENDBRANCH  46  47
ENDBRANCH  38  41
ENDBRANCH  36  37
ENDBRANCH  35  36
ENDBRANCH  34  35
ENDBRANCH  33  34
ENDBRANCH   1  33
TORSDOF 19
ENDMDL
MODEL 3
REMARK VINA RESULT:     -12.4      6.392     11.151
REMARK SMILES C[C@@H](C(=O)NCCCCCCNC(=O)c1ccc(-c2c3nc(c(-c4c(F)c(F)c(F)c(F)c4F)c4ccc([nH]4)c(-c4c(F)c(F)c(F)c(F)c4F)c4nc(c(-c5c(F)c(F)c(F)c(F)c5F)c5ccc2[nH]5)C=C4)C=C3)cc1)c1ccc(C[C@H]2CCCC2=O)c(-c2ccc(OC(F)(F)F)cc2)c1
REMARK SMILES IDX 7 1 6 2 5 3 3 4 4 5 2 7 1 8 78 9 79 10 101 11 80 12 89 13
REMARK SMILES IDX 81 14 90 15 91 16 100 17 92 18 99 19 93 20 94 21 95 22 96 23
REMARK SMILES IDX 97 24 98 25 82 26 83 27 84 28 87 29 85 30 86 31 88 32 8 33
REMARK SMILES IDX 9 34 10 35 11 36 12 37 13 38 14 40 15 41 16 42 77 43 17 44
REMARK SMILES IDX 76 45 18 46 19 47 20 48 70 49 21 50 75 51 69 52 71 53 22 54
REMARK SMILES IDX 74 55 68 56 67 57 23 59 55 60 35 61 54 62 36 63 39 64 53 65
REMARK SMILES IDX 72 66 37 67 38 68 52 70 73 71 40 72 24 73 25 74 33 75 26 76
REMARK SMILES IDX 27 77 31 78 34 79 28 80 29 81 32 82 30 83 56 84 57 85 65 86
REMARK SMILES IDX 58 87 59 88 63 89 66 90 60 91 61 92 64 93 62 94 41 95 42 96
REMARK SMILES IDX 50 97 43 98 44 99 48 100 51 101 45 102 46 103 49 104 47 105
REMARK H PARENT 5 6 12 39 71 58 39 69
REMARK Flexibility Score: inf
ROOT
ATOM      1  C   UNL A   1      35.570  22.613  25.111  1.00  0.00     0.021 C 
ENDROOT
BRANCH   1   2
ATOM      2  C   UNL A   1      34.794  22.136  23.878  1.00  0.00     0.116 C 
BRANCH   2   3
ATOM      3  N   UNL A   1      33.756  21.206  24.275  1.00  0.00    -0.356 N 
ATOM      4  C   UNL A   1      32.404  21.388  24.350  1.00  0.00     0.227 C 
ATOM      5  O   UNL A   1      31.778  20.575  25.034  1.00  0.00    -0.274 OA
ATOM      6  H   UNL A   1      34.072  20.309  24.529  1.00  0.00     0.163 HD
BRANCH   4   7
ATOM      7  C   UNL A   1      31.739  22.546  23.573  1.00  0.00     0.105 C 
ATOM      8  C   UNL A   1      32.436  22.688  22.210  1.00  0.00     0.023 C 
BRANCH   7   9
ATOM      9  C   UNL A   1      31.708  23.864  24.359  1.00  0.00    -0.035 A 
ATOM     10  C   UNL A   1      32.135  23.942  25.688  1.00  0.00     0.005 A 
ATOM     11  C   UNL A   1      31.263  25.058  23.759  1.00  0.00     0.013 A 
ATOM     12  C   UNL A   1      31.989  25.118  26.419  1.00  0.00     0.004 A 
ATOM     13  C   UNL A   1      31.068  26.256  24.486  1.00  0.00    -0.015 A 
ATOM     14  C   UNL A   1      31.389  26.260  25.861  1.00  0.00    -0.039 A 
BRANCH  13  15
ATOM     15  C   UNL A   1      30.501  27.423  23.778  1.00  0.00    -0.018 A 
ATOM     16  C   UNL A   1      31.324  28.383  23.172  1.00  0.00     0.012 A 
ATOM     17  C   UNL A   1      29.111  27.604  23.684  1.00  0.00     0.012 A 
ATOM     18  C   UNL A   1      30.777  29.513  22.557  1.00  0.00     0.047 A 
ATOM     19  C   UNL A   1      28.562  28.727  23.052  1.00  0.00     0.047 A 
ATOM     20  C   UNL A   1      29.393  29.698  22.499  1.00  0.00     0.129 A 
BRANCH  20  21
ATOM     21  O   UNL A   1      29.004  30.855  21.889  1.00  0.00    -0.406 OA
BRANCH  21  22
ATOM     22  C   UNL A   1      28.505  31.898  22.708  1.00  0.00     0.573 C 
ATOM     23  F   UNL A   1      28.518  33.079  22.052  1.00  0.00    -0.132 F 
ATOM     24  F   UNL A   1      27.251  31.632  23.135  1.00  0.00    -0.132 F 
ATOM     25  F   UNL A   1      29.300  32.013  23.795  1.00  0.00    -0.132 F 
ENDBRANCH  21  22
ENDBRANCH  20  21
ENDBRANCH  13  15
BRANCH  14  26
ATOM     26  C   UNL A   1      31.070  27.404  26.806  1.00  0.00     0.047 C 
BRANCH  26  27
ATOM     27  C   UNL A   1      32.252  28.284  27.244  1.00  0.00     0.060 C 
ATOM     28  C   UNL A   1      33.652  27.808  26.843  1.00  0.00     0.012 C 
ATOM     29  C   UNL A   1      32.212  29.674  26.651  1.00  0.00     0.136 C 
ATOM     30  C   UNL A   1      34.028  28.593  25.592  1.00  0.00     0.009 C 
ATOM     31  C   UNL A   1      33.402  29.968  25.775  1.00  0.00     0.076 C 
ATOM     32  O   UNL A   1      31.320  30.486  26.875  1.00  0.00    -0.299 OA
ENDBRANCH  26  27
ENDBRANCH  14  26
ENDBRANCH   7   9
ENDBRANCH   4   7
ENDBRANCH   2   3
ENDBRANCH   1   2
BRANCH   1  33
ATOM     33  C   UNL A   1      36.303  21.494  25.864  1.00  0.00     0.002 C 
BRANCH  33  34
ATOM     34  C   UNL A   1      36.732  20.306  25.000  1.00  0.00     0.002 C 
BRANCH  34  35
ATOM     35  C   UNL A   1      38.226  20.254  24.681  1.00  0.00     0.021 C 
BRANCH  35  36
ATOM     36  C   UNL A   1      39.132  20.359  25.902  1.00  0.00     0.116 C 
BRANCH  36  37
ATOM     37  N   UNL A   1      40.075  19.253  25.982  1.00  0.00    -0.352 N 
ATOM     38  C   UNL A   1      41.438  19.303  26.125  1.00  0.00     0.251 C 
ATOM     39  H   UNL A   1      39.683  18.352  25.926  1.00  0.00     0.163 HD
ATOM     40  O   UNL A   1      42.125  18.296  25.994  1.00  0.00    -0.269 OA
BRANCH  38  41
ATOM     41  C   UNL A   1      42.077  20.601  26.422  1.00  0.00     0.039 A 
ATOM     42  C   UNL A   1      42.424  21.451  25.369  1.00  0.00     0.014 A 
ATOM     43  C   UNL A   1      42.298  20.982  27.747  1.00  0.00     0.014 A 
ATOM     44  C   UNL A   1      42.937  22.719  25.649  1.00  0.00     0.010 A 
ATOM     45  C   UNL A   1      42.743  22.267  28.025  1.00  0.00     0.010 A 
ATOM     46  C   UNL A   1      43.070  23.147  26.979  1.00  0.00    -0.014 A 
BRANCH  46  47
ATOM     47  C   UNL A   1      43.571  24.499  27.326  1.00  0.00     0.031 A 
ATOM     48  C   UNL A   1      42.603  25.537  27.817  1.00  0.00     0.074 A 
ATOM     49  C   UNL A   1      44.853  24.827  27.086  1.00  0.00     0.049 A 
ATOM     50  N   UNL A   1      42.779  26.821  27.989  1.00  0.00    -0.248 NA
ATOM     51  C   UNL A   1      41.241  25.068  28.114  1.00  0.00     0.031 C 
ATOM     52  C   UNL A   1      45.878  23.915  26.575  1.00  0.00     0.029 A 
ATOM     53  N   UNL A   1      45.504  26.029  27.205  1.00  0.00    -0.354 N 
ATOM     54  C   UNL A   1      41.542  27.319  28.377  1.00  0.00     0.074 A 
ATOM     55  C   UNL A   1      40.616  26.206  28.372  1.00  0.00     0.031 C 
ATOM     56  C   UNL A   1      47.027  24.592  26.419  1.00  0.00     0.029 A 
ATOM     57  C   UNL A   1      46.808  25.992  26.775  1.00  0.00     0.049 A 
ATOM     58  H   UNL A   1      45.078  26.840  27.565  1.00  0.00     0.167 HD
ATOM     59  C   UNL A   1      41.214  28.587  28.719  1.00  0.00     0.037 A 
ATOM     60  C   UNL A   1      47.715  26.980  26.654  1.00  0.00     0.037 A 
ATOM     61  C   UNL A   1      42.149  29.679  28.752  1.00  0.00     0.049 A 
ATOM     62  C   UNL A   1      47.335  28.380  27.050  1.00  0.00     0.074 A 
ATOM     63  C   UNL A   1      41.938  30.985  29.156  1.00  0.00     0.029 A 
ATOM     64  N   UNL A   1      43.478  29.589  28.362  1.00  0.00    -0.354 N 
ATOM     65  N   UNL A   1      46.180  28.833  27.472  1.00  0.00    -0.248 NA
ATOM     66  C   UNL A   1      48.384  29.407  26.956  1.00  0.00     0.031 C 
ATOM     67  C   UNL A   1      43.126  31.697  28.963  1.00  0.00     0.029 A 
ATOM     68  C   UNL A   1      44.093  30.823  28.494  1.00  0.00     0.049 A 
ATOM     69  H   UNL A   1      43.918  28.770  28.039  1.00  0.00     0.167 HD
ATOM     70  C   UNL A   1      46.367  30.186  27.725  1.00  0.00     0.074 A 
ATOM     71  C   UNL A   1      47.749  30.482  27.406  1.00  0.00     0.031 C 
ATOM     72  C   UNL A   1      45.475  31.096  28.186  1.00  0.00     0.037 A 
BRANCH  59  73
ATOM     73  C   UNL A   1      39.777  28.856  29.066  1.00  0.00     0.064 A 
ATOM     74  C   UNL A   1      39.296  28.734  30.379  1.00  0.00     0.173 A 
ATOM     75  C   UNL A   1      38.867  29.240  28.068  1.00  0.00     0.173 A 
ATOM     76  F   UNL A   1      40.121  28.359  31.368  1.00  0.00    -0.203 F 
ATOM     77  C   UNL A   1      37.949  28.936  30.671  1.00  0.00     0.198 A 
ATOM     78  C   UNL A   1      37.529  29.477  28.371  1.00  0.00     0.198 A 
ATOM     79  F   UNL A   1      39.275  29.382  26.798  1.00  0.00    -0.203 F 
ATOM     80  F   UNL A   1      37.500  28.742  31.918  1.00  0.00    -0.200 F 
ATOM     81  C   UNL A   1      37.069  29.312  29.668  1.00  0.00     0.200 A 
ATOM     82  F   UNL A   1      36.682  29.854  27.403  1.00  0.00    -0.200 F 
ATOM     83  F   UNL A   1      35.772  29.502  29.950  1.00  0.00    -0.200 F 
ENDBRANCH  59  73
BRANCH  60  84
ATOM     84  C   UNL A   1      49.075  26.662  26.147  1.00  0.00     0.064 A 
ATOM     85  C   UNL A   1      50.036  26.081  26.984  1.00  0.00     0.173 A 
ATOM     86  C   UNL A   1      49.423  26.887  24.807  1.00  0.00     0.173 A 
ATOM     87  F   UNL A   1      49.754  25.863  28.277  1.00  0.00    -0.203 F 
ATOM     88  C   UNL A   1      51.299  25.740  26.501  1.00  0.00     0.198 A 
ATOM     89  C   UNL A   1      50.677  26.524  24.319  1.00  0.00     0.198 A 
ATOM     90  F   UNL A   1      48.534  27.433  23.964  1.00  0.00    -0.203 F 
ATOM     91  F   UNL A   1      52.208  25.209  27.328  1.00  0.00    -0.200 F 
ATOM     92  C   UNL A   1      51.614  25.954  25.167  1.00  0.00     0.200 A 
ATOM     93  F   UNL A   1      50.972  26.716  23.026  1.00  0.00    -0.200 F 
ATOM     94  F   UNL A   1      52.822  25.611  24.699  1.00  0.00    -0.200 F 
ENDBRANCH  60  84
BRANCH  72  95
ATOM     95  C   UNL A   1      45.965  32.494  28.425  1.00  0.00     0.064 A 
ATOM     96  C   UNL A   1      45.861  33.489  27.444  1.00  0.00     0.173 A 
ATOM     97  C   UNL A   1      46.460  32.860  29.686  1.00  0.00     0.173 A 
ATOM     98  F   UNL A   1      45.407  33.185  26.218  1.00  0.00    -0.203 F 
ATOM     99  C   UNL A   1      46.239  34.802  27.717  1.00  0.00     0.198 A 
ATOM    100  C   UNL A   1      46.813  34.177  29.962  1.00  0.00     0.198 A 
ATOM    101  F   UNL A   1      46.573  31.942  30.659  1.00  0.00    -0.203 F 
ATOM    102  F   UNL A   1      46.154  35.734  26.758  1.00  0.00    -0.200 F 
ATOM    103  C   UNL A   1      46.703  35.146  28.978  1.00  0.00     0.200 A 
ATOM    104  F   UNL A   1      47.246  34.510  31.186  1.00  0.00    -0.200 F 
ATOM    105  F   UNL A   1      47.046  36.415  29.244  1.00  0.00    -0.200 F 
ENDBRANCH  72  95
ENDBRANCH  46  47
ENDBRANCH  38  41
ENDBRANCH  36  37
ENDBRANCH  35  36
ENDBRANCH  34  35
ENDBRANCH  33  34
ENDBRANCH   1  33
TORSDOF 19
ENDMDL
