MODEL 1
REMARK VINA RESULT:     -11.1      0.000      0.000
REMARK SMILES C[C@@]12CCCC[C@@H]1[C@@H]2C(=O)N/N=C/c1ccc(OCC(=O)NCCCCCCNC(=O)c2ccc(-c3c4nc(c(-c5c(F)c(F)c(F)c(F)c5F)c5ccc([nH]5)c(-c5c(F)c(F)c(F)c(F)c5F)c5nc(c(-c6c(F)c(F)c(F)c(F)c6F)c6ccc3[nH]6)C=C5)C=C4)cc2)cc1
REMARK SMILES IDX 24 1 23 2 22 3 20 4 21 5 19 7 18 8 17 9 14 10 15 11 96 12
REMARK SMILES IDX 16 13 95 14 13 15 12 16 11 17 9 18 10 19 8 21 1 22 2 23 3 24
REMARK SMILES IDX 7 25 4 26 6 27 5 28 25 29 26 30 27 31 28 32 29 33 30 34
REMARK SMILES IDX 31 36 32 37 33 38 94 39 34 40 93 41 35 42 36 43 37 44 87 45
REMARK SMILES IDX 38 46 92 47 86 48 88 49 39 50 91 51 85 52 84 53 40 55 72 56
REMARK SMILES IDX 52 57 71 58 53 59 56 60 70 61 89 62 54 63 55 64 69 66 90 67
REMARK SMILES IDX 57 68 41 69 42 70 50 71 43 72 44 73 48 74 51 75 45 76 46 77
REMARK SMILES IDX 49 78 47 79 73 80 74 81 82 82 75 83 76 84 80 85 83 86 77 87
REMARK SMILES IDX 78 88 81 89 79 90 58 91 59 92 67 93 60 94 61 95 65 96 68 97
REMARK SMILES IDX 62 98 63 99 66 100 64 101
REMARK H PARENT 22 6 11 20 29 35 88 54 56 65
REMARK Flexibility Score: inf
ROOT
ATOM      1  C   UNL A   1      33.143  26.027  22.441  1.00  0.00     0.021 C 
ENDROOT
BRANCH   1   2
ATOM      2  C   UNL A   1      31.796  26.218  21.742  1.00  0.00     0.116 C 
BRANCH   2   3
ATOM      3  N   UNL A   1      31.090  27.382  22.237  1.00  0.00    -0.353 N 
ATOM      4  C   UNL A   1      30.052  27.446  23.118  1.00  0.00     0.257 C 
ATOM      5  O   UNL A   1      29.605  28.554  23.423  1.00  0.00    -0.271 OA
ATOM      6  H   UNL A   1      31.404  28.247  21.888  1.00  0.00     0.163 HD
BRANCH   4   7
ATOM      7  C   UNL A   1      29.489  26.159  23.746  1.00  0.00     0.329 C 
BRANCH   7   8
ATOM      8  O   UNL A   1      29.766  25.877  25.109  1.00  0.00    -0.484 OA
BRANCH   8   9
ATOM      9  C   UNL A   1      30.685  24.900  25.370  1.00  0.00     0.120 A 
ATOM     10  C   UNL A   1      32.370  22.713  25.733  1.00  0.00    -0.005 A 
ATOM     11  C   UNL A   1      31.626  22.814  24.561  1.00  0.00     0.013 A 
ATOM     12  C   UNL A   1      32.300  23.715  26.706  1.00  0.00     0.013 A 
ATOM     13  C   UNL A   1      30.791  23.917  24.380  1.00  0.00     0.047 A 
ATOM     14  C   UNL A   1      31.469  24.816  26.518  1.00  0.00     0.047 A 
BRANCH  10  15
ATOM     15  C   UNL A   1      33.276  21.566  25.924  1.00  0.00     0.141 C 
ATOM     16  N   UNL A   1      33.896  21.077  24.905  1.00  0.00    -0.181 NA
BRANCH  16  17
ATOM     17  N   UNL A   1      34.720  20.039  25.110  1.00  0.00    -0.247 N 
ATOM     18  C   UNL A   1      36.055  19.879  24.850  1.00  0.00     0.244 C 
ATOM     19  O   UNL A   1      36.565  18.809  25.192  1.00  0.00    -0.273 OA
ATOM     20  H   UNL A   1      34.290  19.254  25.520  1.00  0.00     0.193 HD
BRANCH  18  21
ATOM     21  C   UNL A   1      36.956  20.859  24.195  1.00  0.00     0.090 C 
ATOM     22  C   UNL A   1      38.850  21.565  25.811  1.00  0.00     0.012 C 
ATOM     23  C   UNL A   1      37.481  21.891  25.271  1.00  0.00    -0.017 C 
ATOM     24  C   UNL A   1      36.550  22.586  26.258  1.00  0.00     0.008 C 
ATOM     25  C   UNL A   1      37.275  22.280  23.841  1.00  0.00     0.009 C 
ATOM     26  C   UNL A   1      36.307  24.040  25.849  1.00  0.00     0.001 C 
ATOM     27  C   UNL A   1      36.372  23.387  23.412  1.00  0.00     0.005 C 
ATOM     28  C   UNL A   1      35.582  24.076  24.514  1.00  0.00     0.000 C 
ENDBRANCH  18  21
ENDBRANCH  16  17
ENDBRANCH  10  15
ENDBRANCH   8   9
ENDBRANCH   7   8
ENDBRANCH   4   7
ENDBRANCH   2   3
ENDBRANCH   1   2
BRANCH   1  29
ATOM     29  C   UNL A   1      33.627  27.238  23.251  1.00  0.00     0.002 C 
BRANCH  29  30
ATOM     30  C   UNL A   1      33.688  27.033  24.767  1.00  0.00     0.002 C 
BRANCH  30  31
ATOM     31  C   UNL A   1      33.073  28.158  25.601  1.00  0.00     0.021 C 
BRANCH  31  32
ATOM     32  C   UNL A   1      33.754  28.405  26.943  1.00  0.00     0.116 C 
BRANCH  32  33
ATOM     33  N   UNL A   1      33.641  29.789  27.377  1.00  0.00    -0.352 N 
ATOM     34  C   UNL A   1      34.528  30.558  28.089  1.00  0.00     0.251 C 
ATOM     35  H   UNL A   1      32.804  30.240  27.121  1.00  0.00     0.163 HD
ATOM     36  O   UNL A   1      34.189  31.653  28.520  1.00  0.00    -0.269 OA
BRANCH  34  37
ATOM     37  C   UNL A   1      35.892  30.050  28.361  1.00  0.00     0.039 A 
ATOM     38  C   UNL A   1      36.867  30.174  27.368  1.00  0.00     0.014 A 
ATOM     39  C   UNL A   1      36.208  29.451  29.583  1.00  0.00     0.014 A 
ATOM     40  C   UNL A   1      38.174  29.757  27.625  1.00  0.00     0.010 A 
ATOM     41  C   UNL A   1      37.527  29.108  29.866  1.00  0.00     0.010 A 
ATOM     42  C   UNL A   1      38.524  29.256  28.890  1.00  0.00    -0.014 A 
BRANCH  42  43
ATOM     43  C   UNL A   1      39.929  28.891  29.211  1.00  0.00     0.031 A 
ATOM     44  C   UNL A   1      40.801  29.839  29.988  1.00  0.00     0.074 A 
ATOM     45  C   UNL A   1      40.437  27.730  28.752  1.00  0.00     0.049 A 
ATOM     46  N   UNL A   1      42.066  29.726  30.310  1.00  0.00    -0.248 NA
ATOM     47  C   UNL A   1      40.178  31.093  30.438  1.00  0.00     0.031 C 
ATOM     48  C   UNL A   1      39.707  26.748  27.951  1.00  0.00     0.029 A 
ATOM     49  N   UNL A   1      41.691  27.186  28.883  1.00  0.00    -0.354 N 
ATOM     50  C   UNL A   1      42.388  30.893  30.990  1.00  0.00     0.074 A 
ATOM     51  C   UNL A   1      41.205  31.727  30.981  1.00  0.00     0.031 C 
ATOM     52  C   UNL A   1      40.515  25.710  27.683  1.00  0.00     0.029 A 
ATOM     53  C   UNL A   1      41.833  25.973  28.254  1.00  0.00     0.049 A 
ATOM     54  H   UNL A   1      42.419  27.623  29.381  1.00  0.00     0.167 HD
ATOM     55  C   UNL A   1      43.557  31.229  31.586  1.00  0.00     0.037 A 
ATOM     56  C   UNL A   1      42.907  25.168  28.141  1.00  0.00     0.037 A 
ATOM     57  C   UNL A   1      44.727  30.388  31.605  1.00  0.00     0.049 A 
ATOM     58  C   UNL A   1      44.201  25.575  28.795  1.00  0.00     0.074 A 
ATOM     59  C   UNL A   1      45.941  30.614  32.230  1.00  0.00     0.029 A 
ATOM     60  N   UNL A   1      44.831  29.163  30.963  1.00  0.00    -0.354 N 
ATOM     61  N   UNL A   1      44.473  26.650  29.494  1.00  0.00    -0.248 NA
ATOM     62  C   UNL A   1      45.335  24.653  28.646  1.00  0.00     0.031 C 
ATOM     63  C   UNL A   1      46.798  29.555  31.916  1.00  0.00     0.029 A 
ATOM     64  C   UNL A   1      46.099  28.636  31.152  1.00  0.00     0.049 A 
ATOM     65  H   UNL A   1      44.110  28.732  30.449  1.00  0.00     0.167 HD
ATOM     66  C   UNL A   1      45.796  26.518  29.896  1.00  0.00     0.074 A 
ATOM     67  C   UNL A   1      46.267  25.252  29.375  1.00  0.00     0.031 C 
ATOM     68  C   UNL A   1      46.553  27.370  30.632  1.00  0.00     0.037 A 
BRANCH  55  69
ATOM     69  C   UNL A   1      43.632  32.567  32.268  1.00  0.00     0.064 A 
ATOM     70  C   UNL A   1      44.041  33.721  31.582  1.00  0.00     0.173 A 
ATOM     71  C   UNL A   1      43.257  32.704  33.613  1.00  0.00     0.173 A 
ATOM     72  F   UNL A   1      44.420  33.646  30.298  1.00  0.00    -0.203 F 
ATOM     73  C   UNL A   1      44.102  34.955  32.226  1.00  0.00     0.198 A 
ATOM     74  C   UNL A   1      43.285  33.945  34.244  1.00  0.00     0.198 A 
ATOM     75  F   UNL A   1      42.852  31.634  34.315  1.00  0.00    -0.203 F 
ATOM     76  F   UNL A   1      44.548  36.032  31.566  1.00  0.00    -0.200 F 
ATOM     77  C   UNL A   1      43.717  35.067  33.554  1.00  0.00     0.200 A 
ATOM     78  F   UNL A   1      42.897  34.053  35.522  1.00  0.00    -0.200 F 
ATOM     79  F   UNL A   1      43.767  36.256  34.170  1.00  0.00    -0.200 F 
ENDBRANCH  55  69
BRANCH  56  80
ATOM     80  C   UNL A   1      42.801  23.888  27.393  1.00  0.00     0.064 A 
ATOM     81  C   UNL A   1      42.401  22.707  28.037  1.00  0.00     0.173 A 
ATOM     82  C   UNL A   1      43.105  23.812  26.026  1.00  0.00     0.173 A 
ATOM     83  F   UNL A   1      42.119  22.723  29.348  1.00  0.00    -0.203 F 
ATOM     84  C   UNL A   1      42.331  21.498  27.348  1.00  0.00     0.198 A 
ATOM     85  C   UNL A   1      43.003  22.609  25.331  1.00  0.00     0.198 A 
ATOM     86  F   UNL A   1      43.487  24.912  25.361  1.00  0.00    -0.203 F 
ATOM     87  F   UNL A   1      41.995  20.377  28.000  1.00  0.00    -0.200 F 
ATOM     88  C   UNL A   1      42.627  21.451  25.994  1.00  0.00     0.200 A 
ATOM     89  F   UNL A   1      43.273  22.571  24.018  1.00  0.00    -0.200 F 
ATOM     90  F   UNL A   1      42.555  20.289  25.331  1.00  0.00    -0.200 F 
ENDBRANCH  56  80
BRANCH  68  91
ATOM     91  C   UNL A   1      47.957  26.945  30.953  1.00  0.00     0.064 A 
ATOM     92  C   UNL A   1      49.052  27.356  30.179  1.00  0.00     0.173 A 
ATOM     93  C   UNL A   1      48.215  26.143  32.077  1.00  0.00     0.173 A 
ATOM     94  F   UNL A   1      48.859  28.111  29.086  1.00  0.00    -0.203 F 
ATOM     95  C   UNL A   1      50.347  26.958  30.500  1.00  0.00     0.198 A 
ATOM     96  C   UNL A   1      49.515  25.777  32.415  1.00  0.00     0.198 A 
ATOM     97  F   UNL A   1      47.206  25.727  32.857  1.00  0.00    -0.203 F 
ATOM     98  F   UNL A   1      51.371  27.320  29.713  1.00  0.00    -0.200 F 
ATOM     99  C   UNL A   1      50.579  26.177  31.621  1.00  0.00     0.200 A 
ATOM    100  F   UNL A   1      49.737  25.035  33.510  1.00  0.00    -0.200 F 
ATOM    101  F   UNL A   1      51.827  25.803  31.934  1.00  0.00    -0.200 F 
ENDBRANCH  68  91
ENDBRANCH  42  43
ENDBRANCH  34  37
ENDBRANCH  32  33
ENDBRANCH  31  32
ENDBRANCH  30  31
ENDBRANCH  29  30
ENDBRANCH   1  29
TORSDOF 18
ENDMDL
MODEL 2
REMARK VINA RESULT:     -11.0      3.195      5.882
REMARK SMILES C[C@@]12CCCC[C@@H]1[C@@H]2C(=O)N/N=C/c1ccc(OCC(=O)NCCCCCCNC(=O)c2ccc(-c3c4nc(c(-c5c(F)c(F)c(F)c(F)c5F)c5ccc([nH]5)c(-c5c(F)c(F)c(F)c(F)c5F)c5nc(c(-c6c(F)c(F)c(F)c(F)c6F)c6ccc3[nH]6)C=C5)C=C4)cc2)cc1
REMARK SMILES IDX 24 1 23 2 22 3 20 4 21 5 19 7 18 8 17 9 14 10 15 11 96 12
REMARK SMILES IDX 16 13 95 14 13 15 12 16 11 17 9 18 10 19 8 21 1 22 2 23 3 24
REMARK SMILES IDX 7 25 4 26 6 27 5 28 25 29 26 30 27 31 28 32 29 33 30 34
REMARK SMILES IDX 31 36 32 37 33 38 94 39 34 40 93 41 35 42 36 43 37 44 87 45
REMARK SMILES IDX 38 46 92 47 86 48 88 49 39 50 91 51 85 52 84 53 40 55 72 56
REMARK SMILES IDX 52 57 71 58 53 59 56 60 70 61 89 62 54 63 55 64 69 66 90 67
REMARK SMILES IDX 57 68 41 69 42 70 50 71 43 72 44 73 48 74 51 75 45 76 46 77
REMARK SMILES IDX 49 78 47 79 73 80 74 81 82 82 75 83 76 84 80 85 83 86 77 87
REMARK SMILES IDX 78 88 81 89 79 90 58 91 59 92 67 93 60 94 61 95 65 96 68 97
REMARK SMILES IDX 62 98 63 99 66 100 64 101
REMARK H PARENT 22 6 11 20 29 35 88 54 56 65
REMARK Flexibility Score: inf
ROOT
ATOM      1  C   UNL A   1      33.854  26.185  24.933  1.00  0.00     0.021 C 
ENDROOT
BRANCH   1   2
ATOM      2  C   UNL A   1      34.776  25.048  25.375  1.00  0.00     0.116 C 
BRANCH   2   3
ATOM      3  N   UNL A   1      35.477  24.453  24.255  1.00  0.00    -0.353 N 
ATOM      4  C   UNL A   1      35.401  23.180  23.775  1.00  0.00     0.257 C 
ATOM      5  O   UNL A   1      36.076  22.882  22.786  1.00  0.00    -0.271 OA
ATOM      6  H   UNL A   1      36.092  25.053  23.775  1.00  0.00     0.163 HD
BRANCH   4   7
ATOM      7  C   UNL A   1      34.457  22.159  24.433  1.00  0.00     0.329 C 
BRANCH   7   8
ATOM      8  O   UNL A   1      33.167  21.952  23.876  1.00  0.00    -0.484 OA
BRANCH   8   9
ATOM      9  C   UNL A   1      32.282  22.990  23.953  1.00  0.00     0.120 A 
ATOM     10  C   UNL A   1      30.323  24.933  24.331  1.00  0.00    -0.005 A 
ATOM     11  C   UNL A   1      30.700  24.127  25.401  1.00  0.00     0.013 A 
ATOM     12  C   UNL A   1      30.944  24.794  23.085  1.00  0.00     0.013 A 
ATOM     13  C   UNL A   1      31.688  23.162  25.209  1.00  0.00     0.047 A 
ATOM     14  C   UNL A   1      31.933  23.832  22.900  1.00  0.00     0.047 A 
BRANCH  10  15
ATOM     15  C   UNL A   1      29.298  25.974  24.528  1.00  0.00     0.141 C 
ATOM     16  N   UNL A   1      28.653  26.423  23.506  1.00  0.00    -0.181 NA
BRANCH  16  17
ATOM     17  N   UNL A   1      27.719  27.363  23.716  1.00  0.00    -0.247 N 
ATOM     18  C   UNL A   1      27.510  28.578  23.122  1.00  0.00     0.244 C 
ATOM     19  O   UNL A   1      26.528  29.222  23.501  1.00  0.00    -0.273 OA
ATOM     20  H   UNL A   1      27.072  27.140  24.424  1.00  0.00     0.193 HD
BRANCH  18  21
ATOM     21  C   UNL A   1      28.344  29.207  22.068  1.00  0.00     0.090 C 
ATOM     22  C   UNL A   1      30.813  29.345  22.831  1.00  0.00     0.012 C 
ATOM     23  C   UNL A   1      29.490  30.061  22.743  1.00  0.00    -0.017 C 
ATOM     24  C   UNL A   1      29.215  31.044  23.876  1.00  0.00     0.008 C 
ATOM     25  C   UNL A   1      28.892  30.445  21.426  1.00  0.00     0.009 C 
ATOM     26  C   UNL A   1      29.253  32.486  23.367  1.00  0.00     0.001 C 
ATOM     27  C   UNL A   1      28.240  31.762  21.172  1.00  0.00     0.005 C 
ATOM     28  C   UNL A   1      28.132  32.700  22.364  1.00  0.00     0.000 C 
ENDBRANCH  18  21
ENDBRANCH  16  17
ENDBRANCH  10  15
ENDBRANCH   8   9
ENDBRANCH   7   8
ENDBRANCH   4   7
ENDBRANCH   2   3
ENDBRANCH   1   2
BRANCH   1  29
ATOM     29  C   UNL A   1      33.501  27.195  26.033  1.00  0.00     0.002 C 
BRANCH  29  30
ATOM     30  C   UNL A   1      34.032  28.615  25.819  1.00  0.00     0.002 C 
BRANCH  30  31
ATOM     31  C   UNL A   1      32.961  29.687  25.612  1.00  0.00     0.021 C 
BRANCH  31  32
ATOM     32  C   UNL A   1      32.407  30.294  26.897  1.00  0.00     0.116 C 
BRANCH  32  33
ATOM     33  N   UNL A   1      32.537  31.743  26.927  1.00  0.00    -0.352 N 
ATOM     34  C   UNL A   1      33.490  32.523  27.536  1.00  0.00     0.251 C 
ATOM     35  H   UNL A   1      31.840  32.236  26.437  1.00  0.00     0.163 HD
ATOM     36  O   UNL A   1      33.342  33.736  27.606  1.00  0.00    -0.269 OA
BRANCH  34  37
ATOM     37  C   UNL A   1      34.687  31.892  28.135  1.00  0.00     0.039 A 
ATOM     38  C   UNL A   1      35.892  32.602  28.139  1.00  0.00     0.014 A 
ATOM     39  C   UNL A   1      34.628  30.609  28.685  1.00  0.00     0.014 A 
ATOM     40  C   UNL A   1      37.018  32.051  28.752  1.00  0.00     0.010 A 
ATOM     41  C   UNL A   1      35.729  30.095  29.364  1.00  0.00     0.010 A 
ATOM     42  C   UNL A   1      36.936  30.809  29.404  1.00  0.00    -0.014 A 
BRANCH  42  43
ATOM     43  C   UNL A   1      38.099  30.247  30.139  1.00  0.00     0.031 A 
ATOM     44  C   UNL A   1      38.389  30.684  31.549  1.00  0.00     0.074 A 
ATOM     45  C   UNL A   1      38.930  29.388  29.515  1.00  0.00     0.049 A 
ATOM     46  N   UNL A   1      39.390  30.355  32.329  1.00  0.00    -0.248 NA
ATOM     47  C   UNL A   1      37.447  31.638  32.153  1.00  0.00     0.031 C 
ATOM     48  C   UNL A   1      38.782  28.923  28.137  1.00  0.00     0.029 A 
ATOM     49  N   UNL A   1      40.070  28.763  29.956  1.00  0.00    -0.354 N 
ATOM     50  C   UNL A   1      39.200  31.067  33.506  1.00  0.00     0.074 A 
ATOM     51  C   UNL A   1      38.025  31.890  33.317  1.00  0.00     0.031 C 
ATOM     52  C   UNL A   1      39.776  28.067  27.852  1.00  0.00     0.029 A 
ATOM     53  C   UNL A   1      40.657  27.958  29.011  1.00  0.00     0.049 A 
ATOM     54  H   UNL A   1      40.432  28.880  30.864  1.00  0.00     0.167 HD
ATOM     55  C   UNL A   1      39.926  31.021  34.648  1.00  0.00     0.037 A 
ATOM     56  C   UNL A   1      41.784  27.222  29.068  1.00  0.00     0.037 A 
ATOM     57  C   UNL A   1      41.087  30.188  34.837  1.00  0.00     0.049 A 
ATOM     58  C   UNL A   1      42.585  27.205  30.342  1.00  0.00     0.074 A 
ATOM     59  C   UNL A   1      41.857  30.028  35.975  1.00  0.00     0.029 A 
ATOM     60  N   UNL A   1      41.647  29.380  33.858  1.00  0.00    -0.354 N 
ATOM     61  N   UNL A   1      42.357  27.829  31.473  1.00  0.00    -0.248 NA
ATOM     62  C   UNL A   1      43.799  26.377  30.349  1.00  0.00     0.031 C 
ATOM     63  C   UNL A   1      42.918  29.170  35.667  1.00  0.00     0.029 A 
ATOM     64  C   UNL A   1      42.772  28.743  34.359  1.00  0.00     0.049 A 
ATOM     65  H   UNL A   1      41.298  29.275  32.944  1.00  0.00     0.167 HD
ATOM     66  C   UNL A   1      43.377  27.444  32.334  1.00  0.00     0.074 A 
ATOM     67  C   UNL A   1      44.217  26.521  31.599  1.00  0.00     0.031 C 
ATOM     68  C   UNL A   1      43.597  27.820  33.617  1.00  0.00     0.037 A 
BRANCH  55  69
ATOM     69  C   UNL A   1      39.490  31.899  35.788  1.00  0.00     0.064 A 
ATOM     70  C   UNL A   1      38.476  31.507  36.675  1.00  0.00     0.173 A 
ATOM     71  C   UNL A   1      40.118  33.133  36.017  1.00  0.00     0.173 A 
ATOM     72  F   UNL A   1      37.835  30.342  36.497  1.00  0.00    -0.203 F 
ATOM     73  C   UNL A   1      38.086  32.330  37.729  1.00  0.00     0.198 A 
ATOM     74  C   UNL A   1      39.750  33.937  37.092  1.00  0.00     0.198 A 
ATOM     75  F   UNL A   1      41.099  33.555  35.204  1.00  0.00    -0.203 F 
ATOM     76  F   UNL A   1      37.078  31.959  38.529  1.00  0.00    -0.200 F 
ATOM     77  C   UNL A   1      38.728  33.541  37.941  1.00  0.00     0.200 A 
ATOM     78  F   UNL A   1      40.384  35.099  37.305  1.00  0.00    -0.200 F 
ATOM     79  F   UNL A   1      38.358  34.329  38.960  1.00  0.00    -0.200 F 
ENDBRANCH  55  69
BRANCH  56  80
ATOM     80  C   UNL A   1      42.213  26.426  27.888  1.00  0.00     0.064 A 
ATOM     81  C   UNL A   1      41.691  25.146  27.653  1.00  0.00     0.173 A 
ATOM     82  C   UNL A   1      43.157  26.921  26.976  1.00  0.00     0.173 A 
ATOM     83  F   UNL A   1      40.800  24.619  28.506  1.00  0.00    -0.203 F 
ATOM     84  C   UNL A   1      42.114  24.383  26.566  1.00  0.00     0.198 A 
ATOM     85  C   UNL A   1      43.555  26.171  25.872  1.00  0.00     0.198 A 
ATOM     86  F   UNL A   1      43.684  28.142  27.151  1.00  0.00    -0.203 F 
ATOM     87  F   UNL A   1      41.636  23.143  26.394  1.00  0.00    -0.200 F 
ATOM     88  C   UNL A   1      43.041  24.899  25.673  1.00  0.00     0.200 A 
ATOM     89  F   UNL A   1      44.438  26.680  25.002  1.00  0.00    -0.200 F 
ATOM     90  F   UNL A   1      43.444  24.166  24.625  1.00  0.00    -0.200 F 
ENDBRANCH  56  80
BRANCH  68  91
ATOM     91  C   UNL A   1      44.770  27.206  34.326  1.00  0.00     0.064 A 
ATOM     92  C   UNL A   1      46.028  27.825  34.353  1.00  0.00     0.173 A 
ATOM     93  C   UNL A   1      44.621  25.996  35.024  1.00  0.00     0.173 A 
ATOM     94  F   UNL A   1      46.228  28.975  33.691  1.00  0.00    -0.203 F 
ATOM     95  C   UNL A   1      47.100  27.242  35.024  1.00  0.00     0.198 A 
ATOM     96  C   UNL A   1      45.685  25.434  35.723  1.00  0.00     0.198 A 
ATOM     97  F   UNL A   1      43.438  25.364  35.038  1.00  0.00    -0.203 F 
ATOM     98  F   UNL A   1      48.306  27.826  34.989  1.00  0.00    -0.200 F 
ATOM     99  C   UNL A   1      46.926  26.053  35.715  1.00  0.00     0.200 A 
ATOM    100  F   UNL A   1      45.510  24.293  36.405  1.00  0.00    -0.200 F 
ATOM    101  F   UNL A   1      47.956  25.499  36.369  1.00  0.00    -0.200 F 
ENDBRANCH  68  91
ENDBRANCH  42  43
ENDBRANCH  34  37
ENDBRANCH  32  33
ENDBRANCH  31  32
ENDBRANCH  30  31
ENDBRANCH  29  30
ENDBRANCH   1  29
TORSDOF 18
ENDMDL
MODEL 3
REMARK VINA RESULT:     -10.9      4.760     11.205
REMARK SMILES C[C@@]12CCCC[C@@H]1[C@@H]2C(=O)N/N=C/c1ccc(OCC(=O)NCCCCCCNC(=O)c2ccc(-c3c4nc(c(-c5c(F)c(F)c(F)c(F)c5F)c5ccc([nH]5)c(-c5c(F)c(F)c(F)c(F)c5F)c5nc(c(-c6c(F)c(F)c(F)c(F)c6F)c6ccc3[nH]6)C=C5)C=C4)cc2)cc1
REMARK SMILES IDX 24 1 23 2 22 3 20 4 21 5 19 7 18 8 17 9 14 10 15 11 96 12
REMARK SMILES IDX 16 13 95 14 13 15 12 16 11 17 9 18 10 19 8 21 1 22 2 23 3 24
REMARK SMILES IDX 7 25 4 26 6 27 5 28 25 29 26 30 27 31 28 32 29 33 30 34
REMARK SMILES IDX 31 36 32 37 33 38 94 39 34 40 93 41 35 42 36 43 37 44 87 45
REMARK SMILES IDX 38 46 92 47 86 48 88 49 39 50 91 51 85 52 84 53 40 55 72 56
REMARK SMILES IDX 52 57 71 58 53 59 56 60 70 61 89 62 54 63 55 64 69 66 90 67
REMARK SMILES IDX 57 68 41 69 42 70 50 71 43 72 44 73 48 74 51 75 45 76 46 77
REMARK SMILES IDX 49 78 47 79 73 80 74 81 82 82 75 83 76 84 80 85 83 86 77 87
REMARK SMILES IDX 78 88 81 89 79 90 58 91 59 92 67 93 60 94 61 95 65 96 68 97
REMARK SMILES IDX 62 98 63 99 66 100 64 101
REMARK H PARENT 22 6 11 20 29 35 88 54 56 65
REMARK Flexibility Score: inf
ROOT
ATOM      1  C   UNL A   1      44.849  23.807  28.563  1.00  0.00     0.021 C 
ENDROOT
BRANCH   1   2
ATOM      2  C   UNL A   1      44.388  24.451  27.255  1.00  0.00     0.116 C 
BRANCH   2   3
ATOM      3  N   UNL A   1      45.166  23.991  26.122  1.00  0.00    -0.353 N 
ATOM      4  C   UNL A   1      45.752  24.720  25.131  1.00  0.00     0.257 C 
ATOM      5  O   UNL A   1      46.393  24.125  24.262  1.00  0.00    -0.271 OA
ATOM      6  H   UNL A   1      45.286  23.016  26.060  1.00  0.00     0.163 HD
BRANCH   4   7
ATOM      7  C   UNL A   1      45.648  26.255  25.134  1.00  0.00     0.329 C 
BRANCH   7   8
ATOM      8  O   UNL A   1      46.265  26.987  26.183  1.00  0.00    -0.484 OA
BRANCH   8   9
ATOM      9  C   UNL A   1      45.562  28.031  26.713  1.00  0.00     0.120 A 
ATOM     10  C   UNL A   1      43.947  30.147  27.532  1.00  0.00    -0.005 A 
ATOM     11  C   UNL A   1      43.400  29.137  26.746  1.00  0.00     0.013 A 
ATOM     12  C   UNL A   1      45.285  30.087  27.936  1.00  0.00     0.013 A 
ATOM     13  C   UNL A   1      44.212  28.074  26.347  1.00  0.00     0.047 A 
ATOM     14  C   UNL A   1      46.088  29.022  27.539  1.00  0.00     0.047 A 
BRANCH  10  15
ATOM     15  C   UNL A   1      43.094  31.262  27.981  1.00  0.00     0.141 C 
ATOM     16  N   UNL A   1      43.476  31.984  28.979  1.00  0.00    -0.181 NA
BRANCH  16  17
ATOM     17  N   UNL A   1      42.684  32.997  29.360  1.00  0.00    -0.247 N 
ATOM     18  C   UNL A   1      42.825  34.353  29.230  1.00  0.00     0.244 C 
ATOM     19  O   UNL A   1      41.897  35.052  29.647  1.00  0.00    -0.273 OA
ATOM     20  H   UNL A   1      41.857  32.717  29.813  1.00  0.00     0.193 HD
BRANCH  18  21
ATOM     21  C   UNL A   1      43.981  35.073  28.641  1.00  0.00     0.090 C 
ATOM     22  C   UNL A   1      43.163  36.941  27.047  1.00  0.00     0.012 C 
ATOM     23  C   UNL A   1      43.629  35.512  27.163  1.00  0.00    -0.017 C 
ATOM     24  C   UNL A   1      43.015  34.552  26.151  1.00  0.00     0.008 C 
ATOM     25  C   UNL A   1      45.028  35.175  27.573  1.00  0.00     0.009 C 
ATOM     26  C   UNL A   1      44.060  34.090  25.134  1.00  0.00     0.001 C 
ATOM     27  C   UNL A   1      45.840  34.107  26.923  1.00  0.00     0.005 C 
ATOM     28  C   UNL A   1      45.141  33.293  25.844  1.00  0.00     0.000 C 
ENDBRANCH  18  21
ENDBRANCH  16  17
ENDBRANCH  10  15
ENDBRANCH   8   9
ENDBRANCH   7   8
ENDBRANCH   4   7
ENDBRANCH   2   3
ENDBRANCH   1   2
BRANCH   1  29
ATOM     29  C   UNL A   1      43.790  22.946  29.267  1.00  0.00     0.002 C 
BRANCH  29  30
ATOM     30  C   UNL A   1      42.343  23.206  28.843  1.00  0.00     0.002 C 
BRANCH  30  31
ATOM     31  C   UNL A   1      41.699  22.097  28.009  1.00  0.00     0.021 C 
BRANCH  31  32
ATOM     32  C   UNL A   1      41.647  22.372  26.510  1.00  0.00     0.116 C 
BRANCH  32  33
ATOM     33  N   UNL A   1      40.287  22.394  25.996  1.00  0.00    -0.352 N 
ATOM     34  C   UNL A   1      39.279  23.298  26.228  1.00  0.00     0.251 C 
ATOM     35  H   UNL A   1      40.056  21.652  25.391  1.00  0.00     0.163 HD
ATOM     36  O   UNL A   1      38.138  23.061  25.850  1.00  0.00    -0.269 OA
BRANCH  34  37
ATOM     37  C   UNL A   1      39.566  24.551  26.962  1.00  0.00     0.039 A 
ATOM     38  C   UNL A   1      39.059  24.705  28.256  1.00  0.00     0.014 A 
ATOM     39  C   UNL A   1      40.324  25.570  26.380  1.00  0.00     0.014 A 
ATOM     40  C   UNL A   1      39.368  25.852  28.988  1.00  0.00     0.010 A 
ATOM     41  C   UNL A   1      40.696  26.676  27.139  1.00  0.00     0.010 A 
ATOM     42  C   UNL A   1      40.221  26.831  28.450  1.00  0.00    -0.014 A 
BRANCH  42  43
ATOM     43  C   UNL A   1      40.633  28.015  29.247  1.00  0.00     0.031 A 
ATOM     44  C   UNL A   1      41.998  28.070  29.875  1.00  0.00     0.074 A 
ATOM     45  C   UNL A   1      39.754  29.016  29.456  1.00  0.00     0.049 A 
ATOM     46  N   UNL A   1      42.516  28.987  30.655  1.00  0.00    -0.248 NA
ATOM     47  C   UNL A   1      42.892  26.931  29.616  1.00  0.00     0.031 C 
ATOM     48  C   UNL A   1      38.387  29.060  28.939  1.00  0.00     0.029 A 
ATOM     49  N   UNL A   1      39.877  30.184  30.168  1.00  0.00    -0.354 N 
ATOM     50  C   UNL A   1      43.785  28.530  30.984  1.00  0.00     0.074 A 
ATOM     51  C   UNL A   1      43.938  27.229  30.370  1.00  0.00     0.031 C 
ATOM     52  C   UNL A   1      37.805  30.206  29.328  1.00  0.00     0.029 A 
ATOM     53  C   UNL A   1      38.742  30.956  30.159  1.00  0.00     0.049 A 
ATOM     54  H   UNL A   1      40.702  30.443  30.640  1.00  0.00     0.167 HD
ATOM     55  C   UNL A   1      44.744  29.151  31.712  1.00  0.00     0.037 A 
ATOM     56  C   UNL A   1      38.481  32.133  30.761  1.00  0.00     0.037 A 
ATOM     57  C   UNL A   1      44.592  30.454  32.309  1.00  0.00     0.049 A 
ATOM     58  C   UNL A   1      39.557  32.790  31.584  1.00  0.00     0.074 A 
ATOM     59  C   UNL A   1      45.524  31.191  33.018  1.00  0.00     0.029 A 
ATOM     60  N   UNL A   1      43.429  31.209  32.272  1.00  0.00    -0.354 N 
ATOM     61  N   UNL A   1      40.778  32.382  31.830  1.00  0.00    -0.248 NA
ATOM     62  C   UNL A   1      39.218  34.077  32.208  1.00  0.00     0.031 C 
ATOM     63  C   UNL A   1      44.907  32.365  33.461  1.00  0.00     0.029 A 
ATOM     64  C   UNL A   1      43.612  32.392  32.972  1.00  0.00     0.049 A 
ATOM     65  H   UNL A   1      42.598  30.944  31.817  1.00  0.00     0.167 HD
ATOM     66  C   UNL A   1      41.363  33.373  32.607  1.00  0.00     0.074 A 
ATOM     67  C   UNL A   1      40.367  34.410  32.779  1.00  0.00     0.031 C 
ATOM     68  C   UNL A   1      42.613  33.420  33.131  1.00  0.00     0.037 A 
BRANCH  55  69
ATOM     69  C   UNL A   1      46.047  28.427  31.910  1.00  0.00     0.064 A 
ATOM     70  C   UNL A   1      47.215  28.814  31.236  1.00  0.00     0.173 A 
ATOM     71  C   UNL A   1      46.137  27.355  32.811  1.00  0.00     0.173 A 
ATOM     72  F   UNL A   1      47.184  29.825  30.355  1.00  0.00    -0.203 F 
ATOM     73  C   UNL A   1      48.416  28.136  31.432  1.00  0.00     0.198 A 
ATOM     74  C   UNL A   1      47.347  26.703  33.032  1.00  0.00     0.198 A 
ATOM     75  F   UNL A   1      45.053  26.947  33.489  1.00  0.00    -0.203 F 
ATOM     76  F   UNL A   1      49.505  28.488  30.736  1.00  0.00    -0.200 F 
ATOM     77  C   UNL A   1      48.483  27.086  32.336  1.00  0.00     0.200 A 
ATOM     78  F   UNL A   1      47.412  25.699  33.918  1.00  0.00    -0.200 F 
ATOM     79  F   UNL A   1      49.640  26.440  32.531  1.00  0.00    -0.200 F 
ENDBRANCH  55  69
BRANCH  56  80
ATOM     80  C   UNL A   1      37.150  32.774  30.595  1.00  0.00     0.064 A 
ATOM     81  C   UNL A   1      36.155  32.633  31.573  1.00  0.00     0.173 A 
ATOM     82  C   UNL A   1      36.841  33.532  29.456  1.00  0.00     0.173 A 
ATOM     83  F   UNL A   1      36.394  31.902  32.671  1.00  0.00    -0.203 F 
ATOM     84  C   UNL A   1      34.895  33.205  31.407  1.00  0.00     0.198 A 
ATOM     85  C   UNL A   1      35.591  34.130  29.306  1.00  0.00     0.198 A 
ATOM     86  F   UNL A   1      37.758  33.702  28.492  1.00  0.00    -0.203 F 
ATOM     87  F   UNL A   1      33.947  33.012  32.333  1.00  0.00    -0.200 F 
ATOM     88  C   UNL A   1      34.616  33.959  30.276  1.00  0.00     0.200 A 
ATOM     89  F   UNL A   1      35.332  34.872  28.220  1.00  0.00    -0.200 F 
ATOM     90  F   UNL A   1      33.406  34.512  30.119  1.00  0.00    -0.200 F 
ENDBRANCH  56  80
BRANCH  68  91
ATOM     91  C   UNL A   1      42.991  34.649  33.907  1.00  0.00     0.064 A 
ATOM     92  C   UNL A   1      43.493  35.798  33.278  1.00  0.00     0.173 A 
ATOM     93  C   UNL A   1      42.812  34.690  35.299  1.00  0.00     0.173 A 
ATOM     94  F   UNL A   1      43.697  35.807  31.952  1.00  0.00    -0.203 F 
ATOM     95  C   UNL A   1      43.829  36.930  34.017  1.00  0.00     0.198 A 
ATOM     96  C   UNL A   1      43.115  35.835  36.029  1.00  0.00     0.198 A 
ATOM     97  F   UNL A   1      42.328  33.622  35.951  1.00  0.00    -0.203 F 
ATOM     98  F   UNL A   1      44.357  37.996  33.400  1.00  0.00    -0.200 F 
ATOM     99  C   UNL A   1      43.632  36.951  35.389  1.00  0.00     0.200 A 
ATOM    100  F   UNL A   1      42.908  35.859  37.353  1.00  0.00    -0.200 F 
ATOM    101  F   UNL A   1      43.947  38.045  36.096  1.00  0.00    -0.200 F 
ENDBRANCH  68  91
ENDBRANCH  42  43
ENDBRANCH  34  37
ENDBRANCH  32  33
ENDBRANCH  31  32
ENDBRANCH  30  31
ENDBRANCH  29  30
ENDBRANCH   1  29
TORSDOF 18
ENDMDL
