MODEL 1
REMARK VINA RESULT:     -12.6      0.000      0.000
REMARK SMILES O=C(NCCCCCCNC(=O)c1nnn(-c2cccc(OC(F)(F)F)c2)c1-c1ccncc1)c1ccc(-c2c3nc(c(-c4c(F)c(F)c(F)c(F)c4F)c4ccc([nH]4)c(-c4c(F)c(F)c(F)c(F)c4F)c4nc(c(-c5c(F)c(F)c(F)c(F)c5F)c5ccc2[nH]5)C=C4)C=C3)cc1
REMARK SMILES IDX 7 1 6 2 5 3 4 4 3 5 1 6 2 7 35 9 36 10 97 11 37 12 96 13
REMARK SMILES IDX 38 14 39 15 40 16 90 17 41 18 95 19 89 20 91 21 42 22 94 23
REMARK SMILES IDX 88 24 87 25 43 27 75 28 55 29 74 30 56 31 59 32 73 33 92 34
REMARK SMILES IDX 57 35 58 36 72 38 93 39 60 40 44 41 45 42 53 43 46 44 47 45
REMARK SMILES IDX 51 46 54 47 48 48 49 49 52 50 50 51 76 52 77 53 85 54 78 55
REMARK SMILES IDX 79 56 83 57 86 58 80 59 81 60 84 61 82 62 61 63 62 64 70 65
REMARK SMILES IDX 63 66 64 67 68 68 71 69 65 70 66 71 69 72 67 73 8 74 9 75
REMARK SMILES IDX 10 76 11 77 12 79 13 80 14 81 28 82 15 83 16 84 29 85 30 86
REMARK SMILES IDX 34 87 31 88 33 89 32 90 17 91 18 92 27 93 19 94 21 95 20 96
REMARK SMILES IDX 22 97 23 98 24 99 25 100 26 101
REMARK H PARENT 3 8 91 26 59 37 10 78
REMARK Flexibility Score: inf
ROOT
ATOM      1  C   UNL A   1      36.789  23.716  25.794  1.00  0.00     0.002 C 
ENDROOT
BRANCH   1   2
ATOM      2  C   UNL A   1      38.163  23.394  26.399  1.00  0.00     0.002 C 
BRANCH   2   3
ATOM      3  C   UNL A   1      38.789  22.063  25.961  1.00  0.00     0.021 C 
BRANCH   3   4
ATOM      4  C   UNL A   1      40.120  21.748  26.632  1.00  0.00     0.116 C 
BRANCH   4   5
ATOM      5  N   UNL A   1      41.264  22.169  25.865  1.00  0.00    -0.352 N 
ATOM      6  O   UNL A   1      43.118  23.208  25.278  1.00  0.00    -0.269 OA
ATOM      7  C   UNL A   1      42.058  23.275  25.905  1.00  0.00     0.251 C 
ATOM      8  H   UNL A   1      41.526  21.525  25.168  1.00  0.00     0.163 HD
BRANCH   7   9
ATOM      9  C   UNL A   1      41.663  24.572  26.515  1.00  0.00     0.039 A 
ATOM     10  C   UNL A   1      40.831  25.568  25.999  1.00  0.00     0.014 A 
ATOM     11  C   UNL A   1      42.199  24.769  27.792  1.00  0.00     0.014 A 
ATOM     12  C   UNL A   1      40.779  26.829  26.625  1.00  0.00     0.010 A 
ATOM     13  C   UNL A   1      42.024  25.959  28.467  1.00  0.00     0.010 A 
ATOM     14  C   UNL A   1      41.493  27.059  27.814  1.00  0.00    -0.014 A 
BRANCH  14  15
ATOM     15  C   UNL A   1      41.382  28.298  28.609  1.00  0.00     0.031 A 
ATOM     16  C   UNL A   1      42.525  29.198  28.226  1.00  0.00     0.074 A 
ATOM     17  C   UNL A   1      40.327  28.624  29.425  1.00  0.00     0.049 A 
ATOM     18  N   UNL A   1      43.566  29.451  28.948  1.00  0.00    -0.248 NA
ATOM     19  C   UNL A   1      42.701  29.634  26.820  1.00  0.00     0.031 C 
ATOM     20  C   UNL A   1      39.098  27.864  29.723  1.00  0.00     0.029 A 
ATOM     21  N   UNL A   1      40.102  29.773  30.178  1.00  0.00    -0.354 N 
ATOM     22  C   UNL A   1      44.353  30.327  28.200  1.00  0.00     0.074 A 
ATOM     23  C   UNL A   1      43.908  30.204  26.845  1.00  0.00     0.031 C 
ATOM     24  C   UNL A   1      38.173  28.653  30.335  1.00  0.00     0.029 A 
ATOM     25  C   UNL A   1      38.755  29.950  30.618  1.00  0.00     0.049 A 
ATOM     26  H   UNL A   1      40.818  30.414  30.391  1.00  0.00     0.167 HD
ATOM     27  C   UNL A   1      45.044  31.315  28.835  1.00  0.00     0.037 A 
ATOM     28  C   UNL A   1      38.208  31.063  31.222  1.00  0.00     0.037 A 
ATOM     29  C   UNL A   1      45.113  31.013  30.243  1.00  0.00     0.049 A 
ATOM     30  C   UNL A   1      39.348  31.854  31.757  1.00  0.00     0.074 A 
ATOM     31  C   UNL A   1      45.702  30.035  31.013  1.00  0.00     0.029 A 
ATOM     32  N   UNL A   1      44.074  31.523  30.973  1.00  0.00    -0.354 N 
ATOM     33  N   UNL A   1      40.112  31.406  32.714  1.00  0.00    -0.248 NA
ATOM     34  C   UNL A   1      39.955  32.777  30.809  1.00  0.00     0.031 C 
ATOM     35  C   UNL A   1      44.738  29.722  32.019  1.00  0.00     0.029 A 
ATOM     36  C   UNL A   1      43.681  30.627  31.924  1.00  0.00     0.049 A 
ATOM     37  H   UNL A   1      43.668  32.409  30.832  1.00  0.00     0.167 HD
ATOM     38  C   UNL A   1      41.390  31.562  32.204  1.00  0.00     0.074 A 
ATOM     39  C   UNL A   1      41.222  32.402  31.010  1.00  0.00     0.031 C 
ATOM     40  C   UNL A   1      42.402  30.726  32.581  1.00  0.00     0.037 A 
BRANCH  27  41
ATOM     41  C   UNL A   1      45.168  32.745  28.342  1.00  0.00     0.064 A 
ATOM     42  C   UNL A   1      46.462  33.290  28.182  1.00  0.00     0.173 A 
ATOM     43  C   UNL A   1      44.116  33.688  28.340  1.00  0.00     0.173 A 
ATOM     44  F   UNL A   1      47.542  32.494  28.195  1.00  0.00    -0.203 F 
ATOM     45  C   UNL A   1      46.685  34.668  28.100  1.00  0.00     0.198 A 
ATOM     46  C   UNL A   1      44.340  35.060  28.209  1.00  0.00     0.198 A 
ATOM     47  F   UNL A   1      42.846  33.342  28.573  1.00  0.00    -0.203 F 
ATOM     48  F   UNL A   1      47.939  35.139  28.068  1.00  0.00    -0.200 F 
ATOM     49  C   UNL A   1      45.624  35.553  28.116  1.00  0.00     0.200 A 
ATOM     50  F   UNL A   1      43.299  35.905  28.255  1.00  0.00    -0.200 F 
ATOM     51  F   UNL A   1      45.837  36.875  28.083  1.00  0.00    -0.200 F 
ENDBRANCH  27  41
BRANCH  28  52
ATOM     52  C   UNL A   1      36.874  31.738  31.019  1.00  0.00     0.064 A 
ATOM     53  C   UNL A   1      35.945  31.994  32.061  1.00  0.00     0.173 A 
ATOM     54  C   UNL A   1      36.645  32.449  29.830  1.00  0.00     0.173 A 
ATOM     55  F   UNL A   1      36.099  31.426  33.267  1.00  0.00    -0.203 F 
ATOM     56  C   UNL A   1      34.875  32.901  31.909  1.00  0.00     0.198 A 
ATOM     57  C   UNL A   1      35.592  33.361  29.684  1.00  0.00     0.198 A 
ATOM     58  F   UNL A   1      37.510  32.351  28.812  1.00  0.00    -0.203 F 
ATOM     59  F   UNL A   1      34.038  33.150  32.930  1.00  0.00    -0.200 F 
ATOM     60  C   UNL A   1      34.710  33.594  30.723  1.00  0.00     0.200 A 
ATOM     61  F   UNL A   1      35.481  34.062  28.548  1.00  0.00    -0.200 F 
ATOM     62  F   UNL A   1      33.739  34.511  30.590  1.00  0.00    -0.200 F 
ENDBRANCH  28  52
BRANCH  40  63
ATOM     63  C   UNL A   1      42.159  29.782  33.725  1.00  0.00     0.064 A 
ATOM     64  C   UNL A   1      41.689  28.461  33.608  1.00  0.00     0.173 A 
ATOM     65  C   UNL A   1      42.578  30.205  34.991  1.00  0.00     0.173 A 
ATOM     66  F   UNL A   1      41.371  27.945  32.413  1.00  0.00    -0.203 F 
ATOM     67  C   UNL A   1      41.604  27.625  34.725  1.00  0.00     0.198 A 
ATOM     68  C   UNL A   1      42.528  29.361  36.093  1.00  0.00     0.198 A 
ATOM     69  F   UNL A   1      43.102  31.431  35.143  1.00  0.00    -0.203 F 
ATOM     70  F   UNL A   1      41.152  26.368  34.597  1.00  0.00    -0.200 F 
ATOM     71  C   UNL A   1      42.025  28.077  35.965  1.00  0.00     0.200 A 
ATOM     72  F   UNL A   1      43.002  29.786  37.271  1.00  0.00    -0.200 F 
ATOM     73  F   UNL A   1      41.974  27.270  37.035  1.00  0.00    -0.200 F 
ENDBRANCH  40  63
ENDBRANCH  14  15
ENDBRANCH   7   9
ENDBRANCH   4   5
ENDBRANCH   3   4
ENDBRANCH   2   3
ENDBRANCH   1   2
BRANCH   1  74
ATOM     74  C   UNL A   1      36.237  22.664  24.836  1.00  0.00     0.021 C 
BRANCH  74  75
ATOM     75  C   UNL A   1      36.000  23.181  23.431  1.00  0.00     0.116 C 
BRANCH  75  76
ATOM     76  N   UNL A   1      34.820  22.625  22.795  1.00  0.00    -0.351 N 
ATOM     77  C   UNL A   1      33.643  23.271  22.500  1.00  0.00     0.274 C 
ATOM     78  H   UNL A   1      34.868  21.674  22.546  1.00  0.00     0.163 HD
ATOM     79  O   UNL A   1      32.700  22.618  22.035  1.00  0.00    -0.267 OA
BRANCH  77  80
ATOM     80  C   UNL A   1      33.556  24.702  22.729  1.00  0.00     0.178 A 
ATOM     81  N   UNL A   1      33.861  25.629  21.761  1.00  0.00    -0.124 NA
ATOM     82  C   UNL A   1      33.061  25.360  23.851  1.00  0.00     0.108 A 
ATOM     83  N   UNL A   1      33.493  26.827  22.198  1.00  0.00    -0.061 NA
ATOM     84  N   UNL A   1      33.130  26.697  23.488  1.00  0.00    -0.212 N 
BRANCH  82  85
ATOM     85  C   UNL A   1      32.384  24.851  25.050  1.00  0.00     0.006 A 
ATOM     86  C   UNL A   1      33.087  24.199  26.059  1.00  0.00     0.030 A 
ATOM     87  C   UNL A   1      30.986  24.946  25.152  1.00  0.00     0.030 A 
ATOM     88  C   UNL A   1      32.364  23.665  27.113  1.00  0.00     0.111 A 
ATOM     89  C   UNL A   1      30.357  24.367  26.238  1.00  0.00     0.111 A 
ATOM     90  N   UNL A   1      31.017  23.723  27.217  1.00  0.00    -0.265 NA
ENDBRANCH  82  85
BRANCH  84  91
ATOM     91  C   UNL A   1      32.800  27.793  24.308  1.00  0.00     0.071 A 
ATOM     92  C   UNL A   1      31.709  28.604  24.004  1.00  0.00     0.029 A 
ATOM     93  C   UNL A   1      33.508  27.945  25.509  1.00  0.00     0.075 A 
ATOM     94  C   UNL A   1      31.278  29.517  24.967  1.00  0.00     0.006 A 
ATOM     95  C   UNL A   1      33.096  28.871  26.457  1.00  0.00     0.131 A 
ATOM     96  C   UNL A   1      31.963  29.643  26.185  1.00  0.00     0.047 A 
BRANCH  95  97
ATOM     97  O   UNL A   1      33.696  29.087  27.663  1.00  0.00    -0.406 OA
BRANCH  97  98
ATOM     98  C   UNL A   1      34.886  29.868  27.667  1.00  0.00     0.573 C 
ATOM     99  F   UNL A   1      35.738  29.460  26.701  1.00  0.00    -0.132 F 
ATOM    100  F   UNL A   1      34.611  31.180  27.489  1.00  0.00    -0.132 F 
ATOM    101  F   UNL A   1      35.504  29.729  28.859  1.00  0.00    -0.132 F 
ENDBRANCH  97  98
ENDBRANCH  95  97
ENDBRANCH  84  91
ENDBRANCH  77  80
ENDBRANCH  75  76
ENDBRANCH  74  75
ENDBRANCH   1  74
TORSDOF 17
ENDMDL
MODEL 2
REMARK VINA RESULT:     -12.5      2.046      2.892
REMARK SMILES O=C(NCCCCCCNC(=O)c1nnn(-c2cccc(OC(F)(F)F)c2)c1-c1ccncc1)c1ccc(-c2c3nc(c(-c4c(F)c(F)c(F)c(F)c4F)c4ccc([nH]4)c(-c4c(F)c(F)c(F)c(F)c4F)c4nc(c(-c5c(F)c(F)c(F)c(F)c5F)c5ccc2[nH]5)C=C4)C=C3)cc1
REMARK SMILES IDX 7 1 6 2 5 3 4 4 3 5 1 6 2 7 35 9 36 10 97 11 37 12 96 13
REMARK SMILES IDX 38 14 39 15 40 16 90 17 41 18 95 19 89 20 91 21 42 22 94 23
REMARK SMILES IDX 88 24 87 25 43 27 75 28 55 29 74 30 56 31 59 32 73 33 92 34
REMARK SMILES IDX 57 35 58 36 72 38 93 39 60 40 44 41 45 42 53 43 46 44 47 45
REMARK SMILES IDX 51 46 54 47 48 48 49 49 52 50 50 51 76 52 77 53 85 54 78 55
REMARK SMILES IDX 79 56 83 57 86 58 80 59 81 60 84 61 82 62 61 63 62 64 70 65
REMARK SMILES IDX 63 66 64 67 68 68 71 69 65 70 66 71 69 72 67 73 8 74 9 75
REMARK SMILES IDX 10 76 11 77 12 79 13 80 14 81 28 82 15 83 16 84 29 85 30 86
REMARK SMILES IDX 34 87 31 88 33 89 32 90 17 91 18 92 27 93 19 94 21 95 20 96
REMARK SMILES IDX 22 97 23 98 24 99 25 100 26 101
REMARK H PARENT 3 8 91 26 59 37 10 78
REMARK Flexibility Score: inf
ROOT
ATOM      1  C   UNL A   1      36.809  23.331  24.955  1.00  0.00     0.002 C 
ENDROOT
BRANCH   1   2
ATOM      2  C   UNL A   1      38.008  23.151  25.897  1.00  0.00     0.002 C 
BRANCH   2   3
ATOM      3  C   UNL A   1      38.778  21.831  25.753  1.00  0.00     0.021 C 
BRANCH   3   4
ATOM      4  C   UNL A   1      40.078  21.776  26.542  1.00  0.00     0.116 C 
BRANCH   4   5
ATOM      5  N   UNL A   1      41.227  22.209  25.788  1.00  0.00    -0.352 N 
ATOM      6  O   UNL A   1      43.083  23.258  25.226  1.00  0.00    -0.269 OA
ATOM      7  C   UNL A   1      42.019  23.315  25.847  1.00  0.00     0.251 C 
ATOM      8  H   UNL A   1      41.494  21.574  25.084  1.00  0.00     0.163 HD
BRANCH   7   9
ATOM      9  C   UNL A   1      41.619  24.603  26.472  1.00  0.00     0.039 A 
ATOM     10  C   UNL A   1      40.790  25.606  25.963  1.00  0.00     0.014 A 
ATOM     11  C   UNL A   1      42.144  24.783  27.755  1.00  0.00     0.014 A 
ATOM     12  C   UNL A   1      40.732  26.858  26.605  1.00  0.00     0.010 A 
ATOM     13  C   UNL A   1      41.962  25.964  28.445  1.00  0.00     0.010 A 
ATOM     14  C   UNL A   1      41.436  27.073  27.803  1.00  0.00    -0.014 A 
BRANCH  14  15
ATOM     15  C   UNL A   1      41.317  28.300  28.614  1.00  0.00     0.031 A 
ATOM     16  C   UNL A   1      42.462  29.207  28.251  1.00  0.00     0.074 A 
ATOM     17  C   UNL A   1      40.256  28.614  29.426  1.00  0.00     0.049 A 
ATOM     18  N   UNL A   1      43.498  29.451  28.984  1.00  0.00    -0.248 NA
ATOM     19  C   UNL A   1      42.648  29.661  26.852  1.00  0.00     0.031 C 
ATOM     20  C   UNL A   1      39.026  27.849  29.704  1.00  0.00     0.029 A 
ATOM     21  N   UNL A   1      40.024  29.753  30.192  1.00  0.00    -0.354 N 
ATOM     22  C   UNL A   1      44.289  30.338  28.254  1.00  0.00     0.074 A 
ATOM     23  C   UNL A   1      43.855  30.233  26.894  1.00  0.00     0.031 C 
ATOM     24  C   UNL A   1      38.096  28.629  30.320  1.00  0.00     0.029 A 
ATOM     25  C   UNL A   1      38.674  29.923  30.625  1.00  0.00     0.049 A 
ATOM     26  H   UNL A   1      40.738  30.392  30.420  1.00  0.00     0.167 HD
ATOM     27  C   UNL A   1      44.975  31.318  28.906  1.00  0.00     0.037 A 
ATOM     28  C   UNL A   1      38.121  31.027  31.240  1.00  0.00     0.037 A 
ATOM     29  C   UNL A   1      45.033  30.998  30.311  1.00  0.00     0.049 A 
ATOM     30  C   UNL A   1      39.256  31.812  31.794  1.00  0.00     0.074 A 
ATOM     31  C   UNL A   1      45.618  30.010  31.072  1.00  0.00     0.029 A 
ATOM     32  N   UNL A   1      43.988  31.497  31.040  1.00  0.00    -0.354 N 
ATOM     33  N   UNL A   1      40.014  31.352  32.750  1.00  0.00    -0.248 NA
ATOM     34  C   UNL A   1      39.869  32.748  30.862  1.00  0.00     0.031 C 
ATOM     35  C   UNL A   1      44.647  29.683  32.066  1.00  0.00     0.029 A 
ATOM     36  C   UNL A   1      43.589  30.587  31.976  1.00  0.00     0.049 A 
ATOM     37  H   UNL A   1      43.582  32.384  30.909  1.00  0.00     0.167 HD
ATOM     38  C   UNL A   1      41.295  31.516  32.252  1.00  0.00     0.074 A 
ATOM     39  C   UNL A   1      41.135  32.372  31.068  1.00  0.00     0.031 C 
ATOM     40  C   UNL A   1      42.305  30.676  32.625  1.00  0.00     0.037 A 
BRANCH  27  41
ATOM     41  C   UNL A   1      45.100  32.755  28.434  1.00  0.00     0.064 A 
ATOM     42  C   UNL A   1      43.917  33.477  28.160  1.00  0.00     0.173 A 
ATOM     43  C   UNL A   1      46.286  33.335  27.932  1.00  0.00     0.173 A 
ATOM     44  F   UNL A   1      42.726  33.010  28.564  1.00  0.00    -0.203 F 
ATOM     45  C   UNL A   1      43.918  34.642  27.387  1.00  0.00     0.198 A 
ATOM     46  C   UNL A   1      46.287  34.524  27.200  1.00  0.00     0.198 A 
ATOM     47  F   UNL A   1      47.474  32.729  28.027  1.00  0.00    -0.203 F 
ATOM     48  F   UNL A   1      42.757  35.223  27.057  1.00  0.00    -0.200 F 
ATOM     49  C   UNL A   1      45.103  35.164  26.905  1.00  0.00     0.200 A 
ATOM     50  F   UNL A   1      47.445  35.000  26.717  1.00  0.00    -0.200 F 
ATOM     51  F   UNL A   1      45.102  36.253  26.126  1.00  0.00    -0.200 F 
ENDBRANCH  27  41
BRANCH  28  52
ATOM     52  C   UNL A   1      36.788  31.703  31.036  1.00  0.00     0.064 A 
ATOM     53  C   UNL A   1      35.917  32.081  32.091  1.00  0.00     0.173 A 
ATOM     54  C   UNL A   1      36.507  32.294  29.793  1.00  0.00     0.173 A 
ATOM     55  F   UNL A   1      36.126  31.635  33.340  1.00  0.00    -0.203 F 
ATOM     56  C   UNL A   1      34.854  32.989  31.901  1.00  0.00     0.198 A 
ATOM     57  C   UNL A   1      35.461  33.206  29.608  1.00  0.00     0.198 A 
ATOM     58  F   UNL A   1      37.318  32.077  28.749  1.00  0.00    -0.203 F 
ATOM     59  F   UNL A   1      34.075  33.356  32.932  1.00  0.00    -0.200 F 
ATOM     60  C   UNL A   1      34.638  33.561  30.660  1.00  0.00     0.200 A 
ATOM     61  F   UNL A   1      35.301  33.791  28.414  1.00  0.00    -0.200 F 
ATOM     62  F   UNL A   1      33.674  34.478  30.483  1.00  0.00    -0.200 F 
ENDBRANCH  28  52
BRANCH  40  63
ATOM     63  C   UNL A   1      42.055  29.717  33.755  1.00  0.00     0.064 A 
ATOM     64  C   UNL A   1      41.624  28.384  33.614  1.00  0.00     0.173 A 
ATOM     65  C   UNL A   1      42.426  30.141  35.035  1.00  0.00     0.173 A 
ATOM     66  F   UNL A   1      41.356  27.870  32.406  1.00  0.00    -0.203 F 
ATOM     67  C   UNL A   1      41.530  27.537  34.722  1.00  0.00     0.198 A 
ATOM     68  C   UNL A   1      42.367  29.286  36.129  1.00  0.00     0.198 A 
ATOM     69  F   UNL A   1      42.911  31.379  35.211  1.00  0.00    -0.203 F 
ATOM     70  F   UNL A   1      41.116  26.270  34.571  1.00  0.00    -0.200 F 
ATOM     71  C   UNL A   1      41.902  27.991  35.977  1.00  0.00     0.200 A 
ATOM     72  F   UNL A   1      42.795  29.714  37.324  1.00  0.00    -0.200 F 
ATOM     73  F   UNL A   1      41.842  27.174  37.039  1.00  0.00    -0.200 F 
ENDBRANCH  40  63
ENDBRANCH  14  15
ENDBRANCH   7   9
ENDBRANCH   4   5
ENDBRANCH   3   4
ENDBRANCH   2   3
ENDBRANCH   1   2
BRANCH   1  74
ATOM     74  C   UNL A   1      35.585  23.994  25.579  1.00  0.00     0.021 C 
BRANCH  74  75
ATOM     75  C   UNL A   1      34.267  23.407  25.116  1.00  0.00     0.116 C 
BRANCH  75  76
ATOM     76  N   UNL A   1      33.334  23.141  26.194  1.00  0.00    -0.351 N 
ATOM     77  C   UNL A   1      32.076  23.671  26.365  1.00  0.00     0.274 C 
ATOM     78  H   UNL A   1      33.636  22.508  26.884  1.00  0.00     0.163 HD
ATOM     79  O   UNL A   1      31.446  23.402  27.396  1.00  0.00    -0.267 OA
BRANCH  77  80
ATOM     80  C   UNL A   1      31.526  24.513  25.318  1.00  0.00     0.178 A 
ATOM     81  N   UNL A   1      30.671  24.036  24.353  1.00  0.00    -0.124 NA
ATOM     82  C   UNL A   1      31.650  25.891  25.177  1.00  0.00     0.108 A 
ATOM     83  N   UNL A   1      30.186  25.069  23.675  1.00  0.00    -0.061 NA
ATOM     84  N   UNL A   1      30.855  26.168  24.073  1.00  0.00    -0.212 N 
BRANCH  82  85
ATOM     85  C   UNL A   1      32.236  26.906  26.061  1.00  0.00     0.006 A 
ATOM     86  C   UNL A   1      31.447  27.651  26.933  1.00  0.00     0.030 A 
ATOM     87  C   UNL A   1      33.607  27.195  25.975  1.00  0.00     0.030 A 
ATOM     88  C   UNL A   1      32.060  28.654  27.667  1.00  0.00     0.111 A 
ATOM     89  C   UNL A   1      34.120  28.227  26.740  1.00  0.00     0.111 A 
ATOM     90  N   UNL A   1      33.372  28.966  27.579  1.00  0.00    -0.265 NA
ENDBRANCH  82  85
BRANCH  84  91
ATOM     91  C   UNL A   1      30.688  27.430  23.472  1.00  0.00     0.071 A 
ATOM     92  C   UNL A   1      31.667  27.951  22.629  1.00  0.00     0.029 A 
ATOM     93  C   UNL A   1      29.449  28.069  23.631  1.00  0.00     0.075 A 
ATOM     94  C   UNL A   1      31.352  29.080  21.872  1.00  0.00     0.006 A 
ATOM     95  C   UNL A   1      29.145  29.206  22.898  1.00  0.00     0.131 A 
ATOM     96  C   UNL A   1      30.098  29.697  22.002  1.00  0.00     0.047 A 
BRANCH  95  97
ATOM     97  O   UNL A   1      27.966  29.893  22.958  1.00  0.00    -0.406 OA
BRANCH  97  98
ATOM     98  C   UNL A   1      28.028  31.255  23.368  1.00  0.00     0.573 C 
ATOM     99  F   UNL A   1      29.079  31.468  24.189  1.00  0.00    -0.132 F 
ATOM    100  F   UNL A   1      28.123  32.082  22.303  1.00  0.00    -0.132 F 
ATOM    101  F   UNL A   1      26.899  31.567  24.039  1.00  0.00    -0.132 F 
ENDBRANCH  97  98
ENDBRANCH  95  97
ENDBRANCH  84  91
ENDBRANCH  77  80
ENDBRANCH  75  76
ENDBRANCH  74  75
ENDBRANCH   1  74
TORSDOF 17
ENDMDL
MODEL 3
REMARK VINA RESULT:     -12.2      3.149      8.586
REMARK SMILES O=C(NCCCCCCNC(=O)c1nnn(-c2cccc(OC(F)(F)F)c2)c1-c1ccncc1)c1ccc(-c2c3nc(c(-c4c(F)c(F)c(F)c(F)c4F)c4ccc([nH]4)c(-c4c(F)c(F)c(F)c(F)c4F)c4nc(c(-c5c(F)c(F)c(F)c(F)c5F)c5ccc2[nH]5)C=C4)C=C3)cc1
REMARK SMILES IDX 7 1 6 2 5 3 4 4 3 5 1 6 2 7 35 9 36 10 97 11 37 12 96 13
REMARK SMILES IDX 38 14 39 15 40 16 90 17 41 18 95 19 89 20 91 21 42 22 94 23
REMARK SMILES IDX 88 24 87 25 43 27 75 28 55 29 74 30 56 31 59 32 73 33 92 34
REMARK SMILES IDX 57 35 58 36 72 38 93 39 60 40 44 41 45 42 53 43 46 44 47 45
REMARK SMILES IDX 51 46 54 47 48 48 49 49 52 50 50 51 76 52 77 53 85 54 78 55
REMARK SMILES IDX 79 56 83 57 86 58 80 59 81 60 84 61 82 62 61 63 62 64 70 65
REMARK SMILES IDX 63 66 64 67 68 68 71 69 65 70 66 71 69 72 67 73 8 74 9 75
REMARK SMILES IDX 10 76 11 77 12 79 13 80 14 81 28 82 15 83 16 84 29 85 30 86
REMARK SMILES IDX 34 87 31 88 33 89 32 90 17 91 18 92 27 93 19 94 21 95 20 96
REMARK SMILES IDX 22 97 23 98 24 99 25 100 26 101
REMARK H PARENT 3 8 91 26 59 37 10 78
REMARK Flexibility Score: inf
ROOT
ATOM      1  C   UNL A   1      34.330  28.227  26.664  1.00  0.00     0.002 C 
ENDROOT
BRANCH   1   2
ATOM      2  C   UNL A   1      34.904  29.492  27.319  1.00  0.00     0.002 C 
BRANCH   2   3
ATOM      3  C   UNL A   1      33.963  30.704  27.366  1.00  0.00     0.021 C 
BRANCH   3   4
ATOM      4  C   UNL A   1      34.572  31.944  28.006  1.00  0.00     0.116 C 
BRANCH   4   5
ATOM      5  N   UNL A   1      34.276  32.070  29.411  1.00  0.00    -0.352 N 
ATOM      6  O   UNL A   1      34.502  32.484  31.565  1.00  0.00    -0.269 OA
ATOM      7  C   UNL A   1      35.053  32.104  30.528  1.00  0.00     0.251 C 
ATOM      8  H   UNL A   1      33.313  32.147  29.602  1.00  0.00     0.163 HD
BRANCH   7   9
ATOM      9  C   UNL A   1      36.443  31.580  30.603  1.00  0.00     0.039 A 
ATOM     10  C   UNL A   1      37.637  32.283  30.775  1.00  0.00     0.014 A 
ATOM     11  C   UNL A   1      36.515  30.187  30.513  1.00  0.00     0.014 A 
ATOM     12  C   UNL A   1      38.868  31.629  30.573  1.00  0.00     0.010 A 
ATOM     13  C   UNL A   1      37.730  29.534  30.461  1.00  0.00     0.010 A 
ATOM     14  C   UNL A   1      38.901  30.253  30.287  1.00  0.00    -0.014 A 
BRANCH  14  15
ATOM     15  C   UNL A   1      40.144  29.463  30.203  1.00  0.00     0.031 A 
ATOM     16  C   UNL A   1      40.678  29.292  31.600  1.00  0.00     0.074 A 
ATOM     17  C   UNL A   1      40.625  28.859  29.069  1.00  0.00     0.049 A 
ATOM     18  N   UNL A   1      41.711  29.888  32.096  1.00  0.00    -0.248 NA
ATOM     19  C   UNL A   1      39.853  28.640  32.646  1.00  0.00     0.031 C 
ATOM     20  C   UNL A   1      40.070  28.849  27.701  1.00  0.00     0.029 A 
ATOM     21  N   UNL A   1      41.751  28.062  28.889  1.00  0.00    -0.354 N 
ATOM     22  C   UNL A   1      41.832  29.430  33.407  1.00  0.00     0.074 A 
ATOM     23  C   UNL A   1      40.557  28.880  33.756  1.00  0.00     0.031 C 
ATOM     24  C   UNL A   1      40.674  27.898  26.937  1.00  0.00     0.029 A 
ATOM     25  C   UNL A   1      41.765  27.300  27.681  1.00  0.00     0.049 A 
ATOM     26  H   UNL A   1      42.485  28.027  29.546  1.00  0.00     0.167 HD
ATOM     27  C   UNL A   1      43.071  29.235  33.938  1.00  0.00     0.037 A 
ATOM     28  C   UNL A   1      42.653  26.307  27.324  1.00  0.00     0.037 A 
ATOM     29  C   UNL A   1      44.045  29.920  33.125  1.00  0.00     0.049 A 
ATOM     30  C   UNL A   1      43.854  26.487  28.183  1.00  0.00     0.074 A 
ATOM     31  C   UNL A   1      44.325  31.233  32.819  1.00  0.00     0.029 A 
ATOM     32  N   UNL A   1      44.560  29.156  32.112  1.00  0.00    -0.354 N 
ATOM     33  N   UNL A   1      44.615  27.542  28.096  1.00  0.00    -0.248 NA
ATOM     34  C   UNL A   1      43.783  25.833  29.482  1.00  0.00     0.031 C 
ATOM     35  C   UNL A   1      44.649  31.231  31.429  1.00  0.00     0.029 A 
ATOM     36  C   UNL A   1      44.715  29.911  30.985  1.00  0.00     0.049 A 
ATOM     37  H   UNL A   1      44.787  28.201  32.186  1.00  0.00     0.167 HD
ATOM     38  C   UNL A   1      44.700  27.986  29.404  1.00  0.00     0.074 A 
ATOM     39  C   UNL A   1      44.147  26.891  30.213  1.00  0.00     0.031 C 
ATOM     40  C   UNL A   1      44.879  29.311  29.685  1.00  0.00     0.037 A 
BRANCH  27  41
ATOM     41  C   UNL A   1      43.475  28.051  34.797  1.00  0.00     0.064 A 
ATOM     42  C   UNL A   1      44.141  28.303  36.017  1.00  0.00     0.173 A 
ATOM     43  C   UNL A   1      43.540  26.715  34.344  1.00  0.00     0.173 A 
ATOM     44  F   UNL A   1      44.170  29.541  36.533  1.00  0.00    -0.203 F 
ATOM     45  C   UNL A   1      44.870  27.314  36.686  1.00  0.00     0.198 A 
ATOM     46  C   UNL A   1      44.229  25.720  35.040  1.00  0.00     0.198 A 
ATOM     47  F   UNL A   1      43.040  26.335  33.163  1.00  0.00    -0.203 F 
ATOM     48  F   UNL A   1      45.580  27.633  37.776  1.00  0.00    -0.200 F 
ATOM     49  C   UNL A   1      44.916  26.023  36.196  1.00  0.00     0.200 A 
ATOM     50  F   UNL A   1      44.285  24.479  34.533  1.00  0.00    -0.200 F 
ATOM     51  F   UNL A   1      45.650  25.086  36.808  1.00  0.00    -0.200 F 
ENDBRANCH  27  41
BRANCH  28  52
ATOM     52  C   UNL A   1      42.425  24.979  26.647  1.00  0.00     0.064 A 
ATOM     53  C   UNL A   1      43.150  24.528  25.513  1.00  0.00     0.173 A 
ATOM     54  C   UNL A   1      41.706  23.983  27.327  1.00  0.00     0.173 A 
ATOM     55  F   UNL A   1      43.930  25.374  24.822  1.00  0.00    -0.203 F 
ATOM     56  C   UNL A   1      43.150  23.176  25.108  1.00  0.00     0.198 A 
ATOM     57  C   UNL A   1      41.717  22.639  26.933  1.00  0.00     0.198 A 
ATOM     58  F   UNL A   1      41.057  24.280  28.460  1.00  0.00    -0.203 F 
ATOM     59  F   UNL A   1      43.881  22.777  24.054  1.00  0.00    -0.200 F 
ATOM     60  C   UNL A   1      42.443  22.231  25.830  1.00  0.00     0.200 A 
ATOM     61  F   UNL A   1      41.072  21.730  27.677  1.00  0.00    -0.200 F 
ATOM     62  F   UNL A   1      42.491  20.932  25.497  1.00  0.00    -0.200 F 
ENDBRANCH  28  52
BRANCH  40  63
ATOM     63  C   UNL A   1      45.209  30.242  28.552  1.00  0.00     0.064 A 
ATOM     64  C   UNL A   1      44.270  30.954  27.782  1.00  0.00     0.173 A 
ATOM     65  C   UNL A   1      46.561  30.536  28.350  1.00  0.00     0.173 A 
ATOM     66  F   UNL A   1      42.955  30.811  27.991  1.00  0.00    -0.203 F 
ATOM     67  C   UNL A   1      44.683  31.885  26.823  1.00  0.00     0.198 A 
ATOM     68  C   UNL A   1      46.968  31.487  27.424  1.00  0.00     0.198 A 
ATOM     69  F   UNL A   1      47.492  29.937  29.109  1.00  0.00    -0.203 F 
ATOM     70  F   UNL A   1      43.776  32.554  26.096  1.00  0.00    -0.200 F 
ATOM     71  C   UNL A   1      46.032  32.149  26.647  1.00  0.00     0.200 A 
ATOM     72  F   UNL A   1      48.269  31.784  27.311  1.00  0.00    -0.200 F 
ATOM     73  F   UNL A   1      46.432  33.061  25.750  1.00  0.00    -0.200 F 
ENDBRANCH  40  63
ENDBRANCH  14  15
ENDBRANCH   7   9
ENDBRANCH   4   5
ENDBRANCH   3   4
ENDBRANCH   2   3
ENDBRANCH   1   2
BRANCH   1  74
ATOM     74  C   UNL A   1      32.891  28.346  26.169  1.00  0.00     0.021 C 
BRANCH  74  75
ATOM     75  C   UNL A   1      31.909  27.474  26.926  1.00  0.00     0.116 C 
BRANCH  75  76
ATOM     76  N   UNL A   1      30.673  27.227  26.208  1.00  0.00    -0.351 N 
ATOM     77  C   UNL A   1      30.193  26.021  25.754  1.00  0.00     0.274 C 
ATOM     78  H   UNL A   1      30.112  28.014  26.025  1.00  0.00     0.163 HD
ATOM     79  O   UNL A   1      29.157  26.003  25.077  1.00  0.00    -0.267 OA
BRANCH  77  80
ATOM     80  C   UNL A   1      30.913  24.808  26.102  1.00  0.00     0.178 A 
ATOM     81  N   UNL A   1      30.519  23.979  27.124  1.00  0.00    -0.124 NA
ATOM     82  C   UNL A   1      31.987  24.231  25.433  1.00  0.00     0.108 A 
ATOM     83  N   UNL A   1      31.243  22.868  27.064  1.00  0.00    -0.061 NA
ATOM     84  N   UNL A   1      32.204  23.056  26.139  1.00  0.00    -0.212 N 
BRANCH  82  85
ATOM     85  C   UNL A   1      32.626  24.569  24.155  1.00  0.00     0.006 A 
ATOM     86  C   UNL A   1      33.576  25.582  24.065  1.00  0.00     0.030 A 
ATOM     87  C   UNL A   1      32.216  23.918  22.979  1.00  0.00     0.030 A 
ATOM     88  C   UNL A   1      34.064  25.904  22.809  1.00  0.00     0.111 A 
ATOM     89  C   UNL A   1      32.754  24.325  21.772  1.00  0.00     0.111 A 
ATOM     90  N   UNL A   1      33.664  25.309  21.663  1.00  0.00    -0.265 NA
ENDBRANCH  82  85
BRANCH  84  91
ATOM     91  C   UNL A   1      33.234  22.127  25.900  1.00  0.00     0.071 A 
ATOM     92  C   UNL A   1      32.969  20.927  25.245  1.00  0.00     0.029 A 
ATOM     93  C   UNL A   1      34.546  22.515  26.207  1.00  0.00     0.075 A 
ATOM     94  C   UNL A   1      34.051  20.157  24.817  1.00  0.00     0.006 A 
ATOM     95  C   UNL A   1      35.622  21.737  25.804  1.00  0.00     0.131 A 
ATOM     96  C   UNL A   1      35.366  20.564  25.089  1.00  0.00     0.047 A 
BRANCH  95  97
ATOM     97  O   UNL A   1      36.936  22.029  26.030  1.00  0.00    -0.406 OA
BRANCH  97  98
ATOM     98  C   UNL A   1      37.432  23.253  25.497  1.00  0.00     0.573 C 
ATOM     99  F   UNL A   1      37.357  23.262  24.149  1.00  0.00    -0.132 F 
ATOM    100  F   UNL A   1      36.747  24.311  25.986  1.00  0.00    -0.132 F 
ATOM    101  F   UNL A   1      38.728  23.396  25.849  1.00  0.00    -0.132 F 
ENDBRANCH  97  98
ENDBRANCH  95  97
ENDBRANCH  84  91
ENDBRANCH  77  80
ENDBRANCH  75  76
ENDBRANCH  74  75
ENDBRANCH   1  74
TORSDOF 17
ENDMDL
