MODEL 1
REMARK VINA RESULT:     -13.2      0.000      0.000
REMARK SMILES Nc1nc2ccccc2nc1N1CCC(C(=O)NCCCCCCNC(=O)c2ccc(-c3c4nc(c(-c5c(F)c(F)c(F)c(F)c5F)c5ccc([nH]5)c(-c5c(F)c(F)c(F)c(F)c5F)c5nc(c(-c6c(F)c(F)c(F)c(F)c6F)c6ccc3[nH]6)C=C5)C=C4)cc2)CC1
REMARK SMILES IDX 21 1 20 2 19 3 18 4 16 5 17 6 15 8 12 9 13 10 92 11 14 12
REMARK SMILES IDX 91 13 11 14 2 15 3 16 4 17 10 18 5 19 9 20 6 21 8 22 7 23
REMARK SMILES IDX 1 24 22 27 23 28 24 29 25 30 26 31 27 33 28 34 29 35 90 36
REMARK SMILES IDX 30 37 89 38 31 39 32 40 33 41 83 42 34 43 88 44 82 45 84 46
REMARK SMILES IDX 35 47 87 48 81 49 80 50 36 52 68 53 48 54 67 55 49 56 52 57
REMARK SMILES IDX 66 58 85 59 50 60 51 61 65 63 86 64 53 65 37 66 38 67 46 68
REMARK SMILES IDX 39 69 40 70 44 71 47 72 41 73 42 74 45 75 43 76 69 77 70 78
REMARK SMILES IDX 78 79 71 80 72 81 76 82 79 83 73 84 74 85 77 86 75 87 54 88
REMARK SMILES IDX 55 89 63 90 56 91 57 92 61 93 64 94 58 95 59 96 62 97 60 98
REMARK H PARENT 18 7 1 25 1 26 25 32 84 51 52 62
REMARK Flexibility Score: inf
ROOT
ATOM      1  C   UNL A   1      32.043  29.335  27.131  1.00  0.00     0.002 C 
ENDROOT
BRANCH   1   2
ATOM      2  C   UNL A   1      33.371  28.576  27.233  1.00  0.00     0.021 C 
BRANCH   2   3
ATOM      3  C   UNL A   1      33.733  27.764  25.991  1.00  0.00     0.116 C 
BRANCH   3   4
ATOM      4  N   UNL A   1      32.562  27.121  25.417  1.00  0.00    -0.356 N 
ATOM      5  C   UNL A   1      32.407  25.894  24.850  1.00  0.00     0.223 C 
ATOM      6  O   UNL A   1      31.291  25.600  24.412  1.00  0.00    -0.275 OA
ATOM      7  H   UNL A   1      31.744  27.666  25.444  1.00  0.00     0.163 HD
BRANCH   5   8
ATOM      8  C   UNL A   1      33.553  24.895  24.771  1.00  0.00     0.082 C 
ATOM      9  N   UNL A   1      34.304  22.164  24.800  1.00  0.00    -0.353 N 
ATOM     10  C   UNL A   1      34.630  22.918  25.991  1.00  0.00     0.119 C 
ATOM     11  C   UNL A   1      34.364  22.831  23.515  1.00  0.00     0.119 C 
ATOM     12  C   UNL A   1      33.751  24.155  26.103  1.00  0.00     0.035 C 
ATOM     13  C   UNL A   1      33.405  24.013  23.521  1.00  0.00     0.035 C 
BRANCH   9  14
ATOM     14  C   UNL A   1      33.875  20.853  24.897  1.00  0.00     0.172 A 
ATOM     15  C   UNL A   1      32.528  20.535  25.222  1.00  0.00     0.167 A 
ATOM     16  N   UNL A   1      32.091  19.269  25.342  1.00  0.00    -0.226 NA
ATOM     17  C   UNL A   1      32.991  18.300  25.119  1.00  0.00     0.091 A 
ATOM     18  N   UNL A   1      34.769  19.866  24.646  1.00  0.00    -0.225 NA
ATOM     19  C   UNL A   1      32.589  16.973  25.230  1.00  0.00     0.031 A 
ATOM     20  C   UNL A   1      34.332  18.594  24.773  1.00  0.00     0.091 A 
ATOM     21  C   UNL A   1      33.481  15.924  25.022  1.00  0.00     0.002 A 
ATOM     22  C   UNL A   1      35.213  17.535  24.571  1.00  0.00     0.031 A 
ATOM     23  C   UNL A   1      34.802  16.205  24.695  1.00  0.00     0.002 A 
BRANCH  15  24
ATOM     24  N   UNL A   1      31.568  21.520  25.436  1.00  0.00    -0.381 N 
ATOM     25  H   UNL A   1      30.738  21.520  24.906  1.00  0.00     0.158 HD
ATOM     26  H   UNL A   1      31.719  22.216  26.116  1.00  0.00     0.158 HD
ENDBRANCH  15  24
ENDBRANCH   9  14
ENDBRANCH   5   8
ENDBRANCH   3   4
ENDBRANCH   2   3
ENDBRANCH   1   2
BRANCH   1  27
ATOM     27  C   UNL A   1      32.049  30.551  26.199  1.00  0.00     0.002 C 
BRANCH  27  28
ATOM     28  C   UNL A   1      31.654  31.877  26.847  1.00  0.00     0.021 C 
BRANCH  28  29
ATOM     29  C   UNL A   1      32.816  32.704  27.385  1.00  0.00     0.116 C 
BRANCH  29  30
ATOM     30  N   UNL A   1      32.445  34.078  27.687  1.00  0.00    -0.352 N 
ATOM     31  C   UNL A   1      32.997  34.944  28.602  1.00  0.00     0.251 C 
ATOM     32  H   UNL A   1      31.694  34.438  27.164  1.00  0.00     0.163 HD
ATOM     33  O   UNL A   1      32.479  36.034  28.821  1.00  0.00    -0.269 OA
BRANCH  31  34
ATOM     34  C   UNL A   1      34.201  34.534  29.357  1.00  0.00     0.039 A 
ATOM     35  C   UNL A   1      35.476  34.719  28.820  1.00  0.00     0.014 A 
ATOM     36  C   UNL A   1      34.045  33.918  30.602  1.00  0.00     0.014 A 
ATOM     37  C   UNL A   1      36.572  34.129  29.438  1.00  0.00     0.010 A 
ATOM     38  C   UNL A   1      35.161  33.398  31.264  1.00  0.00     0.010 A 
ATOM     39  C   UNL A   1      36.426  33.446  30.656  1.00  0.00    -0.014 A 
BRANCH  39  40
ATOM     40  C   UNL A   1      37.602  32.762  31.252  1.00  0.00     0.031 A 
ATOM     41  C   UNL A   1      38.068  33.106  32.641  1.00  0.00     0.074 A 
ATOM     42  C   UNL A   1      38.201  31.766  30.572  1.00  0.00     0.049 A 
ATOM     43  N   UNL A   1      39.027  32.561  33.350  1.00  0.00    -0.248 NA
ATOM     44  C   UNL A   1      37.369  34.204  33.326  1.00  0.00     0.031 C 
ATOM     45  C   UNL A   1      37.828  31.328  29.227  1.00  0.00     0.029 A 
ATOM     46  N   UNL A   1      39.218  30.919  30.931  1.00  0.00    -0.354 N 
ATOM     47  C   UNL A   1      39.051  33.254  34.553  1.00  0.00     0.074 A 
ATOM     48  C   UNL A   1      38.040  34.286  34.467  1.00  0.00     0.031 C 
ATOM     49  C   UNL A   1      38.554  30.249  28.903  1.00  0.00     0.029 A 
ATOM     50  C   UNL A   1      39.483  29.955  29.990  1.00  0.00     0.049 A 
ATOM     51  H   UNL A   1      39.710  30.994  31.780  1.00  0.00     0.167 HD
ATOM     52  C   UNL A   1      39.829  33.037  35.641  1.00  0.00     0.037 A 
ATOM     53  C   UNL A   1      40.373  28.945  30.001  1.00  0.00     0.037 A 
ATOM     54  C   UNL A   1      40.826  32.002  35.733  1.00  0.00     0.049 A 
ATOM     55  C   UNL A   1      41.275  28.770  31.187  1.00  0.00     0.074 A 
ATOM     56  C   UNL A   1      41.648  31.689  36.802  1.00  0.00     0.029 A 
ATOM     57  N   UNL A   1      41.137  31.113  34.716  1.00  0.00    -0.354 N 
ATOM     58  N   UNL A   1      41.282  29.426  32.321  1.00  0.00    -0.248 NA
ATOM     59  C   UNL A   1      42.306  27.728  31.086  1.00  0.00     0.031 C 
ATOM     60  C   UNL A   1      42.486  30.638  36.416  1.00  0.00     0.029 A 
ATOM     61  C   UNL A   1      42.158  30.268  35.121  1.00  0.00     0.049 A 
ATOM     62  H   UNL A   1      40.697  31.086  33.836  1.00  0.00     0.167 HD
ATOM     63  C   UNL A   1      42.315  28.879  33.071  1.00  0.00     0.074 A 
ATOM     64  C   UNL A   1      42.897  27.821  32.272  1.00  0.00     0.031 C 
ATOM     65  C   UNL A   1      42.741  29.230  34.309  1.00  0.00     0.037 A 
BRANCH  52  66
ATOM     66  C   UNL A   1      39.637  33.945  36.821  1.00  0.00     0.064 A 
ATOM     67  C   UNL A   1      38.838  33.569  37.912  1.00  0.00     0.173 A 
ATOM     68  C   UNL A   1      40.279  35.192  36.876  1.00  0.00     0.173 A 
ATOM     69  F   UNL A   1      38.193  32.393  37.903  1.00  0.00    -0.203 F 
ATOM     70  C   UNL A   1      38.664  34.421  39.000  1.00  0.00     0.198 A 
ATOM     71  C   UNL A   1      40.126  36.028  37.979  1.00  0.00     0.198 A 
ATOM     72  F   UNL A   1      41.060  35.595  35.863  1.00  0.00    -0.203 F 
ATOM     73  F   UNL A   1      37.858  34.062  40.008  1.00  0.00    -0.200 F 
ATOM     74  C   UNL A   1      39.313  35.646  39.036  1.00  0.00     0.200 A 
ATOM     75  F   UNL A   1      40.762  37.207  38.017  1.00  0.00    -0.200 F 
ATOM     76  F   UNL A   1      39.147  36.464  40.085  1.00  0.00    -0.200 F 
ENDBRANCH  52  66
BRANCH  53  77
ATOM     77  C   UNL A   1      40.420  28.011  28.849  1.00  0.00     0.064 A 
ATOM     78  C   UNL A   1      39.665  26.831  28.857  1.00  0.00     0.173 A 
ATOM     79  C   UNL A   1      41.161  28.309  27.696  1.00  0.00     0.173 A 
ATOM     80  F   UNL A   1      38.956  26.498  29.945  1.00  0.00    -0.203 F 
ATOM     81  C   UNL A   1      39.641  25.988  27.748  1.00  0.00     0.198 A 
ATOM     82  C   UNL A   1      41.116  27.477  26.580  1.00  0.00     0.198 A 
ATOM     83  F   UNL A   1      41.895  29.429  27.641  1.00  0.00    -0.203 F 
ATOM     84  F   UNL A   1      38.918  24.860  27.784  1.00  0.00    -0.200 F 
ATOM     85  C   UNL A   1      40.356  26.317  26.607  1.00  0.00     0.200 A 
ATOM     86  F   UNL A   1      41.795  27.807  25.473  1.00  0.00    -0.200 F 
ATOM     87  F   UNL A   1      40.311  25.519  25.532  1.00  0.00    -0.200 F 
ENDBRANCH  53  77
BRANCH  65  88
ATOM     88  C   UNL A   1      43.904  28.474  34.879  1.00  0.00     0.064 A 
ATOM     89  C   UNL A   1      43.720  27.260  35.553  1.00  0.00     0.173 A 
ATOM     90  C   UNL A   1      45.217  28.928  34.683  1.00  0.00     0.173 A 
ATOM     91  F   UNL A   1      42.482  26.793  35.778  1.00  0.00    -0.203 F 
ATOM     92  C   UNL A   1      44.808  26.528  36.018  1.00  0.00     0.198 A 
ATOM     93  C   UNL A   1      46.305  28.182  35.128  1.00  0.00     0.198 A 
ATOM     94  F   UNL A   1      45.444  30.083  34.040  1.00  0.00    -0.203 F 
ATOM     95  F   UNL A   1      44.609  25.382  36.683  1.00  0.00    -0.200 F 
ATOM     96  C   UNL A   1      46.100  26.985  35.796  1.00  0.00     0.200 A 
ATOM     97  F   UNL A   1      47.552  28.619  34.903  1.00  0.00    -0.200 F 
ATOM     98  F   UNL A   1      47.148  26.270  36.229  1.00  0.00    -0.200 F 
ENDBRANCH  65  88
ENDBRANCH  39  40
ENDBRANCH  31  34
ENDBRANCH  29  30
ENDBRANCH  28  29
ENDBRANCH  27  28
ENDBRANCH   1  27
TORSDOF 15
ENDMDL
MODEL 2
REMARK VINA RESULT:     -13.1      0.286      1.593
REMARK SMILES Nc1nc2ccccc2nc1N1CCC(C(=O)NCCCCCCNC(=O)c2ccc(-c3c4nc(c(-c5c(F)c(F)c(F)c(F)c5F)c5ccc([nH]5)c(-c5c(F)c(F)c(F)c(F)c5F)c5nc(c(-c6c(F)c(F)c(F)c(F)c6F)c6ccc3[nH]6)C=C5)C=C4)cc2)CC1
REMARK SMILES IDX 21 1 20 2 19 3 18 4 16 5 17 6 15 8 12 9 13 10 92 11 14 12
REMARK SMILES IDX 91 13 11 14 2 15 3 16 4 17 10 18 5 19 9 20 6 21 8 22 7 23
REMARK SMILES IDX 1 24 22 27 23 28 24 29 25 30 26 31 27 33 28 34 29 35 90 36
REMARK SMILES IDX 30 37 89 38 31 39 32 40 33 41 83 42 34 43 88 44 82 45 84 46
REMARK SMILES IDX 35 47 87 48 81 49 80 50 36 52 68 53 48 54 67 55 49 56 52 57
REMARK SMILES IDX 66 58 85 59 50 60 51 61 65 63 86 64 53 65 37 66 38 67 46 68
REMARK SMILES IDX 39 69 40 70 44 71 47 72 41 73 42 74 45 75 43 76 69 77 70 78
REMARK SMILES IDX 78 79 71 80 72 81 76 82 79 83 73 84 74 85 77 86 75 87 54 88
REMARK SMILES IDX 55 89 63 90 56 91 57 92 61 93 64 94 58 95 59 96 62 97 60 98
REMARK H PARENT 18 7 1 25 1 26 25 32 84 51 52 62
REMARK Flexibility Score: inf
ROOT
ATOM      1  C   UNL A   1      32.142  29.176  26.939  1.00  0.00     0.002 C 
ENDROOT
BRANCH   1   2
ATOM      2  C   UNL A   1      33.519  28.504  26.930  1.00  0.00     0.021 C 
BRANCH   2   3
ATOM      3  C   UNL A   1      34.007  28.078  25.547  1.00  0.00     0.116 C 
BRANCH   3   4
ATOM      4  N   UNL A   1      32.939  27.469  24.771  1.00  0.00    -0.356 N 
ATOM      5  C   UNL A   1      32.828  26.225  24.231  1.00  0.00     0.223 C 
ATOM      6  O   UNL A   1      31.807  25.967  23.588  1.00  0.00    -0.275 OA
ATOM      7  H   UNL A   1      32.166  28.056  24.611  1.00  0.00     0.163 HD
BRANCH   5   8
ATOM      8  C   UNL A   1      33.903  25.165  24.426  1.00  0.00     0.082 C 
ATOM      9  N   UNL A   1      34.468  22.405  24.711  1.00  0.00    -0.353 N 
ATOM     10  C   UNL A   1      34.592  23.199  25.913  1.00  0.00     0.119 C 
ATOM     11  C   UNL A   1      34.826  23.003  23.440  1.00  0.00     0.119 C 
ATOM     12  C   UNL A   1      33.785  24.483  25.797  1.00  0.00     0.035 C 
ATOM     13  C   UNL A   1      33.957  24.232  23.206  1.00  0.00     0.035 C 
BRANCH   9  14
ATOM     14  C   UNL A   1      33.950  21.124  24.768  1.00  0.00     0.172 A 
ATOM     15  C   UNL A   1      32.559  20.893  24.945  1.00  0.00     0.167 A 
ATOM     16  N   UNL A   1      32.033  19.658  25.024  1.00  0.00    -0.226 NA
ATOM     17  C   UNL A   1      32.890  18.632  24.907  1.00  0.00     0.091 A 
ATOM     18  N   UNL A   1      34.803  20.081  24.622  1.00  0.00    -0.225 NA
ATOM     19  C   UNL A   1      32.396  17.335  24.981  1.00  0.00     0.031 A 
ATOM     20  C   UNL A   1      34.276  18.839  24.708  1.00  0.00     0.091 A 
ATOM     21  C   UNL A   1      33.239  16.230  24.878  1.00  0.00     0.002 A 
ATOM     22  C   UNL A   1      35.106  17.726  24.610  1.00  0.00     0.031 A 
ATOM     23  C   UNL A   1      34.602  16.426  24.696  1.00  0.00     0.002 A 
BRANCH  15  24
ATOM     24  N   UNL A   1      31.644  21.937  25.047  1.00  0.00    -0.381 N 
ATOM     25  H   UNL A   1      31.693  22.560  25.807  1.00  0.00     0.158 HD
ATOM     26  H   UNL A   1      30.950  22.052  24.359  1.00  0.00     0.158 HD
ENDBRANCH  15  24
ENDBRANCH   9  14
ENDBRANCH   5   8
ENDBRANCH   3   4
ENDBRANCH   2   3
ENDBRANCH   1   2
BRANCH   1  27
ATOM     27  C   UNL A   1      32.030  30.462  26.113  1.00  0.00     0.002 C 
BRANCH  27  28
ATOM     28  C   UNL A   1      31.652  31.717  26.901  1.00  0.00     0.021 C 
BRANCH  28  29
ATOM     29  C   UNL A   1      32.830  32.574  27.352  1.00  0.00     0.116 C 
BRANCH  29  30
ATOM     30  N   UNL A   1      32.452  33.947  27.650  1.00  0.00    -0.352 N 
ATOM     31  C   UNL A   1      33.001  34.819  28.561  1.00  0.00     0.251 C 
ATOM     32  H   UNL A   1      31.697  34.302  27.128  1.00  0.00     0.163 HD
ATOM     33  O   UNL A   1      32.478  35.907  28.778  1.00  0.00    -0.269 OA
BRANCH  31  34
ATOM     34  C   UNL A   1      34.209  34.418  29.315  1.00  0.00     0.039 A 
ATOM     35  C   UNL A   1      35.483  34.631  28.785  1.00  0.00     0.014 A 
ATOM     36  C   UNL A   1      34.060  33.781  30.550  1.00  0.00     0.014 A 
ATOM     37  C   UNL A   1      36.587  34.050  29.398  1.00  0.00     0.010 A 
ATOM     38  C   UNL A   1      35.182  33.269  31.208  1.00  0.00     0.010 A 
ATOM     39  C   UNL A   1      36.448  33.348  30.606  1.00  0.00    -0.014 A 
BRANCH  39  40
ATOM     40  C   UNL A   1      37.633  32.674  31.196  1.00  0.00     0.031 A 
ATOM     41  C   UNL A   1      38.097  33.015  32.586  1.00  0.00     0.074 A 
ATOM     42  C   UNL A   1      38.243  31.690  30.508  1.00  0.00     0.049 A 
ATOM     43  N   UNL A   1      39.063  32.478  33.290  1.00  0.00    -0.248 NA
ATOM     44  C   UNL A   1      37.386  34.100  33.278  1.00  0.00     0.031 C 
ATOM     45  C   UNL A   1      37.874  31.256  29.162  1.00  0.00     0.029 A 
ATOM     46  N   UNL A   1      39.271  30.852  30.861  1.00  0.00    -0.354 N 
ATOM     47  C   UNL A   1      39.081  33.164  34.498  1.00  0.00     0.074 A 
ATOM     48  C   UNL A   1      38.057  34.184  34.419  1.00  0.00     0.031 C 
ATOM     49  C   UNL A   1      38.612  30.187  28.830  1.00  0.00     0.029 A 
ATOM     50  C   UNL A   1      39.546  29.898  29.914  1.00  0.00     0.049 A 
ATOM     51  H   UNL A   1      39.763  30.929  31.710  1.00  0.00     0.167 HD
ATOM     52  C   UNL A   1      39.863  32.950  35.583  1.00  0.00     0.037 A 
ATOM     53  C   UNL A   1      40.448  28.898  29.917  1.00  0.00     0.037 A 
ATOM     54  C   UNL A   1      40.872  31.926  35.668  1.00  0.00     0.049 A 
ATOM     55  C   UNL A   1      41.355  28.728  31.101  1.00  0.00     0.074 A 
ATOM     56  C   UNL A   1      41.700  31.617  36.734  1.00  0.00     0.029 A 
ATOM     57  N   UNL A   1      41.193  31.047  34.644  1.00  0.00    -0.354 N 
ATOM     58  N   UNL A   1      41.355  29.377  32.239  1.00  0.00    -0.248 NA
ATOM     59  C   UNL A   1      42.397  27.699  30.992  1.00  0.00     0.031 C 
ATOM     60  C   UNL A   1      42.551  30.579  36.339  1.00  0.00     0.029 A 
ATOM     61  C   UNL A   1      42.225  30.212  35.043  1.00  0.00     0.049 A 
ATOM     62  H   UNL A   1      40.753  31.020  33.765  1.00  0.00     0.167 HD
ATOM     63  C   UNL A   1      42.395  28.838  32.984  1.00  0.00     0.074 A 
ATOM     64  C   UNL A   1      42.989  27.792  32.178  1.00  0.00     0.031 C 
ATOM     65  C   UNL A   1      42.819  29.187  34.224  1.00  0.00     0.037 A 
BRANCH  52  66
ATOM     66  C   UNL A   1      39.662  33.848  36.769  1.00  0.00     0.064 A 
ATOM     67  C   UNL A   1      40.270  35.111  36.843  1.00  0.00     0.173 A 
ATOM     68  C   UNL A   1      38.830  33.457  37.829  1.00  0.00     0.173 A 
ATOM     69  F   UNL A   1      41.083  35.527  35.860  1.00  0.00    -0.203 F 
ATOM     70  C   UNL A   1      40.078  35.935  37.950  1.00  0.00     0.198 A 
ATOM     71  C   UNL A   1      38.618  34.295  38.920  1.00  0.00     0.198 A 
ATOM     72  F   UNL A   1      38.218  32.263  37.803  1.00  0.00    -0.203 F 
ATOM     73  F   UNL A   1      40.709  37.115  38.022  1.00  0.00    -0.200 F 
ATOM     74  C   UNL A   1      39.249  35.529  38.984  1.00  0.00     0.200 A 
ATOM     75  F   UNL A   1      37.807  33.907  39.914  1.00  0.00    -0.200 F 
ATOM     76  F   UNL A   1      39.062  36.324  40.047  1.00  0.00    -0.200 F 
ENDBRANCH  52  66
BRANCH  53  77
ATOM     77  C   UNL A   1      40.506  27.973  28.759  1.00  0.00     0.064 A 
ATOM     78  C   UNL A   1      39.760  26.787  28.759  1.00  0.00     0.173 A 
ATOM     79  C   UNL A   1      41.246  28.284  27.609  1.00  0.00     0.173 A 
ATOM     80  F   UNL A   1      39.052  26.441  29.844  1.00  0.00    -0.203 F 
ATOM     81  C   UNL A   1      39.744  25.950  27.645  1.00  0.00     0.198 A 
ATOM     82  C   UNL A   1      41.210  27.459  26.488  1.00  0.00     0.198 A 
ATOM     83  F   UNL A   1      41.971  29.410  27.563  1.00  0.00    -0.203 F 
ATOM     84  F   UNL A   1      39.031  24.816  27.672  1.00  0.00    -0.200 F 
ATOM     85  C   UNL A   1      40.459  26.292  26.507  1.00  0.00     0.200 A 
ATOM     86  F   UNL A   1      41.888  27.801  25.385  1.00  0.00    -0.200 F 
ATOM     87  F   UNL A   1      40.422  25.501  25.427  1.00  0.00    -0.200 F 
ENDBRANCH  53  77
BRANCH  65  88
ATOM     88  C   UNL A   1      43.992  28.442  34.787  1.00  0.00     0.064 A 
ATOM     89  C   UNL A   1      45.295  28.944  34.669  1.00  0.00     0.173 A 
ATOM     90  C   UNL A   1      43.805  27.258  35.516  1.00  0.00     0.173 A 
ATOM     91  F   UNL A   1      45.526  30.064  33.968  1.00  0.00    -0.203 F 
ATOM     92  C   UNL A   1      46.371  28.284  35.255  1.00  0.00     0.198 A 
ATOM     93  C   UNL A   1      44.880  26.613  36.122  1.00  0.00     0.198 A 
ATOM     94  F   UNL A   1      42.576  26.740  35.661  1.00  0.00    -0.203 F 
ATOM     95  F   UNL A   1      47.612  28.768  35.108  1.00  0.00    -0.200 F 
ATOM     96  C   UNL A   1      46.162  27.125  35.989  1.00  0.00     0.200 A 
ATOM     97  F   UNL A   1      44.674  25.500  36.840  1.00  0.00    -0.200 F 
ATOM     98  F   UNL A   1      47.197  26.501  36.568  1.00  0.00    -0.200 F 
ENDBRANCH  65  88
ENDBRANCH  39  40
ENDBRANCH  31  34
ENDBRANCH  29  30
ENDBRANCH  28  29
ENDBRANCH  27  28
ENDBRANCH   1  27
TORSDOF 15
ENDMDL
MODEL 3
REMARK VINA RESULT:     -13.0      0.428      7.189
REMARK SMILES Nc1nc2ccccc2nc1N1CCC(C(=O)NCCCCCCNC(=O)c2ccc(-c3c4nc(c(-c5c(F)c(F)c(F)c(F)c5F)c5ccc([nH]5)c(-c5c(F)c(F)c(F)c(F)c5F)c5nc(c(-c6c(F)c(F)c(F)c(F)c6F)c6ccc3[nH]6)C=C5)C=C4)cc2)CC1
REMARK SMILES IDX 21 1 20 2 19 3 18 4 16 5 17 6 15 8 12 9 13 10 92 11 14 12
REMARK SMILES IDX 91 13 11 14 2 15 3 16 4 17 10 18 5 19 9 20 6 21 8 22 7 23
REMARK SMILES IDX 1 24 22 27 23 28 24 29 25 30 26 31 27 33 28 34 29 35 90 36
REMARK SMILES IDX 30 37 89 38 31 39 32 40 33 41 83 42 34 43 88 44 82 45 84 46
REMARK SMILES IDX 35 47 87 48 81 49 80 50 36 52 68 53 48 54 67 55 49 56 52 57
REMARK SMILES IDX 66 58 85 59 50 60 51 61 65 63 86 64 53 65 37 66 38 67 46 68
REMARK SMILES IDX 39 69 40 70 44 71 47 72 41 73 42 74 45 75 43 76 69 77 70 78
REMARK SMILES IDX 78 79 71 80 72 81 76 82 79 83 73 84 74 85 77 86 75 87 54 88
REMARK SMILES IDX 55 89 63 90 56 91 57 92 61 93 64 94 58 95 59 96 62 97 60 98
REMARK H PARENT 18 7 1 25 1 26 25 32 84 51 52 62
REMARK Flexibility Score: inf
ROOT
ATOM      1  C   UNL A   1      32.198  29.457  27.145  1.00  0.00     0.002 C 
ENDROOT
BRANCH   1   2
ATOM      2  C   UNL A   1      33.640  28.942  27.101  1.00  0.00     0.021 C 
BRANCH   2   3
ATOM      3  C   UNL A   1      34.021  28.238  25.799  1.00  0.00     0.116 C 
BRANCH   3   4
ATOM      4  N   UNL A   1      32.872  27.590  25.190  1.00  0.00    -0.356 N 
ATOM      5  C   UNL A   1      32.712  26.327  24.709  1.00  0.00     0.223 C 
ATOM      6  O   UNL A   1      31.620  26.034  24.213  1.00  0.00    -0.275 OA
ATOM      7  H   UNL A   1      32.074  28.161  25.114  1.00  0.00     0.163 HD
BRANCH   5   8
ATOM      8  C   UNL A   1      33.821  25.288  24.794  1.00  0.00     0.082 C 
ATOM      9  N   UNL A   1      34.469  22.532  24.871  1.00  0.00    -0.353 N 
ATOM     10  C   UNL A   1      34.616  23.247  26.120  1.00  0.00     0.119 C 
ATOM     11  C   UNL A   1      34.764  23.225  23.632  1.00  0.00     0.119 C 
ATOM     12  C   UNL A   1      33.770  24.512  26.119  1.00  0.00     0.035 C 
ATOM     13  C   UNL A   1      33.856  24.441  23.512  1.00  0.00     0.035 C 
BRANCH   9  14
ATOM     14  C   UNL A   1      33.988  21.236  24.859  1.00  0.00     0.172 A 
ATOM     15  C   UNL A   1      32.601  20.957  24.995  1.00  0.00     0.167 A 
ATOM     16  N   UNL A   1      32.109  19.706  25.006  1.00  0.00    -0.226 NA
ATOM     17  C   UNL A   1      32.998  18.712  24.861  1.00  0.00     0.091 A 
ATOM     18  N   UNL A   1      34.873  20.225  24.684  1.00  0.00    -0.225 NA
ATOM     19  C   UNL A   1      32.541  17.399  24.865  1.00  0.00     0.031 A 
ATOM     20  C   UNL A   1      34.382  18.967  24.703  1.00  0.00     0.091 A 
ATOM     21  C   UNL A   1      33.418  16.324  24.731  1.00  0.00     0.002 A 
ATOM     22  C   UNL A   1      35.246  17.884  24.572  1.00  0.00     0.031 A 
ATOM     23  C   UNL A   1      34.778  16.566  24.588  1.00  0.00     0.002 A 
BRANCH  15  24
ATOM     24  N   UNL A   1      31.654  21.970  25.123  1.00  0.00    -0.381 N 
ATOM     25  H   UNL A   1      31.878  22.793  25.615  1.00  0.00     0.158 HD
ATOM     26  H   UNL A   1      30.761  21.863  24.723  1.00  0.00     0.158 HD
ENDBRANCH  15  24
ENDBRANCH   9  14
ENDBRANCH   5   8
ENDBRANCH   3   4
ENDBRANCH   2   3
ENDBRANCH   1   2
BRANCH   1  27
ATOM     27  C   UNL A   1      31.882  30.618  26.195  1.00  0.00     0.002 C 
BRANCH  27  28
ATOM     28  C   UNL A   1      31.570  31.953  26.871  1.00  0.00     0.021 C 
BRANCH  28  29
ATOM     29  C   UNL A   1      32.787  32.731  27.357  1.00  0.00     0.116 C 
BRANCH  29  30
ATOM     30  N   UNL A   1      32.498  34.132  27.623  1.00  0.00    -0.352 N 
ATOM     31  C   UNL A   1      33.033  34.961  28.580  1.00  0.00     0.251 C 
ATOM     32  H   UNL A   1      31.826  34.544  27.034  1.00  0.00     0.163 HD
ATOM     33  O   UNL A   1      32.584  36.090  28.751  1.00  0.00    -0.269 OA
BRANCH  31  34
ATOM     34  C   UNL A   1      34.131  34.467  29.440  1.00  0.00     0.039 A 
ATOM     35  C   UNL A   1      35.461  34.582  29.033  1.00  0.00     0.014 A 
ATOM     36  C   UNL A   1      33.818  33.841  30.650  1.00  0.00     0.014 A 
ATOM     37  C   UNL A   1      36.455  33.917  29.741  1.00  0.00     0.010 A 
ATOM     38  C   UNL A   1      34.831  33.243  31.405  1.00  0.00     0.010 A 
ATOM     39  C   UNL A   1      36.150  33.225  30.924  1.00  0.00    -0.014 A 
BRANCH  39  40
ATOM     40  C   UNL A   1      37.220  32.461  31.616  1.00  0.00     0.031 A 
ATOM     41  C   UNL A   1      37.953  31.353  30.908  1.00  0.00     0.074 A 
ATOM     42  C   UNL A   1      37.592  32.823  32.859  1.00  0.00     0.049 A 
ATOM     43  N   UNL A   1      38.962  30.631  31.327  1.00  0.00    -0.248 NA
ATOM     44  C   UNL A   1      37.493  31.010  29.553  1.00  0.00     0.031 C 
ATOM     45  C   UNL A   1      36.971  33.892  33.640  1.00  0.00     0.029 A 
ATOM     46  N   UNL A   1      38.602  32.361  33.663  1.00  0.00    -0.354 N 
ATOM     47  C   UNL A   1      39.250  29.746  30.295  1.00  0.00     0.074 A 
ATOM     48  C   UNL A   1      38.285  29.992  29.246  1.00  0.00     0.031 C 
ATOM     49  C   UNL A   1      37.658  34.054  34.780  1.00  0.00     0.029 A 
ATOM     50  C   UNL A   1      38.730  33.063  34.835  1.00  0.00     0.049 A 
ATOM     51  H   UNL A   1      39.180  31.601  33.423  1.00  0.00     0.167 HD
ATOM     52  C   UNL A   1      40.242  28.826  30.220  1.00  0.00     0.037 A 
ATOM     53  C   UNL A   1      39.611  32.927  35.844  1.00  0.00     0.037 A 
ATOM     54  C   UNL A   1      41.212  28.590  31.257  1.00  0.00     0.049 A 
ATOM     55  C   UNL A   1      40.655  31.852  35.770  1.00  0.00     0.074 A 
ATOM     56  C   UNL A   1      42.270  27.696  31.263  1.00  0.00     0.029 A 
ATOM     57  N   UNL A   1      41.241  29.251  32.476  1.00  0.00    -0.354 N 
ATOM     58  N   UNL A   1      40.922  31.029  34.786  1.00  0.00    -0.248 NA
ATOM     59  C   UNL A   1      41.508  31.676  36.953  1.00  0.00     0.031 C 
ATOM     60  C   UNL A   1      42.911  27.786  32.503  1.00  0.00     0.029 A 
ATOM     61  C   UNL A   1      42.280  28.766  33.254  1.00  0.00     0.049 A 
ATOM     62  H   UNL A   1      40.615  29.960  32.749  1.00  0.00     0.167 HD
ATOM     63  C   UNL A   1      41.972  30.235  35.229  1.00  0.00     0.074 A 
ATOM     64  C   UNL A   1      42.309  30.692  36.561  1.00  0.00     0.031 C 
ATOM     65  C   UNL A   1      42.594  29.217  34.586  1.00  0.00     0.037 A 
BRANCH  52  66
ATOM     66  C   UNL A   1      40.325  27.999  28.969  1.00  0.00     0.064 A 
ATOM     67  C   UNL A   1      39.635  26.783  28.848  1.00  0.00     0.173 A 
ATOM     68  C   UNL A   1      41.079  28.438  27.870  1.00  0.00     0.173 A 
ATOM     69  F   UNL A   1      38.910  26.314  29.875  1.00  0.00    -0.203 F 
ATOM     70  C   UNL A   1      39.721  26.023  27.684  1.00  0.00     0.198 A 
ATOM     71  C   UNL A   1      41.139  27.690  26.698  1.00  0.00     0.198 A 
ATOM     72  F   UNL A   1      41.750  29.598  27.931  1.00  0.00    -0.203 F 
ATOM     73  F   UNL A   1      39.094  24.842  27.609  1.00  0.00    -0.200 F 
ATOM     74  C   UNL A   1      40.468  26.479  26.609  1.00  0.00     0.200 A 
ATOM     75  F   UNL A   1      41.852  28.137  25.654  1.00  0.00    -0.200 F 
ATOM     76  F   UNL A   1      40.548  25.748  25.488  1.00  0.00    -0.200 F 
ENDBRANCH  52  66
BRANCH  53  77
ATOM     77  C   UNL A   1      39.545  33.863  36.994  1.00  0.00     0.064 A 
ATOM     78  C   UNL A   1      40.187  35.107  36.937  1.00  0.00     0.173 A 
ATOM     79  C   UNL A   1      38.786  33.567  38.135  1.00  0.00     0.173 A 
ATOM     80  F   UNL A   1      40.938  35.424  35.872  1.00  0.00    -0.203 F 
ATOM     81  C   UNL A   1      40.066  36.025  37.978  1.00  0.00     0.198 A 
ATOM     82  C   UNL A   1      38.646  34.496  39.164  1.00  0.00     0.198 A 
ATOM     83  F   UNL A   1      38.150  32.392  38.232  1.00  0.00    -0.203 F 
ATOM     84  F   UNL A   1      40.698  37.204  37.904  1.00  0.00    -0.200 F 
ATOM     85  C   UNL A   1      39.286  35.724  39.084  1.00  0.00     0.200 A 
ATOM     86  F   UNL A   1      37.878  34.208  40.223  1.00  0.00    -0.200 F 
ATOM     87  F   UNL A   1      39.147  36.618  40.072  1.00  0.00    -0.200 F 
ENDBRANCH  53  77
BRANCH  65  88
ATOM     88  C   UNL A   1      43.698  28.511  35.315  1.00  0.00     0.064 A 
ATOM     89  C   UNL A   1      43.439  27.386  36.109  1.00  0.00     0.173 A 
ATOM     90  C   UNL A   1      45.032  28.915  35.159  1.00  0.00     0.173 A 
ATOM     91  F   UNL A   1      42.177  26.971  36.302  1.00  0.00    -0.203 F 
ATOM     92  C   UNL A   1      44.475  26.692  36.727  1.00  0.00     0.198 A 
ATOM     93  C   UNL A   1      46.069  28.205  35.758  1.00  0.00     0.198 A 
ATOM     94  F   UNL A   1      45.331  29.983  34.405  1.00  0.00    -0.203 F 
ATOM     95  F   UNL A   1      44.203  25.634  37.503  1.00  0.00    -0.200 F 
ATOM     96  C   UNL A   1      45.790  27.097  36.543  1.00  0.00     0.200 A 
ATOM     97  F   UNL A   1      47.339  28.590  35.570  1.00  0.00    -0.200 F 
ATOM     98  F   UNL A   1      46.789  26.418  37.124  1.00  0.00    -0.200 F 
ENDBRANCH  65  88
ENDBRANCH  39  40
ENDBRANCH  31  34
ENDBRANCH  29  30
ENDBRANCH  28  29
ENDBRANCH  27  28
ENDBRANCH   1  27
TORSDOF 15
ENDMDL
