MODEL 1
REMARK VINA RESULT:     -12.1      0.000      0.000
REMARK SMILES C[C@](C(=O)NCCCCCCNC(=O)c1ccc(-c2c3nc(c(-c4c(F)c(F)c(F)c(F)c4F)c4ccc([nH]4)c(-c4c(F)c(F)c(F)c(F)c4F)c4nc(c(-c5c(F)c(F)c(F)c(F)c5F)c5ccc2[nH]5)C=C4)C=C3)cc1)(c1cc(F)cc(F)c1)[NH+]1CCCC1
REMARK SMILES IDX 9 1 8 2 7 3 6 4 5 5 3 6 4 7 2 9 1 10 78 11 79 12 85 13 80 14
REMARK SMILES IDX 83 15 81 16 82 17 84 18 86 19 87 20 90 21 88 23 89 24 10 25
REMARK SMILES IDX 11 26 12 27 13 28 14 30 15 31 16 32 77 33 17 34 76 35 18 36
REMARK SMILES IDX 19 37 20 38 70 39 21 40 75 41 69 42 71 43 22 44 74 45 68 46
REMARK SMILES IDX 67 47 23 49 55 50 35 51 54 52 36 53 39 54 53 55 72 56 37 57
REMARK SMILES IDX 38 58 52 60 73 61 40 62 24 63 25 64 33 65 26 66 27 67 31 68
REMARK SMILES IDX 34 69 28 70 29 71 32 72 30 73 56 74 57 75 65 76 58 77 59 78
REMARK SMILES IDX 63 79 66 80 60 81 61 82 64 83 62 84 41 85 42 86 50 87 43 88
REMARK SMILES IDX 44 89 48 90 51 91 45 92 46 93 49 94 47 95
REMARK H PARENT 5 8 86 22 12 29 71 48 39 59
REMARK Flexibility Score: inf
ROOT
ATOM      1  C   UNL A   1      31.406  30.895  25.917  1.00  0.00     0.002 C 
ENDROOT
BRANCH   1   2
ATOM      2  C   UNL A   1      32.282  29.928  26.724  1.00  0.00     0.002 C 
BRANCH   2   3
ATOM      3  C   UNL A   1      31.622  28.617  27.152  1.00  0.00     0.021 C 
BRANCH   3   4
ATOM      4  C   UNL A   1      32.490  27.377  27.004  1.00  0.00     0.116 C 
BRANCH   4   5
ATOM      5  N   UNL A   1      31.793  26.130  27.181  1.00  0.00    -0.350 N 
ATOM      6  C   UNL A   1      31.618  25.022  26.409  1.00  0.00     0.286 C 
ATOM      7  O   UNL A   1      31.229  24.053  27.087  1.00  0.00    -0.267 OA
ATOM      8  H   UNL A   1      31.342  26.063  28.054  1.00  0.00     0.163 HD
BRANCH   6   9
ATOM      9  C   UNL A   1      31.812  24.874  24.822  1.00  0.00     0.200 C 
ATOM     10  C   UNL A   1      30.935  23.599  24.501  1.00  0.00     0.096 C 
BRANCH   9  11
ATOM     11  C   UNL A   1      31.146  26.071  24.039  1.00  0.00     0.028 A 
ATOM     12  C   UNL A   1      31.889  27.066  23.388  1.00  0.00     0.050 A 
ATOM     13  C   UNL A   1      29.742  26.261  23.992  1.00  0.00     0.050 A 
ATOM     14  C   UNL A   1      31.304  28.267  22.963  1.00  0.00     0.126 A 
ATOM     15  C   UNL A   1      29.161  27.429  23.490  1.00  0.00     0.126 A 
ATOM     16  F   UNL A   1      32.090  29.252  22.509  1.00  0.00    -0.207 F 
ATOM     17  C   UNL A   1      29.938  28.469  23.028  1.00  0.00     0.078 A 
ATOM     18  F   UNL A   1      27.827  27.545  23.485  1.00  0.00    -0.207 F 
ENDBRANCH   9  11
BRANCH   9  19
ATOM     19  N   UNL A   1      33.227  24.576  24.348  1.00  0.00    -0.319 N 
ATOM     20  C   UNL A   1      33.532  23.181  23.957  1.00  0.00     0.263 C 
ATOM     21  C   UNL A   1      34.363  24.858  25.229  1.00  0.00     0.263 C 
ATOM     22  H   UNL A   1      33.166  25.236  23.573  1.00  0.00     0.349 HD
ATOM     23  C   UNL A   1      33.917  22.491  25.253  1.00  0.00     0.067 C 
ATOM     24  C   UNL A   1      34.670  23.577  26.004  1.00  0.00     0.067 C 
ENDBRANCH   9  19
ENDBRANCH   6   9
ENDBRANCH   4   5
ENDBRANCH   3   4
ENDBRANCH   2   3
ENDBRANCH   1   2
BRANCH   1  25
ATOM     25  C   UNL A   1      31.255  32.312  26.479  1.00  0.00     0.021 C 
BRANCH  25  26
ATOM     26  C   UNL A   1      32.459  32.849  27.245  1.00  0.00     0.116 C 
BRANCH  26  27
ATOM     27  N   UNL A   1      32.311  34.248  27.603  1.00  0.00    -0.352 N 
ATOM     28  C   UNL A   1      32.978  34.986  28.546  1.00  0.00     0.251 C 
ATOM     29  H   UNL A   1      31.629  34.741  27.091  1.00  0.00     0.163 HD
ATOM     30  O   UNL A   1      32.601  36.119  28.820  1.00  0.00    -0.269 OA
BRANCH  28  31
ATOM     31  C   UNL A   1      34.141  34.407  29.250  1.00  0.00     0.039 A 
ATOM     32  C   UNL A   1      33.917  33.672  30.417  1.00  0.00     0.014 A 
ATOM     33  C   UNL A   1      35.443  34.602  28.779  1.00  0.00     0.014 A 
ATOM     34  C   UNL A   1      34.995  33.093  31.087  1.00  0.00     0.010 A 
ATOM     35  C   UNL A   1      36.508  33.963  29.406  1.00  0.00     0.010 A 
ATOM     36  C   UNL A   1      36.296  33.211  30.571  1.00  0.00    -0.014 A 
BRANCH  36  37
ATOM     37  C   UNL A   1      37.445  32.560  31.246  1.00  0.00     0.031 A 
ATOM     38  C   UNL A   1      38.173  31.429  30.576  1.00  0.00     0.074 A 
ATOM     39  C   UNL A   1      37.797  32.955  32.484  1.00  0.00     0.049 A 
ATOM     40  N   UNL A   1      39.166  30.702  31.022  1.00  0.00    -0.248 NA
ATOM     41  C   UNL A   1      37.704  31.046  29.234  1.00  0.00     0.031 C 
ATOM     42  C   UNL A   1      37.138  34.011  33.254  1.00  0.00     0.029 A 
ATOM     43  N   UNL A   1      38.793  32.510  33.317  1.00  0.00    -0.354 N 
ATOM     44  C   UNL A   1      39.431  29.773  30.025  1.00  0.00     0.074 A 
ATOM     45  C   UNL A   1      38.460  29.989  28.976  1.00  0.00     0.031 C 
ATOM     46  C   UNL A   1      37.760  34.148  34.435  1.00  0.00     0.029 A 
ATOM     47  C   UNL A   1      38.837  33.166  34.522  1.00  0.00     0.049 A 
ATOM     48  H   UNL A   1      39.417  31.788  33.074  1.00  0.00     0.167 HD
ATOM     49  C   UNL A   1      40.413  28.841  29.980  1.00  0.00     0.037 A 
ATOM     50  C   UNL A   1      39.650  32.990  35.580  1.00  0.00     0.037 A 
ATOM     51  C   UNL A   1      41.388  28.645  31.021  1.00  0.00     0.049 A 
ATOM     52  C   UNL A   1      40.725  31.939  35.510  1.00  0.00     0.074 A 
ATOM     53  C   UNL A   1      42.459  27.769  31.047  1.00  0.00     0.029 A 
ATOM     54  N   UNL A   1      41.408  29.336  32.224  1.00  0.00    -0.354 N 
ATOM     55  N   UNL A   1      41.014  31.115  34.532  1.00  0.00    -0.248 NA
ATOM     56  C   UNL A   1      41.593  31.800  36.688  1.00  0.00     0.031 C 
ATOM     57  C   UNL A   1      43.095  27.893  32.287  1.00  0.00     0.029 A 
ATOM     58  C   UNL A   1      42.455  28.886  33.012  1.00  0.00     0.049 A 
ATOM     59  H   UNL A   1      40.770  30.041  32.480  1.00  0.00     0.167 HD
ATOM     60  C   UNL A   1      42.109  30.379  34.964  1.00  0.00     0.074 A 
ATOM     61  C   UNL A   1      42.444  30.868  36.286  1.00  0.00     0.031 C 
ATOM     62  C   UNL A   1      42.776  29.388  34.324  1.00  0.00     0.037 A 
BRANCH  49  63
ATOM     63  C   UNL A   1      40.478  27.959  28.766  1.00  0.00     0.064 A 
ATOM     64  C   UNL A   1      39.781  26.742  28.700  1.00  0.00     0.173 A 
ATOM     65  C   UNL A   1      41.223  28.347  27.641  1.00  0.00     0.173 A 
ATOM     66  F   UNL A   1      39.063  26.318  29.750  1.00  0.00    -0.203 F 
ATOM     67  C   UNL A   1      39.854  25.934  27.568  1.00  0.00     0.198 A 
ATOM     68  C   UNL A   1      41.266  27.552  26.500  1.00  0.00     0.198 A 
ATOM     69  F   UNL A   1      41.904  29.503  27.647  1.00  0.00    -0.203 F 
ATOM     70  F   UNL A   1      39.223  24.751  27.551  1.00  0.00    -0.200 F 
ATOM     71  C   UNL A   1      40.591  26.342  26.467  1.00  0.00     0.200 A 
ATOM     72  F   UNL A   1      41.967  27.955  25.430  1.00  0.00    -0.200 F 
ATOM     73  F   UNL A   1      40.654  25.566  25.377  1.00  0.00    -0.200 F 
ENDBRANCH  49  63
BRANCH  50  74
ATOM     74  C   UNL A   1      39.495  33.845  36.786  1.00  0.00     0.064 A 
ATOM     75  C   UNL A   1      38.741  33.411  37.885  1.00  0.00     0.173 A 
ATOM     76  C   UNL A   1      40.094  35.111  36.866  1.00  0.00     0.173 A 
ATOM     77  F   UNL A   1      38.134  32.216  37.848  1.00  0.00    -0.203 F 
ATOM     78  C   UNL A   1      38.576  34.216  39.009  1.00  0.00     0.198 A 
ATOM     79  C   UNL A   1      39.952  35.904  38.004  1.00  0.00     0.198 A 
ATOM     80  F   UNL A   1      40.831  35.573  35.845  1.00  0.00    -0.203 F 
ATOM     81  F   UNL A   1      37.812  33.795  40.027  1.00  0.00    -0.200 F 
ATOM     82  C   UNL A   1      39.186  35.459  39.070  1.00  0.00     0.200 A 
ATOM     83  F   UNL A   1      40.559  37.098  38.065  1.00  0.00    -0.200 F 
ATOM     84  F   UNL A   1      39.032  36.232  40.154  1.00  0.00    -0.200 F 
ENDBRANCH  50  74
BRANCH  62  85
ATOM     85  C   UNL A   1      43.957  28.787  35.031  1.00  0.00     0.064 A 
ATOM     86  C   UNL A   1      45.246  29.327  34.903  1.00  0.00     0.173 A 
ATOM     87  C   UNL A   1      43.789  27.681  35.877  1.00  0.00     0.173 A 
ATOM     88  F   UNL A   1      45.462  30.374  34.092  1.00  0.00    -0.203 F 
ATOM     89  C   UNL A   1      46.327  28.763  35.575  1.00  0.00     0.198 A 
ATOM     90  C   UNL A   1      44.866  27.140  36.573  1.00  0.00     0.198 A 
ATOM     91  F   UNL A   1      42.576  27.132  36.041  1.00  0.00    -0.203 F 
ATOM     92  F   UNL A   1      47.558  29.262  35.398  1.00  0.00    -0.200 F 
ATOM     93  C   UNL A   1      46.135  27.676  36.416  1.00  0.00     0.200 A 
ATOM     94  F   UNL A   1      44.676  26.100  37.398  1.00  0.00    -0.200 F 
ATOM     95  F   UNL A   1      47.176  27.141  37.068  1.00  0.00    -0.200 F 
ENDBRANCH  62  85
ENDBRANCH  36  37
ENDBRANCH  28  31
ENDBRANCH  26  27
ENDBRANCH  25  26
ENDBRANCH   1  25
TORSDOF 15
ENDMDL
MODEL 2
REMARK VINA RESULT:     -12.1      0.259      1.606
REMARK SMILES C[C@](C(=O)NCCCCCCNC(=O)c1ccc(-c2c3nc(c(-c4c(F)c(F)c(F)c(F)c4F)c4ccc([nH]4)c(-c4c(F)c(F)c(F)c(F)c4F)c4nc(c(-c5c(F)c(F)c(F)c(F)c5F)c5ccc2[nH]5)C=C4)C=C3)cc1)(c1cc(F)cc(F)c1)[NH+]1CCCC1
REMARK SMILES IDX 9 1 8 2 7 3 6 4 5 5 3 6 4 7 2 9 1 10 78 11 79 12 85 13 80 14
REMARK SMILES IDX 83 15 81 16 82 17 84 18 86 19 87 20 90 21 88 23 89 24 10 25
REMARK SMILES IDX 11 26 12 27 13 28 14 30 15 31 16 32 77 33 17 34 76 35 18 36
REMARK SMILES IDX 19 37 20 38 70 39 21 40 75 41 69 42 71 43 22 44 74 45 68 46
REMARK SMILES IDX 67 47 23 49 55 50 35 51 54 52 36 53 39 54 53 55 72 56 37 57
REMARK SMILES IDX 38 58 52 60 73 61 40 62 24 63 25 64 33 65 26 66 27 67 31 68
REMARK SMILES IDX 34 69 28 70 29 71 32 72 30 73 56 74 57 75 65 76 58 77 59 78
REMARK SMILES IDX 63 79 66 80 60 81 61 82 64 83 62 84 41 85 42 86 50 87 43 88
REMARK SMILES IDX 44 89 48 90 51 91 45 92 46 93 49 94 47 95
REMARK H PARENT 5 8 86 22 12 29 71 48 39 59
REMARK Flexibility Score: inf
ROOT
ATOM      1  C   UNL A   1      31.402  30.953  25.769  1.00  0.00     0.002 C 
ENDROOT
BRANCH   1   2
ATOM      2  C   UNL A   1      32.393  29.962  26.393  1.00  0.00     0.002 C 
BRANCH   2   3
ATOM      3  C   UNL A   1      31.781  28.789  27.160  1.00  0.00     0.021 C 
BRANCH   3   4
ATOM      4  C   UNL A   1      32.492  27.456  26.978  1.00  0.00     0.116 C 
BRANCH   4   5
ATOM      5  N   UNL A   1      31.633  26.303  27.041  1.00  0.00    -0.350 N 
ATOM      6  C   UNL A   1      31.422  25.230  26.230  1.00  0.00     0.286 C 
ATOM      7  O   UNL A   1      30.838  24.311  26.834  1.00  0.00    -0.267 OA
ATOM      8  H   UNL A   1      31.072  26.287  27.851  1.00  0.00     0.163 HD
BRANCH   6   9
ATOM      9  C   UNL A   1      31.793  25.070  24.676  1.00  0.00     0.200 C 
ATOM     10  C   UNL A   1      30.805  23.924  24.219  1.00  0.00     0.096 C 
BRANCH   9  11
ATOM     11  C   UNL A   1      31.391  26.350  23.846  1.00  0.00     0.028 A 
ATOM     12  C   UNL A   1      32.333  27.213  23.269  1.00  0.00     0.050 A 
ATOM     13  C   UNL A   1      30.044  26.755  23.677  1.00  0.00     0.050 A 
ATOM     14  C   UNL A   1      31.981  28.487  22.802  1.00  0.00     0.126 A 
ATOM     15  C   UNL A   1      29.696  27.995  23.134  1.00  0.00     0.126 A 
ATOM     16  F   UNL A   1      32.946  29.335  22.424  1.00  0.00    -0.207 F 
ATOM     17  C   UNL A   1      30.662  28.899  22.749  1.00  0.00     0.078 A 
ATOM     18  F   UNL A   1      28.402  28.316  23.014  1.00  0.00    -0.207 F 
ENDBRANCH   9  11
BRANCH   9  19
ATOM     19  N   UNL A   1      33.205  24.591  24.373  1.00  0.00    -0.319 N 
ATOM     20  C   UNL A   1      33.391  23.146  24.110  1.00  0.00     0.263 C 
ATOM     21  C   UNL A   1      34.276  24.823  25.346  1.00  0.00     0.263 C 
ATOM     22  H   UNL A   1      33.292  25.192  23.553  1.00  0.00     0.349 HD
ATOM     23  C   UNL A   1      33.571  22.523  25.483  1.00  0.00     0.067 C 
ATOM     24  C   UNL A   1      34.363  23.581  26.233  1.00  0.00     0.067 C 
ENDBRANCH   9  19
ENDBRANCH   6   9
ENDBRANCH   4   5
ENDBRANCH   3   4
ENDBRANCH   2   3
ENDBRANCH   1   2
BRANCH   1  25
ATOM     25  C   UNL A   1      31.199  32.277  26.513  1.00  0.00     0.021 C 
BRANCH  25  26
ATOM     26  C   UNL A   1      32.427  32.824  27.233  1.00  0.00     0.116 C 
BRANCH  26  27
ATOM     27  N   UNL A   1      32.288  34.226  27.580  1.00  0.00    -0.352 N 
ATOM     28  C   UNL A   1      32.967  34.969  28.511  1.00  0.00     0.251 C 
ATOM     29  H   UNL A   1      31.606  34.718  27.068  1.00  0.00     0.163 HD
ATOM     30  O   UNL A   1      32.598  36.107  28.778  1.00  0.00    -0.269 OA
BRANCH  28  31
ATOM     31  C   UNL A   1      34.131  34.390  29.212  1.00  0.00     0.039 A 
ATOM     32  C   UNL A   1      33.908  33.620  30.356  1.00  0.00     0.014 A 
ATOM     33  C   UNL A   1      35.435  34.619  28.761  1.00  0.00     0.014 A 
ATOM     34  C   UNL A   1      34.988  33.040  31.022  1.00  0.00     0.010 A 
ATOM     35  C   UNL A   1      36.504  33.981  29.383  1.00  0.00     0.010 A 
ATOM     36  C   UNL A   1      36.292  33.193  30.524  1.00  0.00    -0.014 A 
BRANCH  36  37
ATOM     37  C   UNL A   1      37.444  32.544  31.194  1.00  0.00     0.031 A 
ATOM     38  C   UNL A   1      38.174  31.418  30.517  1.00  0.00     0.074 A 
ATOM     39  C   UNL A   1      37.798  32.933  32.433  1.00  0.00     0.049 A 
ATOM     40  N   UNL A   1      39.171  30.692  30.958  1.00  0.00    -0.248 NA
ATOM     41  C   UNL A   1      37.704  31.039  29.174  1.00  0.00     0.031 C 
ATOM     42  C   UNL A   1      37.137  33.984  33.209  1.00  0.00     0.029 A 
ATOM     43  N   UNL A   1      38.797  32.488  33.261  1.00  0.00    -0.354 N 
ATOM     44  C   UNL A   1      39.437  29.768  29.956  1.00  0.00     0.074 A 
ATOM     45  C   UNL A   1      38.463  29.986  28.910  1.00  0.00     0.031 C 
ATOM     46  C   UNL A   1      37.761  34.118  34.390  1.00  0.00     0.029 A 
ATOM     47  C   UNL A   1      38.841  33.139  34.470  1.00  0.00     0.049 A 
ATOM     48  H   UNL A   1      39.422  31.769  33.014  1.00  0.00     0.167 HD
ATOM     49  C   UNL A   1      40.421  28.839  29.905  1.00  0.00     0.037 A 
ATOM     50  C   UNL A   1      39.657  32.961  35.526  1.00  0.00     0.037 A 
ATOM     51  C   UNL A   1      41.400  28.641  30.943  1.00  0.00     0.049 A 
ATOM     52  C   UNL A   1      40.735  31.914  35.448  1.00  0.00     0.074 A 
ATOM     53  C   UNL A   1      42.473  27.769  30.962  1.00  0.00     0.029 A 
ATOM     54  N   UNL A   1      41.419  29.327  32.149  1.00  0.00    -0.354 N 
ATOM     55  N   UNL A   1      41.024  31.094  34.466  1.00  0.00    -0.248 NA
ATOM     56  C   UNL A   1      41.605  31.772  36.623  1.00  0.00     0.031 C 
ATOM     57  C   UNL A   1      43.111  27.890  32.202  1.00  0.00     0.029 A 
ATOM     58  C   UNL A   1      42.470  28.877  32.932  1.00  0.00     0.049 A 
ATOM     59  H   UNL A   1      40.780  30.029  32.410  1.00  0.00     0.167 HD
ATOM     60  C   UNL A   1      42.122  30.360  34.893  1.00  0.00     0.074 A 
ATOM     61  C   UNL A   1      42.459  30.844  36.216  1.00  0.00     0.031 C 
ATOM     62  C   UNL A   1      42.792  29.374  34.246  1.00  0.00     0.037 A 
BRANCH  49  63
ATOM     63  C   UNL A   1      40.487  27.963  28.687  1.00  0.00     0.064 A 
ATOM     64  C   UNL A   1      41.230  28.330  27.554  1.00  0.00     0.173 A 
ATOM     65  C   UNL A   1      39.822  26.727  28.660  1.00  0.00     0.173 A 
ATOM     66  F   UNL A   1      41.875  29.506  27.522  1.00  0.00    -0.203 F 
ATOM     67  C   UNL A   1      41.279  27.510  26.430  1.00  0.00     0.198 A 
ATOM     68  C   UNL A   1      39.900  25.894  27.547  1.00  0.00     0.198 A 
ATOM     69  F   UNL A   1      39.101  26.324  29.717  1.00  0.00    -0.203 F 
ATOM     70  F   UNL A   1      41.951  27.907  25.341  1.00  0.00    -0.200 F 
ATOM     71  C   UNL A   1      40.619  26.290  26.430  1.00  0.00     0.200 A 
ATOM     72  F   UNL A   1      39.274  24.709  27.554  1.00  0.00    -0.200 F 
ATOM     73  F   UNL A   1      40.672  25.498  25.350  1.00  0.00    -0.200 F 
ENDBRANCH  49  63
BRANCH  50  74
ATOM     74  C   UNL A   1      39.501  33.810  36.736  1.00  0.00     0.064 A 
ATOM     75  C   UNL A   1      40.123  35.063  36.821  1.00  0.00     0.173 A 
ATOM     76  C   UNL A   1      38.730  33.389  37.829  1.00  0.00     0.173 A 
ATOM     77  F   UNL A   1      40.886  35.501  35.808  1.00  0.00    -0.203 F 
ATOM     78  C   UNL A   1      39.997  35.854  37.960  1.00  0.00     0.198 A 
ATOM     79  C   UNL A   1      38.580  34.194  38.956  1.00  0.00     0.198 A 
ATOM     80  F   UNL A   1      38.108  32.201  37.797  1.00  0.00    -0.203 F 
ATOM     81  F   UNL A   1      40.639  37.028  38.033  1.00  0.00    -0.200 F 
ATOM     82  C   UNL A   1      39.221  35.422  39.025  1.00  0.00     0.200 A 
ATOM     83  F   UNL A   1      37.815  33.780  39.976  1.00  0.00    -0.200 F 
ATOM     84  F   UNL A   1      39.094  36.185  40.119  1.00  0.00    -0.200 F 
ENDBRANCH  50  74
BRANCH  62  85
ATOM     85  C   UNL A   1      43.976  28.774  34.948  1.00  0.00     0.064 A 
ATOM     86  C   UNL A   1      45.263  29.316  34.817  1.00  0.00     0.173 A 
ATOM     87  C   UNL A   1      43.813  27.666  35.793  1.00  0.00     0.173 A 
ATOM     88  F   UNL A   1      45.475  30.365  34.008  1.00  0.00    -0.203 F 
ATOM     89  C   UNL A   1      46.348  28.753  35.485  1.00  0.00     0.198 A 
ATOM     90  C   UNL A   1      44.892  27.125  36.484  1.00  0.00     0.198 A 
ATOM     91  F   UNL A   1      42.601  27.114  35.959  1.00  0.00    -0.203 F 
ATOM     92  F   UNL A   1      47.577  29.255  35.305  1.00  0.00    -0.200 F 
ATOM     93  C   UNL A   1      46.161  27.663  36.324  1.00  0.00     0.200 A 
ATOM     94  F   UNL A   1      44.707  26.083  37.307  1.00  0.00    -0.200 F 
ATOM     95  F   UNL A   1      47.204  27.129  36.972  1.00  0.00    -0.200 F 
ENDBRANCH  62  85
ENDBRANCH  36  37
ENDBRANCH  28  31
ENDBRANCH  26  27
ENDBRANCH  25  26
ENDBRANCH   1  25
TORSDOF 15
ENDMDL
MODEL 3
REMARK VINA RESULT:     -12.0      1.552      2.842
REMARK SMILES C[C@](C(=O)NCCCCCCNC(=O)c1ccc(-c2c3nc(c(-c4c(F)c(F)c(F)c(F)c4F)c4ccc([nH]4)c(-c4c(F)c(F)c(F)c(F)c4F)c4nc(c(-c5c(F)c(F)c(F)c(F)c5F)c5ccc2[nH]5)C=C4)C=C3)cc1)(c1cc(F)cc(F)c1)[NH+]1CCCC1
REMARK SMILES IDX 9 1 8 2 7 3 6 4 5 5 3 6 4 7 2 9 1 10 78 11 79 12 85 13 80 14
REMARK SMILES IDX 83 15 81 16 82 17 84 18 86 19 87 20 90 21 88 23 89 24 10 25
REMARK SMILES IDX 11 26 12 27 13 28 14 30 15 31 16 32 77 33 17 34 76 35 18 36
REMARK SMILES IDX 19 37 20 38 70 39 21 40 75 41 69 42 71 43 22 44 74 45 68 46
REMARK SMILES IDX 67 47 23 49 55 50 35 51 54 52 36 53 39 54 53 55 72 56 37 57
REMARK SMILES IDX 38 58 52 60 73 61 40 62 24 63 25 64 33 65 26 66 27 67 31 68
REMARK SMILES IDX 34 69 28 70 29 71 32 72 30 73 56 74 57 75 65 76 58 77 59 78
REMARK SMILES IDX 63 79 66 80 60 81 61 82 64 83 62 84 41 85 42 86 50 87 43 88
REMARK SMILES IDX 44 89 48 90 51 91 45 92 46 93 49 94 47 95
REMARK H PARENT 5 8 86 22 12 29 71 48 39 59
REMARK Flexibility Score: inf
ROOT
ATOM      1  C   UNL A   1      31.409  31.038  26.340  1.00  0.00     0.002 C 
ENDROOT
BRANCH   1   2
ATOM      2  C   UNL A   1      32.503  30.242  27.063  1.00  0.00     0.002 C 
BRANCH   2   3
ATOM      3  C   UNL A   1      32.181  28.780  27.373  1.00  0.00     0.021 C 
BRANCH   3   4
ATOM      4  C   UNL A   1      33.220  27.774  26.901  1.00  0.00     0.116 C 
BRANCH   4   5
ATOM      5  N   UNL A   1      33.813  28.076  25.625  1.00  0.00    -0.350 N 
ATOM      6  C   UNL A   1      33.665  27.577  24.367  1.00  0.00     0.286 C 
ATOM      7  O   UNL A   1      34.125  28.356  23.512  1.00  0.00    -0.267 OA
ATOM      8  H   UNL A   1      34.474  28.805  25.673  1.00  0.00     0.163 HD
BRANCH   6   9
ATOM      9  C   UNL A   1      33.037  26.168  23.923  1.00  0.00     0.200 C 
ATOM     10  C   UNL A   1      33.683  25.954  22.497  1.00  0.00     0.096 C 
BRANCH   9  11
ATOM     11  C   UNL A   1      33.565  24.984  24.823  1.00  0.00     0.028 A 
ATOM     12  C   UNL A   1      32.731  24.229  25.659  1.00  0.00     0.050 A 
ATOM     13  C   UNL A   1      34.938  24.641  24.899  1.00  0.00     0.050 A 
ATOM     14  C   UNL A   1      33.247  23.398  26.663  1.00  0.00     0.126 A 
ATOM     15  C   UNL A   1      35.435  23.746  25.851  1.00  0.00     0.126 A 
ATOM     16  F   UNL A   1      32.407  22.838  27.544  1.00  0.00    -0.207 F 
ATOM     17  C   UNL A   1      34.604  23.163  26.783  1.00  0.00     0.078 A 
ATOM     18  F   UNL A   1      36.747  23.476  25.871  1.00  0.00    -0.207 F 
ENDBRANCH   9  11
BRANCH   9  19
ATOM     19  N   UNL A   1      31.527  26.138  23.739  1.00  0.00    -0.319 N 
ATOM     20  C   UNL A   1      30.997  26.517  22.410  1.00  0.00     0.263 C 
ATOM     21  C   UNL A   1      30.673  26.954  24.607  1.00  0.00     0.263 C 
ATOM     22  H   UNL A   1      31.464  25.144  23.960  1.00  0.00     0.349 HD
ATOM     23  C   UNL A   1      30.871  28.029  22.460  1.00  0.00     0.067 C 
ATOM     24  C   UNL A   1      30.437  28.285  23.894  1.00  0.00     0.067 C 
ENDBRANCH   9  19
ENDBRANCH   6   9
ENDBRANCH   4   5
ENDBRANCH   3   4
ENDBRANCH   2   3
ENDBRANCH   1   2
BRANCH   1  25
ATOM     25  C   UNL A   1      31.412  32.555  26.557  1.00  0.00     0.021 C 
BRANCH  25  26
ATOM     26  C   UNL A   1      32.623  33.114  27.294  1.00  0.00     0.116 C 
BRANCH  26  27
ATOM     27  N   UNL A   1      32.413  34.474  27.757  1.00  0.00    -0.352 N 
ATOM     28  C   UNL A   1      33.019  35.154  28.781  1.00  0.00     0.251 C 
ATOM     29  H   UNL A   1      31.734  34.984  27.259  1.00  0.00     0.163 HD
ATOM     30  O   UNL A   1      32.594  36.248  29.131  1.00  0.00    -0.269 OA
BRANCH  28  31
ATOM     31  C   UNL A   1      34.175  34.557  29.481  1.00  0.00     0.039 A 
ATOM     32  C   UNL A   1      33.958  33.919  30.706  1.00  0.00     0.014 A 
ATOM     33  C   UNL A   1      35.466  34.641  28.951  1.00  0.00     0.014 A 
ATOM     34  C   UNL A   1      35.028  33.324  31.375  1.00  0.00     0.010 A 
ATOM     35  C   UNL A   1      36.518  33.985  29.583  1.00  0.00     0.010 A 
ATOM     36  C   UNL A   1      36.311  33.328  30.805  1.00  0.00    -0.014 A 
BRANCH  36  37
ATOM     37  C   UNL A   1      37.448  32.659  31.482  1.00  0.00     0.031 A 
ATOM     38  C   UNL A   1      38.135  31.493  30.829  1.00  0.00     0.074 A 
ATOM     39  C   UNL A   1      37.825  33.069  32.708  1.00  0.00     0.049 A 
ATOM     40  N   UNL A   1      39.112  30.747  31.281  1.00  0.00    -0.248 NA
ATOM     41  C   UNL A   1      37.642  31.096  29.501  1.00  0.00     0.031 C 
ATOM     42  C   UNL A   1      37.205  34.160  33.462  1.00  0.00     0.029 A 
ATOM     43  N   UNL A   1      38.816  32.613  33.540  1.00  0.00    -0.354 N 
ATOM     44  C   UNL A   1      39.339  29.789  30.302  1.00  0.00     0.074 A 
ATOM     45  C   UNL A   1      38.364  30.012  29.257  1.00  0.00     0.031 C 
ATOM     46  C   UNL A   1      37.843  34.304  34.634  1.00  0.00     0.029 A 
ATOM     47  C   UNL A   1      38.892  33.293  34.731  1.00  0.00     0.049 A 
ATOM     48  H   UNL A   1      39.416  31.868  33.306  1.00  0.00     0.167 HD
ATOM     49  C   UNL A   1      40.293  28.828  30.267  1.00  0.00     0.037 A 
ATOM     50  C   UNL A   1      39.711  33.116  35.784  1.00  0.00     0.037 A 
ATOM     51  C   UNL A   1      41.273  28.626  31.301  1.00  0.00     0.049 A 
ATOM     52  C   UNL A   1      40.754  32.033  35.725  1.00  0.00     0.074 A 
ATOM     53  C   UNL A   1      42.318  27.720  31.335  1.00  0.00     0.029 A 
ATOM     54  N   UNL A   1      41.326  29.341  32.489  1.00  0.00    -0.354 N 
ATOM     55  N   UNL A   1      41.008  31.179  34.762  1.00  0.00    -0.248 NA
ATOM     56  C   UNL A   1      41.629  31.893  36.897  1.00  0.00     0.031 C 
ATOM     57  C   UNL A   1      42.971  27.852  32.566  1.00  0.00     0.029 A 
ATOM     58  C   UNL A   1      42.368  28.878  33.276  1.00  0.00     0.049 A 
ATOM     59  H   UNL A   1      40.712  30.070  32.737  1.00  0.00     0.167 HD
ATOM     60  C   UNL A   1      42.086  30.421  35.199  1.00  0.00     0.074 A 
ATOM     61  C   UNL A   1      42.449  30.927  36.507  1.00  0.00     0.031 C 
ATOM     62  C   UNL A   1      42.718  29.398  34.573  1.00  0.00     0.037 A 
BRANCH  49  63
ATOM     63  C   UNL A   1      40.319  27.920  29.071  1.00  0.00     0.064 A 
ATOM     64  C   UNL A   1      39.584  26.725  29.036  1.00  0.00     0.173 A 
ATOM     65  C   UNL A   1      41.067  28.260  27.933  1.00  0.00     0.173 A 
ATOM     66  F   UNL A   1      38.861  26.346  30.101  1.00  0.00    -0.203 F 
ATOM     67  C   UNL A   1      39.620  25.891  27.921  1.00  0.00     0.198 A 
ATOM     68  C   UNL A   1      41.075  27.440  26.808  1.00  0.00     0.198 A 
ATOM     69  F   UNL A   1      41.785  29.393  27.909  1.00  0.00    -0.203 F 
ATOM     70  F   UNL A   1      38.952  24.729  27.933  1.00  0.00    -0.200 F 
ATOM     71  C   UNL A   1      40.361  26.252  26.806  1.00  0.00     0.200 A 
ATOM     72  F   UNL A   1      41.780  27.798  25.725  1.00  0.00    -0.200 F 
ATOM     73  F   UNL A   1      40.390  25.452  25.732  1.00  0.00    -0.200 F 
ENDBRANCH  49  63
BRANCH  50  74
ATOM     74  C   UNL A   1      39.593  34.000  36.973  1.00  0.00     0.064 A 
ATOM     75  C   UNL A   1      40.244  35.240  37.014  1.00  0.00     0.173 A 
ATOM     76  C   UNL A   1      38.831  33.626  38.089  1.00  0.00     0.173 A 
ATOM     77  F   UNL A   1      41.000  35.634  35.979  1.00  0.00    -0.203 F 
ATOM     78  C   UNL A   1      40.153  36.065  38.134  1.00  0.00     0.198 A 
ATOM     79  C   UNL A   1      38.716  34.464  39.196  1.00  0.00     0.198 A 
ATOM     80  F   UNL A   1      38.182  32.452  38.098  1.00  0.00    -0.203 F 
ATOM     81  F   UNL A   1      40.822  37.225  38.165  1.00  0.00    -0.200 F 
ATOM     82  C   UNL A   1      39.385  35.679  39.221  1.00  0.00     0.200 A 
ATOM     83  F   UNL A   1      37.958  34.095  40.238  1.00  0.00    -0.200 F 
ATOM     84  F   UNL A   1      39.293  36.473  40.296  1.00  0.00    -0.200 F 
ENDBRANCH  50  74
BRANCH  62  85
ATOM     85  C   UNL A   1      43.888  28.777  35.281  1.00  0.00     0.064 A 
ATOM     86  C   UNL A   1      45.200  29.224  35.066  1.00  0.00     0.173 A 
ATOM     87  C   UNL A   1      43.689  27.749  36.214  1.00  0.00     0.173 A 
ATOM     88  F   UNL A   1      45.445  30.194  34.172  1.00  0.00    -0.203 F 
ATOM     89  C   UNL A   1      46.272  28.645  35.741  1.00  0.00     0.198 A 
ATOM     90  C   UNL A   1      44.758  27.195  36.911  1.00  0.00     0.198 A 
ATOM     91  F   UNL A   1      42.452  27.290  36.462  1.00  0.00    -0.203 F 
ATOM     92  F   UNL A   1      47.522  29.052  35.482  1.00  0.00    -0.200 F 
ATOM     93  C   UNL A   1      46.050  27.637  36.668  1.00  0.00     0.200 A 
ATOM     94  F   UNL A   1      44.540  26.232  37.818  1.00  0.00    -0.200 F 
ATOM     95  F   UNL A   1      47.082  27.087  37.321  1.00  0.00    -0.200 F 
ENDBRANCH  62  85
ENDBRANCH  36  37
ENDBRANCH  28  31
ENDBRANCH  26  27
ENDBRANCH  25  26
ENDBRANCH   1  25
TORSDOF 15
ENDMDL
