MODEL 1
REMARK VINA RESULT:     -12.2      0.000      0.000
REMARK SMILES O=C(Cc1cncnc1N1CCC2(CC1)OCCC[C@@H]2O)NCCCCCCNC(=O)c1ccc(-c2c3nc(c(-c4c(F)c(F)c(F)c(F)c4F)c4ccc([nH]4)c(-c4c(F)c(F)c(F)c(F)c4F)c4nc(c(-c5c(F)c(F)c(F)c(F)c5F)c5ccc2[nH]5)C=C4)C=C3)cc1
REMARK SMILES IDX 25 1 24 2 23 3 22 4 1 5 2 6 3 8 4 9 5 10 9 11 6 12 8 13 7 14
REMARK SMILES IDX 10 15 11 16 15 17 12 18 14 19 13 20 16 21 20 22 17 23 19 24
REMARK SMILES IDX 18 25 21 26 26 28 27 29 28 30 29 31 30 32 31 34 32 35 33 36
REMARK SMILES IDX 94 37 34 38 93 39 35 40 36 41 37 42 87 43 38 44 92 45 86 46
REMARK SMILES IDX 88 47 39 48 91 49 85 50 84 51 40 53 72 54 52 55 71 56 53 57
REMARK SMILES IDX 56 58 70 59 89 60 54 61 55 62 69 64 90 65 57 66 41 67 42 68
REMARK SMILES IDX 50 69 43 70 44 71 48 72 51 73 45 74 46 75 49 76 47 77 73 78
REMARK SMILES IDX 74 79 82 80 75 81 76 82 80 83 83 84 77 85 78 86 81 87 79 88
REMARK SMILES IDX 58 89 59 90 67 91 60 92 61 93 65 94 68 95 62 96 63 97 66 98
REMARK SMILES IDX 64 99
REMARK H PARENT 22 7 21 27 29 33 88 52 56 63
REMARK Flexibility Score: inf
ROOT
ATOM      1  C   UNL A   1      34.392  32.336  28.935  1.00  0.00     0.002 C 
ENDROOT
BRANCH   1   2
ATOM      2  C   UNL A   1      35.281  31.664  27.875  1.00  0.00     0.021 C 
BRANCH   2   3
ATOM      3  C   UNL A   1      35.458  30.157  28.056  1.00  0.00     0.116 C 
BRANCH   3   4
ATOM      4  N   UNL A   1      34.174  29.500  28.000  1.00  0.00    -0.356 N 
ATOM      5  O   UNL A   1      34.534  28.222  26.128  1.00  0.00    -0.275 OA
ATOM      6  C   UNL A   1      33.792  28.614  27.020  1.00  0.00     0.224 C 
ATOM      7  H   UNL A   1      33.526  29.700  28.714  1.00  0.00     0.163 HD
BRANCH   6   8
ATOM      8  C   UNL A   1      32.335  28.212  27.137  1.00  0.00     0.141 C 
BRANCH   8   9
ATOM      9  C   UNL A   1      31.561  28.386  25.862  1.00  0.00     0.022 A 
ATOM     10  C   UNL A   1      31.279  29.650  25.371  1.00  0.00     0.121 A 
ATOM     11  C   UNL A   1      31.179  27.327  25.048  1.00  0.00     0.135 A 
ATOM     12  N   UNL A   1      30.664  29.894  24.204  1.00  0.00    -0.244 NA
ATOM     13  N   UNL A   1      30.580  27.534  23.860  1.00  0.00    -0.219 NA
ATOM     14  C   UNL A   1      30.339  28.803  23.503  1.00  0.00     0.224 A 
BRANCH  11  15
ATOM     15  N   UNL A   1      31.549  26.040  25.371  1.00  0.00    -0.356 N 
ATOM     16  C   UNL A   1      32.668  25.457  24.659  1.00  0.00     0.121 C 
ATOM     17  C   UNL A   1      30.563  25.080  25.856  1.00  0.00     0.121 C 
ATOM     18  C   UNL A   1      33.455  24.661  25.693  1.00  0.00     0.060 C 
ATOM     19  C   UNL A   1      31.246  24.165  26.875  1.00  0.00     0.060 C 
ATOM     20  C   UNL A   1      32.582  23.565  26.358  1.00  0.00     0.097 C 
ATOM     21  O   UNL A   1      32.222  22.553  25.393  1.00  0.00    -0.372 OA
ATOM     22  C   UNL A   1      33.359  22.930  27.553  1.00  0.00     0.146 C 
ATOM     23  C   UNL A   1      33.293  21.751  24.907  1.00  0.00     0.161 C 
ATOM     24  C   UNL A   1      34.539  22.089  27.068  1.00  0.00     0.037 C 
ATOM     25  C   UNL A   1      34.075  21.079  26.027  1.00  0.00     0.031 C 
BRANCH  22  26
ATOM     26  O   UNL A   1      32.497  22.091  28.330  1.00  0.00    -0.390 OA
ATOM     27  H   UNL A   1      31.572  22.291  28.117  1.00  0.00     0.211 HD
ENDBRANCH  22  26
ENDBRANCH  11  15
ENDBRANCH   8   9
ENDBRANCH   6   8
ENDBRANCH   3   4
ENDBRANCH   2   3
ENDBRANCH   1   2
BRANCH   1  28
ATOM     28  C   UNL A   1      34.542  33.857  29.044  1.00  0.00     0.002 C 
BRANCH  28  29
ATOM     29  C   UNL A   1      33.226  34.632  28.998  1.00  0.00     0.021 C 
BRANCH  29  30
ATOM     30  C   UNL A   1      33.324  36.070  29.488  1.00  0.00     0.116 C 
BRANCH  30  31
ATOM     31  N   UNL A   1      32.438  36.340  30.610  1.00  0.00    -0.352 N 
ATOM     32  C   UNL A   1      32.523  35.881  31.899  1.00  0.00     0.251 C 
ATOM     33  H   UNL A   1      31.675  36.932  30.417  1.00  0.00     0.163 HD
ATOM     34  O   UNL A   1      31.602  36.073  32.689  1.00  0.00    -0.269 OA
BRANCH  32  35
ATOM     35  C   UNL A   1      33.721  35.130  32.331  1.00  0.00     0.039 A 
ATOM     36  C   UNL A   1      33.568  33.823  32.796  1.00  0.00     0.014 A 
ATOM     37  C   UNL A   1      34.989  35.713  32.275  1.00  0.00     0.014 A 
ATOM     38  C   UNL A   1      34.694  33.082  33.160  1.00  0.00     0.010 A 
ATOM     39  C   UNL A   1      36.116  34.948  32.560  1.00  0.00     0.010 A 
ATOM     40  C   UNL A   1      35.980  33.629  33.019  1.00  0.00    -0.014 A 
BRANCH  40  41
ATOM     41  C   UNL A   1      37.193  32.853  33.384  1.00  0.00     0.031 A 
ATOM     42  C   UNL A   1      37.914  33.152  34.670  1.00  0.00     0.074 A 
ATOM     43  C   UNL A   1      37.671  31.916  32.542  1.00  0.00     0.049 A 
ATOM     44  N   UNL A   1      39.031  32.648  35.132  1.00  0.00    -0.248 NA
ATOM     45  C   UNL A   1      37.313  34.173  35.544  1.00  0.00     0.031 C 
ATOM     46  C   UNL A   1      37.085  31.560  31.249  1.00  0.00     0.029 A 
ATOM     47  N   UNL A   1      38.769  31.097  32.644  1.00  0.00    -0.354 N 
ATOM     48  C   UNL A   1      39.265  33.291  36.341  1.00  0.00     0.074 A 
ATOM     49  C   UNL A   1      38.213  34.270  36.511  1.00  0.00     0.031 C 
ATOM     50  C   UNL A   1      37.820  30.587  30.685  1.00  0.00     0.029 A 
ATOM     51  C   UNL A   1      38.949  30.277  31.556  1.00  0.00     0.049 A 
ATOM     52  H   UNL A   1      39.371  31.098  33.424  1.00  0.00     0.167 HD
ATOM     53  C   UNL A   1      40.248  33.065  37.244  1.00  0.00     0.037 A 
ATOM     54  C   UNL A   1      39.923  29.385  31.289  1.00  0.00     0.037 A 
ATOM     55  C   UNL A   1      41.283  32.078  37.082  1.00  0.00     0.049 A 
ATOM     56  C   UNL A   1      41.018  29.171  32.304  1.00  0.00     0.074 A 
ATOM     57  C   UNL A   1      42.315  31.760  37.948  1.00  0.00     0.029 A 
ATOM     58  N   UNL A   1      41.413  31.246  35.980  1.00  0.00    -0.354 N 
ATOM     59  N   UNL A   1      41.199  29.751  33.465  1.00  0.00    -0.248 NA
ATOM     60  C   UNL A   1      42.037  28.164  31.975  1.00  0.00     0.031 C 
ATOM     61  C   UNL A   1      43.092  30.762  37.353  1.00  0.00     0.029 A 
ATOM     62  C   UNL A   1      42.512  30.418  36.143  1.00  0.00     0.049 A 
ATOM     63  H   UNL A   1      40.814  31.244  35.199  1.00  0.00     0.167 HD
ATOM     64  C   UNL A   1      42.322  29.152  34.021  1.00  0.00     0.074 A 
ATOM     65  C   UNL A   1      42.773  28.153  33.077  1.00  0.00     0.031 C 
ATOM     66  C   UNL A   1      42.927  29.407  35.206  1.00  0.00     0.037 A 
BRANCH  53  67
ATOM     67  C   UNL A   1      40.240  33.883  38.503  1.00  0.00     0.064 A 
ATOM     68  C   UNL A   1      40.934  35.100  38.587  1.00  0.00     0.173 A 
ATOM     69  C   UNL A   1      39.485  33.481  39.614  1.00  0.00     0.173 A 
ATOM     70  F   UNL A   1      41.681  35.524  37.557  1.00  0.00    -0.203 F 
ATOM     71  C   UNL A   1      40.889  35.873  39.744  1.00  0.00     0.198 A 
ATOM     72  C   UNL A   1      39.417  34.271  40.758  1.00  0.00     0.198 A 
ATOM     73  F   UNL A   1      38.799  32.328  39.586  1.00  0.00    -0.203 F 
ATOM     74  F   UNL A   1      41.593  37.010  39.816  1.00  0.00    -0.200 F 
ATOM     75  C   UNL A   1      40.122  35.463  40.825  1.00  0.00     0.200 A 
ATOM     76  F   UNL A   1      38.664  33.881  41.796  1.00  0.00    -0.200 F 
ATOM     77  F   UNL A   1      40.066  36.216  41.932  1.00  0.00    -0.200 F 
ENDBRANCH  53  67
BRANCH  54  78
ATOM     78  C   UNL A   1      39.917  28.620  30.013  1.00  0.00     0.064 A 
ATOM     79  C   UNL A   1      39.332  27.347  29.935  1.00  0.00     0.173 A 
ATOM     80  C   UNL A   1      40.537  29.121  28.859  1.00  0.00     0.173 A 
ATOM     81  F   UNL A   1      38.743  26.814  31.015  1.00  0.00    -0.203 F 
ATOM     82  C   UNL A   1      39.408  26.589  28.768  1.00  0.00     0.198 A 
ATOM     83  C   UNL A   1      40.580  28.378  27.682  1.00  0.00     0.198 A 
ATOM     84  F   UNL A   1      41.105  30.337  28.875  1.00  0.00    -0.203 F 
ATOM     85  F   UNL A   1      38.905  25.347  28.746  1.00  0.00    -0.200 F 
ATOM     86  C   UNL A   1      40.029  27.106  27.642  1.00  0.00     0.200 A 
ATOM     87  F   UNL A   1      41.167  28.888  26.591  1.00  0.00    -0.200 F 
ATOM     88  F   UNL A   1      40.110  26.373  26.523  1.00  0.00    -0.200 F 
ENDBRANCH  54  78
BRANCH  66  89
ATOM     89  C   UNL A   1      44.099  28.547  35.584  1.00  0.00     0.064 A 
ATOM     90  C   UNL A   1      45.414  28.884  35.229  1.00  0.00     0.173 A 
ATOM     91  C   UNL A   1      43.904  27.383  36.345  1.00  0.00     0.173 A 
ATOM     92  F   UNL A   1      45.654  29.979  34.492  1.00  0.00    -0.203 F 
ATOM     93  C   UNL A   1      46.484  28.072  35.595  1.00  0.00     0.198 A 
ATOM     94  C   UNL A   1      44.979  26.593  36.737  1.00  0.00     0.198 A 
ATOM     95  F   UNL A   1      42.667  27.020  36.718  1.00  0.00    -0.203 F 
ATOM     96  F   UNL A   1      47.726  28.384  35.197  1.00  0.00    -0.200 F 
ATOM     97  C   UNL A   1      46.267  26.932  36.354  1.00  0.00     0.200 A 
ATOM     98  F   UNL A   1      44.768  25.501  37.486  1.00  0.00    -0.200 F 
ATOM     99  F   UNL A   1      47.299  26.156  36.711  1.00  0.00    -0.200 F 
ENDBRANCH  66  89
ENDBRANCH  40  41
ENDBRANCH  32  35
ENDBRANCH  30  31
ENDBRANCH  29  30
ENDBRANCH  28  29
ENDBRANCH   1  28
TORSDOF 16
ENDMDL
MODEL 2
REMARK VINA RESULT:     -12.2      0.207      1.563
REMARK SMILES O=C(Cc1cncnc1N1CCC2(CC1)OCCC[C@@H]2O)NCCCCCCNC(=O)c1ccc(-c2c3nc(c(-c4c(F)c(F)c(F)c(F)c4F)c4ccc([nH]4)c(-c4c(F)c(F)c(F)c(F)c4F)c4nc(c(-c5c(F)c(F)c(F)c(F)c5F)c5ccc2[nH]5)C=C4)C=C3)cc1
REMARK SMILES IDX 25 1 24 2 23 3 22 4 1 5 2 6 3 8 4 9 5 10 9 11 6 12 8 13 7 14
REMARK SMILES IDX 10 15 11 16 15 17 12 18 14 19 13 20 16 21 20 22 17 23 19 24
REMARK SMILES IDX 18 25 21 26 26 28 27 29 28 30 29 31 30 32 31 34 32 35 33 36
REMARK SMILES IDX 94 37 34 38 93 39 35 40 36 41 37 42 87 43 38 44 92 45 86 46
REMARK SMILES IDX 88 47 39 48 91 49 85 50 84 51 40 53 72 54 52 55 71 56 53 57
REMARK SMILES IDX 56 58 70 59 89 60 54 61 55 62 69 64 90 65 57 66 41 67 42 68
REMARK SMILES IDX 50 69 43 70 44 71 48 72 51 73 45 74 46 75 49 76 47 77 73 78
REMARK SMILES IDX 74 79 82 80 75 81 76 82 80 83 83 84 77 85 78 86 81 87 79 88
REMARK SMILES IDX 58 89 59 90 67 91 60 92 61 93 65 94 68 95 62 96 63 97 66 98
REMARK SMILES IDX 64 99
REMARK H PARENT 22 7 21 27 29 33 88 52 56 63
REMARK Flexibility Score: inf
ROOT
ATOM      1  C   UNL A   1      34.272  32.224  28.819  1.00  0.00     0.002 C 
ENDROOT
BRANCH   1   2
ATOM      2  C   UNL A   1      35.222  31.578  27.797  1.00  0.00     0.021 C 
BRANCH   2   3
ATOM      3  C   UNL A   1      35.326  30.056  27.898  1.00  0.00     0.116 C 
BRANCH   3   4
ATOM      4  N   UNL A   1      34.010  29.466  27.827  1.00  0.00    -0.356 N 
ATOM      5  O   UNL A   1      34.466  27.817  26.296  1.00  0.00    -0.275 OA
ATOM      6  C   UNL A   1      33.668  28.420  27.003  1.00  0.00     0.224 C 
ATOM      7  H   UNL A   1      33.310  29.839  28.408  1.00  0.00     0.163 HD
BRANCH   6   8
ATOM      8  C   UNL A   1      32.181  28.123  27.031  1.00  0.00     0.141 C 
BRANCH   8   9
ATOM      9  C   UNL A   1      31.511  28.297  25.698  1.00  0.00     0.022 A 
ATOM     10  C   UNL A   1      31.266  29.562  25.187  1.00  0.00     0.121 A 
ATOM     11  C   UNL A   1      31.197  27.239  24.855  1.00  0.00     0.135 A 
ATOM     12  N   UNL A   1      30.745  29.806  23.976  1.00  0.00    -0.244 NA
ATOM     13  N   UNL A   1      30.694  27.447  23.622  1.00  0.00    -0.219 NA
ATOM     14  C   UNL A   1      30.480  28.716  23.250  1.00  0.00     0.224 A 
BRANCH  11  15
ATOM     15  N   UNL A   1      31.543  25.952  25.204  1.00  0.00    -0.356 N 
ATOM     16  C   UNL A   1      32.628  25.321  24.480  1.00  0.00     0.121 C 
ATOM     17  C   UNL A   1      30.546  25.031  25.741  1.00  0.00     0.121 C 
ATOM     18  C   UNL A   1      33.421  24.533  25.517  1.00  0.00     0.060 C 
ATOM     19  C   UNL A   1      31.233  24.128  26.768  1.00  0.00     0.060 C 
ATOM     20  C   UNL A   1      32.539  23.480  26.234  1.00  0.00     0.097 C 
ATOM     21  O   UNL A   1      32.128  22.451  25.308  1.00  0.00    -0.372 OA
ATOM     22  C   UNL A   1      33.330  22.858  27.426  1.00  0.00     0.146 C 
ATOM     23  C   UNL A   1      33.166  21.608  24.817  1.00  0.00     0.161 C 
ATOM     24  C   UNL A   1      34.476  21.974  26.935  1.00  0.00     0.037 C 
ATOM     25  C   UNL A   1      33.959  20.947  25.935  1.00  0.00     0.031 C 
BRANCH  22  26
ATOM     26  O   UNL A   1      32.468  22.063  28.249  1.00  0.00    -0.390 OA
ATOM     27  H   UNL A   1      32.792  22.075  29.163  1.00  0.00     0.211 HD
ENDBRANCH  22  26
ENDBRANCH  11  15
ENDBRANCH   8   9
ENDBRANCH   6   8
ENDBRANCH   3   4
ENDBRANCH   2   3
ENDBRANCH   1   2
BRANCH   1  28
ATOM     28  C   UNL A   1      34.470  33.727  29.035  1.00  0.00     0.002 C 
BRANCH  28  29
ATOM     29  C   UNL A   1      33.184  34.552  28.986  1.00  0.00     0.021 C 
BRANCH  29  30
ATOM     30  C   UNL A   1      33.338  35.987  29.472  1.00  0.00     0.116 C 
BRANCH  30  31
ATOM     31  N   UNL A   1      32.482  36.286  30.610  1.00  0.00    -0.352 N 
ATOM     32  C   UNL A   1      32.595  35.853  31.906  1.00  0.00     0.251 C 
ATOM     33  H   UNL A   1      31.718  36.880  30.424  1.00  0.00     0.163 HD
ATOM     34  O   UNL A   1      31.695  36.069  32.714  1.00  0.00    -0.269 OA
BRANCH  32  35
ATOM     35  C   UNL A   1      33.797  35.101  32.323  1.00  0.00     0.039 A 
ATOM     36  C   UNL A   1      33.654  33.781  32.753  1.00  0.00     0.014 A 
ATOM     37  C   UNL A   1      35.061  35.698  32.289  1.00  0.00     0.014 A 
ATOM     38  C   UNL A   1      34.786  33.041  33.102  1.00  0.00     0.010 A 
ATOM     39  C   UNL A   1      36.193  34.936  32.560  1.00  0.00     0.010 A 
ATOM     40  C   UNL A   1      36.067  33.604  32.983  1.00  0.00    -0.014 A 
BRANCH  40  41
ATOM     41  C   UNL A   1      37.286  32.828  33.332  1.00  0.00     0.031 A 
ATOM     42  C   UNL A   1      38.019  33.125  34.612  1.00  0.00     0.074 A 
ATOM     43  C   UNL A   1      37.756  31.895  32.483  1.00  0.00     0.049 A 
ATOM     44  N   UNL A   1      39.142  32.623  35.061  1.00  0.00    -0.248 NA
ATOM     45  C   UNL A   1      37.425  34.143  35.495  1.00  0.00     0.031 C 
ATOM     46  C   UNL A   1      37.158  31.542  31.195  1.00  0.00     0.029 A 
ATOM     47  N   UNL A   1      38.857  31.078  32.572  1.00  0.00    -0.354 N 
ATOM     48  C   UNL A   1      39.387  33.263  36.269  1.00  0.00     0.074 A 
ATOM     49  C   UNL A   1      38.335  34.239  36.453  1.00  0.00     0.031 C 
ATOM     50  C   UNL A   1      37.889  30.572  30.621  1.00  0.00     0.029 A 
ATOM     51  C   UNL A   1      39.028  30.262  31.480  1.00  0.00     0.049 A 
ATOM     52  H   UNL A   1      39.467  31.079  33.345  1.00  0.00     0.167 HD
ATOM     53  C   UNL A   1      40.380  33.036  37.161  1.00  0.00     0.037 A 
ATOM     54  C   UNL A   1      40.001  29.373  31.199  1.00  0.00     0.037 A 
ATOM     55  C   UNL A   1      41.415  32.052  36.986  1.00  0.00     0.049 A 
ATOM     56  C   UNL A   1      41.106  29.158  32.202  1.00  0.00     0.074 A 
ATOM     57  C   UNL A   1      42.456  31.734  37.840  1.00  0.00     0.029 A 
ATOM     58  N   UNL A   1      41.535  31.223  35.880  1.00  0.00    -0.354 N 
ATOM     59  N   UNL A   1      41.298  29.735  33.363  1.00  0.00    -0.248 NA
ATOM     60  C   UNL A   1      42.124  28.154  31.860  1.00  0.00     0.031 C 
ATOM     61  C   UNL A   1      43.230  30.739  37.235  1.00  0.00     0.029 A 
ATOM     62  C   UNL A   1      42.638  30.398  36.029  1.00  0.00     0.049 A 
ATOM     63  H   UNL A   1      40.928  31.223  35.106  1.00  0.00     0.167 HD
ATOM     64  C   UNL A   1      42.428  29.137  33.906  1.00  0.00     0.074 A 
ATOM     65  C   UNL A   1      42.871  28.142  32.954  1.00  0.00     0.031 C 
ATOM     66  C   UNL A   1      43.045  29.390  35.085  1.00  0.00     0.037 A 
BRANCH  53  67
ATOM     67  C   UNL A   1      40.383  33.851  38.423  1.00  0.00     0.064 A 
ATOM     68  C   UNL A   1      39.645  33.455  39.548  1.00  0.00     0.173 A 
ATOM     69  C   UNL A   1      41.176  35.002  38.530  1.00  0.00     0.173 A 
ATOM     70  F   UNL A   1      38.861  32.368  39.494  1.00  0.00    -0.203 F 
ATOM     71  C   UNL A   1      39.684  34.194  40.728  1.00  0.00     0.198 A 
ATOM     72  C   UNL A   1      41.237  35.721  39.721  1.00  0.00     0.198 A 
ATOM     73  F   UNL A   1      41.905  35.423  37.486  1.00  0.00    -0.203 F 
ATOM     74  F   UNL A   1      38.938  33.819  41.776  1.00  0.00    -0.200 F 
ATOM     75  C   UNL A   1      40.488  35.320  40.817  1.00  0.00     0.200 A 
ATOM     76  F   UNL A   1      42.026  36.801  39.810  1.00  0.00    -0.200 F 
ATOM     77  F   UNL A   1      40.538  36.021  41.958  1.00  0.00    -0.200 F 
ENDBRANCH  53  67
BRANCH  54  78
ATOM     78  C   UNL A   1      39.983  28.612  29.921  1.00  0.00     0.064 A 
ATOM     79  C   UNL A   1      39.374  27.351  29.838  1.00  0.00     0.173 A 
ATOM     80  C   UNL A   1      40.616  29.104  28.770  1.00  0.00     0.173 A 
ATOM     81  F   UNL A   1      38.771  26.826  30.916  1.00  0.00    -0.203 F 
ATOM     82  C   UNL A   1      39.438  26.595  28.670  1.00  0.00     0.198 A 
ATOM     83  C   UNL A   1      40.647  28.363  27.592  1.00  0.00     0.198 A 
ATOM     84  F   UNL A   1      41.207  30.308  28.791  1.00  0.00    -0.203 F 
ATOM     85  F   UNL A   1      38.911  25.362  28.642  1.00  0.00    -0.200 F 
ATOM     86  C   UNL A   1      40.072  27.102  27.546  1.00  0.00     0.200 A 
ATOM     87  F   UNL A   1      41.247  28.864  26.503  1.00  0.00    -0.200 F 
ATOM     88  F   UNL A   1      40.141  26.371  26.425  1.00  0.00    -0.200 F 
ENDBRANCH  54  78
BRANCH  66  89
ATOM     89  C   UNL A   1      44.223  28.531  35.448  1.00  0.00     0.064 A 
ATOM     90  C   UNL A   1      44.078  27.343  36.181  1.00  0.00     0.173 A 
ATOM     91  C   UNL A   1      45.513  28.887  35.024  1.00  0.00     0.173 A 
ATOM     92  F   UNL A   1      42.870  26.964  36.620  1.00  0.00    -0.203 F 
ATOM     93  C   UNL A   1      45.186  26.562  36.502  1.00  0.00     0.198 A 
ATOM     94  C   UNL A   1      46.611  28.086  35.317  1.00  0.00     0.198 A 
ATOM     95  F   UNL A   1      45.704  30.009  34.313  1.00  0.00    -0.203 F 
ATOM     96  F   UNL A   1      45.032  25.461  37.250  1.00  0.00    -0.200 F 
ATOM     97  C   UNL A   1      46.449  26.929  36.064  1.00  0.00     0.200 A 
ATOM     98  F   UNL A   1      47.829  28.435  34.878  1.00  0.00    -0.200 F 
ATOM     99  F   UNL A   1      47.512  26.173  36.367  1.00  0.00    -0.200 F 
ENDBRANCH  66  89
ENDBRANCH  40  41
ENDBRANCH  32  35
ENDBRANCH  30  31
ENDBRANCH  29  30
ENDBRANCH  28  29
ENDBRANCH   1  28
TORSDOF 16
ENDMDL
MODEL 3
REMARK VINA RESULT:     -11.9      1.375      3.275
REMARK SMILES O=C(Cc1cncnc1N1CCC2(CC1)OCCC[C@@H]2O)NCCCCCCNC(=O)c1ccc(-c2c3nc(c(-c4c(F)c(F)c(F)c(F)c4F)c4ccc([nH]4)c(-c4c(F)c(F)c(F)c(F)c4F)c4nc(c(-c5c(F)c(F)c(F)c(F)c5F)c5ccc2[nH]5)C=C4)C=C3)cc1
REMARK SMILES IDX 25 1 24 2 23 3 22 4 1 5 2 6 3 8 4 9 5 10 9 11 6 12 8 13 7 14
REMARK SMILES IDX 10 15 11 16 15 17 12 18 14 19 13 20 16 21 20 22 17 23 19 24
REMARK SMILES IDX 18 25 21 26 26 28 27 29 28 30 29 31 30 32 31 34 32 35 33 36
REMARK SMILES IDX 94 37 34 38 93 39 35 40 36 41 37 42 87 43 38 44 92 45 86 46
REMARK SMILES IDX 88 47 39 48 91 49 85 50 84 51 40 53 72 54 52 55 71 56 53 57
REMARK SMILES IDX 56 58 70 59 89 60 54 61 55 62 69 64 90 65 57 66 41 67 42 68
REMARK SMILES IDX 50 69 43 70 44 71 48 72 51 73 45 74 46 75 49 76 47 77 73 78
REMARK SMILES IDX 74 79 82 80 75 81 76 82 80 83 83 84 77 85 78 86 81 87 79 88
REMARK SMILES IDX 58 89 59 90 67 91 60 92 61 93 65 94 68 95 62 96 63 97 66 98
REMARK SMILES IDX 64 99
REMARK H PARENT 22 7 21 27 29 33 88 52 56 63
REMARK Flexibility Score: inf
ROOT
ATOM      1  C   UNL A   1      34.429  32.285  28.927  1.00  0.00     0.002 C 
ENDROOT
BRANCH   1   2
ATOM      2  C   UNL A   1      34.649  31.292  27.772  1.00  0.00     0.021 C 
BRANCH   2   3
ATOM      3  C   UNL A   1      33.364  30.722  27.171  1.00  0.00     0.116 C 
BRANCH   3   4
ATOM      4  N   UNL A   1      33.685  29.731  26.171  1.00  0.00    -0.356 N 
ATOM      5  O   UNL A   1      32.955  27.870  27.301  1.00  0.00    -0.275 OA
ATOM      6  C   UNL A   1      33.496  28.378  26.326  1.00  0.00     0.224 C 
ATOM      7  H   UNL A   1      34.066  30.045  25.320  1.00  0.00     0.163 HD
BRANCH   6   8
ATOM      8  C   UNL A   1      34.072  27.577  25.175  1.00  0.00     0.141 C 
BRANCH   8   9
ATOM      9  C   UNL A   1      33.718  26.118  25.225  1.00  0.00     0.022 A 
ATOM     10  C   UNL A   1      34.501  25.222  25.936  1.00  0.00     0.121 A 
ATOM     11  C   UNL A   1      32.558  25.593  24.672  1.00  0.00     0.135 A 
ATOM     12  N   UNL A   1      34.215  23.922  26.096  1.00  0.00    -0.244 NA
ATOM     13  N   UNL A   1      32.226  24.297  24.831  1.00  0.00    -0.219 NA
ATOM     14  C   UNL A   1      33.075  23.524  25.521  1.00  0.00     0.224 A 
BRANCH  11  15
ATOM     15  N   UNL A   1      31.637  26.428  24.077  1.00  0.00    -0.356 N 
ATOM     16  C   UNL A   1      30.543  26.918  24.891  1.00  0.00     0.121 C 
ATOM     17  C   UNL A   1      31.343  26.320  22.652  1.00  0.00     0.121 C 
ATOM     18  C   UNL A   1      30.333  28.371  24.480  1.00  0.00     0.060 C 
ATOM     19  C   UNL A   1      31.051  27.724  22.116  1.00  0.00     0.060 C 
ATOM     20  C   UNL A   1      30.010  28.499  22.969  1.00  0.00     0.097 C 
ATOM     21  O   UNL A   1      28.727  27.904  22.676  1.00  0.00    -0.372 OA
ATOM     22  C   UNL A   1      30.022  30.003  22.556  1.00  0.00     0.146 C 
ATOM     23  C   UNL A   1      27.595  28.570  23.226  1.00  0.00     0.161 C 
ATOM     24  C   UNL A   1      28.838  30.757  23.159  1.00  0.00     0.037 C 
ATOM     25  C   UNL A   1      27.534  30.039  22.834  1.00  0.00     0.031 C 
BRANCH  22  26
ATOM     26  O   UNL A   1      29.965  30.139  21.131  1.00  0.00    -0.390 OA
ATOM     27  H   UNL A   1      30.864  30.232  20.778  1.00  0.00     0.211 HD
ENDBRANCH  22  26
ENDBRANCH  11  15
ENDBRANCH   8   9
ENDBRANCH   6   8
ENDBRANCH   3   4
ENDBRANCH   2   3
ENDBRANCH   1   2
BRANCH   1  28
ATOM     28  C   UNL A   1      34.480  33.764  28.533  1.00  0.00     0.002 C 
BRANCH  28  29
ATOM     29  C   UNL A   1      33.187  34.537  28.795  1.00  0.00     0.021 C 
BRANCH  29  30
ATOM     30  C   UNL A   1      33.394  35.952  29.316  1.00  0.00     0.116 C 
BRANCH  30  31
ATOM     31  N   UNL A   1      32.531  36.263  30.446  1.00  0.00    -0.352 N 
ATOM     32  C   UNL A   1      32.632  35.836  31.745  1.00  0.00     0.251 C 
ATOM     33  H   UNL A   1      31.773  36.860  30.251  1.00  0.00     0.163 HD
ATOM     34  O   UNL A   1      31.727  36.061  32.546  1.00  0.00    -0.269 OA
BRANCH  32  35
ATOM     35  C   UNL A   1      33.827  35.080  32.176  1.00  0.00     0.039 A 
ATOM     36  C   UNL A   1      33.676  33.755  32.589  1.00  0.00     0.014 A 
ATOM     37  C   UNL A   1      35.091  35.676  32.170  1.00  0.00     0.014 A 
ATOM     38  C   UNL A   1      34.801  33.011  32.951  1.00  0.00     0.010 A 
ATOM     39  C   UNL A   1      36.219  34.911  32.452  1.00  0.00     0.010 A 
ATOM     40  C   UNL A   1      36.085  33.574  32.859  1.00  0.00    -0.014 A 
BRANCH  40  41
ATOM     41  C   UNL A   1      37.297  32.795  33.222  1.00  0.00     0.031 A 
ATOM     42  C   UNL A   1      38.022  33.096  34.505  1.00  0.00     0.074 A 
ATOM     43  C   UNL A   1      37.769  31.855  32.381  1.00  0.00     0.049 A 
ATOM     44  N   UNL A   1      39.140  32.591  34.965  1.00  0.00    -0.248 NA
ATOM     45  C   UNL A   1      37.427  34.121  35.378  1.00  0.00     0.031 C 
ATOM     46  C   UNL A   1      37.178  31.497  31.091  1.00  0.00     0.029 A 
ATOM     47  N   UNL A   1      38.865  31.033  32.483  1.00  0.00    -0.354 N 
ATOM     48  C   UNL A   1      39.379  33.237  36.171  1.00  0.00     0.074 A 
ATOM     49  C   UNL A   1      38.331  34.219  36.341  1.00  0.00     0.031 C 
ATOM     50  C   UNL A   1      37.909  30.520  30.528  1.00  0.00     0.029 A 
ATOM     51  C   UNL A   1      39.039  30.209  31.396  1.00  0.00     0.049 A 
ATOM     52  H   UNL A   1      39.469  31.035  33.260  1.00  0.00     0.167 HD
ATOM     53  C   UNL A   1      40.365  33.010  37.071  1.00  0.00     0.037 A 
ATOM     54  C   UNL A   1      40.010  29.314  31.128  1.00  0.00     0.037 A 
ATOM     55  C   UNL A   1      41.397  32.020  36.909  1.00  0.00     0.049 A 
ATOM     56  C   UNL A   1      41.107  29.099  32.140  1.00  0.00     0.074 A 
ATOM     57  C   UNL A   1      42.430  31.701  37.773  1.00  0.00     0.029 A 
ATOM     58  N   UNL A   1      41.520  31.184  35.809  1.00  0.00    -0.354 N 
ATOM     59  N   UNL A   1      41.294  29.682  33.299  1.00  0.00    -0.248 NA
ATOM     60  C   UNL A   1      42.122  28.089  31.811  1.00  0.00     0.031 C 
ATOM     61  C   UNL A   1      43.203  30.699  37.179  1.00  0.00     0.029 A 
ATOM     62  C   UNL A   1      42.618  30.354  35.971  1.00  0.00     0.049 A 
ATOM     63  H   UNL A   1      40.919  31.182  35.031  1.00  0.00     0.167 HD
ATOM     64  C   UNL A   1      42.417  29.082  33.853  1.00  0.00     0.074 A 
ATOM     65  C   UNL A   1      42.862  28.079  32.910  1.00  0.00     0.031 C 
ATOM     66  C   UNL A   1      43.027  29.338  35.036  1.00  0.00     0.037 A 
BRANCH  53  67
ATOM     67  C   UNL A   1      40.363  33.832  38.328  1.00  0.00     0.064 A 
ATOM     68  C   UNL A   1      39.615  33.446  39.451  1.00  0.00     0.173 A 
ATOM     69  C   UNL A   1      41.160  34.980  38.435  1.00  0.00     0.173 A 
ATOM     70  F   UNL A   1      38.826  32.362  39.398  1.00  0.00    -0.203 F 
ATOM     71  C   UNL A   1      39.649  34.191  40.627  1.00  0.00     0.198 A 
ATOM     72  C   UNL A   1      41.217  35.705  39.622  1.00  0.00     0.198 A 
ATOM     73  F   UNL A   1      41.899  35.391  37.393  1.00  0.00    -0.203 F 
ATOM     74  F   UNL A   1      38.895  33.826  41.672  1.00  0.00    -0.200 F 
ATOM     75  C   UNL A   1      40.459  35.314  40.715  1.00  0.00     0.200 A 
ATOM     76  F   UNL A   1      42.011  36.783  39.710  1.00  0.00    -0.200 F 
ATOM     77  F   UNL A   1      40.504  36.022  41.852  1.00  0.00    -0.200 F 
ENDBRANCH  53  67
BRANCH  54  78
ATOM     78  C   UNL A   1      39.997  28.545  29.854  1.00  0.00     0.064 A 
ATOM     79  C   UNL A   1      39.387  27.285  29.776  1.00  0.00     0.173 A 
ATOM     80  C   UNL A   1      40.637  29.030  28.704  1.00  0.00     0.173 A 
ATOM     81  F   UNL A   1      38.778  26.768  30.853  1.00  0.00    -0.203 F 
ATOM     82  C   UNL A   1      39.456  26.522  28.612  1.00  0.00     0.198 A 
ATOM     83  C   UNL A   1      40.673  28.282  27.530  1.00  0.00     0.198 A 
ATOM     84  F   UNL A   1      41.230  30.233  28.721  1.00  0.00    -0.203 F 
ATOM     85  F   UNL A   1      38.926  25.291  28.589  1.00  0.00    -0.200 F 
ATOM     86  C   UNL A   1      40.096  27.022  27.489  1.00  0.00     0.200 A 
ATOM     87  F   UNL A   1      41.279  28.776  26.441  1.00  0.00    -0.200 F 
ATOM     88  F   UNL A   1      40.170  26.284  26.372  1.00  0.00    -0.200 F 
ENDBRANCH  54  78
BRANCH  66  89
ATOM     89  C   UNL A   1      44.197  28.476  35.412  1.00  0.00     0.064 A 
ATOM     90  C   UNL A   1      45.513  28.813  35.060  1.00  0.00     0.173 A 
ATOM     91  C   UNL A   1      44.000  27.310  36.170  1.00  0.00     0.173 A 
ATOM     92  F   UNL A   1      45.755  29.910  34.327  1.00  0.00    -0.203 F 
ATOM     93  C   UNL A   1      46.582  27.999  35.424  1.00  0.00     0.198 A 
ATOM     94  C   UNL A   1      45.074  26.518  36.561  1.00  0.00     0.198 A 
ATOM     95  F   UNL A   1      42.762  26.947  36.540  1.00  0.00    -0.203 F 
ATOM     96  F   UNL A   1      47.824  28.311  35.029  1.00  0.00    -0.200 F 
ATOM     97  C   UNL A   1      46.363  26.857  36.180  1.00  0.00     0.200 A 
ATOM     98  F   UNL A   1      44.861  25.424  37.306  1.00  0.00    -0.200 F 
ATOM     99  F   UNL A   1      47.394  26.078  36.536  1.00  0.00    -0.200 F 
ENDBRANCH  66  89
ENDBRANCH  40  41
ENDBRANCH  32  35
ENDBRANCH  30  31
ENDBRANCH  29  30
ENDBRANCH  28  29
ENDBRANCH   1  28
TORSDOF 16
ENDMDL
