MODEL 1
REMARK VINA RESULT:     -11.6      0.000      0.000
REMARK SMILES Cc1cc(C)c(C#N)c(NC[C@H](CC(C)C)C(=O)NCCCCCCNC(=O)c2ccc(-c3c4nc(c(-c5c(F)c(F)c(F)c(F)c5F)c5ccc([nH]5)c(-c5c(F)c(F)c(F)c(F)c5F)c5nc(c(-c6c(F)c(F)c(F)c(F)c6F)c6ccc3[nH]6)C=C5)C=C4)cc2)n1
REMARK SMILES IDX 21 1 20 2 19 3 17 4 18 5 12 7 11 8 10 9 9 11 1 12 2 13 3 14
REMARK SMILES IDX 92 15 4 16 5 17 6 18 7 19 8 20 13 21 14 22 15 23 16 24 22 25
REMARK SMILES IDX 23 26 24 27 25 28 26 29 27 30 28 32 29 33 30 34 91 35 31 36
REMARK SMILES IDX 90 37 32 38 33 39 34 40 84 41 35 42 89 43 83 44 85 45 36 46
REMARK SMILES IDX 88 47 82 48 81 49 37 51 69 52 49 53 68 54 50 55 53 56 67 57
REMARK SMILES IDX 86 58 51 59 52 60 66 62 87 63 54 64 38 65 39 66 47 67 40 68
REMARK SMILES IDX 41 69 45 70 48 71 42 72 43 73 46 74 44 75 70 76 71 77 79 78
REMARK SMILES IDX 72 79 73 80 77 81 80 82 74 83 75 84 78 85 76 86 55 87 56 88
REMARK SMILES IDX 64 89 57 90 58 91 62 92 65 93 59 94 60 95 63 96 61 97
REMARK H PARENT 19 6 10 10 26 31 85 50 53 61
REMARK Flexibility Score: inf
ROOT
ATOM      1  C   UNL A   1      31.828  28.575  27.093  1.00  0.00     0.021 C 
ENDROOT
BRANCH   1   2
ATOM      2  C   UNL A   1      32.364  27.542  26.097  1.00  0.00     0.116 C 
BRANCH   2   3
ATOM      3  N   UNL A   1      33.336  28.118  25.199  1.00  0.00    -0.356 N 
ATOM      4  C   UNL A   1      33.662  27.840  23.915  1.00  0.00     0.224 C 
ATOM      5  O   UNL A   1      34.490  28.601  23.400  1.00  0.00    -0.275 OA
ATOM      6  H   UNL A   1      33.859  28.852  25.594  1.00  0.00     0.163 HD
BRANCH   4   7
ATOM      7  C   UNL A   1      33.094  26.677  23.090  1.00  0.00     0.098 C 
BRANCH   7   8
ATOM      8  C   UNL A   1      31.956  27.025  22.115  1.00  0.00     0.128 C 
BRANCH   8   9
ATOM      9  N   UNL A   1      31.418  28.368  22.138  1.00  0.00    -0.368 N 
ATOM     10  H   UNL A   1      32.072  29.092  22.009  1.00  0.00     0.162 HD
BRANCH   9  11
ATOM     11  C   UNL A   1      30.113  28.763  22.315  1.00  0.00     0.144 A 
ATOM     12  C   UNL A   1      28.394  31.718  20.887  1.00  0.00     0.067 C 
ATOM     13  C   UNL A   1      28.607  30.441  21.644  1.00  0.00     0.040 A 
ATOM     14  C   UNL A   1      27.556  29.849  22.323  1.00  0.00     0.028 A 
ATOM     15  N   UNL A   1      29.856  29.909  21.630  1.00  0.00    -0.235 NA
ATOM     16  C   UNL A   1      27.794  28.674  23.033  1.00  0.00    -0.028 A 
ATOM     17  C   UNL A   1      26.656  28.011  23.767  1.00  0.00     0.046 C 
ATOM     18  C   UNL A   1      29.099  28.128  23.044  1.00  0.00     0.097 A 
BRANCH  18  19
ATOM     19  C   UNL A   1      29.310  26.947  23.823  1.00  0.00     0.103 C 
ATOM     20  N   UNL A   1      29.523  26.024  24.498  1.00  0.00    -0.192 NA
ENDBRANCH  18  19
ENDBRANCH   9  11
ENDBRANCH   8   9
ENDBRANCH   7   8
BRANCH   7  21
ATOM     21  C   UNL A   1      33.219  25.235  23.634  1.00  0.00     0.018 C 
BRANCH  21  22
ATOM     22  C   UNL A   1      34.473  24.765  24.373  1.00  0.00    -0.017 C 
ATOM     23  C   UNL A   1      34.233  24.386  25.828  1.00  0.00     0.007 C 
ATOM     24  C   UNL A   1      35.134  23.582  23.655  1.00  0.00     0.007 C 
ENDBRANCH  21  22
ENDBRANCH   7  21
ENDBRANCH   4   7
ENDBRANCH   2   3
ENDBRANCH   1   2
BRANCH   1  25
ATOM     25  C   UNL A   1      32.295  30.005  26.848  1.00  0.00     0.002 C 
BRANCH  25  26
ATOM     26  C   UNL A   1      31.276  30.885  26.120  1.00  0.00     0.002 C 
BRANCH  26  27
ATOM     27  C   UNL A   1      31.286  32.363  26.519  1.00  0.00     0.021 C 
BRANCH  27  28
ATOM     28  C   UNL A   1      32.592  32.845  27.145  1.00  0.00     0.116 C 
BRANCH  28  29
ATOM     29  N   UNL A   1      32.481  34.209  27.636  1.00  0.00    -0.352 N 
ATOM     30  C   UNL A   1      33.082  34.814  28.707  1.00  0.00     0.251 C 
ATOM     31  H   UNL A   1      31.878  34.789  27.117  1.00  0.00     0.163 HD
ATOM     32  O   UNL A   1      32.640  35.874  29.140  1.00  0.00    -0.269 OA
BRANCH  30  33
ATOM     33  C   UNL A   1      34.263  34.195  29.338  1.00  0.00     0.039 A 
ATOM     34  C   UNL A   1      34.070  33.275  30.371  1.00  0.00     0.014 A 
ATOM     35  C   UNL A   1      35.556  34.552  28.944  1.00  0.00     0.014 A 
ATOM     36  C   UNL A   1      35.176  32.681  30.977  1.00  0.00     0.010 A 
ATOM     37  C   UNL A   1      36.652  33.890  29.485  1.00  0.00     0.010 A 
ATOM     38  C   UNL A   1      36.474  32.958  30.518  1.00  0.00    -0.014 A 
BRANCH  38  39
ATOM     39  C   UNL A   1      37.650  32.272  31.107  1.00  0.00     0.031 A 
ATOM     40  C   UNL A   1      38.137  32.633  32.481  1.00  0.00     0.074 A 
ATOM     41  C   UNL A   1      38.301  31.346  30.379  1.00  0.00     0.049 A 
ATOM     42  N   UNL A   1      39.136  32.131  33.164  1.00  0.00    -0.248 NA
ATOM     43  C   UNL A   1      37.425  33.718  33.171  1.00  0.00     0.031 C 
ATOM     44  C   UNL A   1      37.948  30.944  29.017  1.00  0.00     0.029 A 
ATOM     45  N   UNL A   1      39.389  30.569  30.685  1.00  0.00    -0.354 N 
ATOM     46  C   UNL A   1      39.177  32.844  34.354  1.00  0.00     0.074 A 
ATOM     47  C   UNL A   1      38.149  33.858  34.272  1.00  0.00     0.031 C 
ATOM     48  C   UNL A   1      38.768  29.957  28.626  1.00  0.00     0.029 A 
ATOM     49  C   UNL A   1      39.733  29.692  29.687  1.00  0.00     0.049 A 
ATOM     50  H   UNL A   1      39.876  30.634  31.538  1.00  0.00     0.167 HD
ATOM     51  C   UNL A   1      39.983  32.655  35.427  1.00  0.00     0.037 A 
ATOM     52  C   UNL A   1      40.714  28.773  29.637  1.00  0.00     0.037 A 
ATOM     53  C   UNL A   1      41.008  31.644  35.497  1.00  0.00     0.049 A 
ATOM     54  C   UNL A   1      41.625  28.612  30.824  1.00  0.00     0.074 A 
ATOM     55  C   UNL A   1      41.843  31.330  36.554  1.00  0.00     0.029 A 
ATOM     56  N   UNL A   1      41.353  30.796  34.451  1.00  0.00    -0.354 N 
ATOM     57  N   UNL A   1      41.601  29.232  31.979  1.00  0.00    -0.248 NA
ATOM     58  C   UNL A   1      42.695  27.615  30.697  1.00  0.00     0.031 C 
ATOM     59  C   UNL A   1      42.745  30.351  36.123  1.00  0.00     0.029 A 
ATOM     60  C   UNL A   1      42.418  29.990  34.825  1.00  0.00     0.049 A 
ATOM     61  H   UNL A   1      40.906  30.770  33.575  1.00  0.00     0.167 HD
ATOM     62  C   UNL A   1      42.630  28.677  32.729  1.00  0.00     0.074 A 
ATOM     63  C   UNL A   1      43.242  27.658  31.902  1.00  0.00     0.031 C 
ATOM     64  C   UNL A   1      43.029  28.984  33.990  1.00  0.00     0.037 A 
BRANCH  51  65
ATOM     65  C   UNL A   1      39.802  33.586  36.598  1.00  0.00     0.064 A 
ATOM     66  C   UNL A   1      38.971  33.267  37.684  1.00  0.00     0.173 A 
ATOM     67  C   UNL A   1      40.464  34.823  36.629  1.00  0.00     0.173 A 
ATOM     68  F   UNL A   1      38.308  32.100  37.708  1.00  0.00    -0.203 F 
ATOM     69  C   UNL A   1      38.761  34.172  38.721  1.00  0.00     0.198 A 
ATOM     70  C   UNL A   1      40.288  35.708  37.690  1.00  0.00     0.198 A 
ATOM     71  F   UNL A   1      41.281  35.180  35.627  1.00  0.00    -0.203 F 
ATOM     72  F   UNL A   1      37.896  33.878  39.702  1.00  0.00    -0.200 F 
ATOM     73  C   UNL A   1      39.423  35.390  38.726  1.00  0.00     0.200 A 
ATOM     74  F   UNL A   1      40.945  36.876  37.703  1.00  0.00    -0.200 F 
ATOM     75  F   UNL A   1      39.218  36.264  39.721  1.00  0.00    -0.200 F 
ENDBRANCH  51  65
BRANCH  52  76
ATOM     76  C   UNL A   1      40.853  27.904  28.439  1.00  0.00     0.064 A 
ATOM     77  C   UNL A   1      40.179  26.678  28.365  1.00  0.00     0.173 A 
ATOM     78  C   UNL A   1      41.645  28.281  27.344  1.00  0.00     0.173 A 
ATOM     79  F   UNL A   1      39.423  26.265  29.394  1.00  0.00    -0.203 F 
ATOM     80  C   UNL A   1      40.304  25.853  27.249  1.00  0.00     0.198 A 
ATOM     81  C   UNL A   1      41.742  27.472  26.215  1.00  0.00     0.198 A 
ATOM     82  F   UNL A   1      42.305  29.448  27.362  1.00  0.00    -0.203 F 
ATOM     83  F   UNL A   1      39.683  24.667  27.223  1.00  0.00    -0.200 F 
ATOM     84  C   UNL A   1      41.079  26.255  26.172  1.00  0.00     0.200 A 
ATOM     85  F   UNL A   1      42.476  27.872  25.168  1.00  0.00    -0.200 F 
ATOM     86  F   UNL A   1      41.191  25.467  25.093  1.00  0.00    -0.200 F 
ENDBRANCH  52  76
BRANCH  64  87
ATOM     87  C   UNL A   1      44.163  28.178  34.564  1.00  0.00     0.064 A 
ATOM     88  C   UNL A   1      45.489  28.637  34.540  1.00  0.00     0.173 A 
ATOM     89  C   UNL A   1      43.917  26.929  35.156  1.00  0.00     0.173 A 
ATOM     90  F   UNL A   1      45.786  29.818  33.977  1.00  0.00    -0.203 F 
ATOM     91  C   UNL A   1      46.528  27.856  35.042  1.00  0.00     0.198 A 
ATOM     92  C   UNL A   1      44.951  26.171  35.696  1.00  0.00     0.198 A 
ATOM     93  F   UNL A   1      42.667  26.443  35.216  1.00  0.00    -0.203 F 
ATOM     94  F   UNL A   1      47.794  28.283  34.938  1.00  0.00    -0.200 F 
ATOM     95  C   UNL A   1      46.258  26.628  35.626  1.00  0.00     0.200 A 
ATOM     96  F   UNL A   1      44.684  24.994  36.278  1.00  0.00    -0.200 F 
ATOM     97  F   UNL A   1      47.259  25.879  36.109  1.00  0.00    -0.200 F 
ENDBRANCH  64  87
ENDBRANCH  38  39
ENDBRANCH  30  33
ENDBRANCH  28  29
ENDBRANCH  27  28
ENDBRANCH  26  27
ENDBRANCH  25  26
ENDBRANCH   1  25
TORSDOF 19
ENDMDL
MODEL 2
REMARK VINA RESULT:     -11.5      0.659      7.304
REMARK SMILES Cc1cc(C)c(C#N)c(NC[C@H](CC(C)C)C(=O)NCCCCCCNC(=O)c2ccc(-c3c4nc(c(-c5c(F)c(F)c(F)c(F)c5F)c5ccc([nH]5)c(-c5c(F)c(F)c(F)c(F)c5F)c5nc(c(-c6c(F)c(F)c(F)c(F)c6F)c6ccc3[nH]6)C=C5)C=C4)cc2)n1
REMARK SMILES IDX 21 1 20 2 19 3 17 4 18 5 12 7 11 8 10 9 9 11 1 12 2 13 3 14
REMARK SMILES IDX 92 15 4 16 5 17 6 18 7 19 8 20 13 21 14 22 15 23 16 24 22 25
REMARK SMILES IDX 23 26 24 27 25 28 26 29 27 30 28 32 29 33 30 34 91 35 31 36
REMARK SMILES IDX 90 37 32 38 33 39 34 40 84 41 35 42 89 43 83 44 85 45 36 46
REMARK SMILES IDX 88 47 82 48 81 49 37 51 69 52 49 53 68 54 50 55 53 56 67 57
REMARK SMILES IDX 86 58 51 59 52 60 66 62 87 63 54 64 38 65 39 66 47 67 40 68
REMARK SMILES IDX 41 69 45 70 48 71 42 72 43 73 46 74 44 75 70 76 71 77 79 78
REMARK SMILES IDX 72 79 73 80 77 81 80 82 74 83 75 84 78 85 76 86 55 87 56 88
REMARK SMILES IDX 64 89 57 90 58 91 62 92 65 93 59 94 60 95 63 96 61 97
REMARK H PARENT 19 6 10 10 26 31 85 50 53 61
REMARK Flexibility Score: inf
ROOT
ATOM      1  C   UNL A   1      32.119  28.637  26.803  1.00  0.00     0.021 C 
ENDROOT
BRANCH   1   2
ATOM      2  C   UNL A   1      33.180  27.701  26.216  1.00  0.00     0.116 C 
BRANCH   2   3
ATOM      3  N   UNL A   1      33.857  28.299  25.090  1.00  0.00    -0.356 N 
ATOM      4  C   UNL A   1      33.853  28.005  23.768  1.00  0.00     0.224 C 
ATOM      5  O   UNL A   1      34.482  28.790  23.047  1.00  0.00    -0.275 OA
ATOM      6  H   UNL A   1      34.427  29.066  25.327  1.00  0.00     0.163 HD
BRANCH   4   7
ATOM      7  C   UNL A   1      33.151  26.798  23.133  1.00  0.00     0.098 C 
BRANCH   7   8
ATOM      8  C   UNL A   1      31.993  27.111  22.170  1.00  0.00     0.128 C 
BRANCH   8   9
ATOM      9  N   UNL A   1      31.430  28.444  22.184  1.00  0.00    -0.368 N 
ATOM     10  H   UNL A   1      32.073  29.181  22.072  1.00  0.00     0.162 HD
BRANCH   9  11
ATOM     11  C   UNL A   1      30.114  28.815  22.334  1.00  0.00     0.144 A 
ATOM     12  C   UNL A   1      28.344  31.678  20.786  1.00  0.00     0.067 C 
ATOM     13  C   UNL A   1      28.578  30.433  21.589  1.00  0.00     0.040 A 
ATOM     14  C   UNL A   1      27.533  29.840  22.278  1.00  0.00     0.028 A 
ATOM     15  N   UNL A   1      29.839  29.930  21.607  1.00  0.00    -0.235 NA
ATOM     16  C   UNL A   1      27.790  28.696  23.030  1.00  0.00    -0.028 A 
ATOM     17  C   UNL A   1      26.659  28.032  23.774  1.00  0.00     0.046 C 
ATOM     18  C   UNL A   1      29.107  28.182  23.073  1.00  0.00     0.097 A 
BRANCH  18  19
ATOM     19  C   UNL A   1      29.336  27.033  23.896  1.00  0.00     0.103 C 
ATOM     20  N   UNL A   1      29.464  26.115  24.598  1.00  0.00    -0.192 NA
ENDBRANCH  18  19
ENDBRANCH   9  11
ENDBRANCH   8   9
ENDBRANCH   7   8
BRANCH   7  21
ATOM     21  C   UNL A   1      33.191  25.433  23.859  1.00  0.00     0.018 C 
BRANCH  21  22
ATOM     22  C   UNL A   1      34.415  24.520  23.778  1.00  0.00    -0.017 C 
ATOM     23  C   UNL A   1      35.217  24.437  25.071  1.00  0.00     0.007 C 
ATOM     24  C   UNL A   1      34.025  23.101  23.345  1.00  0.00     0.007 C 
ENDBRANCH  21  22
ENDBRANCH   7  21
ENDBRANCH   4   7
ENDBRANCH   2   3
ENDBRANCH   1   2
BRANCH   1  25
ATOM     25  C   UNL A   1      32.435  30.123  26.682  1.00  0.00     0.002 C 
BRANCH  25  26
ATOM     26  C   UNL A   1      31.296  30.964  26.100  1.00  0.00     0.002 C 
BRANCH  26  27
ATOM     27  C   UNL A   1      31.282  32.433  26.531  1.00  0.00     0.021 C 
BRANCH  27  28
ATOM     28  C   UNL A   1      32.558  32.905  27.223  1.00  0.00     0.116 C 
BRANCH  28  29
ATOM     29  N   UNL A   1      32.473  34.305  27.610  1.00  0.00    -0.352 N 
ATOM     30  C   UNL A   1      33.056  34.969  28.655  1.00  0.00     0.251 C 
ATOM     31  H   UNL A   1      31.905  34.862  27.029  1.00  0.00     0.163 HD
ATOM     32  O   UNL A   1      32.633  36.070  28.995  1.00  0.00    -0.269 OA
BRANCH  30  33
ATOM     33  C   UNL A   1      34.196  34.365  29.371  1.00  0.00     0.039 A 
ATOM     34  C   UNL A   1      33.950  33.639  30.538  1.00  0.00     0.014 A 
ATOM     35  C   UNL A   1      35.505  34.549  28.918  1.00  0.00     0.014 A 
ATOM     36  C   UNL A   1      35.016  33.062  31.226  1.00  0.00     0.010 A 
ATOM     37  C   UNL A   1      36.555  33.895  29.552  1.00  0.00     0.010 A 
ATOM     38  C   UNL A   1      36.324  33.156  30.721  1.00  0.00    -0.014 A 
BRANCH  38  39
ATOM     39  C   UNL A   1      37.452  32.480  31.407  1.00  0.00     0.031 A 
ATOM     40  C   UNL A   1      38.177  31.343  30.746  1.00  0.00     0.074 A 
ATOM     41  C   UNL A   1      37.796  32.874  32.647  1.00  0.00     0.049 A 
ATOM     42  N   UNL A   1      39.194  30.643  31.185  1.00  0.00    -0.248 NA
ATOM     43  C   UNL A   1      37.679  30.916  29.431  1.00  0.00     0.031 C 
ATOM     44  C   UNL A   1      37.137  33.937  33.407  1.00  0.00     0.029 A 
ATOM     45  N   UNL A   1      38.790  32.433  33.482  1.00  0.00    -0.354 N 
ATOM     46  C   UNL A   1      39.449  29.693  30.206  1.00  0.00     0.074 A 
ATOM     47  C   UNL A   1      38.438  29.859  29.185  1.00  0.00     0.031 C 
ATOM     48  C   UNL A   1      37.779  34.103  34.573  1.00  0.00     0.029 A 
ATOM     49  C   UNL A   1      38.860  33.128  34.664  1.00  0.00     0.049 A 
ATOM     50  H   UNL A   1      39.395  31.690  33.257  1.00  0.00     0.167 HD
ATOM     51  C   UNL A   1      40.449  28.779  30.153  1.00  0.00     0.037 A 
ATOM     52  C   UNL A   1      39.706  32.996  35.702  1.00  0.00     0.037 A 
ATOM     53  C   UNL A   1      41.448  28.618  31.178  1.00  0.00     0.049 A 
ATOM     54  C   UNL A   1      40.780  31.945  35.639  1.00  0.00     0.074 A 
ATOM     55  C   UNL A   1      42.536  27.763  31.200  1.00  0.00     0.029 A 
ATOM     56  N   UNL A   1      41.467  29.316  32.380  1.00  0.00    -0.354 N 
ATOM     57  N   UNL A   1      41.067  31.108  34.672  1.00  0.00    -0.248 NA
ATOM     58  C   UNL A   1      41.652  31.830  36.814  1.00  0.00     0.031 C 
ATOM     59  C   UNL A   1      43.163  27.885  32.445  1.00  0.00     0.029 A 
ATOM     60  C   UNL A   1      42.521  28.878  33.168  1.00  0.00     0.049 A 
ATOM     61  H   UNL A   1      40.826  30.019  32.634  1.00  0.00     0.167 HD
ATOM     62  C   UNL A   1      42.173  30.389  35.107  1.00  0.00     0.074 A 
ATOM     63  C   UNL A   1      42.513  30.906  36.417  1.00  0.00     0.031 C 
ATOM     64  C   UNL A   1      42.846  29.392  34.477  1.00  0.00     0.037 A 
BRANCH  51  65
ATOM     65  C   UNL A   1      40.485  27.865  28.955  1.00  0.00     0.064 A 
ATOM     66  C   UNL A   1      41.255  28.156  27.818  1.00  0.00     0.173 A 
ATOM     67  C   UNL A   1      39.728  26.683  28.942  1.00  0.00     0.173 A 
ATOM     68  F   UNL A   1      41.996  29.274  27.770  1.00  0.00    -0.203 F 
ATOM     69  C   UNL A   1      41.218  27.334  26.693  1.00  0.00     0.198 A 
ATOM     70  C   UNL A   1      39.729  25.840  27.833  1.00  0.00     0.198 A 
ATOM     71  F   UNL A   1      38.981  26.344  30.003  1.00  0.00    -0.203 F 
ATOM     72  F   UNL A   1      41.895  27.680  25.589  1.00  0.00    -0.200 F 
ATOM     73  C   UNL A   1      40.459  26.175  26.704  1.00  0.00     0.200 A 
ATOM     74  F   UNL A   1      39.009  24.709  27.853  1.00  0.00    -0.200 F 
ATOM     75  F   UNL A   1      40.419  25.387  25.620  1.00  0.00    -0.200 F 
ENDBRANCH  51  65
BRANCH  52  76
ATOM     76  C   UNL A   1      39.598  33.915  36.865  1.00  0.00     0.064 A 
ATOM     77  C   UNL A   1      38.816  33.571  37.976  1.00  0.00     0.173 A 
ATOM     78  C   UNL A   1      40.277  35.142  36.899  1.00  0.00     0.173 A 
ATOM     79  F   UNL A   1      38.133  32.416  37.984  1.00  0.00    -0.203 F 
ATOM     80  C   UNL A   1      38.704  34.426  39.071  1.00  0.00     0.198 A 
ATOM     81  C   UNL A   1      40.191  35.980  38.008  1.00  0.00     0.198 A 
ATOM     82  F   UNL A   1      41.044  35.515  35.865  1.00  0.00    -0.203 F 
ATOM     83  F   UNL A   1      37.915  34.092  40.101  1.00  0.00    -0.200 F 
ATOM     84  C   UNL A   1      39.397  35.626  39.089  1.00  0.00     0.200 A 
ATOM     85  F   UNL A   1      40.879  37.130  38.030  1.00  0.00    -0.200 F 
ATOM     86  F   UNL A   1      39.299  36.444  40.146  1.00  0.00    -0.200 F 
ENDBRANCH  52  76
BRANCH  64  87
ATOM     87  C   UNL A   1      44.044  28.821  35.186  1.00  0.00     0.064 A 
ATOM     88  C   UNL A   1      43.937  27.742  36.078  1.00  0.00     0.173 A 
ATOM     89  C   UNL A   1      45.322  29.355  34.962  1.00  0.00     0.173 A 
ATOM     90  F   UNL A   1      42.738  27.199  36.340  1.00  0.00    -0.203 F 
ATOM     91  C   UNL A   1      45.054  27.256  36.753  1.00  0.00     0.198 A 
ATOM     92  C   UNL A   1      46.443  28.838  35.604  1.00  0.00     0.198 A 
ATOM     93  F   UNL A   1      45.488  30.381  34.112  1.00  0.00    -0.203 F 
ATOM     94  F   UNL A   1      44.913  26.276  37.657  1.00  0.00    -0.200 F 
ATOM     95  C   UNL A   1      46.306  27.798  36.511  1.00  0.00     0.200 A 
ATOM     96  F   UNL A   1      47.655  29.351  35.352  1.00  0.00    -0.200 F 
ATOM     97  F   UNL A   1      47.380  27.327  37.160  1.00  0.00    -0.200 F 
ENDBRANCH  64  87
ENDBRANCH  38  39
ENDBRANCH  30  33
ENDBRANCH  28  29
ENDBRANCH  27  28
ENDBRANCH  26  27
ENDBRANCH  25  26
ENDBRANCH   1  25
TORSDOF 19
ENDMDL
MODEL 3
REMARK VINA RESULT:     -11.3      5.399     10.644
REMARK SMILES Cc1cc(C)c(C#N)c(NC[C@H](CC(C)C)C(=O)NCCCCCCNC(=O)c2ccc(-c3c4nc(c(-c5c(F)c(F)c(F)c(F)c5F)c5ccc([nH]5)c(-c5c(F)c(F)c(F)c(F)c5F)c5nc(c(-c6c(F)c(F)c(F)c(F)c6F)c6ccc3[nH]6)C=C5)C=C4)cc2)n1
REMARK SMILES IDX 21 1 20 2 19 3 17 4 18 5 12 7 11 8 10 9 9 11 1 12 2 13 3 14
REMARK SMILES IDX 92 15 4 16 5 17 6 18 7 19 8 20 13 21 14 22 15 23 16 24 22 25
REMARK SMILES IDX 23 26 24 27 25 28 26 29 27 30 28 32 29 33 30 34 91 35 31 36
REMARK SMILES IDX 90 37 32 38 33 39 34 40 84 41 35 42 89 43 83 44 85 45 36 46
REMARK SMILES IDX 88 47 82 48 81 49 37 51 69 52 49 53 68 54 50 55 53 56 67 57
REMARK SMILES IDX 86 58 51 59 52 60 66 62 87 63 54 64 38 65 39 66 47 67 40 68
REMARK SMILES IDX 41 69 45 70 48 71 42 72 43 73 46 74 44 75 70 76 71 77 79 78
REMARK SMILES IDX 72 79 73 80 77 81 80 82 74 83 75 84 78 85 76 86 55 87 56 88
REMARK SMILES IDX 64 89 57 90 58 91 62 92 65 93 59 94 60 95 63 96 61 97
REMARK H PARENT 19 6 10 10 26 31 85 50 53 61
REMARK Flexibility Score: inf
ROOT
ATOM      1  C   UNL A   1      35.534  22.106  26.477  1.00  0.00     0.021 C 
ENDROOT
BRANCH   1   2
ATOM      2  C   UNL A   1      34.687  23.321  26.085  1.00  0.00     0.116 C 
BRANCH   2   3
ATOM      3  N   UNL A   1      33.276  23.065  26.246  1.00  0.00    -0.356 N 
ATOM      4  C   UNL A   1      32.361  22.485  25.435  1.00  0.00     0.224 C 
ATOM      5  O   UNL A   1      31.235  22.334  25.926  1.00  0.00    -0.275 OA
ATOM      6  H   UNL A   1      32.911  23.368  27.109  1.00  0.00     0.163 HD
BRANCH   4   7
ATOM      7  C   UNL A   1      32.620  22.027  23.994  1.00  0.00     0.098 C 
BRANCH   7   8
ATOM      8  C   UNL A   1      31.775  22.702  22.901  1.00  0.00     0.128 C 
BRANCH   8   9
ATOM      9  N   UNL A   1      31.167  23.982  23.195  1.00  0.00    -0.368 N 
ATOM     10  H   UNL A   1      30.183  23.992  23.223  1.00  0.00     0.162 HD
BRANCH   9  11
ATOM     11  C   UNL A   1      31.785  25.186  23.443  1.00  0.00     0.144 A 
ATOM     12  C   UNL A   1      31.943  27.077  26.625  1.00  0.00     0.067 C 
ATOM     13  C   UNL A   1      32.187  26.706  25.191  1.00  0.00     0.040 A 
ATOM     14  C   UNL A   1      32.966  27.516  24.384  1.00  0.00     0.028 A 
ATOM     15  N   UNL A   1      31.615  25.561  24.738  1.00  0.00    -0.235 NA
ATOM     16  C   UNL A   1      33.155  27.153  23.052  1.00  0.00    -0.028 A 
ATOM     17  C   UNL A   1      34.012  28.019  22.165  1.00  0.00     0.046 C 
ATOM     18  C   UNL A   1      32.541  25.975  22.567  1.00  0.00     0.097 A 
BRANCH  18  19
ATOM     19  C   UNL A   1      32.722  25.664  21.182  1.00  0.00     0.103 C 
ATOM     20  N   UNL A   1      32.888  25.477  20.046  1.00  0.00    -0.192 NA
ENDBRANCH  18  19
ENDBRANCH   9  11
ENDBRANCH   8   9
ENDBRANCH   7   8
BRANCH   7  21
ATOM     21  C   UNL A   1      33.205  20.618  23.744  1.00  0.00     0.018 C 
BRANCH  21  22
ATOM     22  C   UNL A   1      32.446  19.354  24.149  1.00  0.00    -0.017 C 
ATOM     23  C   UNL A   1      32.543  18.217  23.139  1.00  0.00     0.007 C 
ATOM     24  C   UNL A   1      32.907  18.839  25.518  1.00  0.00     0.007 C 
ENDBRANCH  21  22
ENDBRANCH   7  21
ENDBRANCH   4   7
ENDBRANCH   2   3
ENDBRANCH   1   2
BRANCH   1  25
ATOM     25  C   UNL A   1      36.603  21.714  25.465  1.00  0.00     0.002 C 
BRANCH  25  26
ATOM     26  C   UNL A   1      36.489  20.276  24.953  1.00  0.00     0.002 C 
BRANCH  26  27
ATOM     27  C   UNL A   1      37.798  19.483  24.937  1.00  0.00     0.021 C 
BRANCH  27  28
ATOM     28  C   UNL A   1      38.945  20.132  25.706  1.00  0.00     0.116 C 
BRANCH  28  29
ATOM     29  N   UNL A   1      40.048  19.205  25.910  1.00  0.00    -0.352 N 
ATOM     30  C   UNL A   1      41.385  19.446  26.070  1.00  0.00     0.251 C 
ATOM     31  H   UNL A   1      39.791  18.255  25.936  1.00  0.00     0.163 HD
ATOM     32  O   UNL A   1      42.194  18.533  25.928  1.00  0.00    -0.269 OA
BRANCH  30  33
ATOM     33  C   UNL A   1      41.856  20.800  26.416  1.00  0.00     0.039 A 
ATOM     34  C   UNL A   1      42.129  21.703  25.386  1.00  0.00     0.014 A 
ATOM     35  C   UNL A   1      42.070  21.166  27.748  1.00  0.00     0.014 A 
ATOM     36  C   UNL A   1      42.574  22.987  25.697  1.00  0.00     0.010 A 
ATOM     37  C   UNL A   1      42.423  22.474  28.059  1.00  0.00     0.010 A 
ATOM     38  C   UNL A   1      42.694  23.394  27.036  1.00  0.00    -0.014 A 
BRANCH  38  39
ATOM     39  C   UNL A   1      43.093  24.782  27.374  1.00  0.00     0.031 A 
ATOM     40  C   UNL A   1      44.492  25.261  27.111  1.00  0.00     0.074 A 
ATOM     41  C   UNL A   1      42.195  25.599  27.956  1.00  0.00     0.049 A 
ATOM     42  N   UNL A   1      45.016  26.443  27.326  1.00  0.00    -0.248 NA
ATOM     43  C   UNL A   1      45.434  24.279  26.557  1.00  0.00     0.031 C 
ATOM     44  C   UNL A   1      40.821  25.231  28.302  1.00  0.00     0.029 A 
ATOM     45  N   UNL A   1      42.301  26.907  28.353  1.00  0.00    -0.354 N 
ATOM     46  C   UNL A   1      46.347  26.340  26.943  1.00  0.00     0.074 A 
ATOM     47  C   UNL A   1      46.567  24.965  26.550  1.00  0.00     0.031 C 
ATOM     48  C   UNL A   1      40.195  26.305  28.806  1.00  0.00     0.029 A 
ATOM     49  C   UNL A   1      41.135  27.419  28.867  1.00  0.00     0.049 A 
ATOM     50  H   UNL A   1      43.131  27.429  28.277  1.00  0.00     0.167 HD
ATOM     51  C   UNL A   1      47.293  27.310  26.902  1.00  0.00     0.037 A 
ATOM     52  C   UNL A   1      40.856  28.651  29.330  1.00  0.00     0.037 A 
ATOM     53  C   UNL A   1      47.065  28.675  27.301  1.00  0.00     0.049 A 
ATOM     54  C   UNL A   1      41.935  29.698  29.315  1.00  0.00     0.074 A 
ATOM     55  C   UNL A   1      47.935  29.750  27.248  1.00  0.00     0.029 A 
ATOM     56  N   UNL A   1      45.880  29.150  27.852  1.00  0.00    -0.354 N 
ATOM     57  N   UNL A   1      43.166  29.616  28.871  1.00  0.00    -0.248 NA
ATOM     58  C   UNL A   1      41.578  31.013  29.862  1.00  0.00     0.031 C 
ATOM     59  C   UNL A   1      47.307  30.851  27.840  1.00  0.00     0.029 A 
ATOM     60  C   UNL A   1      46.014  30.490  28.184  1.00  0.00     0.049 A 
ATOM     61  H   UNL A   1      45.066  28.614  27.985  1.00  0.00     0.167 HD
ATOM     62  C   UNL A   1      43.721  30.877  29.053  1.00  0.00     0.074 A 
ATOM     63  C   UNL A   1      42.683  31.706  29.630  1.00  0.00     0.031 C 
ATOM     64  C   UNL A   1      44.977  31.307  28.767  1.00  0.00     0.037 A 
BRANCH  51  65
ATOM     65  C   UNL A   1      48.669  26.911  26.436  1.00  0.00     0.064 A 
ATOM     66  C   UNL A   1      49.073  27.050  25.098  1.00  0.00     0.173 A 
ATOM     67  C   UNL A   1      49.596  26.371  27.341  1.00  0.00     0.173 A 
ATOM     68  F   UNL A   1      48.229  27.555  24.186  1.00  0.00    -0.203 F 
ATOM     69  C   UNL A   1      50.324  26.608  24.674  1.00  0.00     0.198 A 
ATOM     70  C   UNL A   1      50.863  25.972  26.922  1.00  0.00     0.198 A 
ATOM     71  F   UNL A   1      49.274  26.224  28.634  1.00  0.00    -0.203 F 
ATOM     72  F   UNL A   1      50.652  26.673  23.375  1.00  0.00    -0.200 F 
ATOM     73  C   UNL A   1      51.219  26.074  25.587  1.00  0.00     0.200 A 
ATOM     74  F   UNL A   1      51.735  25.475  27.811  1.00  0.00    -0.200 F 
ATOM     75  F   UNL A   1      52.422  25.644  25.178  1.00  0.00    -0.200 F 
ENDBRANCH  51  65
BRANCH  52  76
ATOM     76  C   UNL A   1      39.483  28.970  29.800  1.00  0.00     0.064 A 
ATOM     77  C   UNL A   1      39.107  28.724  31.128  1.00  0.00     0.173 A 
ATOM     78  C   UNL A   1      38.524  29.535  28.946  1.00  0.00     0.173 A 
ATOM     79  F   UNL A   1      39.983  28.168  31.980  1.00  0.00    -0.203 F 
ATOM     80  C   UNL A   1      37.822  29.015  31.580  1.00  0.00     0.198 A 
ATOM     81  C   UNL A   1      37.250  29.857  29.407  1.00  0.00     0.198 A 
ATOM     82  F   UNL A   1      38.835  29.797  27.668  1.00  0.00    -0.203 F 
ATOM     83  F   UNL A   1      37.478  28.729  32.842  1.00  0.00    -0.200 F 
ATOM     84  C   UNL A   1      36.898  29.588  30.721  1.00  0.00     0.200 A 
ATOM     85  F   UNL A   1      36.366  30.429  28.579  1.00  0.00    -0.200 F 
ATOM     86  F   UNL A   1      35.664  29.879  31.158  1.00  0.00    -0.200 F 
ENDBRANCH  52  76
BRANCH  64  87
ATOM     87  C   UNL A   1      45.283  32.754  29.041  1.00  0.00     0.064 A 
ATOM     88  C   UNL A   1      45.867  33.177  30.245  1.00  0.00     0.173 A 
ATOM     89  C   UNL A   1      44.995  33.734  28.078  1.00  0.00     0.173 A 
ATOM     90  F   UNL A   1      46.153  32.286  31.207  1.00  0.00    -0.203 F 
ATOM     91  C   UNL A   1      46.105  34.527  30.493  1.00  0.00     0.198 A 
ATOM     92  C   UNL A   1      45.275  35.077  28.311  1.00  0.00     0.198 A 
ATOM     93  F   UNL A   1      44.445  33.389  26.904  1.00  0.00    -0.203 F 
ATOM     94  F   UNL A   1      46.592  34.912  31.681  1.00  0.00    -0.200 F 
ATOM     95  C   UNL A   1      45.816  35.475  29.524  1.00  0.00     0.200 A 
ATOM     96  F   UNL A   1      45.014  35.989  27.364  1.00  0.00    -0.200 F 
ATOM     97  F   UNL A   1      46.048  36.773  29.763  1.00  0.00    -0.200 F 
ENDBRANCH  64  87
ENDBRANCH  38  39
ENDBRANCH  30  33
ENDBRANCH  28  29
ENDBRANCH  27  28
ENDBRANCH  26  27
ENDBRANCH  25  26
ENDBRANCH   1  25
TORSDOF 19
ENDMDL
