MODEL 1
REMARK VINA RESULT:     -11.7      0.000      0.000
REMARK SMILES CC[C@@](C)(Nc1c([N+](=O)[O-])c(C(C)C)nn1C)C(=O)NCCCCCCNC(=O)c1ccc(-c2c3nc(c(-c4c(F)c(F)c(F)c(F)c4F)c4ccc([nH]4)c(-c4c(F)c(F)c(F)c(F)c4F)c4nc(c(-c5c(F)c(F)c(F)c(F)c5F)c5ccc2[nH]5)C=C4)C=C3)cc1
REMARK SMILES IDX 23 1 22 2 21 3 20 4 18 5 19 6 3 8 4 9 2 10 1 11 5 12 6 14
REMARK SMILES IDX 7 15 16 16 11 17 15 18 17 19 8 20 9 21 10 22 12 23 13 24
REMARK SMILES IDX 14 25 24 26 25 27 26 28 27 29 28 30 29 32 30 33 31 34 92 35
REMARK SMILES IDX 32 36 91 37 33 38 34 39 35 40 85 41 36 42 90 43 84 44 86 45
REMARK SMILES IDX 37 46 89 47 83 48 82 49 38 51 70 52 50 53 69 54 51 55 54 56
REMARK SMILES IDX 68 57 87 58 52 59 53 60 67 62 88 63 55 64 39 65 40 66 48 67
REMARK SMILES IDX 41 68 42 69 46 70 49 71 43 72 44 73 47 74 45 75 71 76 72 77
REMARK SMILES IDX 80 78 73 79 74 80 78 81 81 82 75 83 76 84 79 85 77 86 56 87
REMARK SMILES IDX 57 88 65 89 58 90 59 91 63 92 66 93 60 94 61 95 64 96 62 97
REMARK H PARENT 20 7 5 13 27 31 86 50 54 61
REMARK Flexibility Score: inf
ROOT
ATOM      1  C   UNL A   1      32.600  29.960  26.959  1.00  0.00     0.002 C 
ENDROOT
BRANCH   1   2
ATOM      2  C   UNL A   1      32.092  28.635  27.534  1.00  0.00     0.021 C 
BRANCH   2   3
ATOM      3  C   UNL A   1      32.051  27.454  26.565  1.00  0.00     0.116 C 
BRANCH   3   4
ATOM      4  N   UNL A   1      30.954  26.532  26.786  1.00  0.00    -0.354 N 
ATOM      5  C   UNL A   1      30.047  25.950  25.952  1.00  0.00     0.245 C 
ATOM      6  O   UNL A   1      29.271  25.157  26.501  1.00  0.00    -0.272 OA
ATOM      7  H   UNL A   1      30.842  26.275  27.729  1.00  0.00     0.163 HD
BRANCH   5   8
ATOM      8  C   UNL A   1      29.976  26.229  24.422  1.00  0.00     0.115 C 
ATOM      9  C   UNL A   1      28.478  26.335  24.035  1.00  0.00     0.045 C 
BRANCH   8  10
ATOM     10  C   UNL A   1      30.662  27.563  23.988  1.00  0.00     0.035 C 
ATOM     11  C   UNL A   1      29.885  28.478  23.047  1.00  0.00     0.007 C 
ENDBRANCH   8  10
BRANCH   8  12
ATOM     12  N   UNL A   1      30.586  25.173  23.581  1.00  0.00    -0.351 N 
ATOM     13  H   UNL A   1      29.927  24.609  23.114  1.00  0.00     0.163 HD
BRANCH  12  14
ATOM     14  C   UNL A   1      31.890  24.827  23.325  1.00  0.00     0.205 A 
ATOM     15  C   UNL A   1      32.725  24.019  24.109  1.00  0.00     0.334 A 
ATOM     16  N   UNL A   1      32.721  25.209  22.286  1.00  0.00    -0.246 N 
ATOM     17  C   UNL A   1      34.049  24.262  23.652  1.00  0.00     0.145 A 
ATOM     18  N   UNL A   1      34.030  25.075  22.590  1.00  0.00    -0.169 NA
ATOM     19  C   UNL A   1      32.445  25.590  20.923  1.00  0.00     0.176 C 
BRANCH  15  20
ATOM     20  N   UNL A   1      32.299  23.173  25.190  1.00  0.00     0.068 N 
ATOM     21  O   UNL A   1      32.307  23.653  26.330  1.00  0.00    -0.258 OA
ATOM     22  O   UNL A   1      31.978  22.008  24.912  1.00  0.00    -0.258 OA
ENDBRANCH  15  20
BRANCH  17  23
ATOM     23  C   UNL A   1      35.378  23.794  24.194  1.00  0.00     0.041 C 
ATOM     24  C   UNL A   1      35.664  24.339  25.600  1.00  0.00     0.014 C 
ATOM     25  C   UNL A   1      35.465  22.264  24.204  1.00  0.00     0.014 C 
ENDBRANCH  17  23
ENDBRANCH  12  14
ENDBRANCH   8  12
ENDBRANCH   5   8
ENDBRANCH   3   4
ENDBRANCH   2   3
ENDBRANCH   1   2
BRANCH   1  26
ATOM     26  C   UNL A   1      31.596  30.736  26.107  1.00  0.00     0.002 C 
BRANCH  26  27
ATOM     27  C   UNL A   1      31.401  32.196  26.509  1.00  0.00     0.021 C 
BRANCH  27  28
ATOM     28  C   UNL A   1      32.578  32.816  27.252  1.00  0.00     0.116 C 
BRANCH  28  29
ATOM     29  N   UNL A   1      32.341  34.204  27.614  1.00  0.00    -0.352 N 
ATOM     30  C   UNL A   1      32.945  34.937  28.610  1.00  0.00     0.251 C 
ATOM     31  H   UNL A   1      31.663  34.679  27.081  1.00  0.00     0.163 HD
ATOM     32  O   UNL A   1      32.544  36.048  28.916  1.00  0.00    -0.269 OA
BRANCH  30  33
ATOM     33  C   UNL A   1      34.089  34.334  29.327  1.00  0.00     0.039 A 
ATOM     34  C   UNL A   1      33.843  33.516  30.431  1.00  0.00     0.014 A 
ATOM     35  C   UNL A   1      35.391  34.537  28.864  1.00  0.00     0.014 A 
ATOM     36  C   UNL A   1      34.907  32.849  31.039  1.00  0.00     0.010 A 
ATOM     37  C   UNL A   1      36.439  33.817  29.425  1.00  0.00     0.010 A 
ATOM     38  C   UNL A   1      36.207  32.970  30.521  1.00  0.00    -0.014 A 
BRANCH  38  39
ATOM     39  C   UNL A   1      37.345  32.228  31.120  1.00  0.00     0.031 A 
ATOM     40  C   UNL A   1      37.831  32.587  32.495  1.00  0.00     0.074 A 
ATOM     41  C   UNL A   1      37.978  31.282  30.402  1.00  0.00     0.049 A 
ATOM     42  N   UNL A   1      38.843  32.104  33.170  1.00  0.00    -0.248 NA
ATOM     43  C   UNL A   1      37.102  33.658  33.192  1.00  0.00     0.031 C 
ATOM     44  C   UNL A   1      37.633  30.884  29.036  1.00  0.00     0.029 A 
ATOM     45  N   UNL A   1      39.053  30.489  30.718  1.00  0.00    -0.354 N 
ATOM     46  C   UNL A   1      38.879  32.819  34.359  1.00  0.00     0.074 A 
ATOM     47  C   UNL A   1      37.828  33.810  34.289  1.00  0.00     0.031 C 
ATOM     48  C   UNL A   1      38.466  29.908  28.641  1.00  0.00     0.029 A 
ATOM     49  C   UNL A   1      39.422  29.634  29.708  1.00  0.00     0.049 A 
ATOM     50  H   UNL A   1      39.517  30.531  31.586  1.00  0.00     0.167 HD
ATOM     51  C   UNL A   1      39.698  32.647  35.423  1.00  0.00     0.037 A 
ATOM     52  C   UNL A   1      40.423  28.734  29.653  1.00  0.00     0.037 A 
ATOM     53  C   UNL A   1      40.725  31.642  35.496  1.00  0.00     0.049 A 
ATOM     54  C   UNL A   1      41.316  28.557  30.850  1.00  0.00     0.074 A 
ATOM     55  C   UNL A   1      41.566  31.341  36.553  1.00  0.00     0.029 A 
ATOM     56  N   UNL A   1      41.055  30.776  34.462  1.00  0.00    -0.354 N 
ATOM     57  N   UNL A   1      41.293  29.185  32.000  1.00  0.00    -0.248 NA
ATOM     58  C   UNL A   1      42.370  27.538  30.745  1.00  0.00     0.031 C 
ATOM     59  C   UNL A   1      42.435  30.324  36.143  1.00  0.00     0.029 A 
ATOM     60  C   UNL A   1      42.102  29.955  34.849  1.00  0.00     0.049 A 
ATOM     61  H   UNL A   1      40.610  30.750  33.584  1.00  0.00     0.167 HD
ATOM     62  C   UNL A   1      42.306  28.622  32.764  1.00  0.00     0.074 A 
ATOM     63  C   UNL A   1      42.916  27.592  31.951  1.00  0.00     0.031 C 
ATOM     64  C   UNL A   1      42.694  28.931  34.026  1.00  0.00     0.037 A 
BRANCH  51  65
ATOM     65  C   UNL A   1      39.509  33.568  36.595  1.00  0.00     0.064 A 
ATOM     66  C   UNL A   1      40.084  34.848  36.628  1.00  0.00     0.173 A 
ATOM     67  C   UNL A   1      38.729  33.173  37.693  1.00  0.00     0.173 A 
ATOM     68  F   UNL A   1      40.848  35.271  35.609  1.00  0.00    -0.203 F 
ATOM     69  C   UNL A   1      39.921  35.680  37.731  1.00  0.00     0.198 A 
ATOM     70  C   UNL A   1      38.540  34.022  38.780  1.00  0.00     0.198 A 
ATOM     71  F   UNL A   1      38.151  31.963  37.712  1.00  0.00    -0.203 F 
ATOM     72  F   UNL A   1      40.531  36.873  37.764  1.00  0.00    -0.200 F 
ATOM     73  C   UNL A   1      39.144  35.269  38.803  1.00  0.00     0.200 A 
ATOM     74  F   UNL A   1      37.778  33.629  39.810  1.00  0.00    -0.200 F 
ATOM     75  F   UNL A   1      38.985  36.073  39.864  1.00  0.00    -0.200 F 
ENDBRANCH  51  65
BRANCH  52  76
ATOM     76  C   UNL A   1      40.607  27.909  28.431  1.00  0.00     0.064 A 
ATOM     77  C   UNL A   1      41.360  28.384  27.349  1.00  0.00     0.173 A 
ATOM     78  C   UNL A   1      40.048  26.628  28.322  1.00  0.00     0.173 A 
ATOM     79  F   UNL A   1      41.900  29.611  27.397  1.00  0.00    -0.203 F 
ATOM     80  C   UNL A   1      41.533  27.617  26.199  1.00  0.00     0.198 A 
ATOM     81  C   UNL A   1      40.243  25.851  27.183  1.00  0.00     0.198 A 
ATOM     82  F   UNL A   1      39.323  26.123  29.332  1.00  0.00    -0.203 F 
ATOM     83  F   UNL A   1      42.225  28.112  25.164  1.00  0.00    -0.200 F 
ATOM     84  C   UNL A   1      40.980  26.348  26.119  1.00  0.00     0.200 A 
ATOM     85  F   UNL A   1      39.720  24.619  27.116  1.00  0.00    -0.200 F 
ATOM     86  F   UNL A   1      41.154  25.607  25.016  1.00  0.00    -0.200 F 
ENDBRANCH  52  76
BRANCH  64  87
ATOM     87  C   UNL A   1      43.812  28.123  34.619  1.00  0.00     0.064 A 
ATOM     88  C   UNL A   1      43.572  26.932  35.318  1.00  0.00     0.173 A 
ATOM     89  C   UNL A   1      45.146  28.526  34.445  1.00  0.00     0.173 A 
ATOM     90  F   UNL A   1      42.314  26.512  35.523  1.00  0.00    -0.203 F 
ATOM     91  C   UNL A   1      44.624  26.185  35.841  1.00  0.00     0.198 A 
ATOM     92  C   UNL A   1      46.197  27.760  34.943  1.00  0.00     0.198 A 
ATOM     93  F   UNL A   1      45.431  29.655  33.779  1.00  0.00    -0.203 F 
ATOM     94  F   UNL A   1      44.368  25.073  36.544  1.00  0.00    -0.200 F 
ATOM     95  C   UNL A   1      45.935  26.594  35.646  1.00  0.00     0.200 A 
ATOM     96  F   UNL A   1      47.462  28.151  34.742  1.00  0.00    -0.200 F 
ATOM     97  F   UNL A   1      46.946  25.868  36.143  1.00  0.00    -0.200 F 
ENDBRANCH  64  87
ENDBRANCH  38  39
ENDBRANCH  30  33
ENDBRANCH  28  29
ENDBRANCH  27  28
ENDBRANCH  26  27
ENDBRANCH   1  26
TORSDOF 18
ENDMDL
MODEL 2
REMARK VINA RESULT:     -11.5      1.328      7.368
REMARK SMILES CC[C@@](C)(Nc1c([N+](=O)[O-])c(C(C)C)nn1C)C(=O)NCCCCCCNC(=O)c1ccc(-c2c3nc(c(-c4c(F)c(F)c(F)c(F)c4F)c4ccc([nH]4)c(-c4c(F)c(F)c(F)c(F)c4F)c4nc(c(-c5c(F)c(F)c(F)c(F)c5F)c5ccc2[nH]5)C=C4)C=C3)cc1
REMARK SMILES IDX 23 1 22 2 21 3 20 4 18 5 19 6 3 8 4 9 2 10 1 11 5 12 6 14
REMARK SMILES IDX 7 15 16 16 11 17 15 18 17 19 8 20 9 21 10 22 12 23 13 24
REMARK SMILES IDX 14 25 24 26 25 27 26 28 27 29 28 30 29 32 30 33 31 34 92 35
REMARK SMILES IDX 32 36 91 37 33 38 34 39 35 40 85 41 36 42 90 43 84 44 86 45
REMARK SMILES IDX 37 46 89 47 83 48 82 49 38 51 70 52 50 53 69 54 51 55 54 56
REMARK SMILES IDX 68 57 87 58 52 59 53 60 67 62 88 63 55 64 39 65 40 66 48 67
REMARK SMILES IDX 41 68 42 69 46 70 49 71 43 72 44 73 47 74 45 75 71 76 72 77
REMARK SMILES IDX 80 78 73 79 74 80 78 81 81 82 75 83 76 84 79 85 77 86 56 87
REMARK SMILES IDX 57 88 65 89 58 90 59 91 63 92 66 93 60 94 61 95 64 96 62 97
REMARK H PARENT 20 7 5 13 27 31 86 50 54 61
REMARK Flexibility Score: inf
ROOT
ATOM      1  C   UNL A   1      33.397  30.295  26.471  1.00  0.00     0.002 C 
ENDROOT
BRANCH   1   2
ATOM      2  C   UNL A   1      33.769  28.904  26.989  1.00  0.00     0.021 C 
BRANCH   2   3
ATOM      3  C   UNL A   1      34.148  27.871  25.929  1.00  0.00     0.116 C 
BRANCH   3   4
ATOM      4  N   UNL A   1      33.474  28.040  24.657  1.00  0.00    -0.354 N 
ATOM      5  C   UNL A   1      32.345  27.494  24.123  1.00  0.00     0.245 C 
ATOM      6  O   UNL A   1      32.039  27.924  23.004  1.00  0.00    -0.272 OA
ATOM      7  H   UNL A   1      33.923  28.677  24.056  1.00  0.00     0.163 HD
BRANCH   5   8
ATOM      8  C   UNL A   1      31.479  26.422  24.847  1.00  0.00     0.115 C 
ATOM      9  C   UNL A   1      30.768  27.121  26.035  1.00  0.00     0.045 C 
BRANCH   8  10
ATOM     10  C   UNL A   1      30.368  25.792  23.949  1.00  0.00     0.035 C 
ATOM     11  C   UNL A   1      29.001  26.467  23.946  1.00  0.00     0.007 C 
ENDBRANCH   8  10
BRANCH   8  12
ATOM     12  N   UNL A   1      32.250  25.281  25.391  1.00  0.00    -0.351 N 
ATOM     13  H   UNL A   1      32.594  25.433  26.301  1.00  0.00     0.163 HD
BRANCH  12  14
ATOM     14  C   UNL A   1      32.580  24.052  24.874  1.00  0.00     0.205 A 
ATOM     15  C   UNL A   1      32.233  22.794  25.384  1.00  0.00     0.334 A 
ATOM     16  N   UNL A   1      33.360  23.732  23.776  1.00  0.00    -0.246 N 
ATOM     17  C   UNL A   1      33.098  21.861  24.751  1.00  0.00     0.145 A 
ATOM     18  N   UNL A   1      33.853  22.477  23.835  1.00  0.00    -0.169 NA
ATOM     19  C   UNL A   1      33.627  24.438  22.547  1.00  0.00     0.176 C 
BRANCH  15  20
ATOM     20  N   UNL A   1      31.236  22.542  26.389  1.00  0.00     0.068 N 
ATOM     21  O   UNL A   1      30.228  21.912  26.049  1.00  0.00    -0.258 OA
ATOM     22  O   UNL A   1      31.441  22.995  27.525  1.00  0.00    -0.258 OA
ENDBRANCH  15  20
BRANCH  17  23
ATOM     23  C   UNL A   1      33.297  20.383  24.991  1.00  0.00     0.041 C 
ATOM     24  C   UNL A   1      32.439  19.516  24.059  1.00  0.00     0.014 C 
ATOM     25  C   UNL A   1      34.771  19.991  24.849  1.00  0.00     0.014 C 
ENDBRANCH  17  23
ENDBRANCH  12  14
ENDBRANCH   8  12
ENDBRANCH   5   8
ENDBRANCH   3   4
ENDBRANCH   2   3
ENDBRANCH   1   2
BRANCH   1  26
ATOM     26  C   UNL A   1      31.913  30.651  26.543  1.00  0.00     0.002 C 
BRANCH  26  27
ATOM     27  C   UNL A   1      31.613  32.105  26.899  1.00  0.00     0.021 C 
BRANCH  27  28
ATOM     28  C   UNL A   1      32.820  32.908  27.368  1.00  0.00     0.116 C 
BRANCH  28  29
ATOM     29  N   UNL A   1      32.487  34.291  27.668  1.00  0.00    -0.352 N 
ATOM     30  C   UNL A   1      33.014  35.097  28.651  1.00  0.00     0.251 C 
ATOM     31  H   UNL A   1      31.799  34.703  27.097  1.00  0.00     0.163 HD
ATOM     32  O   UNL A   1      32.536  36.192  28.902  1.00  0.00    -0.269 OA
BRANCH  30  33
ATOM     33  C   UNL A   1      34.169  34.594  29.425  1.00  0.00     0.039 A 
ATOM     34  C   UNL A   1      33.946  33.993  30.665  1.00  0.00     0.014 A 
ATOM     35  C   UNL A   1      35.456  34.670  28.888  1.00  0.00     0.014 A 
ATOM     36  C   UNL A   1      35.016  33.410  31.345  1.00  0.00     0.010 A 
ATOM     37  C   UNL A   1      36.507  34.027  29.532  1.00  0.00     0.010 A 
ATOM     38  C   UNL A   1      36.298  33.395  30.769  1.00  0.00    -0.014 A 
BRANCH  38  39
ATOM     39  C   UNL A   1      37.438  32.735  31.450  1.00  0.00     0.031 A 
ATOM     40  C   UNL A   1      38.143  31.587  30.786  1.00  0.00     0.074 A 
ATOM     41  C   UNL A   1      37.794  33.124  32.690  1.00  0.00     0.049 A 
ATOM     42  N   UNL A   1      39.118  30.839  31.237  1.00  0.00    -0.248 NA
ATOM     43  C   UNL A   1      37.665  31.206  29.448  1.00  0.00     0.031 C 
ATOM     44  C   UNL A   1      37.149  34.189  33.458  1.00  0.00     0.029 A 
ATOM     45  N   UNL A   1      38.779  32.659  33.524  1.00  0.00    -0.354 N 
ATOM     46  C   UNL A   1      39.358  29.895  30.247  1.00  0.00     0.074 A 
ATOM     47  C   UNL A   1      38.387  30.124  29.200  1.00  0.00     0.031 C 
ATOM     48  C   UNL A   1      37.769  34.311  34.643  1.00  0.00     0.029 A 
ATOM     49  C   UNL A   1      38.831  33.314  34.731  1.00  0.00     0.049 A 
ATOM     50  H   UNL A   1      39.390  31.926  33.282  1.00  0.00     0.167 HD
ATOM     51  C   UNL A   1      40.317  28.941  30.205  1.00  0.00     0.037 A 
ATOM     52  C   UNL A   1      39.644  33.126  35.788  1.00  0.00     0.037 A 
ATOM     53  C   UNL A   1      41.295  28.735  31.240  1.00  0.00     0.049 A 
ATOM     54  C   UNL A   1      40.706  32.062  35.715  1.00  0.00     0.074 A 
ATOM     55  C   UNL A   1      42.350  27.840  31.266  1.00  0.00     0.029 A 
ATOM     56  N   UNL A   1      41.334  29.434  32.439  1.00  0.00    -0.354 N 
ATOM     57  N   UNL A   1      40.975  31.227  34.743  1.00  0.00    -0.248 NA
ATOM     58  C   UNL A   1      41.585  31.924  36.885  1.00  0.00     0.031 C 
ATOM     59  C   UNL A   1      42.998  27.964  32.500  1.00  0.00     0.029 A 
ATOM     60  C   UNL A   1      42.381  28.974  33.221  1.00  0.00     0.049 A 
ATOM     61  H   UNL A   1      40.708  30.150  32.695  1.00  0.00     0.167 HD
ATOM     62  C   UNL A   1      42.067  30.482  35.168  1.00  0.00     0.074 A 
ATOM     63  C   UNL A   1      42.420  30.976  36.483  1.00  0.00     0.031 C 
ATOM     64  C   UNL A   1      42.719  29.481  34.527  1.00  0.00     0.037 A 
BRANCH  51  65
ATOM     65  C   UNL A   1      40.352  28.051  28.995  1.00  0.00     0.064 A 
ATOM     66  C   UNL A   1      41.110  28.379  27.860  1.00  0.00     0.173 A 
ATOM     67  C   UNL A   1      39.632  26.847  28.975  1.00  0.00     0.173 A 
ATOM     68  F   UNL A   1      41.808  29.525  27.822  1.00  0.00    -0.203 F 
ATOM     69  C   UNL A   1      41.113  27.557  26.737  1.00  0.00     0.198 A 
ATOM     70  C   UNL A   1      39.665  26.011  27.863  1.00  0.00     0.198 A 
ATOM     71  F   UNL A   1      38.895  26.481  30.035  1.00  0.00    -0.203 F 
ATOM     72  F   UNL A   1      41.796  27.923  25.643  1.00  0.00    -0.200 F 
ATOM     73  C   UNL A   1      40.396  26.371  26.741  1.00  0.00     0.200 A 
ATOM     74  F   UNL A   1      38.981  24.858  27.873  1.00  0.00    -0.200 F 
ATOM     75  F   UNL A   1      40.402  25.579  25.660  1.00  0.00    -0.200 F 
ENDBRANCH  51  65
BRANCH  52  76
ATOM     76  C   UNL A   1      39.505  33.988  36.990  1.00  0.00     0.064 A 
ATOM     77  C   UNL A   1      40.125  35.244  37.049  1.00  0.00     0.173 A 
ATOM     78  C   UNL A   1      38.743  33.586  38.095  1.00  0.00     0.173 A 
ATOM     79  F   UNL A   1      40.880  35.666  36.025  1.00  0.00    -0.203 F 
ATOM     80  C   UNL A   1      40.003  36.056  38.175  1.00  0.00     0.198 A 
ATOM     81  C   UNL A   1      38.598  34.409  39.209  1.00  0.00     0.198 A 
ATOM     82  F   UNL A   1      38.124  32.396  38.087  1.00  0.00    -0.203 F 
ATOM     83  F   UNL A   1      40.638  37.234  38.221  1.00  0.00    -0.200 F 
ATOM     84  C   UNL A   1      39.233  35.641  39.252  1.00  0.00     0.200 A 
ATOM     85  F   UNL A   1      37.842  34.011  40.241  1.00  0.00    -0.200 F 
ATOM     86  F   UNL A   1      39.109  36.425  40.331  1.00  0.00    -0.200 F 
ENDBRANCH  52  76
BRANCH  64  87
ATOM     87  C   UNL A   1      43.901  28.873  35.224  1.00  0.00     0.064 A 
ATOM     88  C   UNL A   1      45.199  29.374  35.048  1.00  0.00     0.173 A 
ATOM     89  C   UNL A   1      43.724  27.803  36.115  1.00  0.00     0.173 A 
ATOM     90  F   UNL A   1      45.422  30.386  34.197  1.00  0.00    -0.203 F 
ATOM     91  C   UNL A   1      46.280  28.810  35.721  1.00  0.00     0.198 A 
ATOM     92  C   UNL A   1      44.803  27.262  36.809  1.00  0.00     0.198 A 
ATOM     93  F   UNL A   1      42.503  27.290  36.323  1.00  0.00    -0.203 F 
ATOM     94  F   UNL A   1      47.518  29.276  35.503  1.00  0.00    -0.200 F 
ATOM     95  C   UNL A   1      46.081  27.761  36.606  1.00  0.00     0.200 A 
ATOM     96  F   UNL A   1      44.606  26.257  37.674  1.00  0.00    -0.200 F 
ATOM     97  F   UNL A   1      47.122  27.227  37.260  1.00  0.00    -0.200 F 
ENDBRANCH  64  87
ENDBRANCH  38  39
ENDBRANCH  30  33
ENDBRANCH  28  29
ENDBRANCH  27  28
ENDBRANCH  26  27
ENDBRANCH   1  26
TORSDOF 18
ENDMDL
MODEL 3
REMARK VINA RESULT:     -11.3      1.725      3.076
REMARK SMILES CC[C@@](C)(Nc1c([N+](=O)[O-])c(C(C)C)nn1C)C(=O)NCCCCCCNC(=O)c1ccc(-c2c3nc(c(-c4c(F)c(F)c(F)c(F)c4F)c4ccc([nH]4)c(-c4c(F)c(F)c(F)c(F)c4F)c4nc(c(-c5c(F)c(F)c(F)c(F)c5F)c5ccc2[nH]5)C=C4)C=C3)cc1
REMARK SMILES IDX 23 1 22 2 21 3 20 4 18 5 19 6 3 8 4 9 2 10 1 11 5 12 6 14
REMARK SMILES IDX 7 15 16 16 11 17 15 18 17 19 8 20 9 21 10 22 12 23 13 24
REMARK SMILES IDX 14 25 24 26 25 27 26 28 27 29 28 30 29 32 30 33 31 34 92 35
REMARK SMILES IDX 32 36 91 37 33 38 34 39 35 40 85 41 36 42 90 43 84 44 86 45
REMARK SMILES IDX 37 46 89 47 83 48 82 49 38 51 70 52 50 53 69 54 51 55 54 56
REMARK SMILES IDX 68 57 87 58 52 59 53 60 67 62 88 63 55 64 39 65 40 66 48 67
REMARK SMILES IDX 41 68 42 69 46 70 49 71 43 72 44 73 47 74 45 75 71 76 72 77
REMARK SMILES IDX 80 78 73 79 74 80 78 81 81 82 75 83 76 84 79 85 77 86 56 87
REMARK SMILES IDX 57 88 65 89 58 90 59 91 63 92 66 93 60 94 61 95 64 96 62 97
REMARK H PARENT 20 7 5 13 27 31 86 50 54 61
REMARK Flexibility Score: inf
ROOT
ATOM      1  C   UNL A   1      34.731  32.228  28.145  1.00  0.00     0.002 C 
ENDROOT
BRANCH   1   2
ATOM      2  C   UNL A   1      33.406  31.635  27.662  1.00  0.00     0.021 C 
BRANCH   2   3
ATOM      3  C   UNL A   1      33.476  30.228  27.069  1.00  0.00     0.116 C 
BRANCH   3   4
ATOM      4  N   UNL A   1      32.490  29.304  27.594  1.00  0.00    -0.354 N 
ATOM      5  C   UNL A   1      31.798  28.269  27.040  1.00  0.00     0.245 C 
ATOM      6  O   UNL A   1      31.062  27.657  27.824  1.00  0.00    -0.272 OA
ATOM      7  H   UNL A   1      32.277  29.454  28.543  1.00  0.00     0.163 HD
BRANCH   5   8
ATOM      8  C   UNL A   1      31.914  27.856  25.543  1.00  0.00     0.115 C 
ATOM      9  C   UNL A   1      31.316  29.007  24.693  1.00  0.00     0.045 C 
BRANCH   8  10
ATOM     10  C   UNL A   1      33.382  27.637  25.057  1.00  0.00     0.035 C 
ATOM     11  C   UNL A   1      33.817  28.364  23.790  1.00  0.00     0.007 C 
ENDBRANCH   8  10
BRANCH   8  12
ATOM     12  N   UNL A   1      31.187  26.613  25.195  1.00  0.00    -0.351 N 
ATOM     13  H   UNL A   1      30.214  26.671  25.338  1.00  0.00     0.163 HD
BRANCH  12  14
ATOM     14  C   UNL A   1      31.604  25.397  24.713  1.00  0.00     0.205 A 
ATOM     15  C   UNL A   1      31.711  24.193  25.421  1.00  0.00     0.334 A 
ATOM     16  N   UNL A   1      32.064  25.053  23.453  1.00  0.00    -0.246 N 
ATOM     17  C   UNL A   1      32.525  23.341  24.627  1.00  0.00     0.145 A 
ATOM     18  N   UNL A   1      32.812  23.930  23.461  1.00  0.00    -0.169 NA
ATOM     19  C   UNL A   1      31.784  25.594  22.146  1.00  0.00     0.176 C 
BRANCH  15  20
ATOM     20  N   UNL A   1      31.147  23.928  26.717  1.00  0.00     0.068 N 
ATOM     21  O   UNL A   1      29.914  23.911  26.811  1.00  0.00    -0.258 OA
ATOM     22  O   UNL A   1      31.934  23.760  27.661  1.00  0.00    -0.258 OA
ENDBRANCH  15  20
BRANCH  17  23
ATOM     23  C   UNL A   1      33.104  21.977  24.922  1.00  0.00     0.041 C 
ATOM     24  C   UNL A   1      32.269  20.841  24.314  1.00  0.00     0.014 C 
ATOM     25  C   UNL A   1      34.553  21.873  24.433  1.00  0.00     0.014 C 
ENDBRANCH  17  23
ENDBRANCH  12  14
ENDBRANCH   8  12
ENDBRANCH   5   8
ENDBRANCH   3   4
ENDBRANCH   2   3
ENDBRANCH   1   2
BRANCH   1  26
ATOM     26  C   UNL A   1      34.613  33.386  29.135  1.00  0.00     0.002 C 
BRANCH  26  27
ATOM     27  C   UNL A   1      33.436  34.328  28.890  1.00  0.00     0.021 C 
BRANCH  27  28
ATOM     28  C   UNL A   1      33.623  35.737  29.436  1.00  0.00     0.116 C 
BRANCH  28  29
ATOM     29  N   UNL A   1      32.652  36.069  30.466  1.00  0.00    -0.352 N 
ATOM     30  C   UNL A   1      32.660  35.700  31.792  1.00  0.00     0.251 C 
ATOM     31  H   UNL A   1      31.893  36.628  30.180  1.00  0.00     0.163 HD
ATOM     32  O   UNL A   1      31.702  35.911  32.518  1.00  0.00    -0.269 OA
BRANCH  30  33
ATOM     33  C   UNL A   1      33.856  35.009  32.319  1.00  0.00     0.039 A 
ATOM     34  C   UNL A   1      33.730  33.706  32.803  1.00  0.00     0.014 A 
ATOM     35  C   UNL A   1      35.103  35.638  32.273  1.00  0.00     0.014 A 
ATOM     36  C   UNL A   1      34.874  33.007  33.190  1.00  0.00     0.010 A 
ATOM     37  C   UNL A   1      36.248  34.916  32.591  1.00  0.00     0.010 A 
ATOM     38  C   UNL A   1      36.143  33.595  33.057  1.00  0.00    -0.014 A 
BRANCH  38  39
ATOM     39  C   UNL A   1      37.376  32.850  33.413  1.00  0.00     0.031 A 
ATOM     40  C   UNL A   1      38.090  33.157  34.698  1.00  0.00     0.074 A 
ATOM     41  C   UNL A   1      37.886  31.950  32.552  1.00  0.00     0.049 A 
ATOM     42  N   UNL A   1      39.210  32.664  35.164  1.00  0.00    -0.248 NA
ATOM     43  C   UNL A   1      37.481  34.180  35.562  1.00  0.00     0.031 C 
ATOM     44  C   UNL A   1      37.313  31.607  31.250  1.00  0.00     0.029 A 
ATOM     45  N   UNL A   1      39.009  31.166  32.638  1.00  0.00    -0.354 N 
ATOM     46  C   UNL A   1      39.444  33.325  36.361  1.00  0.00     0.074 A 
ATOM     47  C   UNL A   1      38.386  34.298  36.522  1.00  0.00     0.031 C 
ATOM     48  C   UNL A   1      38.075  30.667  30.669  1.00  0.00     0.029 A 
ATOM     49  C   UNL A   1      39.207  30.365  31.540  1.00  0.00     0.049 A 
ATOM     50  H   UNL A   1      39.616  31.177  33.413  1.00  0.00     0.167 HD
ATOM     51  C   UNL A   1      40.438  33.122  37.258  1.00  0.00     0.037 A 
ATOM     52  C   UNL A   1      40.193  29.488  31.269  1.00  0.00     0.037 A 
ATOM     53  C   UNL A   1      41.475  32.136  37.103  1.00  0.00     0.049 A 
ATOM     54  C   UNL A   1      41.284  29.276  32.283  1.00  0.00     0.074 A 
ATOM     55  C   UNL A   1      42.490  31.804  37.982  1.00  0.00     0.029 A 
ATOM     56  N   UNL A   1      41.629  31.324  35.988  1.00  0.00    -0.354 N 
ATOM     57  N   UNL A   1      41.453  29.850  33.448  1.00  0.00    -0.248 NA
ATOM     58  C   UNL A   1      42.315  28.284  31.947  1.00  0.00     0.031 C 
ATOM     59  C   UNL A   1      43.287  30.825  37.379  1.00  0.00     0.029 A 
ATOM     60  C   UNL A   1      42.737  30.508  36.147  1.00  0.00     0.049 A 
ATOM     61  H   UNL A   1      41.039  31.329  35.200  1.00  0.00     0.167 HD
ATOM     62  C   UNL A   1      42.591  29.274  33.997  1.00  0.00     0.074 A 
ATOM     63  C   UNL A   1      43.062  28.294  33.042  1.00  0.00     0.031 C 
ATOM     64  C   UNL A   1      43.189  29.534  35.186  1.00  0.00     0.037 A 
BRANCH  51  65
ATOM     65  C   UNL A   1      40.445  33.986  38.487  1.00  0.00     0.064 A 
ATOM     66  C   UNL A   1      39.798  33.592  39.669  1.00  0.00     0.173 A 
ATOM     67  C   UNL A   1      41.121  35.215  38.490  1.00  0.00     0.173 A 
ATOM     68  F   UNL A   1      39.127  32.431  39.716  1.00  0.00    -0.203 F 
ATOM     69  C   UNL A   1      39.792  34.414  40.792  1.00  0.00     0.198 A 
ATOM     70  C   UNL A   1      41.142  36.019  39.627  1.00  0.00     0.198 A 
ATOM     71  F   UNL A   1      41.762  35.638  37.390  1.00  0.00    -0.203 F 
ATOM     72  F   UNL A   1      39.115  34.043  41.888  1.00  0.00    -0.200 F 
ATOM     73  C   UNL A   1      40.469  35.623  40.772  1.00  0.00     0.200 A 
ATOM     74  F   UNL A   1      41.808  37.182  39.611  1.00  0.00    -0.200 F 
ATOM     75  F   UNL A   1      40.465  36.412  41.856  1.00  0.00    -0.200 F 
ENDBRANCH  51  65
BRANCH  52  76
ATOM     76  C   UNL A   1      40.171  28.722  29.996  1.00  0.00     0.064 A 
ATOM     77  C   UNL A   1      39.525  27.481  29.914  1.00  0.00     0.173 A 
ATOM     78  C   UNL A   1      40.780  29.216  28.834  1.00  0.00     0.173 A 
ATOM     79  F   UNL A   1      38.943  26.957  31.003  1.00  0.00    -0.203 F 
ATOM     80  C   UNL A   1      39.504  26.756  28.725  1.00  0.00     0.198 A 
ATOM     81  C   UNL A   1      40.737  28.503  27.638  1.00  0.00     0.198 A 
ATOM     82  F   UNL A   1      41.407  30.402  28.857  1.00  0.00    -0.203 F 
ATOM     83  F   UNL A   1      38.914  25.554  28.686  1.00  0.00    -0.200 F 
ATOM     84  C   UNL A   1      40.104  27.271  27.586  1.00  0.00     0.200 A 
ATOM     85  F   UNL A   1      41.304  29.012  26.536  1.00  0.00    -0.200 F 
ATOM     86  F   UNL A   1      40.078  26.577  26.440  1.00  0.00    -0.200 F 
ENDBRANCH  52  76
BRANCH  64  87
ATOM     87  C   UNL A   1      44.404  28.723  35.536  1.00  0.00     0.064 A 
ATOM     88  C   UNL A   1      45.697  29.151  35.204  1.00  0.00     0.173 A 
ATOM     89  C   UNL A   1      44.271  27.524  36.254  1.00  0.00     0.173 A 
ATOM     90  F   UNL A   1      45.875  30.282  34.506  1.00  0.00    -0.203 F 
ATOM     91  C   UNL A   1      46.813  28.396  35.557  1.00  0.00     0.198 A 
ATOM     92  C   UNL A   1      45.391  26.788  36.632  1.00  0.00     0.198 A 
ATOM     93  F   UNL A   1      43.057  27.074  36.602  1.00  0.00    -0.203 F 
ATOM     94  F   UNL A   1      48.036  28.801  35.189  1.00  0.00    -0.200 F 
ATOM     95  C   UNL A   1      46.660  27.220  36.277  1.00  0.00     0.200 A 
ATOM     96  F   UNL A   1      45.241  25.660  37.339  1.00  0.00    -0.200 F 
ATOM     97  F   UNL A   1      47.735  26.501  36.624  1.00  0.00    -0.200 F 
ENDBRANCH  64  87
ENDBRANCH  38  39
ENDBRANCH  30  33
ENDBRANCH  28  29
ENDBRANCH  27  28
ENDBRANCH  26  27
ENDBRANCH   1  26
TORSDOF 18
ENDMDL
