MODEL 1
REMARK VINA RESULT:     -11.9      0.000      0.000
REMARK SMILES COc1cccc(/C=C(/CC(=O)NCCCCCCNC(=O)c2ccc(-c3c4nc(c(-c5c(F)c(F)c(F)c(F)c5F)c5ccc([nH]5)c(-c5c(F)c(F)c(F)c(F)c5F)c5nc(c(-c6c(F)c(F)c(F)c(F)c6F)c6ccc3[nH]6)C=C5)C=C4)cc2)c2nc3ccccc3o2)c1
REMARK SMILES IDX 16 1 15 2 14 3 13 4 11 5 12 6 10 8 9 9 8 10 7 11 3 12 4 13
REMARK SMILES IDX 95 14 5 15 6 16 2 17 1 18 86 19 87 20 94 21 88 22 93 23
REMARK SMILES IDX 89 24 92 25 90 26 91 27 17 28 18 29 19 30 20 31 21 32 22 34
REMARK SMILES IDX 23 35 24 36 85 37 25 38 84 39 26 40 27 41 28 42 78 43 29 44
REMARK SMILES IDX 83 45 77 46 79 47 30 48 82 49 76 50 75 51 31 53 63 54 43 55
REMARK SMILES IDX 62 56 44 57 47 58 61 59 80 60 45 61 46 62 60 64 81 65 48 66
REMARK SMILES IDX 32 67 33 68 41 69 34 70 35 71 39 72 42 73 36 74 37 75 40 76
REMARK SMILES IDX 38 77 64 78 65 79 73 80 66 81 67 82 71 83 74 84 68 85 69 86
REMARK SMILES IDX 72 87 70 88 49 89 50 90 58 91 51 92 52 93 56 94 59 95 53 96
REMARK SMILES IDX 54 97 57 98 55 99
REMARK H PARENT 13 7 20 33 79 52 47 63
REMARK Flexibility Score: inf
ROOT
ATOM      1  C   UNL A   1      31.776  26.988  26.553  1.00  0.00     0.002 C 
ENDROOT
BRANCH   1   2
ATOM      2  C   UNL A   1      30.683  27.000  25.475  1.00  0.00     0.021 C 
BRANCH   2   3
ATOM      3  C   UNL A   1      29.958  25.666  25.300  1.00  0.00     0.116 C 
BRANCH   3   4
ATOM      4  N   UNL A   1      30.107  24.804  26.453  1.00  0.00    -0.356 N 
ATOM      5  C   UNL A   1      30.416  23.476  26.512  1.00  0.00     0.224 C 
ATOM      6  O   UNL A   1      30.569  22.960  27.621  1.00  0.00    -0.275 OA
ATOM      7  H   UNL A   1      29.960  25.241  27.323  1.00  0.00     0.163 HD
BRANCH   5   8
ATOM      8  C   UNL A   1      30.657  22.683  25.226  1.00  0.00     0.141 C 
BRANCH   8   9
ATOM      9  C   UNL A   1      32.093  22.171  25.086  1.00  0.00     0.025 C 
ATOM     10  C   UNL A   1      33.092  23.089  25.130  1.00  0.00     0.018 C 
BRANCH  10  11
ATOM     11  C   UNL A   1      34.557  23.116  24.873  1.00  0.00    -0.021 A 
ATOM     12  C   UNL A   1      36.783  23.596  25.800  1.00  0.00     0.119 A 
ATOM     13  C   UNL A   1      37.360  23.333  24.563  1.00  0.00     0.046 A 
ATOM     14  C   UNL A   1      35.395  23.483  25.954  1.00  0.00     0.054 A 
ATOM     15  C   UNL A   1      36.560  22.951  23.493  1.00  0.00     0.004 A 
ATOM     16  C   UNL A   1      35.173  22.858  23.648  1.00  0.00     0.008 A 
BRANCH  12  17
ATOM     17  O   UNL A   1      37.655  24.031  26.760  1.00  0.00    -0.497 OA
ATOM     18  C   UNL A   1      39.005  24.193  26.347  1.00  0.00     0.278 C 
ENDBRANCH  12  17
ENDBRANCH  10  11
BRANCH   9  19
ATOM     19  C   UNL A   1      32.306  20.769  24.862  1.00  0.00     0.223 A 
ATOM     20  N   UNL A   1      32.318  19.860  25.829  1.00  0.00    -0.210 NA
ATOM     21  O   UNL A   1      32.653  20.219  23.636  1.00  0.00    -0.436 OA
ATOM     22  C   UNL A   1      32.660  18.682  25.229  1.00  0.00     0.110 A 
ATOM     23  C   UNL A   1      32.828  18.889  23.875  1.00  0.00     0.155 A 
ATOM     24  C   UNL A   1      32.846  17.399  25.754  1.00  0.00     0.032 A 
ATOM     25  C   UNL A   1      33.123  17.892  22.955  1.00  0.00     0.049 A 
ATOM     26  C   UNL A   1      33.157  16.362  24.862  1.00  0.00     0.003 A 
ATOM     27  C   UNL A   1      33.278  16.605  23.487  1.00  0.00     0.004 A 
ENDBRANCH   9  19
ENDBRANCH   8   9
ENDBRANCH   5   8
ENDBRANCH   3   4
ENDBRANCH   2   3
ENDBRANCH   1   2
BRANCH   1  28
ATOM     28  C   UNL A   1      33.201  26.754  26.041  1.00  0.00     0.002 C 
BRANCH  28  29
ATOM     29  C   UNL A   1      33.531  27.427  24.707  1.00  0.00     0.021 C 
BRANCH  29  30
ATOM     30  C   UNL A   1      34.216  28.782  24.837  1.00  0.00     0.116 C 
BRANCH  30  31
ATOM     31  N   UNL A   1      33.317  29.807  25.347  1.00  0.00    -0.352 N 
ATOM     32  C   UNL A   1      33.356  30.474  26.545  1.00  0.00     0.251 C 
ATOM     33  H   UNL A   1      32.578  30.057  24.748  1.00  0.00     0.163 HD
ATOM     34  O   UNL A   1      32.413  31.177  26.899  1.00  0.00    -0.269 OA
BRANCH  32  35
ATOM     35  C   UNL A   1      34.533  30.328  27.426  1.00  0.00     0.039 A 
ATOM     36  C   UNL A   1      34.721  29.129  28.119  1.00  0.00     0.014 A 
ATOM     37  C   UNL A   1      35.454  31.370  27.560  1.00  0.00     0.014 A 
ATOM     38  C   UNL A   1      35.867  28.955  28.899  1.00  0.00     0.010 A 
ATOM     39  C   UNL A   1      36.631  31.165  28.269  1.00  0.00     0.010 A 
ATOM     40  C   UNL A   1      36.848  29.958  28.953  1.00  0.00    -0.014 A 
BRANCH  40  41
ATOM     41  C   UNL A   1      38.099  29.781  29.733  1.00  0.00     0.031 A 
ATOM     42  C   UNL A   1      39.191  28.895  29.201  1.00  0.00     0.074 A 
ATOM     43  C   UNL A   1      38.223  30.353  30.946  1.00  0.00     0.049 A 
ATOM     44  N   UNL A   1      40.310  28.522  29.770  1.00  0.00    -0.248 NA
ATOM     45  C   UNL A   1      38.985  28.329  27.858  1.00  0.00     0.031 C 
ATOM     46  C   UNL A   1      37.223  31.207  31.587  1.00  0.00     0.029 A 
ATOM     47  N   UNL A   1      39.242  30.289  31.866  1.00  0.00    -0.354 N 
ATOM     48  C   UNL A   1      40.927  27.668  28.865  1.00  0.00     0.074 A 
ATOM     49  C   UNL A   1      40.034  27.530  27.736  1.00  0.00     0.031 C 
ATOM     50  C   UNL A   1      37.683  31.603  32.784  1.00  0.00     0.029 A 
ATOM     51  C   UNL A   1      38.989  30.993  33.017  1.00  0.00     0.049 A 
ATOM     52  H   UNL A   1      40.074  29.787  31.713  1.00  0.00     0.167 HD
ATOM     53  C   UNL A   1      42.139  27.073  28.956  1.00  0.00     0.037 A 
ATOM     54  C   UNL A   1      39.722  31.120  34.140  1.00  0.00     0.037 A 
ATOM     55  C   UNL A   1      43.033  27.228  30.075  1.00  0.00     0.049 A 
ATOM     56  C   UNL A   1      41.054  30.423  34.229  1.00  0.00     0.074 A 
ATOM     57  C   UNL A   1      44.302  26.703  30.245  1.00  0.00     0.029 A 
ATOM     58  N   UNL A   1      42.746  27.961  31.217  1.00  0.00    -0.354 N 
ATOM     59  N   UNL A   1      41.654  29.665  33.344  1.00  0.00    -0.248 NA
ATOM     60  C   UNL A   1      41.815  30.605  35.474  1.00  0.00     0.031 C 
ATOM     61  C   UNL A   1      44.761  27.072  31.512  1.00  0.00     0.029 A 
ATOM     62  C   UNL A   1      43.807  27.882  32.106  1.00  0.00     0.049 A 
ATOM     63  H   UNL A   1      41.914  28.462  31.374  1.00  0.00     0.167 HD
ATOM     64  C   UNL A   1      42.875  29.313  33.905  1.00  0.00     0.074 A 
ATOM     65  C   UNL A   1      42.934  29.949  35.205  1.00  0.00     0.031 C 
ATOM     66  C   UNL A   1      43.860  28.538  33.389  1.00  0.00     0.037 A 
BRANCH  53  67
ATOM     67  C   UNL A   1      42.572  26.195  27.815  1.00  0.00     0.064 A 
ATOM     68  C   UNL A   1      42.217  24.838  27.754  1.00  0.00     0.173 A 
ATOM     69  C   UNL A   1      43.321  26.725  26.753  1.00  0.00     0.173 A 
ATOM     70  F   UNL A   1      41.511  24.278  28.747  1.00  0.00    -0.203 F 
ATOM     71  C   UNL A   1      42.626  24.038  26.690  1.00  0.00     0.198 A 
ATOM     72  C   UNL A   1      43.697  25.929  25.673  1.00  0.00     0.198 A 
ATOM     73  F   UNL A   1      43.681  28.017  26.756  1.00  0.00    -0.203 F 
ATOM     74  F   UNL A   1      42.323  22.733  26.682  1.00  0.00    -0.200 F 
ATOM     75  C   UNL A   1      43.357  24.585  25.648  1.00  0.00     0.200 A 
ATOM     76  F   UNL A   1      44.389  26.464  24.659  1.00  0.00    -0.200 F 
ATOM     77  F   UNL A   1      43.742  23.815  24.620  1.00  0.00    -0.200 F 
ENDBRANCH  53  67
BRANCH  54  78
ATOM     78  C   UNL A   1      39.224  31.954  35.267  1.00  0.00     0.064 A 
ATOM     79  C   UNL A   1      38.460  31.388  36.298  1.00  0.00     0.173 A 
ATOM     80  C   UNL A   1      39.482  33.331  35.330  1.00  0.00     0.173 A 
ATOM     81  F   UNL A   1      38.167  30.080  36.273  1.00  0.00    -0.203 F 
ATOM     82  C   UNL A   1      37.950  32.171  37.331  1.00  0.00     0.198 A 
ATOM     83  C   UNL A   1      39.000  34.107  36.381  1.00  0.00     0.198 A 
ATOM     84  F   UNL A   1      40.212  33.923  34.372  1.00  0.00    -0.203 F 
ATOM     85  F   UNL A   1      37.176  31.614  38.272  1.00  0.00    -0.200 F 
ATOM     86  C   UNL A   1      38.225  33.529  37.375  1.00  0.00     0.200 A 
ATOM     87  F   UNL A   1      39.280  35.417  36.427  1.00  0.00    -0.200 F 
ATOM     88  F   UNL A   1      37.734  34.284  38.369  1.00  0.00    -0.200 F 
ENDBRANCH  54  78
BRANCH  66  89
ATOM     89  C   UNL A   1      45.114  28.377  34.199  1.00  0.00     0.064 A 
ATOM     90  C   UNL A   1      45.280  27.325  35.111  1.00  0.00     0.173 A 
ATOM     91  C   UNL A   1      46.188  29.265  34.019  1.00  0.00     0.173 A 
ATOM     92  F   UNL A   1      44.281  26.458  35.331  1.00  0.00    -0.203 F 
ATOM     93  C   UNL A   1      46.464  27.182  35.831  1.00  0.00     0.198 A 
ATOM     94  C   UNL A   1      47.381  29.099  34.715  1.00  0.00     0.198 A 
ATOM     95  F   UNL A   1      46.083  30.284  33.153  1.00  0.00    -0.203 F 
ATOM     96  F   UNL A   1      46.582  26.199  36.733  1.00  0.00    -0.200 F 
ATOM     97  C   UNL A   1      47.516  28.063  35.625  1.00  0.00     0.200 A 
ATOM     98  F   UNL A   1      48.403  29.940  34.500  1.00  0.00    -0.200 F 
ATOM     99  F   UNL A   1      48.659  27.916  36.309  1.00  0.00    -0.200 F 
ENDBRANCH  66  89
ENDBRANCH  40  41
ENDBRANCH  32  35
ENDBRANCH  30  31
ENDBRANCH  29  30
ENDBRANCH  28  29
ENDBRANCH   1  28
TORSDOF 17
ENDMDL
MODEL 2
REMARK VINA RESULT:     -11.7      2.836      7.849
REMARK SMILES COc1cccc(/C=C(/CC(=O)NCCCCCCNC(=O)c2ccc(-c3c4nc(c(-c5c(F)c(F)c(F)c(F)c5F)c5ccc([nH]5)c(-c5c(F)c(F)c(F)c(F)c5F)c5nc(c(-c6c(F)c(F)c(F)c(F)c6F)c6ccc3[nH]6)C=C5)C=C4)cc2)c2nc3ccccc3o2)c1
REMARK SMILES IDX 16 1 15 2 14 3 13 4 11 5 12 6 10 8 9 9 8 10 7 11 3 12 4 13
REMARK SMILES IDX 95 14 5 15 6 16 2 17 1 18 86 19 87 20 94 21 88 22 93 23
REMARK SMILES IDX 89 24 92 25 90 26 91 27 17 28 18 29 19 30 20 31 21 32 22 34
REMARK SMILES IDX 23 35 24 36 85 37 25 38 84 39 26 40 27 41 28 42 78 43 29 44
REMARK SMILES IDX 83 45 77 46 79 47 30 48 82 49 76 50 75 51 31 53 63 54 43 55
REMARK SMILES IDX 62 56 44 57 47 58 61 59 80 60 45 61 46 62 60 64 81 65 48 66
REMARK SMILES IDX 32 67 33 68 41 69 34 70 35 71 39 72 42 73 36 74 37 75 40 76
REMARK SMILES IDX 38 77 64 78 65 79 73 80 66 81 67 82 71 83 74 84 68 85 69 86
REMARK SMILES IDX 72 87 70 88 49 89 50 90 58 91 51 92 52 93 56 94 59 95 53 96
REMARK SMILES IDX 54 97 57 98 55 99
REMARK H PARENT 13 7 20 33 79 52 47 63
REMARK Flexibility Score: inf
ROOT
ATOM      1  C   UNL A   1      30.586  26.763  25.495  1.00  0.00     0.002 C 
ENDROOT
BRANCH   1   2
ATOM      2  C   UNL A   1      30.019  26.730  24.068  1.00  0.00     0.021 C 
BRANCH   2   3
ATOM      3  C   UNL A   1      30.495  25.544  23.230  1.00  0.00     0.116 C 
BRANCH   3   4
ATOM      4  N   UNL A   1      31.641  25.874  22.411  1.00  0.00    -0.356 N 
ATOM      5  C   UNL A   1      32.973  25.742  22.684  1.00  0.00     0.224 C 
ATOM      6  O   UNL A   1      33.781  26.017  21.795  1.00  0.00    -0.275 OA
ATOM      7  H   UNL A   1      31.429  26.252  21.527  1.00  0.00     0.163 HD
BRANCH   5   8
ATOM      8  C   UNL A   1      33.431  25.176  24.029  1.00  0.00     0.141 C 
BRANCH   8   9
ATOM      9  C   UNL A   1      33.762  23.682  23.981  1.00  0.00     0.025 C 
ATOM     10  C   UNL A   1      32.779  22.836  23.581  1.00  0.00     0.018 C 
BRANCH  10  11
ATOM     11  C   UNL A   1      32.558  21.366  23.542  1.00  0.00    -0.021 A 
ATOM     12  C   UNL A   1      32.466  19.280  24.841  1.00  0.00     0.119 A 
ATOM     13  C   UNL A   1      32.273  18.554  23.671  1.00  0.00     0.046 A 
ATOM     14  C   UNL A   1      32.602  20.673  24.777  1.00  0.00     0.054 A 
ATOM     15  C   UNL A   1      32.206  19.214  22.450  1.00  0.00     0.004 A 
ATOM     16  C   UNL A   1      32.361  20.603  22.390  1.00  0.00     0.008 A 
BRANCH  12  17
ATOM     17  O   UNL A   1      32.585  18.523  25.974  1.00  0.00    -0.497 OA
ATOM     18  C   UNL A   1      32.843  17.140  25.774  1.00  0.00     0.278 C 
ENDBRANCH  12  17
ENDBRANCH  10  11
BRANCH   9  19
ATOM     19  C   UNL A   1      35.062  23.250  24.409  1.00  0.00     0.223 A 
ATOM     20  N   UNL A   1      35.568  22.052  24.141  1.00  0.00    -0.210 NA
ATOM     21  O   UNL A   1      35.884  23.976  25.260  1.00  0.00    -0.436 OA
ATOM     22  C   UNL A   1      36.757  21.992  24.810  1.00  0.00     0.110 A 
ATOM     23  C   UNL A   1      36.975  23.186  25.466  1.00  0.00     0.155 A 
ATOM     24  C   UNL A   1      37.707  20.971  24.912  1.00  0.00     0.032 A 
ATOM     25  C   UNL A   1      38.116  23.488  26.198  1.00  0.00     0.049 A 
ATOM     26  C   UNL A   1      38.872  21.228  25.651  1.00  0.00     0.003 A 
ATOM     27  C   UNL A   1      39.076  22.469  26.268  1.00  0.00     0.004 A 
ENDBRANCH   9  19
ENDBRANCH   8   9
ENDBRANCH   5   8
ENDBRANCH   3   4
ENDBRANCH   2   3
ENDBRANCH   1   2
BRANCH   1  28
ATOM     28  C   UNL A   1      31.591  27.886  25.775  1.00  0.00     0.002 C 
BRANCH  28  29
ATOM     29  C   UNL A   1      32.396  27.729  27.067  1.00  0.00     0.021 C 
BRANCH  29  30
ATOM     30  C   UNL A   1      33.749  28.430  27.056  1.00  0.00     0.116 C 
BRANCH  30  31
ATOM     31  N   UNL A   1      33.645  29.834  27.422  1.00  0.00    -0.352 N 
ATOM     32  C   UNL A   1      34.536  30.618  28.112  1.00  0.00     0.251 C 
ATOM     33  H   UNL A   1      32.819  30.286  27.135  1.00  0.00     0.163 HD
ATOM     34  O   UNL A   1      34.212  31.738  28.500  1.00  0.00    -0.269 OA
BRANCH  32  35
ATOM     35  C   UNL A   1      35.889  30.101  28.406  1.00  0.00     0.039 A 
ATOM     36  C   UNL A   1      36.886  30.209  27.434  1.00  0.00     0.014 A 
ATOM     37  C   UNL A   1      36.172  29.519  29.644  1.00  0.00     0.014 A 
ATOM     38  C   UNL A   1      38.185  29.787  27.728  1.00  0.00     0.010 A 
ATOM     39  C   UNL A   1      37.481  29.176  29.963  1.00  0.00     0.010 A 
ATOM     40  C   UNL A   1      38.500  29.299  29.006  1.00  0.00    -0.014 A 
BRANCH  40  41
ATOM     41  C   UNL A   1      39.883  28.891  29.364  1.00  0.00     0.031 A 
ATOM     42  C   UNL A   1      40.744  29.810  30.184  1.00  0.00     0.074 A 
ATOM     43  C   UNL A   1      40.387  27.734  28.892  1.00  0.00     0.049 A 
ATOM     44  N   UNL A   1      42.007  29.694  30.511  1.00  0.00    -0.248 NA
ATOM     45  C   UNL A   1      40.108  31.042  30.678  1.00  0.00     0.031 C 
ATOM     46  C   UNL A   1      39.664  26.772  28.060  1.00  0.00     0.029 A 
ATOM     47  N   UNL A   1      41.635  27.178  29.033  1.00  0.00    -0.354 N 
ATOM     48  C   UNL A   1      42.316  30.840  31.232  1.00  0.00     0.074 A 
ATOM     49  C   UNL A   1      41.130  31.668  31.244  1.00  0.00     0.031 C 
ATOM     50  C   UNL A   1      40.472  25.737  27.780  1.00  0.00     0.029 A 
ATOM     51  C   UNL A   1      41.784  25.983  28.373  1.00  0.00     0.049 A 
ATOM     52  H   UNL A   1      42.354  27.596  29.559  1.00  0.00     0.167 HD
ATOM     53  C   UNL A   1      43.477  31.164  31.849  1.00  0.00     0.037 A 
ATOM     54  C   UNL A   1      42.861  25.185  28.247  1.00  0.00     0.037 A 
ATOM     55  C   UNL A   1      44.650  30.328  31.850  1.00  0.00     0.049 A 
ATOM     56  C   UNL A   1      44.150  25.581  28.917  1.00  0.00     0.074 A 
ATOM     57  C   UNL A   1      45.862  30.543  32.482  1.00  0.00     0.029 A 
ATOM     58  N   UNL A   1      44.758  29.118  31.180  1.00  0.00    -0.354 N 
ATOM     59  N   UNL A   1      44.415  26.639  29.645  1.00  0.00    -0.248 NA
ATOM     60  C   UNL A   1      45.290  24.667  28.754  1.00  0.00     0.031 C 
ATOM     61  C   UNL A   1      46.721  29.492  32.150  1.00  0.00     0.029 A 
ATOM     62  C   UNL A   1      46.024  28.587  31.366  1.00  0.00     0.049 A 
ATOM     63  H   UNL A   1      44.041  28.699  30.651  1.00  0.00     0.167 HD
ATOM     64  C   UNL A   1      45.734  26.499  30.058  1.00  0.00     0.074 A 
ATOM     65  C   UNL A   1      46.212  25.249  29.507  1.00  0.00     0.031 C 
ATOM     66  C   UNL A   1      46.479  27.330  30.827  1.00  0.00     0.037 A 
BRANCH  53  67
ATOM     67  C   UNL A   1      43.538  32.478  32.575  1.00  0.00     0.064 A 
ATOM     68  C   UNL A   1      43.197  32.587  33.932  1.00  0.00     0.173 A 
ATOM     69  C   UNL A   1      43.974  33.637  31.914  1.00  0.00     0.173 A 
ATOM     70  F   UNL A   1      42.764  31.512  34.608  1.00  0.00    -0.203 F 
ATOM     71  C   UNL A   1      43.258  33.812  34.591  1.00  0.00     0.198 A 
ATOM     72  C   UNL A   1      44.067  34.854  32.588  1.00  0.00     0.198 A 
ATOM     73  F   UNL A   1      44.319  33.590  30.619  1.00  0.00    -0.203 F 
ATOM     74  F   UNL A   1      42.874  33.900  35.872  1.00  0.00    -0.200 F 
ATOM     75  C   UNL A   1      43.700  34.941  33.922  1.00  0.00     0.200 A 
ATOM     76  F   UNL A   1      44.512  35.941  31.942  1.00  0.00    -0.200 F 
ATOM     77  F   UNL A   1      43.767  36.118  34.559  1.00  0.00    -0.200 F 
ENDBRANCH  53  67
BRANCH  54  78
ATOM     78  C   UNL A   1      42.767  23.920  27.468  1.00  0.00     0.064 A 
ATOM     79  C   UNL A   1      42.414  22.715  28.093  1.00  0.00     0.173 A 
ATOM     80  C   UNL A   1      43.046  23.883  26.095  1.00  0.00     0.173 A 
ATOM     81  F   UNL A   1      42.159  22.694  29.410  1.00  0.00    -0.203 F 
ATOM     82  C   UNL A   1      42.370  21.519  27.381  1.00  0.00     0.198 A 
ATOM     83  C   UNL A   1      42.969  22.691  25.376  1.00  0.00     0.198 A 
ATOM     84  F   UNL A   1      43.384  25.008  25.446  1.00  0.00    -0.203 F 
ATOM     85  F   UNL A   1      42.084  20.374  28.015  1.00  0.00    -0.200 F 
ATOM     86  C   UNL A   1      42.643  21.509  26.022  1.00  0.00     0.200 A 
ATOM     87  F   UNL A   1      43.219  22.689  24.059  1.00  0.00    -0.200 F 
ATOM     88  F   UNL A   1      42.601  20.358  25.335  1.00  0.00    -0.200 F 
ENDBRANCH  54  78
BRANCH  66  89
ATOM     89  C   UNL A   1      47.874  26.890  31.173  1.00  0.00     0.064 A 
ATOM     90  C   UNL A   1      48.134  26.008  32.231  1.00  0.00     0.173 A 
ATOM     91  C   UNL A   1      48.962  27.323  30.397  1.00  0.00     0.173 A 
ATOM     92  F   UNL A   1      47.133  25.576  33.012  1.00  0.00    -0.203 F 
ATOM     93  C   UNL A   1      49.433  25.594  32.515  1.00  0.00     0.198 A 
ATOM     94  C   UNL A   1      50.254  26.880  30.662  1.00  0.00     0.198 A 
ATOM     95  F   UNL A   1      48.766  28.162  29.368  1.00  0.00    -0.203 F 
ATOM     96  F   UNL A   1      49.664  24.790  33.562  1.00  0.00    -0.200 F 
ATOM     97  C   UNL A   1      50.490  26.023  31.725  1.00  0.00     0.200 A 
ATOM     98  F   UNL A   1      51.270  27.281  29.886  1.00  0.00    -0.200 F 
ATOM     99  F   UNL A   1      51.737  25.613  31.992  1.00  0.00    -0.200 F 
ENDBRANCH  66  89
ENDBRANCH  40  41
ENDBRANCH  32  35
ENDBRANCH  30  31
ENDBRANCH  29  30
ENDBRANCH  28  29
ENDBRANCH   1  28
TORSDOF 17
ENDMDL
MODEL 3
REMARK VINA RESULT:     -11.5      3.959      7.941
REMARK SMILES COc1cccc(/C=C(/CC(=O)NCCCCCCNC(=O)c2ccc(-c3c4nc(c(-c5c(F)c(F)c(F)c(F)c5F)c5ccc([nH]5)c(-c5c(F)c(F)c(F)c(F)c5F)c5nc(c(-c6c(F)c(F)c(F)c(F)c6F)c6ccc3[nH]6)C=C5)C=C4)cc2)c2nc3ccccc3o2)c1
REMARK SMILES IDX 16 1 15 2 14 3 13 4 11 5 12 6 10 8 9 9 8 10 7 11 3 12 4 13
REMARK SMILES IDX 95 14 5 15 6 16 2 17 1 18 86 19 87 20 94 21 88 22 93 23
REMARK SMILES IDX 89 24 92 25 90 26 91 27 17 28 18 29 19 30 20 31 21 32 22 34
REMARK SMILES IDX 23 35 24 36 85 37 25 38 84 39 26 40 27 41 28 42 78 43 29 44
REMARK SMILES IDX 83 45 77 46 79 47 30 48 82 49 76 50 75 51 31 53 63 54 43 55
REMARK SMILES IDX 62 56 44 57 47 58 61 59 80 60 45 61 46 62 60 64 81 65 48 66
REMARK SMILES IDX 32 67 33 68 41 69 34 70 35 71 39 72 42 73 36 74 37 75 40 76
REMARK SMILES IDX 38 77 64 78 65 79 73 80 66 81 67 82 71 83 74 84 68 85 69 86
REMARK SMILES IDX 72 87 70 88 49 89 50 90 58 91 51 92 52 93 56 94 59 95 53 96
REMARK SMILES IDX 54 97 57 98 55 99
REMARK H PARENT 13 7 20 33 79 52 47 63
REMARK Flexibility Score: inf
ROOT
ATOM      1  C   UNL A   1      34.303  22.646  24.146  1.00  0.00     0.002 C 
ENDROOT
BRANCH   1   2
ATOM      2  C   UNL A   1      33.594  23.620  25.098  1.00  0.00     0.021 C 
BRANCH   2   3
ATOM      3  C   UNL A   1      32.793  24.715  24.394  1.00  0.00     0.116 C 
BRANCH   3   4
ATOM      4  N   UNL A   1      32.672  24.479  22.971  1.00  0.00    -0.356 N 
ATOM      5  C   UNL A   1      32.868  25.337  21.927  1.00  0.00     0.224 C 
ATOM      6  O   UNL A   1      32.784  24.891  20.781  1.00  0.00    -0.275 OA
ATOM      7  H   UNL A   1      32.406  23.565  22.719  1.00  0.00     0.163 HD
BRANCH   5   8
ATOM      8  C   UNL A   1      33.273  26.788  22.189  1.00  0.00     0.141 C 
BRANCH   8   9
ATOM      9  C   UNL A   1      32.192  27.604  22.903  1.00  0.00     0.025 C 
ATOM     10  C   UNL A   1      30.932  27.548  22.400  1.00  0.00     0.018 C 
BRANCH  10  11
ATOM     11  C   UNL A   1      29.643  28.259  22.613  1.00  0.00    -0.021 A 
ATOM     12  C   UNL A   1      28.406  30.366  22.341  1.00  0.00     0.119 A 
ATOM     13  C   UNL A   1      27.319  29.821  23.016  1.00  0.00     0.046 A 
ATOM     14  C   UNL A   1      29.554  29.591  22.138  1.00  0.00     0.054 A 
ATOM     15  C   UNL A   1      27.376  28.510  23.473  1.00  0.00     0.004 A 
ATOM     16  C   UNL A   1      28.532  27.747  23.283  1.00  0.00     0.008 A 
BRANCH  12  17
ATOM     17  O   UNL A   1      28.267  31.684  21.999  1.00  0.00    -0.497 OA
ATOM     18  C   UNL A   1      28.234  31.964  20.606  1.00  0.00     0.278 C 
ENDBRANCH  12  17
ENDBRANCH  10  11
BRANCH   9  19
ATOM     19  C   UNL A   1      32.570  28.422  24.020  1.00  0.00     0.223 A 
ATOM     20  N   UNL A   1      33.690  28.251  24.714  1.00  0.00    -0.210 NA
ATOM     21  O   UNL A   1      31.758  29.393  24.587  1.00  0.00    -0.436 OA
ATOM     22  C   UNL A   1      33.624  29.140  25.749  1.00  0.00     0.110 A 
ATOM     23  C   UNL A   1      32.460  29.872  25.652  1.00  0.00     0.155 A 
ATOM     24  C   UNL A   1      34.507  29.393  26.804  1.00  0.00     0.032 A 
ATOM     25  C   UNL A   1      32.102  30.905  26.510  1.00  0.00     0.049 A 
ATOM     26  C   UNL A   1      34.181  30.420  27.702  1.00  0.00     0.003 A 
ATOM     27  C   UNL A   1      33.007  31.170  27.546  1.00  0.00     0.004 A 
ENDBRANCH   9  19
ENDBRANCH   8   9
ENDBRANCH   5   8
ENDBRANCH   3   4
ENDBRANCH   2   3
ENDBRANCH   1   2
BRANCH   1  28
ATOM     28  C   UNL A   1      35.356  23.276  23.227  1.00  0.00     0.002 C 
BRANCH  28  29
ATOM     29  C   UNL A   1      36.803  22.888  23.535  1.00  0.00     0.021 C 
BRANCH  29  30
ATOM     30  C   UNL A   1      37.331  23.423  24.861  1.00  0.00     0.116 C 
BRANCH  30  31
ATOM     31  N   UNL A   1      38.127  22.436  25.575  1.00  0.00    -0.352 N 
ATOM     32  C   UNL A   1      39.171  22.629  26.444  1.00  0.00     0.251 C 
ATOM     33  H   UNL A   1      37.881  21.497  25.412  1.00  0.00     0.163 HD
ATOM     34  O   UNL A   1      39.857  21.680  26.817  1.00  0.00    -0.269 OA
BRANCH  32  35
ATOM     35  C   UNL A   1      39.486  23.993  26.916  1.00  0.00     0.039 A 
ATOM     36  C   UNL A   1      39.132  24.362  28.216  1.00  0.00     0.014 A 
ATOM     37  C   UNL A   1      40.137  24.902  26.078  1.00  0.00     0.014 A 
ATOM     38  C   UNL A   1      39.487  25.625  28.697  1.00  0.00     0.010 A 
ATOM     39  C   UNL A   1      40.561  26.126  26.584  1.00  0.00     0.010 A 
ATOM     40  C   UNL A   1      40.234  26.504  27.895  1.00  0.00    -0.014 A 
BRANCH  40  41
ATOM     41  C   UNL A   1      40.670  27.833  28.396  1.00  0.00     0.031 A 
ATOM     42  C   UNL A   1      42.120  28.071  28.719  1.00  0.00     0.074 A 
ATOM     43  C   UNL A   1      39.759  28.796  28.630  1.00  0.00     0.049 A 
ATOM     44  N   UNL A   1      42.688  29.115  29.266  1.00  0.00    -0.248 NA
ATOM     45  C   UNL A   1      43.052  26.974  28.411  1.00  0.00     0.031 C 
ATOM     46  C   UNL A   1      38.320  28.678  28.390  1.00  0.00     0.029 A 
ATOM     47  N   UNL A   1      39.906  30.064  29.139  1.00  0.00    -0.354 N 
ATOM     48  C   UNL A   1      44.035  28.794  29.382  1.00  0.00     0.074 A 
ATOM     49  C   UNL A   1      44.190  27.438  28.905  1.00  0.00     0.031 C 
ATOM     50  C   UNL A   1      37.721  29.830  28.732  1.00  0.00     0.029 A 
ATOM     51  C   UNL A   1      38.723  30.750  29.260  1.00  0.00     0.049 A 
ATOM     52  H   UNL A   1      40.778  30.444  29.392  1.00  0.00     0.167 HD
ATOM     53  C   UNL A   1      45.054  29.568  29.823  1.00  0.00     0.037 A 
ATOM     54  C   UNL A   1      38.475  31.978  29.754  1.00  0.00     0.037 A 
ATOM     55  C   UNL A   1      44.897  30.925  30.280  1.00  0.00     0.049 A 
ATOM     56  C   UNL A   1      39.622  32.809  30.268  1.00  0.00     0.074 A 
ATOM     57  C   UNL A   1      45.872  31.810  30.706  1.00  0.00     0.029 A 
ATOM     58  N   UNL A   1      43.684  31.590  30.375  1.00  0.00    -0.354 N 
ATOM     59  N   UNL A   1      40.899  32.517  30.319  1.00  0.00    -0.248 NA
ATOM     60  C   UNL A   1      39.292  34.144  30.787  1.00  0.00     0.031 C 
ATOM     61  C   UNL A   1      45.244  32.991  31.110  1.00  0.00     0.029 A 
ATOM     62  C   UNL A   1      43.884  32.867  30.874  1.00  0.00     0.049 A 
ATOM     63  H   UNL A   1      42.810  31.212  30.125  1.00  0.00     0.167 HD
ATOM     64  C   UNL A   1      41.528  33.642  30.836  1.00  0.00     0.074 A 
ATOM     65  C   UNL A   1      40.493  34.626  31.074  1.00  0.00     0.031 C 
ATOM     66  C   UNL A   1      42.845  33.844  31.087  1.00  0.00     0.037 A 
BRANCH  53  67
ATOM     67  C   UNL A   1      46.431  28.966  29.835  1.00  0.00     0.064 A 
ATOM     68  C   UNL A   1      46.946  28.328  30.974  1.00  0.00     0.173 A 
ATOM     69  C   UNL A   1      47.233  28.999  28.683  1.00  0.00     0.173 A 
ATOM     70  F   UNL A   1      46.227  28.278  32.104  1.00  0.00    -0.203 F 
ATOM     71  C   UNL A   1      48.225  27.776  30.970  1.00  0.00     0.198 A 
ATOM     72  C   UNL A   1      48.497  28.413  28.673  1.00  0.00     0.198 A 
ATOM     73  F   UNL A   1      46.787  29.589  27.564  1.00  0.00    -0.203 F 
ATOM     74  F   UNL A   1      48.716  27.222  32.087  1.00  0.00    -0.200 F 
ATOM     75  C   UNL A   1      48.995  27.811  29.818  1.00  0.00     0.200 A 
ATOM     76  F   UNL A   1      49.232  28.433  27.553  1.00  0.00    -0.200 F 
ATOM     77  F   UNL A   1      50.221  27.271  29.813  1.00  0.00    -0.200 F 
ENDBRANCH  53  67
BRANCH  54  78
ATOM     78  C   UNL A   1      37.084  32.508  29.775  1.00  0.00     0.064 A 
ATOM     79  C   UNL A   1      36.582  33.250  28.696  1.00  0.00     0.173 A 
ATOM     80  C   UNL A   1      36.238  32.304  30.873  1.00  0.00     0.173 A 
ATOM     81  F   UNL A   1      37.359  33.491  27.630  1.00  0.00    -0.203 F 
ATOM     82  C   UNL A   1      35.297  33.790  28.727  1.00  0.00     0.198 A 
ATOM     83  C   UNL A   1      34.942  32.815  30.890  1.00  0.00     0.198 A 
ATOM     84  F   UNL A   1      36.667  31.597  31.931  1.00  0.00    -0.203 F 
ATOM     85  F   UNL A   1      34.864  34.541  27.707  1.00  0.00    -0.200 F 
ATOM     86  C   UNL A   1      34.477  33.567  29.822  1.00  0.00     0.200 A 
ATOM     87  F   UNL A   1      34.147  32.585  31.945  1.00  0.00    -0.200 F 
ATOM     88  F   UNL A   1      33.241  34.086  29.854  1.00  0.00    -0.200 F 
ENDBRANCH  54  78
BRANCH  66  89
ATOM     89  C   UNL A   1      43.257  35.197  31.592  1.00  0.00     0.064 A 
ATOM     90  C   UNL A   1      43.664  36.221  30.725  1.00  0.00     0.173 A 
ATOM     91  C   UNL A   1      43.191  35.487  32.965  1.00  0.00     0.173 A 
ATOM     92  F   UNL A   1      43.758  35.993  29.407  1.00  0.00    -0.203 F 
ATOM     93  C   UNL A   1      44.015  37.476  31.216  1.00  0.00     0.198 A 
ATOM     94  C   UNL A   1      43.509  36.752  33.447  1.00  0.00     0.198 A 
ATOM     95  F   UNL A   1      42.800  34.544  33.836  1.00  0.00    -0.203 F 
ATOM     96  F   UNL A   1      44.449  38.425  30.374  1.00  0.00    -0.200 F 
ATOM     97  C   UNL A   1      43.928  37.743  32.574  1.00  0.00     0.200 A 
ATOM     98  F   UNL A   1      43.406  37.013  34.758  1.00  0.00    -0.200 F 
ATOM     99  F   UNL A   1      44.254  38.956  33.043  1.00  0.00    -0.200 F 
ENDBRANCH  66  89
ENDBRANCH  40  41
ENDBRANCH  32  35
ENDBRANCH  30  31
ENDBRANCH  29  30
ENDBRANCH  28  29
ENDBRANCH   1  28
TORSDOF 17
ENDMDL
