MODEL 1
REMARK VINA RESULT:     -13.4      0.000      0.000
REMARK SMILES Cc1n[nH]c2c1[C@@]1(C(=O)N([C@@H](C)C(=O)NCCCCCCNC(=O)c3ccc(-c4c5nc(c(-c6c(F)c(F)c(F)c(F)c6F)c6ccc([nH]6)c(-c6c(F)c(F)c(F)c(F)c6F)c6nc(c(-c7c(F)c(F)c(F)c(F)c7F)c7ccc4[nH]7)C=C6)C=C5)cc3)c3ccccc31)C(C#N)=C(N)O2
REMARK SMILES IDX 18 1 17 2 16 3 15 4 13 5 14 6 11 8 12 9 10 10 1 11 2 12 3 13
REMARK SMILES IDX 6 14 4 15 5 16 7 17 99 19 8 20 93 21 94 22 97 23 9 24 88 25
REMARK SMILES IDX 92 26 89 27 91 28 90 29 95 30 96 31 98 32 19 35 20 36 21 37
REMARK SMILES IDX 22 38 23 39 24 41 25 42 26 43 87 44 27 45 86 46 28 47 29 48
REMARK SMILES IDX 30 49 80 50 31 51 85 52 79 53 81 54 32 55 84 56 78 57 77 58
REMARK SMILES IDX 33 60 65 61 45 62 64 63 46 64 49 65 63 66 82 67 47 68 48 69
REMARK SMILES IDX 62 71 83 72 50 73 34 74 35 75 43 76 36 77 37 78 41 79 44 80
REMARK SMILES IDX 38 81 39 82 42 83 40 84 66 85 67 86 75 87 68 88 69 89 73 90
REMARK SMILES IDX 76 91 70 92 71 93 74 94 72 95 51 96 52 97 60 98 53 99 54 100
REMARK SMILES IDX 58 101 61 102 55 103 56 104 59 105 57 106
REMARK H PARENT 15 7 4 18 98 33 98 34 22 40 81 59 49 70
REMARK Flexibility Score: inf
ROOT
ATOM      1  C   UNL A   1      40.089  22.020  26.552  1.00  0.00     0.002 C 
ENDROOT
BRANCH   1   2
ATOM      2  C   UNL A   1      38.891  21.484  25.777  1.00  0.00     0.021 C 
BRANCH   2   3
ATOM      3  C   UNL A   1      37.708  22.453  25.665  1.00  0.00     0.116 C 
BRANCH   3   4
ATOM      4  N   UNL A   1      36.473  21.739  25.385  1.00  0.00    -0.354 N 
ATOM      5  C   UNL A   1      35.177  21.946  25.737  1.00  0.00     0.242 C 
ATOM      6  O   UNL A   1      34.375  21.075  25.369  1.00  0.00    -0.273 OA
ATOM      7  H   UNL A   1      36.602  20.941  24.822  1.00  0.00     0.163 HD
BRANCH   5   8
ATOM      8  C   UNL A   1      34.650  23.143  26.569  1.00  0.00     0.176 C 
ATOM      9  C   UNL A   1      34.054  22.783  27.925  1.00  0.00     0.042 C 
BRANCH   8  10
ATOM     10  N   UNL A   1      33.858  24.091  25.788  1.00  0.00    -0.298 N 
ATOM     11  C   UNL A   1      33.169  22.968  22.249  1.00  0.00     0.069 C 
ATOM     12  C   UNL A   1      32.979  24.403  21.906  1.00  0.00     0.068 A 
ATOM     13  N   UNL A   1      32.873  24.766  20.617  1.00  0.00    -0.177 NA
ATOM     14  C   UNL A   1      32.996  25.536  22.763  1.00  0.00     0.063 A 
ATOM     15  N   UNL A   1      32.903  26.113  20.647  1.00  0.00    -0.246 N 
ATOM     16  C   UNL A   1      33.007  26.606  21.907  1.00  0.00     0.222 A 
ATOM     17  C   UNL A   1      33.228  25.757  24.221  1.00  0.00     0.149 C 
ATOM     18  H   UNL A   1      32.856  26.678  19.842  1.00  0.00     0.193 HD
ATOM     19  O   UNL A   1      33.198  27.884  22.203  1.00  0.00    -0.422 OA
ATOM     20  C   UNL A   1      34.336  24.799  24.683  1.00  0.00     0.248 C 
ATOM     21  C   UNL A   1      32.035  25.242  24.980  1.00  0.00     0.002 A 
ATOM     22  C   UNL A   1      33.569  27.223  24.511  1.00  0.00     0.114 C 
ATOM     23  C   UNL A   1      33.525  28.180  23.537  1.00  0.00     0.208 C 
ATOM     24  O   UNL A   1      35.387  24.623  24.097  1.00  0.00    -0.273 OA
ATOM     25  C   UNL A   1      32.469  24.301  25.929  1.00  0.00     0.050 A 
ATOM     26  C   UNL A   1      30.692  25.580  24.861  1.00  0.00     0.008 A 
ATOM     27  C   UNL A   1      31.566  23.680  26.772  1.00  0.00     0.027 A 
ATOM     28  C   UNL A   1      29.777  24.941  25.695  1.00  0.00     0.001 A 
ATOM     29  C   UNL A   1      30.210  24.000  26.643  1.00  0.00     0.002 A 
BRANCH  22  30
ATOM     30  C   UNL A   1      33.910  27.682  25.919  1.00  0.00     0.102 C 
ATOM     31  N   UNL A   1      34.193  28.063  27.087  1.00  0.00    -0.193 NA
ENDBRANCH  22  30
BRANCH  23  32
ATOM     32  N   UNL A   1      33.773  29.509  23.724  1.00  0.00    -0.369 N 
ATOM     33  H   UNL A   1      33.340  30.176  23.146  1.00  0.00     0.159 HD
ATOM     34  H   UNL A   1      34.386  29.799  24.437  1.00  0.00     0.159 HD
ENDBRANCH  23  32
ENDBRANCH   8  10
ENDBRANCH   5   8
ENDBRANCH   3   4
ENDBRANCH   2   3
ENDBRANCH   1   2
BRANCH   1  35
ATOM     35  C   UNL A   1      41.014  20.926  27.088  1.00  0.00     0.002 C 
BRANCH  35  36
ATOM     36  C   UNL A   1      41.257  19.746  26.138  1.00  0.00     0.021 C 
BRANCH  36  37
ATOM     37  C   UNL A   1      42.637  19.098  26.262  1.00  0.00     0.116 C 
BRANCH  37  38
ATOM     38  N   UNL A   1      43.506  19.342  25.128  1.00  0.00    -0.352 N 
ATOM     39  C   UNL A   1      44.241  20.408  24.688  1.00  0.00     0.251 C 
ATOM     40  H   UNL A   1      43.586  18.559  24.537  1.00  0.00     0.163 HD
ATOM     41  O   UNL A   1      44.949  20.215  23.697  1.00  0.00    -0.269 OA
BRANCH  39  42
ATOM     42  C   UNL A   1      44.178  21.781  25.259  1.00  0.00     0.039 A 
ATOM     43  C   UNL A   1      44.855  22.216  26.395  1.00  0.00     0.014 A 
ATOM     44  C   UNL A   1      43.298  22.678  24.620  1.00  0.00     0.014 A 
ATOM     45  C   UNL A   1      44.534  23.437  26.974  1.00  0.00     0.010 A 
ATOM     46  C   UNL A   1      43.008  23.923  25.168  1.00  0.00     0.010 A 
ATOM     47  C   UNL A   1      43.576  24.271  26.385  1.00  0.00    -0.014 A 
BRANCH  47  48
ATOM     48  C   UNL A   1      43.310  25.549  27.039  1.00  0.00     0.031 A 
ATOM     49  C   UNL A   1      44.326  26.596  26.741  1.00  0.00     0.074 A 
ATOM     50  C   UNL A   1      42.241  25.805  27.821  1.00  0.00     0.049 A 
ATOM     51  N   UNL A   1      45.167  27.134  27.564  1.00  0.00    -0.248 NA
ATOM     52  C   UNL A   1      44.536  26.978  25.336  1.00  0.00     0.031 C 
ATOM     53  C   UNL A   1      41.045  24.990  28.039  1.00  0.00     0.029 A 
ATOM     54  N   UNL A   1      41.986  26.918  28.568  1.00  0.00    -0.354 N 
ATOM     55  C   UNL A   1      45.913  28.041  26.817  1.00  0.00     0.074 A 
ATOM     56  C   UNL A   1      45.575  27.808  25.439  1.00  0.00     0.031 C 
ATOM     57  C   UNL A   1      40.108  25.726  28.683  1.00  0.00     0.029 A 
ATOM     58  C   UNL A   1      40.688  27.005  29.055  1.00  0.00     0.049 A 
ATOM     59  H   UNL A   1      42.669  27.604  28.748  1.00  0.00     0.167 HD
ATOM     60  C   UNL A   1      46.597  29.050  27.423  1.00  0.00     0.037 A 
ATOM     61  C   UNL A   1      40.131  28.067  29.693  1.00  0.00     0.037 A 
ATOM     62  C   UNL A   1      46.842  28.750  28.810  1.00  0.00     0.049 A 
ATOM     63  C   UNL A   1      41.239  28.888  30.237  1.00  0.00     0.074 A 
ATOM     64  C   UNL A   1      47.549  27.771  29.481  1.00  0.00     0.029 A 
ATOM     65  N   UNL A   1      46.024  29.324  29.751  1.00  0.00    -0.354 N 
ATOM     66  N   UNL A   1      42.006  28.507  31.218  1.00  0.00    -0.248 NA
ATOM     67  C   UNL A   1      41.776  29.941  29.388  1.00  0.00     0.031 C 
ATOM     68  C   UNL A   1      46.770  27.482  30.641  1.00  0.00     0.029 A 
ATOM     69  C   UNL A   1      45.672  28.344  30.639  1.00  0.00     0.049 A 
ATOM     70  H   UNL A   1      45.743  30.267  29.781  1.00  0.00     0.167 HD
ATOM     71  C   UNL A   1      43.271  28.940  30.857  1.00  0.00     0.074 A 
ATOM     72  C   UNL A   1      43.056  29.886  29.763  1.00  0.00     0.031 C 
ATOM     73  C   UNL A   1      44.386  28.283  31.286  1.00  0.00     0.037 A 
BRANCH  60  74
ATOM     74  C   UNL A   1      46.687  30.458  26.877  1.00  0.00     0.064 A 
ATOM     75  C   UNL A   1      47.926  31.131  26.928  1.00  0.00     0.173 A 
ATOM     76  C   UNL A   1      45.566  31.276  26.620  1.00  0.00     0.173 A 
ATOM     77  F   UNL A   1      49.062  30.459  27.166  1.00  0.00    -0.203 F 
ATOM     78  C   UNL A   1      48.016  32.523  26.844  1.00  0.00     0.198 A 
ATOM     79  C   UNL A   1      45.665  32.660  26.489  1.00  0.00     0.198 A 
ATOM     80  F   UNL A   1      44.318  30.796  26.595  1.00  0.00    -0.203 F 
ATOM     81  F   UNL A   1      49.196  33.126  27.043  1.00  0.00    -0.200 F 
ATOM     82  C   UNL A   1      46.883  33.287  26.638  1.00  0.00     0.200 A 
ATOM     83  F   UNL A   1      44.553  33.383  26.303  1.00  0.00    -0.200 F 
ATOM     84  F   UNL A   1      46.954  34.625  26.634  1.00  0.00    -0.200 F 
ENDBRANCH  60  74
BRANCH  61  85
ATOM     85  C   UNL A   1      38.744  28.589  29.609  1.00  0.00     0.064 A 
ATOM     86  C   UNL A   1      37.991  28.849  30.768  1.00  0.00     0.173 A 
ATOM     87  C   UNL A   1      38.249  29.133  28.409  1.00  0.00     0.173 A 
ATOM     88  F   UNL A   1      38.416  28.408  31.962  1.00  0.00    -0.203 F 
ATOM     89  C   UNL A   1      36.830  29.631  30.732  1.00  0.00     0.198 A 
ATOM     90  C   UNL A   1      37.089  29.911  28.374  1.00  0.00     0.198 A 
ATOM     91  F   UNL A   1      38.936  29.007  27.265  1.00  0.00    -0.203 F 
ATOM     92  F   UNL A   1      36.176  29.911  31.868  1.00  0.00    -0.200 F 
ATOM     93  C   UNL A   1      36.388  30.171  29.537  1.00  0.00     0.200 A 
ATOM     94  F   UNL A   1      36.695  30.463  27.219  1.00  0.00    -0.200 F 
ATOM     95  F   UNL A   1      35.316  30.977  29.511  1.00  0.00    -0.200 F 
ENDBRANCH  61  85
BRANCH  73  96
ATOM     96  C   UNL A   1      44.221  27.239  32.354  1.00  0.00     0.064 A 
ATOM     97  C   UNL A   1      44.089  25.863  32.093  1.00  0.00     0.173 A 
ATOM     98  C   UNL A   1      44.383  27.632  33.689  1.00  0.00     0.173 A 
ATOM     99  F   UNL A   1      44.019  25.402  30.838  1.00  0.00    -0.203 F 
ATOM    100  C   UNL A   1      44.095  24.930  33.129  1.00  0.00     0.198 A 
ATOM    101  C   UNL A   1      44.425  26.696  34.717  1.00  0.00     0.198 A 
ATOM    102  F   UNL A   1      44.564  28.928  33.991  1.00  0.00    -0.203 F 
ATOM    103  F   UNL A   1      43.972  23.623  32.857  1.00  0.00    -0.200 F 
ATOM    104  C   UNL A   1      44.276  25.347  34.438  1.00  0.00     0.200 A 
ATOM    105  F   UNL A   1      44.650  27.099  35.975  1.00  0.00    -0.200 F 
ATOM    106  F   UNL A   1      44.339  24.445  35.429  1.00  0.00    -0.200 F 
ENDBRANCH  73  96
ENDBRANCH  47  48
ENDBRANCH  39  42
ENDBRANCH  37  38
ENDBRANCH  36  37
ENDBRANCH  35  36
ENDBRANCH   1  35
TORSDOF 16
ENDMDL
MODEL 2
REMARK VINA RESULT:     -12.7      2.579      3.726
REMARK SMILES Cc1n[nH]c2c1[C@@]1(C(=O)N([C@@H](C)C(=O)NCCCCCCNC(=O)c3ccc(-c4c5nc(c(-c6c(F)c(F)c(F)c(F)c6F)c6ccc([nH]6)c(-c6c(F)c(F)c(F)c(F)c6F)c6nc(c(-c7c(F)c(F)c(F)c(F)c7F)c7ccc4[nH]7)C=C6)C=C5)cc3)c3ccccc31)C(C#N)=C(N)O2
REMARK SMILES IDX 18 1 17 2 16 3 15 4 13 5 14 6 11 8 12 9 10 10 1 11 2 12 3 13
REMARK SMILES IDX 6 14 4 15 5 16 7 17 99 19 8 20 93 21 94 22 97 23 9 24 88 25
REMARK SMILES IDX 92 26 89 27 91 28 90 29 95 30 96 31 98 32 19 35 20 36 21 37
REMARK SMILES IDX 22 38 23 39 24 41 25 42 26 43 87 44 27 45 86 46 28 47 29 48
REMARK SMILES IDX 30 49 80 50 31 51 85 52 79 53 81 54 32 55 84 56 78 57 77 58
REMARK SMILES IDX 33 60 65 61 45 62 64 63 46 64 49 65 63 66 82 67 47 68 48 69
REMARK SMILES IDX 62 71 83 72 50 73 34 74 35 75 43 76 36 77 37 78 41 79 44 80
REMARK SMILES IDX 38 81 39 82 42 83 40 84 66 85 67 86 75 87 68 88 69 89 73 90
REMARK SMILES IDX 76 91 70 92 71 93 74 94 72 95 51 96 52 97 60 98 53 99 54 100
REMARK SMILES IDX 58 101 61 102 55 103 56 104 59 105 57 106
REMARK H PARENT 15 7 4 18 98 33 98 34 22 40 81 59 49 70
REMARK Flexibility Score: inf
ROOT
ATOM      1  C   UNL A   1      36.036  23.259  26.043  1.00  0.00     0.002 C 
ENDROOT
BRANCH   1   2
ATOM      2  C   UNL A   1      35.215  21.994  25.819  1.00  0.00     0.021 C 
BRANCH   2   3
ATOM      3  C   UNL A   1      33.781  22.232  25.333  1.00  0.00     0.116 C 
BRANCH   3   4
ATOM      4  N   UNL A   1      32.936  22.714  26.413  1.00  0.00    -0.354 N 
ATOM      5  C   UNL A   1      31.779  23.426  26.445  1.00  0.00     0.242 C 
ATOM      6  O   UNL A   1      31.365  23.727  27.573  1.00  0.00    -0.273 OA
ATOM      7  H   UNL A   1      33.271  22.473  27.307  1.00  0.00     0.163 HD
BRANCH   5   8
ATOM      8  C   UNL A   1      30.981  23.900  25.205  1.00  0.00     0.176 C 
ATOM      9  C   UNL A   1      31.040  22.972  23.996  1.00  0.00     0.042 C 
BRANCH   8  10
ATOM     10  N   UNL A   1      31.172  25.315  24.894  1.00  0.00    -0.298 N 
ATOM     11  C   UNL A   1      33.001  25.942  21.650  1.00  0.00     0.069 C 
ATOM     12  C   UNL A   1      33.384  27.269  22.204  1.00  0.00     0.068 A 
ATOM     13  N   UNL A   1      34.293  28.017  21.558  1.00  0.00    -0.177 NA
ATOM     14  C   UNL A   1      33.001  27.867  23.434  1.00  0.00     0.063 A 
ATOM     15  N   UNL A   1      34.545  29.037  22.403  1.00  0.00    -0.246 N 
ATOM     16  C   UNL A   1      33.815  28.963  23.544  1.00  0.00     0.222 A 
ATOM     17  C   UNL A   1      32.166  27.450  24.600  1.00  0.00     0.149 C 
ATOM     18  H   UNL A   1      35.189  29.757  22.212  1.00  0.00     0.193 HD
ATOM     19  O   UNL A   1      33.974  29.758  24.593  1.00  0.00    -0.422 OA
ATOM     20  C   UNL A   1      32.413  25.955  24.859  1.00  0.00     0.248 C 
ATOM     21  C   UNL A   1      30.720  27.459  24.183  1.00  0.00     0.002 A 
ATOM     22  C   UNL A   1      32.468  28.311  25.832  1.00  0.00     0.114 C 
ATOM     23  C   UNL A   1      33.307  29.386  25.773  1.00  0.00     0.208 C 
ATOM     24  O   UNL A   1      33.511  25.433  24.899  1.00  0.00    -0.273 OA
ATOM     25  C   UNL A   1      30.167  26.190  24.428  1.00  0.00     0.050 A 
ATOM     26  C   UNL A   1      29.955  28.490  23.652  1.00  0.00     0.008 A 
ATOM     27  C   UNL A   1      28.839  25.932  24.142  1.00  0.00     0.027 A 
ATOM     28  C   UNL A   1      28.621  28.227  23.344  1.00  0.00     0.001 A 
ATOM     29  C   UNL A   1      28.068  26.960  23.589  1.00  0.00     0.002 A 
BRANCH  22  30
ATOM     30  C   UNL A   1      31.788  28.034  27.163  1.00  0.00     0.102 C 
ATOM     31  N   UNL A   1      31.224  27.805  28.267  1.00  0.00    -0.193 NA
ENDBRANCH  22  30
BRANCH  23  32
ATOM     32  N   UNL A   1      33.592  30.224  26.812  1.00  0.00    -0.369 N 
ATOM     33  H   UNL A   1      33.015  30.232  27.609  1.00  0.00     0.159 HD
ATOM     34  H   UNL A   1      34.373  30.820  26.763  1.00  0.00     0.159 HD
ENDBRANCH  23  32
ENDBRANCH   8  10
ENDBRANCH   5   8
ENDBRANCH   3   4
ENDBRANCH   2   3
ENDBRANCH   1   2
BRANCH   1  35
ATOM     35  C   UNL A   1      37.404  23.233  25.360  1.00  0.00     0.002 C 
BRANCH  35  36
ATOM     36  C   UNL A   1      38.120  21.876  25.371  1.00  0.00     0.021 C 
BRANCH  36  37
ATOM     37  C   UNL A   1      39.222  21.743  26.423  1.00  0.00     0.116 C 
BRANCH  37  38
ATOM     38  N   UNL A   1      40.550  22.041  25.924  1.00  0.00    -0.352 N 
ATOM     39  C   UNL A   1      41.439  23.064  26.103  1.00  0.00     0.251 C 
ATOM     40  H   UNL A   1      40.891  21.347  25.317  1.00  0.00     0.163 HD
ATOM     41  O   UNL A   1      42.543  22.932  25.569  1.00  0.00    -0.269 OA
BRANCH  39  42
ATOM     42  C   UNL A   1      41.142  24.340  26.810  1.00  0.00     0.039 A 
ATOM     43  C   UNL A   1      40.143  25.245  26.460  1.00  0.00     0.014 A 
ATOM     44  C   UNL A   1      42.002  24.673  27.876  1.00  0.00     0.014 A 
ATOM     45  C   UNL A   1      40.115  26.509  27.034  1.00  0.00     0.010 A 
ATOM     46  C   UNL A   1      41.948  25.920  28.489  1.00  0.00     0.010 A 
ATOM     47  C   UNL A   1      41.046  26.863  28.017  1.00  0.00    -0.014 A 
BRANCH  47  48
ATOM     48  C   UNL A   1      40.938  28.202  28.590  1.00  0.00     0.031 A 
ATOM     49  C   UNL A   1      42.061  29.105  28.213  1.00  0.00     0.074 A 
ATOM     50  C   UNL A   1      39.921  28.625  29.368  1.00  0.00     0.049 A 
ATOM     51  N   UNL A   1      42.973  29.594  28.989  1.00  0.00    -0.248 NA
ATOM     52  C   UNL A   1      42.285  29.371  26.784  1.00  0.00     0.031 C 
ATOM     53  C   UNL A   1      38.645  27.968  29.652  1.00  0.00     0.029 A 
ATOM     54  N   UNL A   1      39.808  29.805  30.045  1.00  0.00    -0.354 N 
ATOM     55  C   UNL A   1      43.802  30.362  28.176  1.00  0.00     0.074 A 
ATOM     56  C   UNL A   1      43.412  30.083  26.820  1.00  0.00     0.031 C 
ATOM     57  C   UNL A   1      37.810  28.845  30.259  1.00  0.00     0.029 A 
ATOM     58  C   UNL A   1      38.538  30.070  30.541  1.00  0.00     0.049 A 
ATOM     59  H   UNL A   1      40.567  30.419  30.171  1.00  0.00     0.167 HD
ATOM     60  C   UNL A   1      44.607  31.322  28.707  1.00  0.00     0.037 A 
ATOM     61  C   UNL A   1      38.117  31.226  31.116  1.00  0.00     0.037 A 
ATOM     62  C   UNL A   1      44.844  31.084  30.108  1.00  0.00     0.049 A 
ATOM     63  C   UNL A   1      39.321  31.948  31.592  1.00  0.00     0.074 A 
ATOM     64  C   UNL A   1      45.448  30.074  30.832  1.00  0.00     0.029 A 
ATOM     65  N   UNL A   1      44.115  31.805  31.019  1.00  0.00    -0.354 N 
ATOM     66  N   UNL A   1      40.059  31.544  32.586  1.00  0.00    -0.248 NA
ATOM     67  C   UNL A   1      39.957  32.878  30.671  1.00  0.00     0.031 C 
ATOM     68  C   UNL A   1      44.664  29.949  32.017  1.00  0.00     0.029 A 
ATOM     69  C   UNL A   1      43.671  30.928  31.973  1.00  0.00     0.049 A 
ATOM     70  H   UNL A   1      43.942  32.774  30.992  1.00  0.00     0.167 HD
ATOM     71  C   UNL A   1      41.358  31.807  32.182  1.00  0.00     0.074 A 
ATOM     72  C   UNL A   1      41.229  32.701  31.032  1.00  0.00     0.031 C 
ATOM     73  C   UNL A   1      42.399  31.055  32.639  1.00  0.00     0.037 A 
BRANCH  60  74
ATOM     74  C   UNL A   1      44.845  32.674  28.071  1.00  0.00     0.064 A 
ATOM     75  C   UNL A   1      46.137  32.988  27.600  1.00  0.00     0.173 A 
ATOM     76  C   UNL A   1      43.967  33.771  28.202  1.00  0.00     0.173 A 
ATOM     77  F   UNL A   1      47.059  32.028  27.436  1.00  0.00    -0.203 F 
ATOM     78  C   UNL A   1      46.548  34.307  27.392  1.00  0.00     0.198 A 
ATOM     79  C   UNL A   1      44.365  35.082  27.946  1.00  0.00     0.198 A 
ATOM     80  F   UNL A   1      42.726  33.644  28.685  1.00  0.00    -0.203 F 
ATOM     81  F   UNL A   1      47.827  34.564  27.086  1.00  0.00    -0.200 F 
ATOM     82  C   UNL A   1      45.665  35.354  27.578  1.00  0.00     0.200 A 
ATOM     83  F   UNL A   1      43.498  36.083  28.146  1.00  0.00    -0.200 F 
ATOM     84  F   UNL A   1      46.076  36.623  27.453  1.00  0.00    -0.200 F 
ENDBRANCH  60  74
BRANCH  61  85
ATOM     85  C   UNL A   1      36.797  31.897  31.015  1.00  0.00     0.064 A 
ATOM     86  C   UNL A   1      35.991  32.095  32.151  1.00  0.00     0.173 A 
ATOM     87  C   UNL A   1      36.443  32.627  29.866  1.00  0.00     0.173 A 
ATOM     88  F   UNL A   1      36.285  31.475  33.304  1.00  0.00    -0.203 F 
ATOM     89  C   UNL A   1      34.917  32.993  32.144  1.00  0.00     0.198 A 
ATOM     90  C   UNL A   1      35.369  33.520  29.859  1.00  0.00     0.198 A 
ATOM     91  F   UNL A   1      37.195  32.564  28.757  1.00  0.00    -0.203 F 
ATOM     92  F   UNL A   1      34.213  33.204  33.265  1.00  0.00    -0.200 F 
ATOM     93  C   UNL A   1      34.615  33.713  31.001  1.00  0.00     0.200 A 
ATOM     94  F   UNL A   1      35.114  34.242  28.760  1.00  0.00    -0.200 F 
ATOM     95  F   UNL A   1      33.631  34.623  31.013  1.00  0.00    -0.200 F 
ENDBRANCH  61  85
BRANCH  73  96
ATOM     96  C   UNL A   1      42.139  30.106  33.774  1.00  0.00     0.064 A 
ATOM     97  C   UNL A   1      41.693  28.783  33.604  1.00  0.00     0.173 A 
ATOM     98  C   UNL A   1      42.527  30.497  35.062  1.00  0.00     0.173 A 
ATOM     99  F   UNL A   1      41.388  28.308  32.390  1.00  0.00    -0.203 F 
ATOM    100  C   UNL A   1      41.617  27.904  34.683  1.00  0.00     0.198 A 
ATOM    101  C   UNL A   1      42.486  29.607  36.130  1.00  0.00     0.198 A 
ATOM    102  F   UNL A   1      43.009  31.733  35.272  1.00  0.00    -0.203 F 
ATOM    103  F   UNL A   1      41.193  26.646  34.498  1.00  0.00    -0.200 F 
ATOM    104  C   UNL A   1      42.027  28.314  35.943  1.00  0.00     0.200 A 
ATOM    105  F   UNL A   1      42.929  29.993  37.335  1.00  0.00    -0.200 F 
ATOM    106  F   UNL A   1      42.009  27.452  36.970  1.00  0.00    -0.200 F 
ENDBRANCH  73  96
ENDBRANCH  47  48
ENDBRANCH  39  42
ENDBRANCH  37  38
ENDBRANCH  36  37
ENDBRANCH  35  36
ENDBRANCH   1  35
TORSDOF 16
ENDMDL
MODEL 3
REMARK VINA RESULT:     -12.6      2.651      8.586
REMARK SMILES Cc1n[nH]c2c1[C@@]1(C(=O)N([C@@H](C)C(=O)NCCCCCCNC(=O)c3ccc(-c4c5nc(c(-c6c(F)c(F)c(F)c(F)c6F)c6ccc([nH]6)c(-c6c(F)c(F)c(F)c(F)c6F)c6nc(c(-c7c(F)c(F)c(F)c(F)c7F)c7ccc4[nH]7)C=C6)C=C5)cc3)c3ccccc31)C(C#N)=C(N)O2
REMARK SMILES IDX 18 1 17 2 16 3 15 4 13 5 14 6 11 8 12 9 10 10 1 11 2 12 3 13
REMARK SMILES IDX 6 14 4 15 5 16 7 17 99 19 8 20 93 21 94 22 97 23 9 24 88 25
REMARK SMILES IDX 92 26 89 27 91 28 90 29 95 30 96 31 98 32 19 35 20 36 21 37
REMARK SMILES IDX 22 38 23 39 24 41 25 42 26 43 87 44 27 45 86 46 28 47 29 48
REMARK SMILES IDX 30 49 80 50 31 51 85 52 79 53 81 54 32 55 84 56 78 57 77 58
REMARK SMILES IDX 33 60 65 61 45 62 64 63 46 64 49 65 63 66 82 67 47 68 48 69
REMARK SMILES IDX 62 71 83 72 50 73 34 74 35 75 43 76 36 77 37 78 41 79 44 80
REMARK SMILES IDX 38 81 39 82 42 83 40 84 66 85 67 86 75 87 68 88 69 89 73 90
REMARK SMILES IDX 76 91 70 92 71 93 74 94 72 95 51 96 52 97 60 98 53 99 54 100
REMARK SMILES IDX 58 101 61 102 55 103 56 104 59 105 57 106
REMARK H PARENT 15 7 4 18 98 33 98 34 22 40 81 59 49 70
REMARK Flexibility Score: inf
ROOT
ATOM      1  C   UNL A   1      31.695  29.157  24.752  1.00  0.00     0.002 C 
ENDROOT
BRANCH   1   2
ATOM      2  C   UNL A   1      32.428  28.778  23.469  1.00  0.00     0.021 C 
BRANCH   2   3
ATOM      3  C   UNL A   1      33.302  27.523  23.571  1.00  0.00     0.116 C 
BRANCH   3   4
ATOM      4  N   UNL A   1      33.494  26.912  22.267  1.00  0.00    -0.354 N 
ATOM      5  C   UNL A   1      32.979  25.805  21.671  1.00  0.00     0.242 C 
ATOM      6  O   UNL A   1      33.431  25.539  20.548  1.00  0.00    -0.273 OA
ATOM      7  H   UNL A   1      34.128  27.404  21.696  1.00  0.00     0.163 HD
BRANCH   5   8
ATOM      8  C   UNL A   1      31.919  24.860  22.292  1.00  0.00     0.176 C 
ATOM      9  C   UNL A   1      30.694  25.550  22.881  1.00  0.00     0.042 C 
BRANCH   8  10
ATOM     10  N   UNL A   1      32.494  23.815  23.137  1.00  0.00    -0.298 N 
ATOM     11  C   UNL A   1      30.561  23.180  26.320  1.00  0.00     0.069 C 
ATOM     12  C   UNL A   1      31.820  22.632  26.891  1.00  0.00     0.068 A 
ATOM     13  N   UNL A   1      31.886  22.358  28.205  1.00  0.00    -0.177 NA
ATOM     14  C   UNL A   1      33.077  22.437  26.259  1.00  0.00     0.063 A 
ATOM     15  N   UNL A   1      33.185  22.069  28.420  1.00  0.00    -0.246 N 
ATOM     16  C   UNL A   1      33.930  22.136  27.289  1.00  0.00     0.222 A 
ATOM     17  C   UNL A   1      33.632  22.705  24.899  1.00  0.00     0.149 C 
ATOM     18  H   UNL A   1      33.552  21.836  29.303  1.00  0.00     0.193 HD
ATOM     19  O   UNL A   1      35.251  22.037  27.250  1.00  0.00    -0.422 OA
ATOM     20  C   UNL A   1      33.053  24.037  24.397  1.00  0.00     0.248 C 
ATOM     21  C   UNL A   1      33.030  21.721  23.932  1.00  0.00     0.002 A 
ATOM     22  C   UNL A   1      35.165  22.707  24.916  1.00  0.00     0.114 C 
ATOM     23  C   UNL A   1      35.874  22.373  26.035  1.00  0.00     0.208 C 
ATOM     24  O   UNL A   1      32.999  25.059  25.056  1.00  0.00    -0.273 OA
ATOM     25  C   UNL A   1      32.417  22.429  22.884  1.00  0.00     0.050 A 
ATOM     26  C   UNL A   1      33.032  20.331  23.961  1.00  0.00     0.008 A 
ATOM     27  C   UNL A   1      31.793  21.757  21.848  1.00  0.00     0.027 A 
ATOM     28  C   UNL A   1      32.387  19.652  22.930  1.00  0.00     0.001 A 
ATOM     29  C   UNL A   1      31.775  20.358  21.881  1.00  0.00     0.002 A 
BRANCH  22  30
ATOM     30  C   UNL A   1      35.960  23.021  23.660  1.00  0.00     0.102 C 
ATOM     31  N   UNL A   1      36.620  23.281  22.618  1.00  0.00    -0.193 NA
ENDBRANCH  22  30
BRANCH  23  32
ATOM     32  N   UNL A   1      37.234  22.310  26.118  1.00  0.00    -0.369 N 
ATOM     33  H   UNL A   1      37.682  22.468  26.979  1.00  0.00     0.159 HD
ATOM     34  H   UNL A   1      37.767  22.107  25.316  1.00  0.00     0.159 HD
ENDBRANCH  23  32
ENDBRANCH   8  10
ENDBRANCH   5   8
ENDBRANCH   3   4
ENDBRANCH   2   3
ENDBRANCH   1   2
BRANCH   1  35
ATOM     35  C   UNL A   1      32.203  28.417  25.991  1.00  0.00     0.002 C 
BRANCH  35  36
ATOM     36  C   UNL A   1      32.607  29.310  27.171  1.00  0.00     0.021 C 
BRANCH  36  37
ATOM     37  C   UNL A   1      33.515  30.485  26.803  1.00  0.00     0.116 C 
BRANCH  37  38
ATOM     38  N   UNL A   1      33.806  31.373  27.911  1.00  0.00    -0.352 N 
ATOM     39  C   UNL A   1      34.918  31.657  28.653  1.00  0.00     0.251 C 
ATOM     40  H   UNL A   1      33.020  31.893  28.195  1.00  0.00     0.163 HD
ATOM     41  O   UNL A   1      34.809  32.561  29.484  1.00  0.00    -0.269 OA
BRANCH  39  42
ATOM     42  C   UNL A   1      36.202  30.906  28.587  1.00  0.00     0.039 A 
ATOM     43  C   UNL A   1      36.342  29.577  28.198  1.00  0.00     0.014 A 
ATOM     44  C   UNL A   1      37.348  31.597  29.031  1.00  0.00     0.014 A 
ATOM     45  C   UNL A   1      37.543  28.911  28.408  1.00  0.00     0.010 A 
ATOM     46  C   UNL A   1      38.567  30.949  29.198  1.00  0.00     0.010 A 
ATOM     47  C   UNL A   1      38.642  29.586  28.951  1.00  0.00    -0.014 A 
BRANCH  47  48
ATOM     48  C   UNL A   1      39.877  28.825  29.121  1.00  0.00     0.031 A 
ATOM     49  C   UNL A   1      40.287  28.662  30.543  1.00  0.00     0.074 A 
ATOM     50  C   UNL A   1      40.591  28.282  28.113  1.00  0.00     0.049 A 
ATOM     51  N   UNL A   1      41.327  29.164  31.125  1.00  0.00    -0.248 NA
ATOM     52  C   UNL A   1      39.353  27.990  31.460  1.00  0.00     0.031 C 
ATOM     53  C   UNL A   1      40.232  28.146  26.701  1.00  0.00     0.029 A 
ATOM     54  N   UNL A   1      41.812  27.675  28.172  1.00  0.00    -0.354 N 
ATOM     55  C   UNL A   1      41.269  28.745  32.451  1.00  0.00     0.074 A 
ATOM     56  C   UNL A   1      39.975  28.142  32.630  1.00  0.00     0.031 C 
ATOM     57  C   UNL A   1      41.108  27.313  26.090  1.00  0.00     0.029 A 
ATOM     58  C   UNL A   1      42.171  26.981  27.023  1.00  0.00     0.049 A 
ATOM     59  H   UNL A   1      42.392  27.725  28.966  1.00  0.00     0.167 HD
ATOM     60  C   UNL A   1      42.382  28.749  33.236  1.00  0.00     0.037 A 
ATOM     61  C   UNL A   1      43.251  26.173  26.868  1.00  0.00     0.037 A 
ATOM     62  C   UNL A   1      43.378  29.649  32.716  1.00  0.00     0.049 A 
ATOM     63  C   UNL A   1      44.238  26.548  27.910  1.00  0.00     0.074 A 
ATOM     64  C   UNL A   1      43.437  31.012  32.499  1.00  0.00     0.029 A 
ATOM     65  N   UNL A   1      44.418  29.117  31.996  1.00  0.00    -0.354 N 
ATOM     66  N   UNL A   1      44.890  27.675  27.914  1.00  0.00    -0.248 NA
ATOM     67  C   UNL A   1      44.162  25.858  29.189  1.00  0.00     0.031 C 
ATOM     68  C   UNL A   1      44.179  31.163  31.290  1.00  0.00     0.029 A 
ATOM     69  C   UNL A   1      44.580  29.891  30.879  1.00  0.00     0.049 A 
ATOM     70  H   UNL A   1      44.950  28.324  32.238  1.00  0.00     0.167 HD
ATOM     71  C   UNL A   1      44.924  28.052  29.246  1.00  0.00     0.074 A 
ATOM     72  C   UNL A   1      44.531  26.858  29.993  1.00  0.00     0.031 C 
ATOM     73  C   UNL A   1      44.991  29.366  29.600  1.00  0.00     0.037 A 
BRANCH  60  74
ATOM     74  C   UNL A   1      42.722  27.658  34.227  1.00  0.00     0.064 A 
ATOM     75  C   UNL A   1      43.244  26.439  33.747  1.00  0.00     0.173 A 
ATOM     76  C   UNL A   1      42.258  27.633  35.559  1.00  0.00     0.173 A 
ATOM     77  F   UNL A   1      43.714  26.340  32.494  1.00  0.00    -0.203 F 
ATOM     78  C   UNL A   1      43.195  25.265  34.502  1.00  0.00     0.198 A 
ATOM     79  C   UNL A   1      42.256  26.471  36.328  1.00  0.00     0.198 A 
ATOM     80  F   UNL A   1      41.688  28.694  36.141  1.00  0.00    -0.203 F 
ATOM     81  F   UNL A   1      43.570  24.103  33.949  1.00  0.00    -0.200 F 
ATOM     82  C   UNL A   1      42.689  25.279  35.788  1.00  0.00     0.200 A 
ATOM     83  F   UNL A   1      41.748  26.504  37.568  1.00  0.00    -0.200 F 
ATOM     84  F   UNL A   1      42.570  24.143  36.487  1.00  0.00    -0.200 F 
ENDBRANCH  60  74
BRANCH  61  85
ATOM     85  C   UNL A   1      43.374  24.910  26.099  1.00  0.00     0.064 A 
ATOM     86  C   UNL A   1      44.419  24.717  25.177  1.00  0.00     0.173 A 
ATOM     87  C   UNL A   1      42.658  23.760  26.479  1.00  0.00     0.173 A 
ATOM     88  F   UNL A   1      45.184  25.751  24.797  1.00  0.00    -0.203 F 
ATOM     89  C   UNL A   1      44.745  23.445  24.689  1.00  0.00     0.198 A 
ATOM     90  C   UNL A   1      42.982  22.492  25.990  1.00  0.00     0.198 A 
ATOM     91  F   UNL A   1      41.696  23.829  27.410  1.00  0.00    -0.203 F 
ATOM     92  F   UNL A   1      45.789  23.292  23.863  1.00  0.00    -0.200 F 
ATOM     93  C   UNL A   1      44.034  22.333  25.106  1.00  0.00     0.200 A 
ATOM     94  F   UNL A   1      42.314  21.419  26.433  1.00  0.00    -0.200 F 
ATOM     95  F   UNL A   1      44.389  21.108  24.695  1.00  0.00    -0.200 F 
ENDBRANCH  61  85
BRANCH  73  96
ATOM     96  C   UNL A   1      45.280  30.373  28.523  1.00  0.00     0.064 A 
ATOM     97  C   UNL A   1      44.295  30.944  27.698  1.00  0.00     0.173 A 
ATOM     98  C   UNL A   1      46.574  30.905  28.450  1.00  0.00     0.173 A 
ATOM     99  F   UNL A   1      43.017  30.550  27.774  1.00  0.00    -0.203 F 
ATOM    100  C   UNL A   1      44.603  31.985  26.823  1.00  0.00     0.198 A 
ATOM    101  C   UNL A   1      46.869  31.968  27.603  1.00  0.00     0.198 A 
ATOM    102  F   UNL A   1      47.541  30.432  29.252  1.00  0.00    -0.203 F 
ATOM    103  F   UNL A   1      43.647  32.518  26.048  1.00  0.00    -0.200 F 
ATOM    104  C   UNL A   1      45.887  32.504  26.786  1.00  0.00     0.200 A 
ATOM    105  F   UNL A   1      48.100  32.499  27.606  1.00  0.00    -0.200 F 
ATOM    106  F   UNL A   1      46.170  33.543  25.987  1.00  0.00    -0.200 F 
ENDBRANCH  73  96
ENDBRANCH  47  48
ENDBRANCH  39  42
ENDBRANCH  37  38
ENDBRANCH  36  37
ENDBRANCH  35  36
ENDBRANCH   1  35
TORSDOF 16
ENDMDL
