MODEL 1
REMARK VINA RESULT:     -12.2      0.000      0.000
REMARK SMILES Cc1cc(Cl)c2c(c1)C=C(C(=O)NCCCCCCNC(=O)c1ccc(-c3c4nc(c(-c5c(F)c(F)c(F)c(F)c5F)c5ccc([nH]5)c(-c5c(F)c(F)c(F)c(F)c5F)c5nc(c(-c6c(F)c(F)c(F)c(F)c6F)c6ccc3[nH]6)C=C5)C=C4)cc1)[C@@H](C(F)(F)F)O2
REMARK SMILES IDX 17 1 16 2 15 3 14 4 13 5 11 6 12 7 10 9 1 10 2 11 3 12 8 13
REMARK SMILES IDX 4 14 7 15 5 16 6 17 9 18 91 19 86 20 87 21 88 22 89 23 90 24
REMARK SMILES IDX 18 25 19 26 20 27 21 28 22 30 23 31 24 32 85 33 25 34 84 35
REMARK SMILES IDX 26 36 27 37 28 38 78 39 29 40 83 41 77 42 79 43 30 44 82 45
REMARK SMILES IDX 76 46 75 47 31 49 63 50 43 51 62 52 44 53 47 54 61 55 80 56
REMARK SMILES IDX 45 57 46 58 60 60 81 61 48 62 32 63 33 64 41 65 34 66 35 67
REMARK SMILES IDX 39 68 42 69 36 70 37 71 40 72 38 73 64 74 65 75 73 76 66 77
REMARK SMILES IDX 67 78 71 79 74 80 68 81 69 82 72 83 70 84 49 85 50 86 58 87
REMARK SMILES IDX 51 88 52 89 56 90 59 91 53 92 54 93 57 94 55 95
REMARK H PARENT 13 8 20 29 79 48 47 59
REMARK Flexibility Score: inf
ROOT
ATOM      1  C   UNL A   1      31.527  30.271  26.286  1.00  0.00     0.002 C 
ENDROOT
BRANCH   1   2
ATOM      2  C   UNL A   1      32.823  29.629  26.800  1.00  0.00     0.002 C 
BRANCH   2   3
ATOM      3  C   UNL A   1      33.696  28.956  25.736  1.00  0.00     0.021 C 
BRANCH   3   4
ATOM      4  C   UNL A   1      33.841  27.447  25.908  1.00  0.00     0.116 C 
BRANCH   4   5
ATOM      5  N   UNL A   1      33.786  26.750  24.637  1.00  0.00    -0.352 N 
ATOM      6  C   UNL A   1      32.866  26.516  23.674  1.00  0.00     0.251 C 
ATOM      7  O   UNL A   1      33.277  25.862  22.709  1.00  0.00    -0.270 OA
ATOM      8  H   UNL A   1      34.652  26.337  24.415  1.00  0.00     0.163 HD
BRANCH   6   9
ATOM      9  C   UNL A   1      31.443  26.973  23.701  1.00  0.00     0.067 C 
ATOM     10  C   UNL A   1      28.133  32.060  22.481  1.00  0.00     0.044 C 
ATOM     11  C   UNL A   1      28.358  30.629  22.869  1.00  0.00    -0.049 A 
ATOM     12  C   UNL A   1      27.279  29.788  23.164  1.00  0.00     0.028 A 
ATOM     13  C   UNL A   1      29.660  30.109  22.907  1.00  0.00     0.015 A 
ATOM     14  C   UNL A   1      27.502  28.451  23.501  1.00  0.00     0.084 A 
ATOM     15  C   UNL A   1      29.886  28.768  23.245  1.00  0.00     0.019 A 
ATOM     16  Cl  UNL A   1      26.137  27.453  23.851  1.00  0.00    -0.080 Cl
ATOM     17  C   UNL A   1      28.805  27.941  23.550  1.00  0.00     0.146 A 
ATOM     18  C   UNL A   1      31.236  28.220  23.238  1.00  0.00     0.025 C 
ATOM     19  O   UNL A   1      28.968  26.619  23.846  1.00  0.00    -0.474 OA
ATOM     20  C   UNL A   1      30.293  26.166  24.232  1.00  0.00     0.314 C 
BRANCH  20  21
ATOM     21  C   UNL A   1      30.334  25.998  25.761  1.00  0.00     0.429 C 
ATOM     22  F   UNL A   1      31.277  25.088  26.115  1.00  0.00    -0.167 F 
ATOM     23  F   UNL A   1      30.655  27.145  26.403  1.00  0.00    -0.167 F 
ATOM     24  F   UNL A   1      29.153  25.578  26.268  1.00  0.00    -0.167 F 
ENDBRANCH  20  21
ENDBRANCH   6   9
ENDBRANCH   4   5
ENDBRANCH   3   4
ENDBRANCH   2   3
ENDBRANCH   1   2
BRANCH   1  25
ATOM     25  C   UNL A   1      31.403  31.781  26.509  1.00  0.00     0.021 C 
BRANCH  25  26
ATOM     26  C   UNL A   1      32.706  32.482  26.874  1.00  0.00     0.116 C 
BRANCH  26  27
ATOM     27  N   UNL A   1      32.480  33.816  27.401  1.00  0.00    -0.352 N 
ATOM     28  C   UNL A   1      33.082  34.443  28.462  1.00  0.00     0.251 C 
ATOM     29  H   UNL A   1      31.797  34.346  26.931  1.00  0.00     0.163 HD
ATOM     30  O   UNL A   1      32.638  35.503  28.892  1.00  0.00    -0.269 OA
BRANCH  28  31
ATOM     31  C   UNL A   1      34.263  33.829  29.102  1.00  0.00     0.039 A 
ATOM     32  C   UNL A   1      34.068  32.852  30.081  1.00  0.00     0.014 A 
ATOM     33  C   UNL A   1      35.557  34.225  28.746  1.00  0.00     0.014 A 
ATOM     34  C   UNL A   1      35.172  32.238  30.672  1.00  0.00     0.010 A 
ATOM     35  C   UNL A   1      36.656  33.564  29.287  1.00  0.00     0.010 A 
ATOM     36  C   UNL A   1      36.473  32.575  30.265  1.00  0.00    -0.014 A 
BRANCH  36  37
ATOM     37  C   UNL A   1      37.651  31.920  30.882  1.00  0.00     0.031 A 
ATOM     38  C   UNL A   1      38.066  32.286  32.279  1.00  0.00     0.074 A 
ATOM     39  C   UNL A   1      38.357  31.014  30.178  1.00  0.00     0.049 A 
ATOM     40  N   UNL A   1      39.061  31.824  32.994  1.00  0.00    -0.248 NA
ATOM     41  C   UNL A   1      37.270  33.322  32.957  1.00  0.00     0.031 C 
ATOM     42  C   UNL A   1      38.074  30.610  28.802  1.00  0.00     0.029 A 
ATOM     43  N   UNL A   1      39.455  30.267  30.528  1.00  0.00    -0.354 N 
ATOM     44  C   UNL A   1      39.008  32.511  34.199  1.00  0.00     0.074 A 
ATOM     45  C   UNL A   1      37.926  33.465  34.100  1.00  0.00     0.031 C 
ATOM     46  C   UNL A   1      38.951  29.660  28.435  1.00  0.00     0.029 A 
ATOM     47  C   UNL A   1      39.872  29.410  29.540  1.00  0.00     0.049 A 
ATOM     48  H   UNL A   1      39.899  30.339  31.403  1.00  0.00     0.167 HD
ATOM     49  C   UNL A   1      39.772  32.336  35.302  1.00  0.00     0.037 A 
ATOM     50  C   UNL A   1      40.880  28.516  29.533  1.00  0.00     0.037 A 
ATOM     51  C   UNL A   1      40.828  31.366  35.408  1.00  0.00     0.049 A 
ATOM     52  C   UNL A   1      41.730  28.357  30.764  1.00  0.00     0.074 A 
ATOM     53  C   UNL A   1      41.621  31.072  36.502  1.00  0.00     0.029 A 
ATOM     54  N   UNL A   1      41.235  30.530  34.378  1.00  0.00    -0.354 N 
ATOM     55  N   UNL A   1      41.629  28.965  31.921  1.00  0.00    -0.248 NA
ATOM     56  C   UNL A   1      42.833  27.389  30.690  1.00  0.00     0.031 C 
ATOM     57  C   UNL A   1      42.535  30.083  36.124  1.00  0.00     0.029 A 
ATOM     58  C   UNL A   1      42.286  29.736  34.805  1.00  0.00     0.049 A 
ATOM     59  H   UNL A   1      40.837  30.506  33.479  1.00  0.00     0.167 HD
ATOM     60  C   UNL A   1      42.640  28.444  32.716  1.00  0.00     0.074 A 
ATOM     61  C   UNL A   1      43.335  27.457  31.916  1.00  0.00     0.031 C 
ATOM     62  C   UNL A   1      42.963  28.758  33.994  1.00  0.00     0.037 A 
BRANCH  49  63
ATOM     63  C   UNL A   1      39.476  33.194  36.494  1.00  0.00     0.064 A 
ATOM     64  C   UNL A   1      38.563  32.786  37.478  1.00  0.00     0.173 A 
ATOM     65  C   UNL A   1      40.147  34.412  36.684  1.00  0.00     0.173 A 
ATOM     66  F   UNL A   1      37.889  31.634  37.336  1.00  0.00    -0.203 F 
ATOM     67  C   UNL A   1      38.317  33.574  38.598  1.00  0.00     0.198 A 
ATOM     68  C   UNL A   1      39.915  35.187  37.818  1.00  0.00     0.198 A 
ATOM     69  F   UNL A   1      41.031  34.846  35.775  1.00  0.00    -0.203 F 
ATOM     70  F   UNL A   1      37.412  33.181  39.505  1.00  0.00    -0.200 F 
ATOM     71  C   UNL A   1      38.998  34.769  38.771  1.00  0.00     0.200 A 
ATOM     72  F   UNL A   1      40.582  36.336  37.990  1.00  0.00    -0.200 F 
ATOM     73  F   UNL A   1      38.767  35.522  39.855  1.00  0.00    -0.200 F 
ENDBRANCH  49  63
BRANCH  50  74
ATOM     74  C   UNL A   1      41.107  27.670  28.334  1.00  0.00     0.064 A 
ATOM     75  C   UNL A   1      41.965  28.095  27.312  1.00  0.00     0.173 A 
ATOM     76  C   UNL A   1      40.491  26.417  28.192  1.00  0.00     0.173 A 
ATOM     77  F   UNL A   1      42.561  29.294  27.394  1.00  0.00    -0.203 F 
ATOM     78  C   UNL A   1      42.194  27.303  26.188  1.00  0.00     0.198 A 
ATOM     79  C   UNL A   1      40.738  25.617  27.079  1.00  0.00     0.198 A 
ATOM     80  F   UNL A   1      39.664  25.965  29.145  1.00  0.00    -0.203 F 
ATOM     81  F   UNL A   1      42.997  27.747  25.212  1.00  0.00    -0.200 F 
ATOM     82  C   UNL A   1      41.586  26.062  26.076  1.00  0.00     0.200 A 
ATOM     83  F   UNL A   1      40.159  24.414  26.980  1.00  0.00    -0.200 F 
ATOM     84  F   UNL A   1      41.814  25.297  25.000  1.00  0.00    -0.200 F 
ENDBRANCH  50  74
BRANCH  62  85
ATOM     85  C   UNL A   1      44.118  28.032  34.617  1.00  0.00     0.064 A 
ATOM     86  C   UNL A   1      45.402  28.593  34.635  1.00  0.00     0.173 A 
ATOM     87  C   UNL A   1      43.918  26.814  35.282  1.00  0.00     0.173 A 
ATOM     88  F   UNL A   1      45.642  29.750  34.002  1.00  0.00    -0.203 F 
ATOM     89  C   UNL A   1      46.448  27.957  35.297  1.00  0.00     0.198 A 
ATOM     90  C   UNL A   1      44.960  26.192  35.963  1.00  0.00     0.198 A 
ATOM     91  F   UNL A   1      42.704  26.243  35.297  1.00  0.00    -0.203 F 
ATOM     92  F   UNL A   1      47.673  28.499  35.287  1.00  0.00    -0.200 F 
ATOM     93  C   UNL A   1      46.224  26.763  35.968  1.00  0.00     0.200 A 
ATOM     94  F   UNL A   1      44.740  25.047  36.624  1.00  0.00    -0.200 F 
ATOM     95  F   UNL A   1      47.228  26.163  36.624  1.00  0.00    -0.200 F 
ENDBRANCH  62  85
ENDBRANCH  36  37
ENDBRANCH  28  31
ENDBRANCH  26  27
ENDBRANCH  25  26
ENDBRANCH   1  25
TORSDOF 14
ENDMDL
MODEL 2
REMARK VINA RESULT:     -12.2      2.734      4.388
REMARK SMILES Cc1cc(Cl)c2c(c1)C=C(C(=O)NCCCCCCNC(=O)c1ccc(-c3c4nc(c(-c5c(F)c(F)c(F)c(F)c5F)c5ccc([nH]5)c(-c5c(F)c(F)c(F)c(F)c5F)c5nc(c(-c6c(F)c(F)c(F)c(F)c6F)c6ccc3[nH]6)C=C5)C=C4)cc1)[C@@H](C(F)(F)F)O2
REMARK SMILES IDX 17 1 16 2 15 3 14 4 13 5 11 6 12 7 10 9 1 10 2 11 3 12 8 13
REMARK SMILES IDX 4 14 7 15 5 16 6 17 9 18 91 19 86 20 87 21 88 22 89 23 90 24
REMARK SMILES IDX 18 25 19 26 20 27 21 28 22 30 23 31 24 32 85 33 25 34 84 35
REMARK SMILES IDX 26 36 27 37 28 38 78 39 29 40 83 41 77 42 79 43 30 44 82 45
REMARK SMILES IDX 76 46 75 47 31 49 63 50 43 51 62 52 44 53 47 54 61 55 80 56
REMARK SMILES IDX 45 57 46 58 60 60 81 61 48 62 32 63 33 64 41 65 34 66 35 67
REMARK SMILES IDX 39 68 42 69 36 70 37 71 40 72 38 73 64 74 65 75 73 76 66 77
REMARK SMILES IDX 67 78 71 79 74 80 68 81 69 82 72 83 70 84 49 85 50 86 58 87
REMARK SMILES IDX 51 88 52 89 56 90 59 91 53 92 54 93 57 94 55 95
REMARK H PARENT 13 8 20 29 79 48 47 59
REMARK Flexibility Score: inf
ROOT
ATOM      1  C   UNL A   1      31.161  27.818  25.638  1.00  0.00     0.002 C 
ENDROOT
BRANCH   1   2
ATOM      2  C   UNL A   1      31.033  28.478  24.259  1.00  0.00     0.002 C 
BRANCH   2   3
ATOM      3  C   UNL A   1      30.210  27.700  23.227  1.00  0.00     0.021 C 
BRANCH   3   4
ATOM      4  C   UNL A   1      30.646  26.250  23.042  1.00  0.00     0.116 C 
BRANCH   4   5
ATOM      5  N   UNL A   1      31.580  26.103  21.942  1.00  0.00    -0.352 N 
ATOM      6  C   UNL A   1      32.662  25.344  21.654  1.00  0.00     0.251 C 
ATOM      7  O   UNL A   1      33.160  25.548  20.541  1.00  0.00    -0.270 OA
ATOM      8  H   UNL A   1      31.370  26.724  21.206  1.00  0.00     0.163 HD
BRANCH   6   9
ATOM      9  C   UNL A   1      33.270  24.319  22.556  1.00  0.00     0.067 C 
ATOM     10  C   UNL A   1      32.313  18.460  24.310  1.00  0.00     0.044 C 
ATOM     11  C   UNL A   1      33.031  19.775  24.251  1.00  0.00    -0.049 A 
ATOM     12  C   UNL A   1      34.225  19.973  24.953  1.00  0.00     0.028 A 
ATOM     13  C   UNL A   1      32.525  20.816  23.458  1.00  0.00     0.015 A 
ATOM     14  C   UNL A   1      34.895  21.195  24.870  1.00  0.00     0.084 A 
ATOM     15  C   UNL A   1      33.195  22.043  23.374  1.00  0.00     0.019 A 
ATOM     16  Cl  UNL A   1      36.368  21.386  25.752  1.00  0.00    -0.080 Cl
ATOM     17  C   UNL A   1      34.378  22.234  24.088  1.00  0.00     0.146 A 
ATOM     18  C   UNL A   1      32.691  23.105  22.513  1.00  0.00     0.025 C 
ATOM     19  O   UNL A   1      35.090  23.396  24.008  1.00  0.00    -0.474 OA
ATOM     20  C   UNL A   1      34.415  24.575  23.495  1.00  0.00     0.314 C 
BRANCH  20  21
ATOM     21  C   UNL A   1      34.028  25.480  24.678  1.00  0.00     0.429 C 
ATOM     22  F   UNL A   1      32.807  25.136  25.162  1.00  0.00    -0.167 F 
ATOM     23  F   UNL A   1      34.889  25.375  25.718  1.00  0.00    -0.167 F 
ATOM     24  F   UNL A   1      33.978  26.786  24.336  1.00  0.00    -0.167 F 
ENDBRANCH  20  21
ENDBRANCH   6   9
ENDBRANCH   4   5
ENDBRANCH   3   4
ENDBRANCH   2   3
ENDBRANCH   1   2
BRANCH   1  25
ATOM     25  C   UNL A   1      32.124  28.501  26.613  1.00  0.00     0.021 C 
BRANCH  25  26
ATOM     26  C   UNL A   1      33.100  29.477  25.967  1.00  0.00     0.116 C 
BRANCH  26  27
ATOM     27  N   UNL A   1      32.813  30.855  26.323  1.00  0.00    -0.352 N 
ATOM     28  C   UNL A   1      33.418  31.655  27.259  1.00  0.00     0.251 C 
ATOM     29  H   UNL A   1      32.077  31.276  25.822  1.00  0.00     0.163 HD
ATOM     30  O   UNL A   1      32.926  32.736  27.566  1.00  0.00    -0.269 OA
BRANCH  28  31
ATOM     31  C   UNL A   1      34.663  31.202  27.913  1.00  0.00     0.039 A 
ATOM     32  C   UNL A   1      35.740  32.086  27.997  1.00  0.00     0.014 A 
ATOM     33  C   UNL A   1      34.770  29.906  28.429  1.00  0.00     0.014 A 
ATOM     34  C   UNL A   1      36.911  31.686  28.640  1.00  0.00     0.010 A 
ATOM     35  C   UNL A   1      35.912  29.532  29.130  1.00  0.00     0.010 A 
ATOM     36  C   UNL A   1      36.999  30.414  29.229  1.00  0.00    -0.014 A 
BRANCH  36  37
ATOM     37  C   UNL A   1      38.237  29.985  29.922  1.00  0.00     0.031 A 
ATOM     38  C   UNL A   1      38.528  30.479  31.310  1.00  0.00     0.074 A 
ATOM     39  C   UNL A   1      39.105  29.169  29.294  1.00  0.00     0.049 A 
ATOM     40  N   UNL A   1      39.551  30.216  32.084  1.00  0.00    -0.248 NA
ATOM     41  C   UNL A   1      37.551  31.407  31.902  1.00  0.00     0.031 C 
ATOM     42  C   UNL A   1      38.949  28.658  27.933  1.00  0.00     0.029 A 
ATOM     43  N   UNL A   1      40.290  28.622  29.723  1.00  0.00    -0.354 N 
ATOM     44  C   UNL A   1      39.339  30.943  33.247  1.00  0.00     0.074 A 
ATOM     45  C   UNL A   1      38.127  31.708  33.057  1.00  0.00     0.031 C 
ATOM     46  C   UNL A   1      39.978  27.843  27.650  1.00  0.00     0.029 A 
ATOM     47  C   UNL A   1      40.879  27.795  28.799  1.00  0.00     0.049 A 
ATOM     48  H   UNL A   1      40.679  28.806  30.608  1.00  0.00     0.167 HD
ATOM     49  C   UNL A   1      40.072  30.945  34.384  1.00  0.00     0.037 A 
ATOM     50  C   UNL A   1      42.013  27.073  28.876  1.00  0.00     0.037 A 
ATOM     51  C   UNL A   1      41.261  30.161  34.581  1.00  0.00     0.049 A 
ATOM     52  C   UNL A   1      42.823  27.111  30.144  1.00  0.00     0.074 A 
ATOM     53  C   UNL A   1      42.042  30.050  35.716  1.00  0.00     0.029 A 
ATOM     54  N   UNL A   1      41.839  29.351  33.613  1.00  0.00    -0.354 N 
ATOM     55  N   UNL A   1      42.579  27.751  31.261  1.00  0.00    -0.248 NA
ATOM     56  C   UNL A   1      44.067  26.327  30.162  1.00  0.00     0.031 C 
ATOM     57  C   UNL A   1      43.115  29.201  35.425  1.00  0.00     0.029 A 
ATOM     58  C   UNL A   1      42.981  28.755  34.120  1.00  0.00     0.049 A 
ATOM     59  H   UNL A   1      41.489  29.221  32.703  1.00  0.00     0.167 HD
ATOM     60  C   UNL A   1      43.623  27.436  32.118  1.00  0.00     0.074 A 
ATOM     61  C   UNL A   1      44.498  26.534  31.399  1.00  0.00     0.031 C 
ATOM     62  C   UNL A   1      43.838  27.859  33.388  1.00  0.00     0.037 A 
BRANCH  49  63
ATOM     63  C   UNL A   1      39.594  31.803  35.516  1.00  0.00     0.064 A 
ATOM     64  C   UNL A   1      40.056  33.118  35.679  1.00  0.00     0.173 A 
ATOM     65  C   UNL A   1      38.630  31.328  36.418  1.00  0.00     0.173 A 
ATOM     66  F   UNL A   1      40.986  33.614  34.848  1.00  0.00    -0.203 F 
ATOM     67  C   UNL A   1      39.584  33.920  36.714  1.00  0.00     0.198 A 
ATOM     68  C   UNL A   1      38.143  32.142  37.438  1.00  0.00     0.198 A 
ATOM     69  F   UNL A   1      38.154  30.080  36.304  1.00  0.00    -0.203 F 
ATOM     70  F   UNL A   1      40.068  35.160  36.872  1.00  0.00    -0.200 F 
ATOM     71  C   UNL A   1      38.623  33.434  37.588  1.00  0.00     0.200 A 
ATOM     72  F   UNL A   1      37.206  31.676  38.275  1.00  0.00    -0.200 F 
ATOM     73  F   UNL A   1      38.163  34.211  38.578  1.00  0.00    -0.200 F 
ENDBRANCH  49  63
BRANCH  50  74
ATOM     74  C   UNL A   1      42.421  26.216  27.734  1.00  0.00     0.064 A 
ATOM     75  C   UNL A   1      43.370  26.666  26.807  1.00  0.00     0.173 A 
ATOM     76  C   UNL A   1      41.893  24.929  27.557  1.00  0.00     0.173 A 
ATOM     77  F   UNL A   1      43.888  27.897  26.924  1.00  0.00    -0.203 F 
ATOM     78  C   UNL A   1      43.768  25.866  25.738  1.00  0.00     0.198 A 
ATOM     79  C   UNL A   1      42.309  24.121  26.500  1.00  0.00     0.198 A 
ATOM     80  F   UNL A   1      40.985  24.451  28.419  1.00  0.00    -0.203 F 
ATOM     81  F   UNL A   1      44.655  26.333  24.849  1.00  0.00    -0.200 F 
ATOM     82  C   UNL A   1      43.243  24.591  25.590  1.00  0.00     0.200 A 
ATOM     83  F   UNL A   1      41.808  22.886  26.367  1.00  0.00    -0.200 F 
ATOM     84  F   UNL A   1      43.633  23.818  24.568  1.00  0.00    -0.200 F 
ENDBRANCH  50  74
BRANCH  62  85
ATOM     85  C   UNL A   1      45.063  27.356  34.090  1.00  0.00     0.064 A 
ATOM     86  C   UNL A   1      45.051  26.143  34.791  1.00  0.00     0.173 A 
ATOM     87  C   UNL A   1      46.279  28.046  33.982  1.00  0.00     0.173 A 
ATOM     88  F   UNL A   1      43.908  25.455  34.930  1.00  0.00    -0.203 F 
ATOM     89  C   UNL A   1      46.215  25.637  35.361  1.00  0.00     0.198 A 
ATOM     90  C   UNL A   1      47.447  27.526  34.533  1.00  0.00     0.198 A 
ATOM     91  F   UNL A   1      46.341  29.209  33.315  1.00  0.00    -0.203 F 
ATOM     92  F   UNL A   1      46.179  24.484  36.043  1.00  0.00    -0.200 F 
ATOM     93  C   UNL A   1      47.414  26.323  35.222  1.00  0.00     0.200 A 
ATOM     94  F   UNL A   1      48.606  28.182  34.386  1.00  0.00    -0.200 F 
ATOM     95  F   UNL A   1      48.538  25.824  35.753  1.00  0.00    -0.200 F 
ENDBRANCH  62  85
ENDBRANCH  36  37
ENDBRANCH  28  31
ENDBRANCH  26  27
ENDBRANCH  25  26
ENDBRANCH   1  25
TORSDOF 14
ENDMDL
MODEL 3
REMARK VINA RESULT:     -12.2      4.361      8.904
REMARK SMILES Cc1cc(Cl)c2c(c1)C=C(C(=O)NCCCCCCNC(=O)c1ccc(-c3c4nc(c(-c5c(F)c(F)c(F)c(F)c5F)c5ccc([nH]5)c(-c5c(F)c(F)c(F)c(F)c5F)c5nc(c(-c6c(F)c(F)c(F)c(F)c6F)c6ccc3[nH]6)C=C5)C=C4)cc1)[C@@H](C(F)(F)F)O2
REMARK SMILES IDX 17 1 16 2 15 3 14 4 13 5 11 6 12 7 10 9 1 10 2 11 3 12 8 13
REMARK SMILES IDX 4 14 7 15 5 16 6 17 9 18 91 19 86 20 87 21 88 22 89 23 90 24
REMARK SMILES IDX 18 25 19 26 20 27 21 28 22 30 23 31 24 32 85 33 25 34 84 35
REMARK SMILES IDX 26 36 27 37 28 38 78 39 29 40 83 41 77 42 79 43 30 44 82 45
REMARK SMILES IDX 76 46 75 47 31 49 63 50 43 51 62 52 44 53 47 54 61 55 80 56
REMARK SMILES IDX 45 57 46 58 60 60 81 61 48 62 32 63 33 64 41 65 34 66 35 67
REMARK SMILES IDX 39 68 42 69 36 70 37 71 40 72 38 73 64 74 65 75 73 76 66 77
REMARK SMILES IDX 67 78 71 79 74 80 68 81 69 82 72 83 70 84 49 85 50 86 58 87
REMARK SMILES IDX 51 88 52 89 56 90 59 91 53 92 54 93 57 94 55 95
REMARK H PARENT 13 8 20 29 79 48 47 59
REMARK Flexibility Score: inf
ROOT
ATOM      1  C   UNL A   1      35.273  22.400  26.500  1.00  0.00     0.002 C 
ENDROOT
BRANCH   1   2
ATOM      2  C   UNL A   1      34.388  21.262  25.974  1.00  0.00     0.002 C 
BRANCH   2   3
ATOM      3  C   UNL A   1      33.722  21.515  24.618  1.00  0.00     0.021 C 
BRANCH   3   4
ATOM      4  C   UNL A   1      32.205  21.354  24.626  1.00  0.00     0.116 C 
BRANCH   4   5
ATOM      5  N   UNL A   1      31.602  21.984  25.785  1.00  0.00    -0.352 N 
ATOM      6  C   UNL A   1      31.459  23.239  26.269  1.00  0.00     0.251 C 
ATOM      7  O   UNL A   1      30.827  23.319  27.329  1.00  0.00    -0.270 OA
ATOM      8  H   UNL A   1      31.183  21.320  26.380  1.00  0.00     0.163 HD
BRANCH   6   9
ATOM      9  C   UNL A   1      31.994  24.482  25.636  1.00  0.00     0.067 C 
ATOM     10  C   UNL A   1      34.120  30.051  27.308  1.00  0.00     0.044 C 
ATOM     11  C   UNL A   1      33.774  28.941  26.360  1.00  0.00    -0.049 A 
ATOM     12  C   UNL A   1      34.014  29.070  24.987  1.00  0.00     0.028 A 
ATOM     13  C   UNL A   1      33.235  27.743  26.849  1.00  0.00     0.015 A 
ATOM     14  C   UNL A   1      33.708  28.020  24.119  1.00  0.00     0.084 A 
ATOM     15  C   UNL A   1      32.928  26.688  25.980  1.00  0.00     0.019 A 
ATOM     16  Cl  UNL A   1      34.028  28.227  22.434  1.00  0.00    -0.080 Cl
ATOM     17  C   UNL A   1      33.159  26.831  24.612  1.00  0.00     0.146 A 
ATOM     18  C   UNL A   1      32.413  25.427  26.498  1.00  0.00     0.025 C 
ATOM     19  O   UNL A   1      32.914  25.819  23.729  1.00  0.00    -0.474 OA
ATOM     20  C   UNL A   1      32.046  24.737  24.156  1.00  0.00     0.314 C 
BRANCH  20  21
ATOM     21  C   UNL A   1      30.654  24.942  23.534  1.00  0.00     0.429 C 
ATOM     22  F   UNL A   1      30.119  23.752  23.161  1.00  0.00    -0.167 F 
ATOM     23  F   UNL A   1      29.773  25.498  24.398  1.00  0.00    -0.167 F 
ATOM     24  F   UNL A   1      30.688  25.735  22.440  1.00  0.00    -0.167 F 
ENDBRANCH  20  21
ENDBRANCH   6   9
ENDBRANCH   4   5
ENDBRANCH   3   4
ENDBRANCH   2   3
ENDBRANCH   1   2
BRANCH   1  25
ATOM     25  C   UNL A   1      35.474  23.579  25.545  1.00  0.00     0.021 C 
BRANCH  25  26
ATOM     26  C   UNL A   1      36.884  23.712  24.982  1.00  0.00     0.116 C 
BRANCH  26  27
ATOM     27  N   UNL A   1      37.765  22.663  25.460  1.00  0.00    -0.352 N 
ATOM     28  C   UNL A   1      38.929  22.768  26.179  1.00  0.00     0.251 C 
ATOM     29  H   UNL A   1      37.490  21.745  25.237  1.00  0.00     0.163 HD
ATOM     30  O   UNL A   1      39.652  21.789  26.339  1.00  0.00    -0.269 OA
BRANCH  28  31
ATOM     31  C   UNL A   1      39.322  24.072  26.750  1.00  0.00     0.039 A 
ATOM     32  C   UNL A   1      38.936  24.380  28.056  1.00  0.00     0.014 A 
ATOM     33  C   UNL A   1      40.057  24.992  25.994  1.00  0.00     0.014 A 
ATOM     34  C   UNL A   1      39.326  25.594  28.622  1.00  0.00     0.010 A 
ATOM     35  C   UNL A   1      40.503  26.172  26.582  1.00  0.00     0.010 A 
ATOM     36  C   UNL A   1      40.129  26.489  27.896  1.00  0.00    -0.014 A 
BRANCH  36  37
ATOM     37  C   UNL A   1      40.555  27.777  28.494  1.00  0.00     0.031 A 
ATOM     38  C   UNL A   1      42.000  28.002  28.838  1.00  0.00     0.074 A 
ATOM     39  C   UNL A   1      39.640  28.732  28.745  1.00  0.00     0.049 A 
ATOM     40  N   UNL A   1      42.571  29.058  29.361  1.00  0.00    -0.248 NA
ATOM     41  C   UNL A   1      42.925  26.887  28.578  1.00  0.00     0.031 C 
ATOM     42  C   UNL A   1      38.204  28.612  28.493  1.00  0.00     0.029 A 
ATOM     43  N   UNL A   1      39.783  29.995  29.265  1.00  0.00    -0.354 N 
ATOM     44  C   UNL A   1      43.914  28.733  29.491  1.00  0.00     0.074 A 
ATOM     45  C   UNL A   1      44.067  27.363  29.052  1.00  0.00     0.031 C 
ATOM     46  C   UNL A   1      37.603  29.767  28.822  1.00  0.00     0.029 A 
ATOM     47  C   UNL A   1      38.606  30.698  29.333  1.00  0.00     0.049 A 
ATOM     48  H   UNL A   1      40.648  30.362  29.560  1.00  0.00     0.167 HD
ATOM     49  C   UNL A   1      44.935  29.519  29.905  1.00  0.00     0.037 A 
ATOM     50  C   UNL A   1      38.366  31.955  29.752  1.00  0.00     0.037 A 
ATOM     51  C   UNL A   1      44.784  30.890  30.312  1.00  0.00     0.049 A 
ATOM     52  C   UNL A   1      39.515  32.801  30.231  1.00  0.00     0.074 A 
ATOM     53  C   UNL A   1      45.765  31.787  30.694  1.00  0.00     0.029 A 
ATOM     54  N   UNL A   1      43.572  31.560  30.388  1.00  0.00    -0.354 N 
ATOM     55  N   UNL A   1      40.790  32.506  30.287  1.00  0.00    -0.248 NA
ATOM     56  C   UNL A   1      39.191  34.155  30.705  1.00  0.00     0.031 C 
ATOM     57  C   UNL A   1      45.142  32.992  31.037  1.00  0.00     0.029 A 
ATOM     58  C   UNL A   1      43.778  32.855  30.833  1.00  0.00     0.049 A 
ATOM     59  H   UNL A   1      42.697  31.173  30.160  1.00  0.00     0.167 HD
ATOM     60  C   UNL A   1      41.423  33.637  30.783  1.00  0.00     0.074 A 
ATOM     61  C   UNL A   1      40.393  34.632  30.999  1.00  0.00     0.031 C 
ATOM     62  C   UNL A   1      42.740  33.831  31.040  1.00  0.00     0.037 A 
BRANCH  49  63
ATOM     63  C   UNL A   1      46.310  28.924  29.914  1.00  0.00     0.064 A 
ATOM     64  C   UNL A   1      46.820  28.285  31.054  1.00  0.00     0.173 A 
ATOM     65  C   UNL A   1      47.108  28.946  28.760  1.00  0.00     0.173 A 
ATOM     66  F   UNL A   1      46.099  28.248  32.185  1.00  0.00    -0.203 F 
ATOM     67  C   UNL A   1      48.086  27.707  31.045  1.00  0.00     0.198 A 
ATOM     68  C   UNL A   1      48.364  28.346  28.748  1.00  0.00     0.198 A 
ATOM     69  F   UNL A   1      46.665  29.541  27.643  1.00  0.00    -0.203 F 
ATOM     70  F   UNL A   1      48.567  27.136  32.158  1.00  0.00    -0.200 F 
ATOM     71  C   UNL A   1      48.854  27.731  29.891  1.00  0.00     0.200 A 
ATOM     72  F   UNL A   1      49.101  28.359  27.629  1.00  0.00    -0.200 F 
ATOM     73  F   UNL A   1      50.068  27.165  29.881  1.00  0.00    -0.200 F 
ENDBRANCH  49  63
BRANCH  50  74
ATOM     74  C   UNL A   1      36.987  32.503  29.692  1.00  0.00     0.064 A 
ATOM     75  C   UNL A   1      36.108  32.346  30.771  1.00  0.00     0.173 A 
ATOM     76  C   UNL A   1      36.527  33.209  28.571  1.00  0.00     0.173 A 
ATOM     77  F   UNL A   1      36.498  31.661  31.857  1.00  0.00    -0.203 F 
ATOM     78  C   UNL A   1      34.816  32.866  30.729  1.00  0.00     0.198 A 
ATOM     79  C   UNL A   1      35.242  33.747  28.539  1.00  0.00     0.198 A 
ATOM     80  F   UNL A   1      37.331  33.389  27.514  1.00  0.00    -0.203 F 
ATOM     81  F   UNL A   1      33.986  32.675  31.763  1.00  0.00    -0.200 F 
ATOM     82  C   UNL A   1      34.387  33.573  29.616  1.00  0.00     0.200 A 
ATOM     83  F   UNL A   1      34.835  34.440  27.467  1.00  0.00    -0.200 F 
ATOM     84  F   UNL A   1      33.148  34.081  29.580  1.00  0.00    -0.200 F 
ENDBRANCH  50  74
BRANCH  62  85
ATOM     85  C   UNL A   1      43.153  35.167  31.581  1.00  0.00     0.064 A 
ATOM     86  C   UNL A   1      43.152  35.423  32.958  1.00  0.00     0.173 A 
ATOM     87  C   UNL A   1      43.642  36.163  30.723  1.00  0.00     0.173 A 
ATOM     88  F   UNL A   1      42.682  34.504  33.815  1.00  0.00    -0.203 F 
ATOM     89  C   UNL A   1      43.625  36.632  33.459  1.00  0.00     0.198 A 
ATOM     90  C   UNL A   1      44.137  37.361  31.229  1.00  0.00     0.198 A 
ATOM     91  F   UNL A   1      43.669  35.960  29.397  1.00  0.00    -0.203 F 
ATOM     92  F   UNL A   1      43.598  36.865  34.779  1.00  0.00    -0.200 F 
ATOM     93  C   UNL A   1      44.126  37.595  32.596  1.00  0.00     0.200 A 
ATOM     94  F   UNL A   1      44.634  38.285  30.395  1.00  0.00    -0.200 F 
ATOM     95  F   UNL A   1      44.602  38.750  33.082  1.00  0.00    -0.200 F 
ENDBRANCH  62  85
ENDBRANCH  36  37
ENDBRANCH  28  31
ENDBRANCH  26  27
ENDBRANCH  25  26
ENDBRANCH   1  25
TORSDOF 14
ENDMDL
