MODEL 1
REMARK VINA RESULT:     -11.9      0.000      0.000
REMARK SMILES Cc1cscc1-c1ncc(C(=O)NCCCCCCNC(=O)c2ccc(-c3c4nc(c(-c5c(F)c(F)c(F)c(F)c5F)c5ccc([nH]5)c(-c5c(F)c(F)c(F)c(F)c5F)c5nc(c(-c6c(F)c(F)c(F)c(F)c6F)c6ccc3[nH]6)C=C5)C=C4)cc2)c(=O)[nH]1
REMARK SMILES IDX 17 1 16 2 15 3 14 4 13 5 11 6 12 7 10 9 7 10 8 11 88 12 9 13
REMARK SMILES IDX 86 14 87 16 6 17 1 18 2 19 3 20 4 21 5 22 18 23 19 24 20 25
REMARK SMILES IDX 21 26 22 28 23 29 24 30 85 31 25 32 84 33 26 34 27 35 28 36
REMARK SMILES IDX 78 37 29 38 83 39 77 40 79 41 30 42 82 43 76 44 75 45 31 47
REMARK SMILES IDX 63 48 43 49 62 50 44 51 47 52 61 53 80 54 45 55 46 56 60 58
REMARK SMILES IDX 81 59 48 60 32 61 33 62 41 63 34 64 35 65 39 66 42 67 36 68
REMARK SMILES IDX 37 69 40 70 38 71 64 72 65 73 73 74 66 75 67 76 71 77 74 78
REMARK SMILES IDX 68 79 69 80 72 81 70 82 49 83 50 84 58 85 51 86 52 87 56 88
REMARK SMILES IDX 59 89 53 90 54 91 57 92 55 93
REMARK H PARENT 13 8 88 15 20 27 79 46 47 57
REMARK Flexibility Score: inf
ROOT
ATOM      1  C   UNL A   1      35.904  23.361  23.639  1.00  0.00     0.002 C 
ENDROOT
BRANCH   1   2
ATOM      2  C   UNL A   1      34.431  23.472  23.228  1.00  0.00     0.002 C 
BRANCH   2   3
ATOM      3  C   UNL A   1      33.670  24.637  23.877  1.00  0.00     0.021 C 
BRANCH   3   4
ATOM      4  C   UNL A   1      33.977  24.799  25.368  1.00  0.00     0.116 C 
BRANCH   4   5
ATOM      5  N   UNL A   1      32.761  24.655  26.142  1.00  0.00    -0.352 N 
ATOM      6  C   UNL A   1      32.027  23.573  26.505  1.00  0.00     0.258 C 
ATOM      7  O   UNL A   1      30.981  23.807  27.119  1.00  0.00    -0.269 OA
ATOM      8  H   UNL A   1      32.397  25.509  26.470  1.00  0.00     0.163 HD
BRANCH   6   9
ATOM      9  C   UNL A   1      32.462  22.172  26.276  1.00  0.00     0.123 A 
ATOM     10  C   UNL A   1      32.855  19.535  25.639  1.00  0.00     0.141 A 
ATOM     11  N   UNL A   1      32.124  20.242  24.845  1.00  0.00    -0.237 NA
ATOM     12  N   UNL A   1      33.457  20.031  26.755  1.00  0.00    -0.306 N 
ATOM     13  C   UNL A   1      31.903  21.545  25.223  1.00  0.00     0.133 A 
ATOM     14  C   UNL A   1      33.459  21.371  27.016  1.00  0.00     0.264 A 
ATOM     15  H   UNL A   1      33.896  19.414  27.384  1.00  0.00     0.171 HD
ATOM     16  O   UNL A   1      34.306  21.842  27.769  1.00  0.00    -0.269 OA
BRANCH  10  17
ATOM     17  C   UNL A   1      33.132  18.151  25.327  1.00  0.00     0.031 A 
ATOM     18  C   UNL A   1      35.557  18.507  24.467  1.00  0.00     0.046 C 
ATOM     19  C   UNL A   1      34.375  17.650  24.787  1.00  0.00    -0.029 A 
ATOM     20  C   UNL A   1      34.331  16.279  24.627  1.00  0.00     0.069 A 
ATOM     21  S   UNL A   1      32.837  15.602  25.104  1.00  0.00    -0.151 S 
ATOM     22  C   UNL A   1      32.221  17.134  25.538  1.00  0.00     0.077 A 
ENDBRANCH  10  17
ENDBRANCH   6   9
ENDBRANCH   4   5
ENDBRANCH   3   4
ENDBRANCH   2   3
ENDBRANCH   1   2
BRANCH   1  23
ATOM     23  C   UNL A   1      36.280  22.053  24.339  1.00  0.00     0.021 C 
BRANCH  23  24
ATOM     24  C   UNL A   1      36.916  22.242  25.711  1.00  0.00     0.116 C 
BRANCH  24  25
ATOM     25  N   UNL A   1      37.869  21.184  26.007  1.00  0.00    -0.352 N 
ATOM     26  C   UNL A   1      39.202  21.274  26.311  1.00  0.00     0.251 C 
ATOM     27  H   UNL A   1      37.502  20.270  25.988  1.00  0.00     0.163 HD
ATOM     28  O   UNL A   1      39.909  20.272  26.290  1.00  0.00    -0.269 OA
BRANCH  26  29
ATOM     29  C   UNL A   1      39.791  22.583  26.659  1.00  0.00     0.039 A 
ATOM     30  C   UNL A   1      40.735  22.647  27.688  1.00  0.00     0.014 A 
ATOM     31  C   UNL A   1      39.389  23.748  26.001  1.00  0.00     0.014 A 
ATOM     32  C   UNL A   1      41.300  23.876  28.030  1.00  0.00     0.010 A 
ATOM     33  C   UNL A   1      40.011  24.959  26.289  1.00  0.00     0.010 A 
ATOM     34  C   UNL A   1      40.958  25.038  27.319  1.00  0.00    -0.014 A 
BRANCH  34  35
ATOM     35  C   UNL A   1      41.562  26.350  27.662  1.00  0.00     0.031 A 
ATOM     36  C   UNL A   1      42.970  26.665  27.240  1.00  0.00     0.074 A 
ATOM     37  C   UNL A   1      40.857  27.235  28.392  1.00  0.00     0.049 A 
ATOM     38  N   UNL A   1      43.685  27.737  27.475  1.00  0.00    -0.248 NA
ATOM     39  C   UNL A   1      43.680  25.627  26.476  1.00  0.00     0.031 C 
ATOM     40  C   UNL A   1      39.502  27.023  28.900  1.00  0.00     0.029 A 
ATOM     41  N   UNL A   1      41.187  28.491  28.837  1.00  0.00    -0.354 N 
ATOM     42  C   UNL A   1      44.926  27.495  26.900  1.00  0.00     0.074 A 
ATOM     43  C   UNL A   1      44.890  26.154  26.361  1.00  0.00     0.031 C 
ATOM     44  C   UNL A   1      39.104  28.121  29.562  1.00  0.00     0.029 A 
ATOM     45  C   UNL A   1      40.188  29.098  29.556  1.00  0.00     0.049 A 
ATOM     46  H   UNL A   1      42.057  28.916  28.658  1.00  0.00     0.167 HD
ATOM     47  C   UNL A   1      45.990  28.329  26.805  1.00  0.00     0.037 A 
ATOM     48  C   UNL A   1      40.154  30.308  30.147  1.00  0.00     0.037 A 
ATOM     49  C   UNL A   1      46.013  29.671  27.325  1.00  0.00     0.049 A 
ATOM     50  C   UNL A   1      41.351  31.213  30.031  1.00  0.00     0.074 A 
ATOM     51  C   UNL A   1      47.021  30.614  27.237  1.00  0.00     0.029 A 
ATOM     52  N   UNL A   1      44.976  30.258  28.036  1.00  0.00    -0.354 N 
ATOM     53  N   UNL A   1      42.494  31.001  29.424  1.00  0.00    -0.248 NA
ATOM     54  C   UNL A   1      41.248  32.530  30.673  1.00  0.00     0.031 C 
ATOM     55  C   UNL A   1      46.614  31.755  27.938  1.00  0.00     0.029 A 
ATOM     56  C   UNL A   1      45.329  31.544  28.411  1.00  0.00     0.049 A 
ATOM     57  H   UNL A   1      44.116  29.825  28.243  1.00  0.00     0.167 HD
ATOM     58  C   UNL A   1      43.232  32.167  29.583  1.00  0.00     0.074 A 
ATOM     59  C   UNL A   1      42.399  33.087  30.330  1.00  0.00     0.031 C 
ATOM     60  C   UNL A   1      44.485  32.451  29.148  1.00  0.00     0.037 A 
BRANCH  47  61
ATOM     61  C   UNL A   1      47.219  27.809  26.112  1.00  0.00     0.064 A 
ATOM     62  C   UNL A   1      47.358  27.868  24.716  1.00  0.00     0.173 A 
ATOM     63  C   UNL A   1      48.281  27.270  26.852  1.00  0.00     0.173 A 
ATOM     64  F   UNL A   1      46.368  28.363  23.958  1.00  0.00    -0.203 F 
ATOM     65  C   UNL A   1      48.498  27.374  24.086  1.00  0.00     0.198 A 
ATOM     66  C   UNL A   1      49.434  26.808  26.222  1.00  0.00     0.198 A 
ATOM     67  F   UNL A   1      48.205  27.194  28.190  1.00  0.00    -0.203 F 
ATOM     68  F   UNL A   1      48.582  27.388  22.749  1.00  0.00    -0.200 F 
ATOM     69  C   UNL A   1      49.538  26.851  24.840  1.00  0.00     0.200 A 
ATOM     70  F   UNL A   1      50.444  26.317  26.953  1.00  0.00    -0.200 F 
ATOM     71  F   UNL A   1      50.637  26.383  24.233  1.00  0.00    -0.200 F 
ENDBRANCH  47  61
BRANCH  48  72
ATOM     72  C   UNL A   1      38.931  30.747  30.869  1.00  0.00     0.064 A 
ATOM     73  C   UNL A   1      37.860  31.335  30.181  1.00  0.00     0.173 A 
ATOM     74  C   UNL A   1      38.809  30.594  32.258  1.00  0.00     0.173 A 
ATOM     75  F   UNL A   1      37.938  31.520  28.855  1.00  0.00    -0.203 F 
ATOM     76  C   UNL A   1      36.723  31.775  30.857  1.00  0.00     0.198 A 
ATOM     77  C   UNL A   1      37.658  31.006  32.929  1.00  0.00     0.198 A 
ATOM     78  F   UNL A   1      39.802  30.031  32.963  1.00  0.00    -0.203 F 
ATOM     79  F   UNL A   1      35.737  32.378  30.182  1.00  0.00    -0.200 F 
ATOM     80  C   UNL A   1      36.622  31.605  32.230  1.00  0.00     0.200 A 
ATOM     81  F   UNL A   1      37.557  30.825  34.253  1.00  0.00    -0.200 F 
ATOM     82  F   UNL A   1      35.527  32.024  32.879  1.00  0.00    -0.200 F 
ENDBRANCH  48  72
BRANCH  60  83
ATOM     83  C   UNL A   1      45.014  33.828  29.429  1.00  0.00     0.064 A 
ATOM     84  C   UNL A   1      45.764  34.112  30.580  1.00  0.00     0.173 A 
ATOM     85  C   UNL A   1      44.792  34.871  28.517  1.00  0.00     0.173 A 
ATOM     86  F   UNL A   1      45.993  33.154  31.491  1.00  0.00    -0.203 F 
ATOM     87  C   UNL A   1      46.243  35.397  30.824  1.00  0.00     0.198 A 
ATOM     88  C   UNL A   1      45.302  36.146  28.745  1.00  0.00     0.198 A 
ATOM     89  F   UNL A   1      44.088  34.652  27.396  1.00  0.00    -0.203 F 
ATOM     90  F   UNL A   1      46.908  35.659  31.957  1.00  0.00    -0.200 F 
ATOM     91  C   UNL A   1      46.018  36.410  29.903  1.00  0.00     0.200 A 
ATOM     92  F   UNL A   1      45.098  37.119  27.847  1.00  0.00    -0.200 F 
ATOM     93  F   UNL A   1      46.484  37.645  30.137  1.00  0.00    -0.200 F 
ENDBRANCH  60  83
ENDBRANCH  34  35
ENDBRANCH  26  29
ENDBRANCH  24  25
ENDBRANCH  23  24
ENDBRANCH   1  23
TORSDOF 14
ENDMDL
MODEL 2
REMARK VINA RESULT:     -11.8      5.698     10.969
REMARK SMILES Cc1cscc1-c1ncc(C(=O)NCCCCCCNC(=O)c2ccc(-c3c4nc(c(-c5c(F)c(F)c(F)c(F)c5F)c5ccc([nH]5)c(-c5c(F)c(F)c(F)c(F)c5F)c5nc(c(-c6c(F)c(F)c(F)c(F)c6F)c6ccc3[nH]6)C=C5)C=C4)cc2)c(=O)[nH]1
REMARK SMILES IDX 17 1 16 2 15 3 14 4 13 5 11 6 12 7 10 9 7 10 8 11 88 12 9 13
REMARK SMILES IDX 86 14 87 16 6 17 1 18 2 19 3 20 4 21 5 22 18 23 19 24 20 25
REMARK SMILES IDX 21 26 22 28 23 29 24 30 85 31 25 32 84 33 26 34 27 35 28 36
REMARK SMILES IDX 78 37 29 38 83 39 77 40 79 41 30 42 82 43 76 44 75 45 31 47
REMARK SMILES IDX 63 48 43 49 62 50 44 51 47 52 61 53 80 54 45 55 46 56 60 58
REMARK SMILES IDX 81 59 48 60 32 61 33 62 41 63 34 64 35 65 39 66 42 67 36 68
REMARK SMILES IDX 37 69 40 70 38 71 64 72 65 73 73 74 66 75 67 76 71 77 74 78
REMARK SMILES IDX 68 79 69 80 72 81 70 82 49 83 50 84 58 85 51 86 52 87 56 88
REMARK SMILES IDX 59 89 53 90 54 91 57 92 55 93
REMARK H PARENT 13 8 88 15 20 27 79 46 47 57
REMARK Flexibility Score: inf
ROOT
ATOM      1  C   UNL A   1      34.283  34.325  27.931  1.00  0.00     0.002 C 
ENDROOT
BRANCH   1   2
ATOM      2  C   UNL A   1      34.493  35.844  27.948  1.00  0.00     0.002 C 
BRANCH   2   3
ATOM      3  C   UNL A   1      33.657  36.596  28.994  1.00  0.00     0.021 C 
BRANCH   3   4
ATOM      4  C   UNL A   1      32.739  35.675  29.803  1.00  0.00     0.116 C 
BRANCH   4   5
ATOM      5  N   UNL A   1      32.339  36.331  31.031  1.00  0.00    -0.352 N 
ATOM      6  C   UNL A   1      32.694  36.143  32.328  1.00  0.00     0.258 C 
ATOM      7  O   UNL A   1      32.101  36.839  33.159  1.00  0.00    -0.269 OA
ATOM      8  H   UNL A   1      31.684  37.053  30.900  1.00  0.00     0.163 HD
BRANCH   6   9
ATOM      9  C   UNL A   1      33.786  35.233  32.758  1.00  0.00     0.123 A 
ATOM     10  C   UNL A   1      36.084  33.865  33.354  1.00  0.00     0.141 A 
ATOM     11  N   UNL A   1      36.151  35.152  33.289  1.00  0.00    -0.237 NA
ATOM     12  N   UNL A   1      34.936  33.157  33.168  1.00  0.00    -0.306 N 
ATOM     13  C   UNL A   1      34.993  35.802  32.935  1.00  0.00     0.133 A 
ATOM     14  C   UNL A   1      33.730  33.788  33.062  1.00  0.00     0.264 A 
ATOM     15  H   UNL A   1      34.977  32.175  33.106  1.00  0.00     0.171 HD
ATOM     16  O   UNL A   1      32.697  33.167  33.290  1.00  0.00    -0.269 OA
BRANCH  10  17
ATOM     17  C   UNL A   1      37.256  33.096  33.711  1.00  0.00     0.031 A 
ATOM     18  C   UNL A   1      38.297  33.000  31.334  1.00  0.00     0.046 C 
ATOM     19  C   UNL A   1      38.295  32.687  32.795  1.00  0.00    -0.029 A 
ATOM     20  C   UNL A   1      39.290  31.989  33.452  1.00  0.00     0.069 A 
ATOM     21  S   UNL A   1      38.989  31.819  35.124  1.00  0.00    -0.151 S 
ATOM     22  C   UNL A   1      37.521  32.682  35.002  1.00  0.00     0.077 A 
ENDBRANCH  10  17
ENDBRANCH   6   9
ENDBRANCH   4   5
ENDBRANCH   3   4
ENDBRANCH   2   3
ENDBRANCH   1   2
BRANCH   1  23
ATOM     23  C   UNL A   1      35.480  33.506  28.418  1.00  0.00     0.021 C 
BRANCH  23  24
ATOM     24  C   UNL A   1      35.123  32.430  29.438  1.00  0.00     0.116 C 
BRANCH  24  25
ATOM     25  N   UNL A   1      34.439  31.309  28.813  1.00  0.00    -0.352 N 
ATOM     26  C   UNL A   1      34.962  30.181  28.237  1.00  0.00     0.251 C 
ATOM     27  H   UNL A   1      33.455  31.370  28.804  1.00  0.00     0.163 HD
ATOM     28  O   UNL A   1      34.256  29.459  27.541  1.00  0.00    -0.269 OA
BRANCH  26  29
ATOM     29  C   UNL A   1      36.382  29.837  28.452  1.00  0.00     0.039 A 
ATOM     30  C   UNL A   1      36.769  29.302  29.683  1.00  0.00     0.014 A 
ATOM     31  C   UNL A   1      37.335  30.074  27.458  1.00  0.00     0.014 A 
ATOM     32  C   UNL A   1      38.107  28.972  29.902  1.00  0.00     0.010 A 
ATOM     33  C   UNL A   1      38.653  29.671  27.649  1.00  0.00     0.010 A 
ATOM     34  C   UNL A   1      39.055  29.133  28.879  1.00  0.00    -0.014 A 
BRANCH  34  35
ATOM     35  C   UNL A   1      40.479  28.773  29.093  1.00  0.00     0.031 A 
ATOM     36  C   UNL A   1      41.402  29.733  29.792  1.00  0.00     0.074 A 
ATOM     37  C   UNL A   1      40.948  27.603  28.619  1.00  0.00     0.049 A 
ATOM     38  N   UNL A   1      42.683  29.618  30.041  1.00  0.00    -0.248 NA
ATOM     39  C   UNL A   1      40.815  31.003  30.247  1.00  0.00     0.031 C 
ATOM     40  C   UNL A   1      40.162  26.613  27.884  1.00  0.00     0.029 A 
ATOM     41  N   UNL A   1      42.203  27.052  28.681  1.00  0.00    -0.354 N 
ATOM     42  C   UNL A   1      43.052  30.802  30.667  1.00  0.00     0.074 A 
ATOM     43  C   UNL A   1      41.879  31.646  30.705  1.00  0.00     0.031 C 
ATOM     44  C   UNL A   1      40.943  25.563  27.588  1.00  0.00     0.029 A 
ATOM     45  C   UNL A   1      42.293  25.822  28.080  1.00  0.00     0.049 A 
ATOM     46  H   UNL A   1      42.967  27.497  29.115  1.00  0.00     0.167 HD
ATOM     47  C   UNL A   1      44.255  31.142  31.190  1.00  0.00     0.037 A 
ATOM     48  C   UNL A   1      43.348  24.996  27.940  1.00  0.00     0.037 A 
ATOM     49  C   UNL A   1      45.414  30.288  31.169  1.00  0.00     0.049 A 
ATOM     50  C   UNL A   1      44.674  25.399  28.525  1.00  0.00     0.074 A 
ATOM     51  C   UNL A   1      46.664  30.516  31.715  1.00  0.00     0.029 A 
ATOM     52  N   UNL A   1      45.463  29.041  30.563  1.00  0.00    -0.354 N 
ATOM     53  N   UNL A   1      44.995  26.491  29.178  1.00  0.00    -0.248 NA
ATOM     54  C   UNL A   1      45.783  24.450  28.365  1.00  0.00     0.031 C 
ATOM     55  C   UNL A   1      47.485  29.428  31.396  1.00  0.00     0.029 A 
ATOM     56  C   UNL A   1      46.729  28.496  30.704  1.00  0.00     0.049 A 
ATOM     57  H   UNL A   1      44.710  28.606  30.102  1.00  0.00     0.167 HD
ATOM     58  C   UNL A   1      46.330  26.345  29.533  1.00  0.00     0.074 A 
ATOM     59  C   UNL A   1      46.753  25.052  29.036  1.00  0.00     0.031 C 
ATOM     60  C   UNL A   1      47.132  27.203  30.211  1.00  0.00     0.037 A 
BRANCH  47  61
ATOM     61  C   UNL A   1      44.375  32.497  31.829  1.00  0.00     0.064 A 
ATOM     62  C   UNL A   1      44.740  33.632  31.088  1.00  0.00     0.173 A 
ATOM     63  C   UNL A   1      44.098  32.669  33.193  1.00  0.00     0.173 A 
ATOM     64  F   UNL A   1      45.027  33.522  29.782  1.00  0.00    -0.203 F 
ATOM     65  C   UNL A   1      44.857  34.880  31.695  1.00  0.00     0.198 A 
ATOM     66  C   UNL A   1      44.182  33.924  33.790  1.00  0.00     0.198 A 
ATOM     67  F   UNL A   1      43.739  31.620  33.949  1.00  0.00    -0.203 F 
ATOM     68  F   UNL A   1      45.263  35.937  30.979  1.00  0.00    -0.200 F 
ATOM     69  C   UNL A   1      44.571  35.027  33.044  1.00  0.00     0.200 A 
ATOM     70  F   UNL A   1      43.891  34.067  35.091  1.00  0.00    -0.200 F 
ATOM     71  F   UNL A   1      44.677  36.229  33.626  1.00  0.00    -0.200 F 
ENDBRANCH  47  61
BRANCH  48  72
ATOM     72  C   UNL A   1      43.183  23.692  27.247  1.00  0.00     0.064 A 
ATOM     73  C   UNL A   1      42.584  22.602  27.894  1.00  0.00     0.173 A 
ATOM     74  C   UNL A   1      43.624  23.504  25.928  1.00  0.00     0.173 A 
ATOM     75  F   UNL A   1      42.164  22.727  29.162  1.00  0.00    -0.203 F 
ATOM     76  C   UNL A   1      42.453  21.368  27.259  1.00  0.00     0.198 A 
ATOM     77  C   UNL A   1      43.465  22.279  25.284  1.00  0.00     0.198 A 
ATOM     78  F   UNL A   1      44.198  24.517  25.261  1.00  0.00    -0.203 F 
ATOM     79  F   UNL A   1      41.922  20.331  27.920  1.00  0.00    -0.200 F 
ATOM     80  C   UNL A   1      42.889  21.210  25.952  1.00  0.00     0.200 A 
ATOM     81  F   UNL A   1      43.872  22.134  24.015  1.00  0.00    -0.200 F 
ATOM     82  F   UNL A   1      42.759  20.025  25.341  1.00  0.00    -0.200 F 
ENDBRANCH  48  72
BRANCH  60  83
ATOM     83  C   UNL A   1      48.536  26.752  30.494  1.00  0.00     0.064 A 
ATOM     84  C   UNL A   1      48.852  25.975  31.618  1.00  0.00     0.173 A 
ATOM     85  C   UNL A   1      49.576  27.079  29.610  1.00  0.00     0.173 A 
ATOM     86  F   UNL A   1      47.897  25.646  32.502  1.00  0.00    -0.203 F 
ATOM     87  C   UNL A   1      50.161  25.569  31.864  1.00  0.00     0.198 A 
ATOM     88  C   UNL A   1      50.878  26.644  29.839  1.00  0.00     0.198 A 
ATOM     89  F   UNL A   1      49.327  27.815  28.516  1.00  0.00    -0.203 F 
ATOM     90  F   UNL A   1      50.449  24.876  32.974  1.00  0.00    -0.200 F 
ATOM     91  C   UNL A   1      51.171  25.898  30.971  1.00  0.00     0.200 A 
ATOM     92  F   UNL A   1      51.849  26.948  28.968  1.00  0.00    -0.200 F 
ATOM     93  F   UNL A   1      52.430  25.503  31.207  1.00  0.00    -0.200 F 
ENDBRANCH  60  83
ENDBRANCH  34  35
ENDBRANCH  26  29
ENDBRANCH  24  25
ENDBRANCH  23  24
ENDBRANCH   1  23
TORSDOF 14
ENDMDL
MODEL 3
REMARK VINA RESULT:     -11.7      5.676     11.155
REMARK SMILES Cc1cscc1-c1ncc(C(=O)NCCCCCCNC(=O)c2ccc(-c3c4nc(c(-c5c(F)c(F)c(F)c(F)c5F)c5ccc([nH]5)c(-c5c(F)c(F)c(F)c(F)c5F)c5nc(c(-c6c(F)c(F)c(F)c(F)c6F)c6ccc3[nH]6)C=C5)C=C4)cc2)c(=O)[nH]1
REMARK SMILES IDX 17 1 16 2 15 3 14 4 13 5 11 6 12 7 10 9 7 10 8 11 88 12 9 13
REMARK SMILES IDX 86 14 87 16 6 17 1 18 2 19 3 20 4 21 5 22 18 23 19 24 20 25
REMARK SMILES IDX 21 26 22 28 23 29 24 30 85 31 25 32 84 33 26 34 27 35 28 36
REMARK SMILES IDX 78 37 29 38 83 39 77 40 79 41 30 42 82 43 76 44 75 45 31 47
REMARK SMILES IDX 63 48 43 49 62 50 44 51 47 52 61 53 80 54 45 55 46 56 60 58
REMARK SMILES IDX 81 59 48 60 32 61 33 62 41 63 34 64 35 65 39 66 42 67 36 68
REMARK SMILES IDX 37 69 40 70 38 71 64 72 65 73 73 74 66 75 67 76 71 77 74 78
REMARK SMILES IDX 68 79 69 80 72 81 70 82 49 83 50 84 58 85 51 86 52 87 56 88
REMARK SMILES IDX 59 89 53 90 54 91 57 92 55 93
REMARK H PARENT 13 8 88 15 20 27 79 46 47 57
REMARK Flexibility Score: inf
ROOT
ATOM      1  C   UNL A   1      34.533  34.423  28.596  1.00  0.00     0.002 C 
ENDROOT
BRANCH   1   2
ATOM      2  C   UNL A   1      34.436  32.968  29.069  1.00  0.00     0.002 C 
BRANCH   2   3
ATOM      3  C   UNL A   1      35.196  31.958  28.197  1.00  0.00     0.021 C 
BRANCH   3   4
ATOM      4  C   UNL A   1      34.294  30.860  27.626  1.00  0.00     0.116 C 
BRANCH   4   5
ATOM      5  N   UNL A   1      33.026  31.426  27.215  1.00  0.00    -0.352 N 
ATOM      6  C   UNL A   1      31.946  30.897  26.584  1.00  0.00     0.258 C 
ATOM      7  O   UNL A   1      31.036  31.686  26.311  1.00  0.00    -0.269 OA
ATOM      8  H   UNL A   1      32.927  32.380  27.437  1.00  0.00     0.163 HD
BRANCH   6   9
ATOM      9  C   UNL A   1      31.790  29.448  26.301  1.00  0.00     0.123 A 
ATOM     10  C   UNL A   1      31.713  26.711  26.188  1.00  0.00     0.141 A 
ATOM     11  N   UNL A   1      31.673  27.265  27.352  1.00  0.00    -0.237 NA
ATOM     12  N   UNL A   1      31.767  27.408  25.020  1.00  0.00    -0.306 N 
ATOM     13  C   UNL A   1      31.768  28.635  27.375  1.00  0.00     0.133 A 
ATOM     14  C   UNL A   1      31.611  28.764  25.003  1.00  0.00     0.264 A 
ATOM     15  H   UNL A   1      31.922  26.927  24.175  1.00  0.00     0.171 HD
ATOM     16  O   UNL A   1      31.270  29.324  23.966  1.00  0.00    -0.269 OA
BRANCH  10  17
ATOM     17  C   UNL A   1      31.630  25.272  26.068  1.00  0.00     0.031 A 
ATOM     18  C   UNL A   1      34.169  24.840  25.744  1.00  0.00     0.046 C 
ATOM     19  C   UNL A   1      32.751  24.385  25.865  1.00  0.00    -0.029 A 
ATOM     20  C   UNL A   1      32.341  23.067  25.820  1.00  0.00     0.069 A 
ATOM     21  S   UNL A   1      30.653  22.889  26.008  1.00  0.00    -0.151 S 
ATOM     22  C   UNL A   1      30.439  24.576  26.158  1.00  0.00     0.077 A 
ENDBRANCH  10  17
ENDBRANCH   6   9
ENDBRANCH   4   5
ENDBRANCH   3   4
ENDBRANCH   2   3
ENDBRANCH   1   2
BRANCH   1  23
ATOM     23  C   UNL A   1      33.248  35.239  28.760  1.00  0.00     0.021 C 
BRANCH  23  24
ATOM     24  C   UNL A   1      33.404  36.473  29.641  1.00  0.00     0.116 C 
BRANCH  24  25
ATOM     25  N   UNL A   1      32.477  36.449  30.762  1.00  0.00    -0.352 N 
ATOM     26  C   UNL A   1      32.511  35.691  31.903  1.00  0.00     0.251 C 
ATOM     27  H   UNL A   1      31.714  37.068  30.690  1.00  0.00     0.163 HD
ATOM     28  O   UNL A   1      31.524  35.618  32.626  1.00  0.00    -0.269 OA
BRANCH  26  29
ATOM     29  C   UNL A   1      33.742  34.955  32.261  1.00  0.00     0.039 A 
ATOM     30  C   UNL A   1      34.973  35.607  32.157  1.00  0.00     0.014 A 
ATOM     31  C   UNL A   1      33.686  33.618  32.662  1.00  0.00     0.014 A 
ATOM     32  C   UNL A   1      36.145  34.926  32.491  1.00  0.00     0.010 A 
ATOM     33  C   UNL A   1      34.845  32.966  33.070  1.00  0.00     0.010 A 
ATOM     34  C   UNL A   1      36.088  33.608  32.970  1.00  0.00    -0.014 A 
BRANCH  34  35
ATOM     35  C   UNL A   1      37.324  32.876  33.342  1.00  0.00     0.031 A 
ATOM     36  C   UNL A   1      38.025  33.188  34.636  1.00  0.00     0.074 A 
ATOM     37  C   UNL A   1      37.838  31.964  32.494  1.00  0.00     0.049 A 
ATOM     38  N   UNL A   1      39.133  32.686  35.120  1.00  0.00    -0.248 NA
ATOM     39  C   UNL A   1      37.415  34.222  35.486  1.00  0.00     0.031 C 
ATOM     40  C   UNL A   1      37.276  31.611  31.192  1.00  0.00     0.029 A 
ATOM     41  N   UNL A   1      38.953  31.172  32.602  1.00  0.00    -0.354 N 
ATOM     42  C   UNL A   1      39.356  33.351  36.319  1.00  0.00     0.074 A 
ATOM     43  C   UNL A   1      38.305  34.335  36.460  1.00  0.00     0.031 C 
ATOM     44  C   UNL A   1      38.030  30.652  30.632  1.00  0.00     0.029 A 
ATOM     45  C   UNL A   1      39.150  30.350  31.520  1.00  0.00     0.049 A 
ATOM     46  H   UNL A   1      39.556  31.191  33.381  1.00  0.00     0.167 HD
ATOM     47  C   UNL A   1      40.332  33.140  37.234  1.00  0.00     0.037 A 
ATOM     48  C   UNL A   1      40.125  29.456  31.273  1.00  0.00     0.037 A 
ATOM     49  C   UNL A   1      41.363  32.144  37.098  1.00  0.00     0.049 A 
ATOM     50  C   UNL A   1      41.201  29.243  32.303  1.00  0.00     0.074 A 
ATOM     51  C   UNL A   1      42.368  31.814  37.990  1.00  0.00     0.029 A 
ATOM     52  N   UNL A   1      41.522  31.319  35.994  1.00  0.00    -0.354 N 
ATOM     53  N   UNL A   1      41.362  29.828  33.466  1.00  0.00    -0.248 NA
ATOM     54  C   UNL A   1      42.225  28.238  31.991  1.00  0.00     0.031 C 
ATOM     55  C   UNL A   1      43.165  30.825  37.403  1.00  0.00     0.029 A 
ATOM     56  C   UNL A   1      42.621  30.495  36.173  1.00  0.00     0.049 A 
ATOM     57  H   UNL A   1      40.939  31.319  35.200  1.00  0.00     0.167 HD
ATOM     58  C   UNL A   1      42.483  29.239  34.037  1.00  0.00     0.074 A 
ATOM     59  C   UNL A   1      42.952  28.242  33.098  1.00  0.00     0.031 C 
ATOM     60  C   UNL A   1      43.070  29.500  35.231  1.00  0.00     0.037 A 
BRANCH  47  61
ATOM     61  C   UNL A   1      40.330  34.004  38.464  1.00  0.00     0.064 A 
ATOM     62  C   UNL A   1      41.054  35.206  38.522  1.00  0.00     0.173 A 
ATOM     63  C   UNL A   1      39.574  33.643  39.588  1.00  0.00     0.173 A 
ATOM     64  F   UNL A   1      41.803  35.594  37.478  1.00  0.00    -0.203 F 
ATOM     65  C   UNL A   1      41.050  35.993  39.671  1.00  0.00     0.198 A 
ATOM     66  C   UNL A   1      39.545  34.449  40.723  1.00  0.00     0.198 A 
ATOM     67  F   UNL A   1      38.858  32.508  39.587  1.00  0.00    -0.203 F 
ATOM     68  F   UNL A   1      41.795  37.104  39.723  1.00  0.00    -0.200 F 
ATOM     69  C   UNL A   1      40.290  35.617  40.768  1.00  0.00     0.200 A 
ATOM     70  F   UNL A   1      38.797  34.092  41.777  1.00  0.00    -0.200 F 
ATOM     71  F   UNL A   1      40.281  36.378  41.870  1.00  0.00    -0.200 F 
ENDBRANCH  47  61
BRANCH  48  72
ATOM     72  C   UNL A   1      40.108  28.669  30.011  1.00  0.00     0.064 A 
ATOM     73  C   UNL A   1      40.712  29.163  28.847  1.00  0.00     0.173 A 
ATOM     74  C   UNL A   1      39.487  27.413  29.942  1.00  0.00     0.173 A 
ATOM     75  F   UNL A   1      41.302  30.367  28.858  1.00  0.00    -0.203 F 
ATOM     76  C   UNL A   1      40.675  28.442  27.654  1.00  0.00     0.198 A 
ATOM     77  C   UNL A   1      39.478  26.680  28.757  1.00  0.00     0.198 A 
ATOM     78  F   UNL A   1      38.901  26.892  31.030  1.00  0.00    -0.203 F 
ATOM     79  F   UNL A   1      41.217  28.961  26.544  1.00  0.00    -0.200 F 
ATOM     80  C   UNL A   1      40.062  27.199  27.612  1.00  0.00     0.200 A 
ATOM     81  F   UNL A   1      38.899  25.471  28.725  1.00  0.00    -0.200 F 
ATOM     82  F   UNL A   1      40.031  26.504  26.466  1.00  0.00    -0.200 F 
ENDBRANCH  48  72
BRANCH  60  83
ATOM     83  C   UNL A   1      44.258  28.663  35.611  1.00  0.00     0.064 A 
ATOM     84  C   UNL A   1      45.566  29.038  35.274  1.00  0.00     0.173 A 
ATOM     85  C   UNL A   1      44.083  27.482  36.349  1.00  0.00     0.173 A 
ATOM     86  F   UNL A   1      45.787  30.151  34.557  1.00  0.00    -0.203 F 
ATOM     87  C   UNL A   1      46.654  28.246  35.633  1.00  0.00     0.198 A 
ATOM     88  C   UNL A   1      45.174  26.710  36.737  1.00  0.00     0.198 A 
ATOM     89  F   UNL A   1      42.853  27.081  36.704  1.00  0.00    -0.203 F 
ATOM     90  F   UNL A   1      47.890  28.594  35.251  1.00  0.00    -0.200 F 
ATOM     91  C   UNL A   1      46.457  27.087  36.370  1.00  0.00     0.200 A 
ATOM     92  F   UNL A   1      44.984  25.600  37.463  1.00  0.00    -0.200 F 
ATOM     93  F   UNL A   1      47.506  26.328  36.719  1.00  0.00    -0.200 F 
ENDBRANCH  60  83
ENDBRANCH  34  35
ENDBRANCH  26  29
ENDBRANCH  24  25
ENDBRANCH  23  24
ENDBRANCH   1  23
TORSDOF 14
ENDMDL
