MODEL 1
REMARK VINA RESULT:     -12.5      0.000      0.000
REMARK SMILES COc1ccc(-c2ccc(/C=C3\SC(=S)N([C@H](Cc4ccccc4)C(=O)NCCCCCCNC(=O)c4ccc(-c5c6nc(c(-c7c(F)c(F)c(F)c(F)c7F)c7ccc([nH]7)c(-c7c(F)c(F)c(F)c(F)c7F)c7nc(c(-c8c(F)c(F)c(F)c(F)c8F)c8ccc5[nH]8)C=C7)C=C6)cc4)C3=O)o2)cc1
REMARK SMILES IDX 29 1 28 2 27 3 25 4 26 5 17 7 16 8 11 9 12 10 13 11 100 12
REMARK SMILES IDX 14 13 101 14 15 15 10 16 7 17 8 18 102 19 9 20 6 21 3 22
REMARK SMILES IDX 4 23 104 24 5 25 103 26 2 27 1 28 18 29 19 30 20 31 24 32
REMARK SMILES IDX 21 33 23 34 22 35 30 36 31 37 32 38 33 39 34 40 35 41 36 43
REMARK SMILES IDX 37 44 38 45 99 46 39 47 98 48 40 49 41 50 42 51 92 52 43 53
REMARK SMILES IDX 97 54 91 55 93 56 44 57 96 58 90 59 89 60 45 62 77 63 57 64
REMARK SMILES IDX 76 65 58 66 61 67 75 68 94 69 59 70 60 71 74 73 95 74 62 75
REMARK SMILES IDX 46 76 47 77 55 78 48 79 49 80 53 81 56 82 50 83 51 84 54 85
REMARK SMILES IDX 52 86 78 87 79 88 87 89 80 90 81 91 85 92 88 93 82 94 83 95
REMARK SMILES IDX 86 96 84 97 63 98 64 99 72 100 65 101 66 102 70 103 73 104
REMARK SMILES IDX 67 105 68 106 71 107 69 108
REMARK H PARENT 27 6 34 42 93 61 61 72
REMARK Flexibility Score: inf
ROOT
ATOM      1  C   UNL A   1      38.809  22.889  26.507  1.00  0.00     0.021 C 
ENDROOT
BRANCH   1   2
ATOM      2  C   UNL A   1      37.536  23.413  25.854  1.00  0.00     0.116 C 
BRANCH   2   3
ATOM      3  N   UNL A   1      37.504  23.147  24.424  1.00  0.00    -0.354 N 
ATOM      4  C   UNL A   1      36.450  22.882  23.594  1.00  0.00     0.243 C 
ATOM      5  O   UNL A   1      36.654  22.954  22.378  1.00  0.00    -0.273 OA
ATOM      6  H   UNL A   1      38.384  23.159  23.982  1.00  0.00     0.163 HD
BRANCH   4   7
ATOM      7  C   UNL A   1      35.050  22.501  24.132  1.00  0.00     0.185 C 
BRANCH   7   8
ATOM      8  N   UNL A   1      34.165  23.624  24.571  1.00  0.00    -0.280 N 
ATOM      9  C   UNL A   1      32.968  26.947  23.865  1.00  0.00     0.068 C 
ATOM     10  C   UNL A   1      33.219  25.785  24.481  1.00  0.00     0.084 C 
ATOM     11  S   UNL A   1      33.032  25.358  26.124  1.00  0.00    -0.054 SA
ATOM     12  C   UNL A   1      33.757  24.633  23.721  1.00  0.00     0.267 C 
ATOM     13  C   UNL A   1      33.680  23.742  25.863  1.00  0.00     0.149 C 
ATOM     14  O   UNL A   1      33.771  24.631  22.497  1.00  0.00    -0.268 OA
ATOM     15  S   UNL A   1      33.668  22.616  27.092  1.00  0.00    -0.052 S 
BRANCH   9  16
ATOM     16  C   UNL A   1      32.549  28.127  24.528  1.00  0.00     0.128 A 
ATOM     17  C   UNL A   1      32.663  29.841  25.935  1.00  0.00     0.134 A 
ATOM     18  C   UNL A   1      31.405  29.888  25.381  1.00  0.00     0.051 A 
ATOM     19  O   UNL A   1      33.346  28.774  25.442  1.00  0.00    -0.457 OA
ATOM     20  C   UNL A   1      31.336  28.804  24.476  1.00  0.00     0.051 A 
BRANCH  17  21
ATOM     21  C   UNL A   1      33.375  30.662  26.897  1.00  0.00     0.017 A 
ATOM     22  C   UNL A   1      34.800  32.277  28.703  1.00  0.00     0.118 A 
ATOM     23  C   UNL A   1      35.269  31.006  28.374  1.00  0.00     0.047 A 
ATOM     24  C   UNL A   1      33.622  32.748  28.122  1.00  0.00     0.047 A 
ATOM     25  C   UNL A   1      34.554  30.196  27.489  1.00  0.00     0.016 A 
ATOM     26  C   UNL A   1      32.917  31.945  27.218  1.00  0.00     0.016 A 
BRANCH  22  27
ATOM     27  O   UNL A   1      35.593  32.984  29.566  1.00  0.00    -0.497 OA
ATOM     28  C   UNL A   1      36.205  32.225  30.602  1.00  0.00     0.278 C 
ENDBRANCH  22  27
ENDBRANCH  17  21
ENDBRANCH   9  16
ENDBRANCH   7   8
BRANCH   7  29
ATOM     29  C   UNL A   1      35.148  21.355  25.181  1.00  0.00     0.071 C 
BRANCH  29  30
ATOM     30  C   UNL A   1      34.542  20.043  24.727  1.00  0.00    -0.045 A 
ATOM     31  C   UNL A   1      33.197  19.976  24.338  1.00  0.00     0.004 A 
ATOM     32  C   UNL A   1      35.324  18.882  24.665  1.00  0.00     0.004 A 
ATOM     33  C   UNL A   1      32.646  18.767  23.908  1.00  0.00     0.000 A 
ATOM     34  C   UNL A   1      34.767  17.672  24.249  1.00  0.00     0.000 A 
ATOM     35  C   UNL A   1      33.428  17.615  23.870  1.00  0.00     0.000 A 
ENDBRANCH  29  30
ENDBRANCH   7  29
ENDBRANCH   4   7
ENDBRANCH   2   3
ENDBRANCH   1   2
BRANCH   1  36
ATOM     36  C   UNL A   1      39.256  21.518  25.983  1.00  0.00     0.002 C 
BRANCH  36  37
ATOM     37  C   UNL A   1      40.692  21.110  26.339  1.00  0.00     0.002 C 
BRANCH  37  38
ATOM     38  C   UNL A   1      41.072  19.666  26.001  1.00  0.00     0.021 C 
BRANCH  38  39
ATOM     39  C   UNL A   1      42.457  19.236  26.473  1.00  0.00     0.116 C 
BRANCH  39  40
ATOM     40  N   UNL A   1      43.313  18.813  25.379  1.00  0.00    -0.352 N 
ATOM     41  C   UNL A   1      44.202  19.548  24.637  1.00  0.00     0.251 C 
ATOM     42  H   UNL A   1      43.246  17.861  25.136  1.00  0.00     0.163 HD
ATOM     43  O   UNL A   1      44.740  19.055  23.651  1.00  0.00    -0.269 OA
BRANCH  41  44
ATOM     44  C   UNL A   1      44.494  20.947  25.009  1.00  0.00     0.039 A 
ATOM     45  C   UNL A   1      43.968  21.974  24.220  1.00  0.00     0.014 A 
ATOM     46  C   UNL A   1      45.288  21.249  26.119  1.00  0.00     0.014 A 
ATOM     47  C   UNL A   1      44.195  23.305  24.573  1.00  0.00     0.010 A 
ATOM     48  C   UNL A   1      45.461  22.576  26.506  1.00  0.00     0.010 A 
ATOM     49  C   UNL A   1      44.920  23.615  25.735  1.00  0.00    -0.014 A 
BRANCH  49  50
ATOM     50  C   UNL A   1      45.124  25.023  26.154  1.00  0.00     0.031 A 
ATOM     51  C   UNL A   1      46.482  25.656  26.038  1.00  0.00     0.074 A 
ATOM     52  C   UNL A   1      44.101  25.711  26.694  1.00  0.00     0.049 A 
ATOM     53  N   UNL A   1      46.873  26.850  26.407  1.00  0.00    -0.248 NA
ATOM     54  C   UNL A   1      47.549  24.828  25.457  1.00  0.00     0.031 C 
ATOM     55  C   UNL A   1      42.749  25.189  26.903  1.00  0.00     0.029 A 
ATOM     56  N   UNL A   1      44.041  26.994  27.178  1.00  0.00    -0.354 N 
ATOM     57  C   UNL A   1      48.230  26.909  26.117  1.00  0.00     0.074 A 
ATOM     58  C   UNL A   1      48.605  25.615  25.587  1.00  0.00     0.031 C 
ATOM     59  C   UNL A   1      41.988  26.148  27.453  1.00  0.00     0.029 A 
ATOM     60  C   UNL A   1      42.805  27.340  27.667  1.00  0.00     0.049 A 
ATOM     61  H   UNL A   1      44.811  27.607  27.175  1.00  0.00     0.167 HD
ATOM     62  C   UNL A   1      49.078  27.955  26.258  1.00  0.00     0.037 A 
ATOM     63  C   UNL A   1      42.380  28.488  28.226  1.00  0.00     0.037 A 
ATOM     64  C   UNL A   1      48.695  29.249  26.757  1.00  0.00     0.049 A 
ATOM     65  C   UNL A   1      43.341  29.638  28.364  1.00  0.00     0.074 A 
ATOM     66  C   UNL A   1      49.464  30.393  26.877  1.00  0.00     0.029 A 
ATOM     67  N   UNL A   1      47.427  29.569  27.222  1.00  0.00    -0.354 N 
ATOM     68  N   UNL A   1      44.605  29.704  28.023  1.00  0.00    -0.248 NA
ATOM     69  C   UNL A   1      42.813  30.874  28.956  1.00  0.00     0.031 C 
ATOM     70  C   UNL A   1      48.673  31.394  27.451  1.00  0.00     0.029 A 
ATOM     71  C   UNL A   1      47.399  30.887  27.648  1.00  0.00     0.049 A 
ATOM     72  H   UNL A   1      46.660  28.952  27.245  1.00  0.00     0.167 HD
ATOM     73  C   UNL A   1      45.017  30.993  28.336  1.00  0.00     0.074 A 
ATOM     74  C   UNL A   1      43.864  31.679  28.881  1.00  0.00     0.031 C 
ATOM     75  C   UNL A   1      46.241  31.555  28.185  1.00  0.00     0.037 A 
BRANCH  62  76
ATOM     76  C   UNL A   1      50.512  27.741  25.864  1.00  0.00     0.064 A 
ATOM     77  C   UNL A   1      50.936  27.879  24.534  1.00  0.00     0.173 A 
ATOM     78  C   UNL A   1      51.476  27.422  26.832  1.00  0.00     0.173 A 
ATOM     79  F   UNL A   1      50.051  28.171  23.570  1.00  0.00    -0.203 F 
ATOM     80  C   UNL A   1      52.268  27.675  24.182  1.00  0.00     0.198 A 
ATOM     81  C   UNL A   1      52.812  27.248  26.480  1.00  0.00     0.198 A 
ATOM     82  F   UNL A   1      51.125  27.284  28.118  1.00  0.00    -0.203 F 
ATOM     83  F   UNL A   1      52.641  27.762  22.898  1.00  0.00    -0.200 F 
ATOM     84  C   UNL A   1      53.205  27.366  25.156  1.00  0.00     0.200 A 
ATOM     85  F   UNL A   1      53.720  26.960  27.425  1.00  0.00    -0.200 F 
ATOM     86  F   UNL A   1      54.488  27.174  24.816  1.00  0.00    -0.200 F 
ENDBRANCH  62  76
BRANCH  63  87
ATOM     87  C   UNL A   1      40.969  28.615  28.671  1.00  0.00     0.064 A 
ATOM     88  C   UNL A   1      39.969  29.022  27.777  1.00  0.00     0.173 A 
ATOM     89  C   UNL A   1      40.589  28.326  29.989  1.00  0.00     0.173 A 
ATOM     90  F   UNL A   1      40.288  29.328  26.511  1.00  0.00    -0.203 F 
ATOM     91  C   UNL A   1      38.644  29.150  28.189  1.00  0.00     0.198 A 
ATOM     92  C   UNL A   1      39.260  28.430  30.393  1.00  0.00     0.198 A 
ATOM     93  F   UNL A   1      41.508  27.927  30.881  1.00  0.00    -0.203 F 
ATOM     94  F   UNL A   1      37.715  29.578  27.324  1.00  0.00    -0.200 F 
ATOM     95  C   UNL A   1      38.290  28.848  29.495  1.00  0.00     0.200 A 
ATOM     96  F   UNL A   1      38.919  28.123  31.652  1.00  0.00    -0.200 F 
ATOM     97  F   UNL A   1      37.015  28.964  29.890  1.00  0.00    -0.200 F 
ENDBRANCH  63  87
BRANCH  75  98
ATOM     98  C   UNL A   1      46.389  32.992  28.590  1.00  0.00     0.064 A 
ATOM     99  C   UNL A   1      46.132  34.039  27.692  1.00  0.00     0.173 A 
ATOM    100  C   UNL A   1      46.757  33.326  29.902  1.00  0.00     0.173 A 
ATOM    101  F   UNL A   1      45.794  33.769  26.421  1.00  0.00    -0.203 F 
ATOM    102  C   UNL A   1      46.260  35.367  28.087  1.00  0.00     0.198 A 
ATOM    103  C   UNL A   1      46.856  34.656  30.301  1.00  0.00     0.198 A 
ATOM    104  F   UNL A   1      47.008  32.362  30.800  1.00  0.00    -0.203 F 
ATOM    105  F   UNL A   1      46.053  36.351  27.200  1.00  0.00    -0.200 F 
ATOM    106  C   UNL A   1      46.614  35.675  29.392  1.00  0.00     0.200 A 
ATOM    107  F   UNL A   1      47.188  34.952  31.565  1.00  0.00    -0.200 F 
ATOM    108  F   UNL A   1      46.731  36.955  29.771  1.00  0.00    -0.200 F 
ENDBRANCH  75  98
ENDBRANCH  49  50
ENDBRANCH  41  44
ENDBRANCH  39  40
ENDBRANCH  38  39
ENDBRANCH  37  38
ENDBRANCH  36  37
ENDBRANCH   1  36
TORSDOF 19
ENDMDL
MODEL 2
REMARK VINA RESULT:     -12.0      2.563      4.939
REMARK SMILES COc1ccc(-c2ccc(/C=C3\SC(=S)N([C@H](Cc4ccccc4)C(=O)NCCCCCCNC(=O)c4ccc(-c5c6nc(c(-c7c(F)c(F)c(F)c(F)c7F)c7ccc([nH]7)c(-c7c(F)c(F)c(F)c(F)c7F)c7nc(c(-c8c(F)c(F)c(F)c(F)c8F)c8ccc5[nH]8)C=C7)C=C6)cc4)C3=O)o2)cc1
REMARK SMILES IDX 29 1 28 2 27 3 25 4 26 5 17 7 16 8 11 9 12 10 13 11 100 12
REMARK SMILES IDX 14 13 101 14 15 15 10 16 7 17 8 18 102 19 9 20 6 21 3 22
REMARK SMILES IDX 4 23 104 24 5 25 103 26 2 27 1 28 18 29 19 30 20 31 24 32
REMARK SMILES IDX 21 33 23 34 22 35 30 36 31 37 32 38 33 39 34 40 35 41 36 43
REMARK SMILES IDX 37 44 38 45 99 46 39 47 98 48 40 49 41 50 42 51 92 52 43 53
REMARK SMILES IDX 97 54 91 55 93 56 44 57 96 58 90 59 89 60 45 62 77 63 57 64
REMARK SMILES IDX 76 65 58 66 61 67 75 68 94 69 59 70 60 71 74 73 95 74 62 75
REMARK SMILES IDX 46 76 47 77 55 78 48 79 49 80 53 81 56 82 50 83 51 84 54 85
REMARK SMILES IDX 52 86 78 87 79 88 87 89 80 90 81 91 85 92 88 93 82 94 83 95
REMARK SMILES IDX 86 96 84 97 63 98 64 99 72 100 65 101 66 102 70 103 73 104
REMARK SMILES IDX 67 105 68 106 71 107 69 108
REMARK H PARENT 27 6 34 42 93 61 61 72
REMARK Flexibility Score: inf
ROOT
ATOM      1  C   UNL A   1      34.686  24.205  23.390  1.00  0.00     0.021 C 
ENDROOT
BRANCH   1   2
ATOM      2  C   UNL A   1      33.368  24.408  22.652  1.00  0.00     0.116 C 
BRANCH   2   3
ATOM      3  N   UNL A   1      32.221  24.059  23.475  1.00  0.00    -0.354 N 
ATOM      4  C   UNL A   1      31.124  24.798  23.826  1.00  0.00     0.243 C 
ATOM      5  O   UNL A   1      30.164  24.190  24.313  1.00  0.00    -0.273 OA
ATOM      6  H   UNL A   1      32.236  23.144  23.838  1.00  0.00     0.163 HD
BRANCH   4   7
ATOM      7  C   UNL A   1      31.064  26.332  23.637  1.00  0.00     0.185 C 
BRANCH   7   8
ATOM      8  N   UNL A   1      32.167  27.134  24.250  1.00  0.00    -0.280 N 
ATOM      9  C   UNL A   1      33.346  28.849  27.189  1.00  0.00     0.068 C 
ATOM     10  C   UNL A   1      33.232  28.402  25.933  1.00  0.00     0.084 C 
ATOM     11  S   UNL A   1      34.002  28.942  24.508  1.00  0.00    -0.054 SA
ATOM     12  C   UNL A   1      32.316  27.281  25.615  1.00  0.00     0.267 C 
ATOM     13  C   UNL A   1      33.131  27.789  23.502  1.00  0.00     0.149 C 
ATOM     14  O   UNL A   1      31.822  26.595  26.500  1.00  0.00    -0.268 OA
ATOM     15  S   UNL A   1      33.502  27.626  21.885  1.00  0.00    -0.052 S 
BRANCH   9  16
ATOM     16  C   UNL A   1      34.118  29.976  27.568  1.00  0.00     0.128 A 
ATOM     17  C   UNL A   1      34.527  32.028  28.312  1.00  0.00     0.134 A 
ATOM     18  C   UNL A   1      35.742  31.518  27.917  1.00  0.00     0.051 A 
ATOM     19  O   UNL A   1      33.546  31.114  28.084  1.00  0.00    -0.457 OA
ATOM     20  C   UNL A   1      35.484  30.207  27.454  1.00  0.00     0.051 A 
BRANCH  17  21
ATOM     21  C   UNL A   1      34.101  33.287  28.893  1.00  0.00     0.017 A 
ATOM     22  C   UNL A   1      33.207  35.694  30.039  1.00  0.00     0.118 A 
ATOM     23  C   UNL A   1      32.847  35.358  28.734  1.00  0.00     0.047 A 
ATOM     24  C   UNL A   1      34.007  34.821  30.777  1.00  0.00     0.047 A 
ATOM     25  C   UNL A   1      33.303  34.171  28.157  1.00  0.00     0.016 A 
ATOM     26  C   UNL A   1      34.446  33.620  30.208  1.00  0.00     0.016 A 
BRANCH  22  27
ATOM     27  O   UNL A   1      32.687  36.871  30.500  1.00  0.00    -0.497 OA
ATOM     28  C   UNL A   1      32.962  37.175  31.862  1.00  0.00     0.278 C 
ENDBRANCH  22  27
ENDBRANCH  17  21
ENDBRANCH   9  16
ENDBRANCH   7   8
BRANCH   7  29
ATOM     29  C   UNL A   1      29.648  26.881  23.978  1.00  0.00     0.071 C 
BRANCH  29  30
ATOM     30  C   UNL A   1      29.254  28.116  23.195  1.00  0.00    -0.045 A 
ATOM     31  C   UNL A   1      27.945  28.614  23.259  1.00  0.00     0.004 A 
ATOM     32  C   UNL A   1      30.199  28.794  22.413  1.00  0.00     0.004 A 
ATOM     33  C   UNL A   1      27.590  29.760  22.544  1.00  0.00     0.000 A 
ATOM     34  C   UNL A   1      29.838  29.931  21.689  1.00  0.00     0.000 A 
ATOM     35  C   UNL A   1      28.534  30.414  21.755  1.00  0.00     0.000 A 
ENDBRANCH  29  30
ENDBRANCH   7  29
ENDBRANCH   4   7
ENDBRANCH   2   3
ENDBRANCH   1   2
BRANCH   1  36
ATOM     36  C   UNL A   1      35.134  22.740  23.470  1.00  0.00     0.002 C 
BRANCH  36  37
ATOM     37  C   UNL A   1      36.650  22.514  23.545  1.00  0.00     0.002 C 
BRANCH  37  38
ATOM     38  C   UNL A   1      37.105  21.387  24.474  1.00  0.00     0.021 C 
BRANCH  38  39
ATOM     39  C   UNL A   1      37.926  21.836  25.679  1.00  0.00     0.116 C 
BRANCH  39  40
ATOM     40  N   UNL A   1      38.883  20.832  26.107  1.00  0.00    -0.352 N 
ATOM     41  C   UNL A   1      40.145  20.996  26.618  1.00  0.00     0.251 C 
ATOM     42  H   UNL A   1      38.583  19.898  26.018  1.00  0.00     0.163 HD
ATOM     43  O   UNL A   1      40.873  20.024  26.794  1.00  0.00    -0.269 OA
BRANCH  41  44
ATOM     44  C   UNL A   1      40.642  22.351  26.935  1.00  0.00     0.039 A 
ATOM     45  C   UNL A   1      41.561  22.500  27.977  1.00  0.00     0.014 A 
ATOM     46  C   UNL A   1      40.200  23.468  26.221  1.00  0.00     0.014 A 
ATOM     47  C   UNL A   1      42.077  23.764  28.270  1.00  0.00     0.010 A 
ATOM     48  C   UNL A   1      40.762  24.717  26.472  1.00  0.00     0.010 A 
ATOM     49  C   UNL A   1      41.702  24.877  27.501  1.00  0.00    -0.014 A 
BRANCH  49  50
ATOM     50  C   UNL A   1      42.281  26.217  27.765  1.00  0.00     0.031 A 
ATOM     51  C   UNL A   1      43.625  26.583  27.200  1.00  0.00     0.074 A 
ATOM     52  C   UNL A   1      41.624  27.079  28.563  1.00  0.00     0.049 A 
ATOM     53  N   UNL A   1      44.323  27.677  27.369  1.00  0.00    -0.248 NA
ATOM     54  C   UNL A   1      44.283  25.574  26.357  1.00  0.00     0.031 C 
ATOM     55  C   UNL A   1      40.337  26.820  29.208  1.00  0.00     0.029 A 
ATOM     56  N   UNL A   1      41.955  28.345  28.976  1.00  0.00    -0.354 N 
ATOM     57  C   UNL A   1      45.505  27.483  26.667  1.00  0.00     0.074 A 
ATOM     58  C   UNL A   1      45.452  26.147  26.112  1.00  0.00     0.031 C 
ATOM     59  C   UNL A   1      39.977  27.900  29.920  1.00  0.00     0.029 A 
ATOM     60  C   UNL A   1      41.023  28.914  29.809  1.00  0.00     0.049 A 
ATOM     61  H   UNL A   1      42.783  28.803  28.703  1.00  0.00     0.167 HD
ATOM     62  C   UNL A   1      46.531  28.348  26.484  1.00  0.00     0.037 A 
ATOM     63  C   UNL A   1      41.013  30.115  30.415  1.00  0.00     0.037 A 
ATOM     64  C   UNL A   1      46.567  29.685  27.013  1.00  0.00     0.049 A 
ATOM     65  C   UNL A   1      42.161  31.061  30.188  1.00  0.00     0.074 A 
ATOM     66  C   UNL A   1      47.529  30.662  26.829  1.00  0.00     0.029 A 
ATOM     67  N   UNL A   1      45.592  30.235  27.833  1.00  0.00    -0.354 N 
ATOM     68  N   UNL A   1      43.242  30.891  29.467  1.00  0.00    -0.248 NA
ATOM     69  C   UNL A   1      42.082  32.368  30.853  1.00  0.00     0.031 C 
ATOM     70  C   UNL A   1      47.157  31.789  27.571  1.00  0.00     0.029 A 
ATOM     71  C   UNL A   1      45.941  31.530  28.181  1.00  0.00     0.049 A 
ATOM     72  H   UNL A   1      44.773  29.773  28.125  1.00  0.00     0.167 HD
ATOM     73  C   UNL A   1      43.959  32.076  29.571  1.00  0.00     0.074 A 
ATOM     74  C   UNL A   1      43.183  32.961  30.414  1.00  0.00     0.031 C 
ATOM     75  C   UNL A   1      45.154  32.398  29.018  1.00  0.00     0.037 A 
BRANCH  62  76
ATOM     76  C   UNL A   1      47.702  27.871  25.673  1.00  0.00     0.064 A 
ATOM     77  C   UNL A   1      48.885  27.428  26.282  1.00  0.00     0.173 A 
ATOM     78  C   UNL A   1      47.629  27.831  24.273  1.00  0.00     0.173 A 
ATOM     79  F   UNL A   1      49.009  27.457  27.618  1.00  0.00    -0.203 F 
ATOM     80  C   UNL A   1      49.964  26.991  25.518  1.00  0.00     0.198 A 
ATOM     81  C   UNL A   1      48.700  27.366  23.513  1.00  0.00     0.198 A 
ATOM     82  F   UNL A   1      46.519  28.239  23.640  1.00  0.00    -0.203 F 
ATOM     83  F   UNL A   1      51.103  26.621  26.120  1.00  0.00    -0.200 F 
ATOM     84  C   UNL A   1      49.868  26.955  24.135  1.00  0.00     0.200 A 
ATOM     85  F   UNL A   1      48.602  27.321  22.177  1.00  0.00    -0.200 F 
ATOM     86  F   UNL A   1      50.907  26.531  23.402  1.00  0.00    -0.200 F 
ENDBRANCH  62  76
BRANCH  63  87
ATOM     87  C   UNL A   1      39.862  30.502  31.271  1.00  0.00     0.064 A 
ATOM     88  C   UNL A   1      39.829  30.152  32.628  1.00  0.00     0.173 A 
ATOM     89  C   UNL A   1      38.781  31.230  30.757  1.00  0.00     0.173 A 
ATOM     90  F   UNL A   1      40.832  29.439  33.160  1.00  0.00    -0.203 F 
ATOM     91  C   UNL A   1      38.750  30.506  33.435  1.00  0.00     0.198 A 
ATOM     92  C   UNL A   1      37.715  31.605  31.571  1.00  0.00     0.198 A 
ATOM     93  F   UNL A   1      38.768  31.593  29.465  1.00  0.00    -0.203 F 
ATOM     94  F   UNL A   1      38.726  30.127  34.720  1.00  0.00    -0.200 F 
ATOM     95  C   UNL A   1      37.697  31.237  32.908  1.00  0.00     0.200 A 
ATOM     96  F   UNL A   1      36.706  32.325  31.061  1.00  0.00    -0.200 F 
ATOM     97  F   UNL A   1      36.662  31.583  33.686  1.00  0.00    -0.200 F 
ENDBRANCH  63  87
BRANCH  75  98
ATOM     98  C   UNL A   1      45.682  33.778  29.284  1.00  0.00     0.064 A 
ATOM     99  C   UNL A   1      45.197  34.896  28.590  1.00  0.00     0.173 A 
ATOM    100  C   UNL A   1      46.657  33.987  30.271  1.00  0.00     0.173 A 
ATOM    101  F   UNL A   1      44.277  34.745  27.626  1.00  0.00    -0.203 F 
ATOM    102  C   UNL A   1      45.687  36.171  28.859  1.00  0.00     0.198 A 
ATOM    103  C   UNL A   1      47.124  35.266  30.556  1.00  0.00     0.198 A 
ATOM    104  F   UNL A   1      47.148  32.950  30.966  1.00  0.00    -0.203 F 
ATOM    105  F   UNL A   1      45.242  37.220  28.153  1.00  0.00    -0.200 F 
ATOM    106  C   UNL A   1      46.644  36.356  29.846  1.00  0.00     0.200 A 
ATOM    107  F   UNL A   1      48.040  35.445  31.517  1.00  0.00    -0.200 F 
ATOM    108  F   UNL A   1      47.109  37.586  30.107  1.00  0.00    -0.200 F 
ENDBRANCH  75  98
ENDBRANCH  49  50
ENDBRANCH  41  44
ENDBRANCH  39  40
ENDBRANCH  38  39
ENDBRANCH  37  38
ENDBRANCH  36  37
ENDBRANCH   1  36
TORSDOF 19
ENDMDL
MODEL 3
REMARK VINA RESULT:     -11.9      0.585      6.897
REMARK SMILES COc1ccc(-c2ccc(/C=C3\SC(=S)N([C@H](Cc4ccccc4)C(=O)NCCCCCCNC(=O)c4ccc(-c5c6nc(c(-c7c(F)c(F)c(F)c(F)c7F)c7ccc([nH]7)c(-c7c(F)c(F)c(F)c(F)c7F)c7nc(c(-c8c(F)c(F)c(F)c(F)c8F)c8ccc5[nH]8)C=C7)C=C6)cc4)C3=O)o2)cc1
REMARK SMILES IDX 29 1 28 2 27 3 25 4 26 5 17 7 16 8 11 9 12 10 13 11 100 12
REMARK SMILES IDX 14 13 101 14 15 15 10 16 7 17 8 18 102 19 9 20 6 21 3 22
REMARK SMILES IDX 4 23 104 24 5 25 103 26 2 27 1 28 18 29 19 30 20 31 24 32
REMARK SMILES IDX 21 33 23 34 22 35 30 36 31 37 32 38 33 39 34 40 35 41 36 43
REMARK SMILES IDX 37 44 38 45 99 46 39 47 98 48 40 49 41 50 42 51 92 52 43 53
REMARK SMILES IDX 97 54 91 55 93 56 44 57 96 58 90 59 89 60 45 62 77 63 57 64
REMARK SMILES IDX 76 65 58 66 61 67 75 68 94 69 59 70 60 71 74 73 95 74 62 75
REMARK SMILES IDX 46 76 47 77 55 78 48 79 49 80 53 81 56 82 50 83 51 84 54 85
REMARK SMILES IDX 52 86 78 87 79 88 87 89 80 90 81 91 85 92 88 93 82 94 83 95
REMARK SMILES IDX 86 96 84 97 63 98 64 99 72 100 65 101 66 102 70 103 73 104
REMARK SMILES IDX 67 105 68 106 71 107 69 108
REMARK H PARENT 27 6 34 42 93 61 61 72
REMARK Flexibility Score: inf
ROOT
ATOM      1  C   UNL A   1      38.537  23.044  26.550  1.00  0.00     0.021 C 
ENDROOT
BRANCH   1   2
ATOM      2  C   UNL A   1      37.404  23.704  25.774  1.00  0.00     0.116 C 
BRANCH   2   3
ATOM      3  N   UNL A   1      37.415  23.332  24.367  1.00  0.00    -0.354 N 
ATOM      4  C   UNL A   1      36.394  22.946  23.543  1.00  0.00     0.243 C 
ATOM      5  O   UNL A   1      36.618  22.941  22.328  1.00  0.00    -0.273 OA
ATOM      6  H   UNL A   1      38.301  23.364  23.939  1.00  0.00     0.163 HD
BRANCH   4   7
ATOM      7  C   UNL A   1      35.008  22.524  24.086  1.00  0.00     0.185 C 
BRANCH   7   8
ATOM      8  N   UNL A   1      34.068  23.622  24.469  1.00  0.00    -0.280 N 
ATOM      9  C   UNL A   1      32.725  26.851  23.609  1.00  0.00     0.068 C 
ATOM     10  C   UNL A   1      33.023  25.731  24.277  1.00  0.00     0.084 C 
ATOM     11  S   UNL A   1      32.841  25.367  25.936  1.00  0.00    -0.054 SA
ATOM     12  C   UNL A   1      33.621  24.573  23.572  1.00  0.00     0.267 C 
ATOM     13  C   UNL A   1      33.565  23.773  25.751  1.00  0.00     0.149 C 
ATOM     14  O   UNL A   1      33.647  24.518  22.350  1.00  0.00    -0.268 OA
ATOM     15  S   UNL A   1      33.594  22.702  27.028  1.00  0.00    -0.052 S 
BRANCH   9  16
ATOM     16  C   UNL A   1      32.245  28.039  24.217  1.00  0.00     0.128 A 
ATOM     17  C   UNL A   1      32.261  29.809  25.558  1.00  0.00     0.134 A 
ATOM     18  C   UNL A   1      31.015  29.784  24.976  1.00  0.00     0.051 A 
ATOM     19  O   UNL A   1      32.996  28.751  25.121  1.00  0.00    -0.457 OA
ATOM     20  C   UNL A   1      31.008  28.664  24.113  1.00  0.00     0.051 A 
BRANCH  17  21
ATOM     21  C   UNL A   1      32.918  30.693  26.501  1.00  0.00     0.017 A 
ATOM     22  C   UNL A   1      34.146  32.380  28.386  1.00  0.00     0.118 A 
ATOM     23  C   UNL A   1      32.941  32.749  27.789  1.00  0.00     0.047 A 
ATOM     24  C   UNL A   1      34.735  31.161  28.048  1.00  0.00     0.047 A 
ATOM     25  C   UNL A   1      32.338  31.920  26.841  1.00  0.00     0.016 A 
ATOM     26  C   UNL A   1      34.119  30.319  27.114  1.00  0.00     0.016 A 
BRANCH  22  27
ATOM     27  O   UNL A   1      34.632  33.263  29.310  1.00  0.00    -0.497 OA
ATOM     28  C   UNL A   1      35.122  34.493  28.790  1.00  0.00     0.278 C 
ENDBRANCH  22  27
ENDBRANCH  17  21
ENDBRANCH   9  16
ENDBRANCH   7   8
BRANCH   7  29
ATOM     29  C   UNL A   1      35.149  21.430  25.185  1.00  0.00     0.071 C 
BRANCH  29  30
ATOM     30  C   UNL A   1      34.637  20.065  24.773  1.00  0.00    -0.045 A 
ATOM     31  C   UNL A   1      33.298  19.889  24.396  1.00  0.00     0.004 A 
ATOM     32  C   UNL A   1      35.501  18.962  24.737  1.00  0.00     0.004 A 
ATOM     33  C   UNL A   1      32.834  18.631  24.006  1.00  0.00     0.000 A 
ATOM     34  C   UNL A   1      35.032  17.704  24.360  1.00  0.00     0.000 A 
ATOM     35  C   UNL A   1      33.699  17.539  23.994  1.00  0.00     0.000 A 
ENDBRANCH  29  30
ENDBRANCH   7  29
ENDBRANCH   4   7
ENDBRANCH   2   3
ENDBRANCH   1   2
BRANCH   1  36
ATOM     36  C   UNL A   1      38.938  21.665  26.012  1.00  0.00     0.002 C 
BRANCH  36  37
ATOM     37  C   UNL A   1      40.408  21.275  26.220  1.00  0.00     0.002 C 
BRANCH  37  38
ATOM     38  C   UNL A   1      40.706  19.774  26.177  1.00  0.00     0.021 C 
BRANCH  38  39
ATOM     39  C   UNL A   1      42.114  19.383  26.612  1.00  0.00     0.116 C 
BRANCH  39  40
ATOM     40  N   UNL A   1      42.982  19.079  25.488  1.00  0.00    -0.352 N 
ATOM     41  C   UNL A   1      43.825  19.907  24.792  1.00  0.00     0.251 C 
ATOM     42  H   UNL A   1      42.962  18.144  25.182  1.00  0.00     0.163 HD
ATOM     43  O   UNL A   1      44.380  19.509  23.772  1.00  0.00    -0.269 OA
BRANCH  41  44
ATOM     44  C   UNL A   1      44.048  21.292  25.256  1.00  0.00     0.039 A 
ATOM     45  C   UNL A   1      44.693  21.492  26.479  1.00  0.00     0.014 A 
ATOM     46  C   UNL A   1      43.616  22.385  24.501  1.00  0.00     0.014 A 
ATOM     47  C   UNL A   1      44.953  22.790  26.921  1.00  0.00     0.010 A 
ATOM     48  C   UNL A   1      43.930  23.678  24.912  1.00  0.00     0.010 A 
ATOM     49  C   UNL A   1      44.598  23.892  26.127  1.00  0.00    -0.014 A 
BRANCH  49  50
ATOM     50  C   UNL A   1      44.914  25.276  26.557  1.00  0.00     0.031 A 
ATOM     51  C   UNL A   1      43.836  26.157  27.123  1.00  0.00     0.074 A 
ATOM     52  C   UNL A   1      46.159  25.759  26.380  1.00  0.00     0.049 A 
ATOM     53  N   UNL A   1      43.902  27.410  27.497  1.00  0.00    -0.248 NA
ATOM     54  C   UNL A   1      42.500  25.557  27.262  1.00  0.00     0.031 C 
ATOM     55  C   UNL A   1      47.277  25.017  25.796  1.00  0.00     0.029 A 
ATOM     56  N   UNL A   1      46.689  26.993  26.663  1.00  0.00    -0.354 N 
ATOM     57  C   UNL A   1      42.617  27.751  27.899  1.00  0.00     0.074 A 
ATOM     58  C   UNL A   1      41.782  26.589  27.679  1.00  0.00     0.031 C 
ATOM     59  C   UNL A   1      48.366  25.803  25.783  1.00  0.00     0.029 A 
ATOM     60  C   UNL A   1      48.014  27.113  26.325  1.00  0.00     0.049 A 
ATOM     61  H   UNL A   1      46.168  27.723  27.069  1.00  0.00     0.167 HD
ATOM     62  C   UNL A   1      42.180  28.919  28.426  1.00  0.00     0.037 A 
ATOM     63  C   UNL A   1      48.850  28.161  26.437  1.00  0.00     0.037 A 
ATOM     64  C   UNL A   1      43.019  30.062  28.672  1.00  0.00     0.049 A 
ATOM     65  C   UNL A   1      48.342  29.445  27.034  1.00  0.00     0.074 A 
ATOM     66  C   UNL A   1      42.687  31.268  29.263  1.00  0.00     0.029 A 
ATOM     67  N   UNL A   1      44.364  30.138  28.337  1.00  0.00    -0.354 N 
ATOM     68  N   UNL A   1      47.142  29.734  27.474  1.00  0.00    -0.248 NA
ATOM     69  C   UNL A   1      49.308  30.546  27.156  1.00  0.00     0.031 C 
ATOM     70  C   UNL A   1      43.820  32.090  29.249  1.00  0.00     0.029 A 
ATOM     71  C   UNL A   1      44.870  31.379  28.690  1.00  0.00     0.049 A 
ATOM     72  H   UNL A   1      44.883  29.418  27.912  1.00  0.00     0.167 HD
ATOM     73  C   UNL A   1      47.212  31.037  27.948  1.00  0.00     0.074 A 
ATOM     74  C   UNL A   1      48.578  31.478  27.753  1.00  0.00     0.031 C 
ATOM     75  C   UNL A   1      46.233  31.799  28.493  1.00  0.00     0.037 A 
BRANCH  62  76
ATOM     76  C   UNL A   1      40.723  29.019  28.776  1.00  0.00     0.064 A 
ATOM     77  C   UNL A   1      39.753  29.309  27.804  1.00  0.00     0.173 A 
ATOM     78  C   UNL A   1      40.289  28.795  30.091  1.00  0.00     0.173 A 
ATOM     79  F   UNL A   1      40.117  29.543  26.535  1.00  0.00    -0.203 F 
ATOM     80  C   UNL A   1      38.405  29.400  28.143  1.00  0.00     0.198 A 
ATOM     81  C   UNL A   1      38.937  28.858  30.419  1.00  0.00     0.198 A 
ATOM     82  F   UNL A   1      41.174  28.509  31.056  1.00  0.00    -0.203 F 
ATOM     83  F   UNL A   1      37.503  29.728  27.208  1.00  0.00    -0.200 F 
ATOM     84  C   UNL A   1      37.998  29.169  29.448  1.00  0.00     0.200 A 
ATOM     85  F   UNL A   1      38.544  28.623  31.679  1.00  0.00    -0.200 F 
ATOM     86  F   UNL A   1      36.700  29.254  29.771  1.00  0.00    -0.200 F 
ENDBRANCH  62  76
BRANCH  63  87
ATOM     87  C   UNL A   1      50.264  28.029  26.001  1.00  0.00     0.064 A 
ATOM     88  C   UNL A   1      51.294  27.887  26.941  1.00  0.00     0.173 A 
ATOM     89  C   UNL A   1      50.613  28.033  24.643  1.00  0.00     0.173 A 
ATOM     90  F   UNL A   1      51.010  27.897  28.251  1.00  0.00    -0.203 F 
ATOM     91  C   UNL A   1      52.623  27.769  26.538  1.00  0.00     0.198 A 
ATOM     92  C   UNL A   1      51.939  27.890  24.242  1.00  0.00     0.198 A 
ATOM     93  F   UNL A   1      49.663  28.161  23.705  1.00  0.00    -0.203 F 
ATOM     94  F   UNL A   1      53.592  27.673  27.458  1.00  0.00    -0.200 F 
ATOM     95  C   UNL A   1      52.944  27.765  25.189  1.00  0.00     0.200 A 
ATOM     96  F   UNL A   1      52.244  27.871  22.937  1.00  0.00    -0.200 F 
ATOM     97  F   UNL A   1      54.221  27.645  24.802  1.00  0.00    -0.200 F 
ENDBRANCH  63  87
BRANCH  75  98
ATOM     98  C   UNL A   1      46.611  33.180  28.945  1.00  0.00     0.064 A 
ATOM     99  C   UNL A   1      47.102  33.421  30.236  1.00  0.00     0.173 A 
ATOM    100  C   UNL A   1      46.513  34.267  28.064  1.00  0.00     0.173 A 
ATOM    101  F   UNL A   1      47.197  32.416  31.120  1.00  0.00    -0.203 F 
ATOM    102  C   UNL A   1      47.461  34.705  30.635  1.00  0.00     0.198 A 
ATOM    103  C   UNL A   1      46.900  35.545  28.457  1.00  0.00     0.198 A 
ATOM    104  F   UNL A   1      46.055  34.087  26.816  1.00  0.00    -0.203 F 
ATOM    105  F   UNL A   1      47.887  34.920  31.888  1.00  0.00    -0.200 F 
ATOM    106  C   UNL A   1      47.368  35.764  29.744  1.00  0.00     0.200 A 
ATOM    107  F   UNL A   1      46.819  36.565  27.592  1.00  0.00    -0.200 F 
ATOM    108  F   UNL A   1      47.720  36.998  30.130  1.00  0.00    -0.200 F 
ENDBRANCH  75  98
ENDBRANCH  49  50
ENDBRANCH  41  44
ENDBRANCH  39  40
ENDBRANCH  38  39
ENDBRANCH  37  38
ENDBRANCH  36  37
ENDBRANCH   1  36
TORSDOF 19
ENDMDL
