MODEL 1
REMARK VINA RESULT:     -11.8      0.000      0.000
REMARK SMILES COc1cc2c(c(OC)c1)[C@H](C)C[C@H](CC(=O)NCCCCCCNC(=O)c1ccc(-c3c4nc(c(-c5c(F)c(F)c(F)c(F)c5F)c5ccc([nH]5)c(-c5c(F)c(F)c(F)c(F)c5F)c5nc(c(-c6c(F)c(F)c(F)c(F)c6F)c6ccc3[nH]6)C=C5)C=C4)cc1)C2
REMARK SMILES IDX 21 1 20 2 19 3 18 4 16 5 17 6 15 8 14 9 3 10 4 11 10 12 5 13
REMARK SMILES IDX 7 14 6 15 91 16 11 17 12 18 13 19 2 20 1 21 8 22 9 23 22 24
REMARK SMILES IDX 23 25 24 26 25 27 26 28 27 30 28 31 29 32 90 33 30 34 89 35
REMARK SMILES IDX 31 36 32 37 33 38 83 39 34 40 88 41 82 42 84 43 35 44 87 45
REMARK SMILES IDX 81 46 80 47 36 49 68 50 48 51 67 52 49 53 52 54 66 55 85 56
REMARK SMILES IDX 50 57 51 58 65 60 86 61 53 62 37 63 38 64 46 65 39 66 40 67
REMARK SMILES IDX 44 68 47 69 41 70 42 71 45 72 43 73 69 74 70 75 78 76 71 77
REMARK SMILES IDX 72 78 76 79 79 80 73 81 74 82 77 83 75 84 54 85 55 86 63 87
REMARK SMILES IDX 56 88 57 89 61 90 64 91 58 92 59 93 62 94 60 95
REMARK H PARENT 18 7 25 29 84 48 52 59
REMARK Flexibility Score: inf
ROOT
ATOM      1  C   UNL A   1      30.583  26.544  25.015  1.00  0.00     0.002 C 
ENDROOT
BRANCH   1   2
ATOM      2  C   UNL A   1      29.970  26.689  23.625  1.00  0.00     0.021 C 
BRANCH   2   3
ATOM      3  C   UNL A   1      30.742  27.577  22.629  1.00  0.00     0.116 C 
BRANCH   3   4
ATOM      4  N   UNL A   1      31.428  26.764  21.631  1.00  0.00    -0.356 N 
ATOM      5  C   UNL A   1      32.640  26.137  21.623  1.00  0.00     0.220 C 
ATOM      6  O   UNL A   1      32.981  25.585  20.574  1.00  0.00    -0.275 OA
ATOM      7  H   UNL A   1      30.916  26.643  20.801  1.00  0.00     0.163 HD
BRANCH   5   8
ATOM      8  C   UNL A   1      33.558  26.089  22.842  1.00  0.00     0.104 C 
BRANCH   8   9
ATOM      9  C   UNL A   1      34.048  24.668  23.197  1.00  0.00     0.003 C 
ATOM     10  C   UNL A   1      32.982  20.004  24.461  1.00  0.00     0.122 A 
ATOM     11  C   UNL A   1      32.568  21.241  23.970  1.00  0.00     0.050 A 
ATOM     12  C   UNL A   1      34.282  19.839  24.924  1.00  0.00     0.093 A 
ATOM     13  C   UNL A   1      33.416  22.358  24.036  1.00  0.00    -0.037 A 
ATOM     14  C   UNL A   1      35.141  20.933  24.994  1.00  0.00     0.126 A 
ATOM     15  C   UNL A   1      34.691  22.221  24.637  1.00  0.00     0.000 A 
ATOM     16  C   UNL A   1      32.904  23.693  23.520  1.00  0.00     0.040 C 
ATOM     17  C   UNL A   1      35.547  23.438  24.890  1.00  0.00     0.020 C 
ATOM     18  C   UNL A   1      35.922  23.620  26.370  1.00  0.00     0.013 C 
ATOM     19  C   UNL A   1      34.910  24.746  24.440  1.00  0.00     0.012 C 
BRANCH  10  20
ATOM     20  O   UNL A   1      32.070  18.983  24.430  1.00  0.00    -0.497 OA
ATOM     21  C   UNL A   1      32.540  17.819  25.116  1.00  0.00     0.278 C 
ENDBRANCH  10  20
BRANCH  14  22
ATOM     22  O   UNL A   1      36.372  20.657  25.534  1.00  0.00    -0.496 OA
ATOM     23  C   UNL A   1      37.343  20.197  24.596  1.00  0.00     0.278 C 
ENDBRANCH  14  22
ENDBRANCH   8   9
ENDBRANCH   5   8
ENDBRANCH   3   4
ENDBRANCH   2   3
ENDBRANCH   1   2
BRANCH   1  24
ATOM     24  C   UNL A   1      31.459  27.719  25.461  1.00  0.00     0.002 C 
BRANCH  24  25
ATOM     25  C   UNL A   1      32.555  27.404  26.488  1.00  0.00     0.021 C 
BRANCH  25  26
ATOM     26  C   UNL A   1      33.819  28.263  26.412  1.00  0.00     0.116 C 
BRANCH  26  27
ATOM     27  N   UNL A   1      33.585  29.635  26.828  1.00  0.00    -0.352 N 
ATOM     28  C   UNL A   1      34.312  30.453  27.657  1.00  0.00     0.251 C 
ATOM     29  H   UNL A   1      32.771  30.045  26.455  1.00  0.00     0.163 HD
ATOM     30  O   UNL A   1      33.832  31.517  28.033  1.00  0.00    -0.269 OA
BRANCH  28  31
ATOM     31  C   UNL A   1      35.667  30.067  28.114  1.00  0.00     0.039 A 
ATOM     32  C   UNL A   1      35.831  29.656  29.441  1.00  0.00     0.014 A 
ATOM     33  C   UNL A   1      36.779  30.171  27.276  1.00  0.00     0.014 A 
ATOM     34  C   UNL A   1      37.099  29.301  29.912  1.00  0.00     0.010 A 
ATOM     35  C   UNL A   1      38.036  29.761  27.729  1.00  0.00     0.010 A 
ATOM     36  C   UNL A   1      38.208  29.327  29.052  1.00  0.00    -0.014 A 
BRANCH  36  37
ATOM     37  C   UNL A   1      39.553  28.908  29.527  1.00  0.00     0.031 A 
ATOM     38  C   UNL A   1      40.311  29.753  30.514  1.00  0.00     0.074 A 
ATOM     39  C   UNL A   1      40.115  27.788  29.033  1.00  0.00     0.049 A 
ATOM     40  N   UNL A   1      41.513  29.578  31.005  1.00  0.00    -0.248 NA
ATOM     41  C   UNL A   1      39.638  30.969  30.994  1.00  0.00     0.031 C 
ATOM     42  C   UNL A   1      39.502  26.903  28.041  1.00  0.00     0.029 A 
ATOM     43  N   UNL A   1      41.331  27.206  29.290  1.00  0.00    -0.354 N 
ATOM     44  C   UNL A   1      41.743  30.664  31.840  1.00  0.00     0.074 A 
ATOM     45  C   UNL A   1      40.577  31.516  31.753  1.00  0.00     0.031 C 
ATOM     46  C   UNL A   1      40.335  25.882  27.788  1.00  0.00     0.029 A 
ATOM     47  C   UNL A   1      41.554  26.056  28.573  1.00  0.00     0.049 A 
ATOM     48  H   UNL A   1      41.983  27.579  29.927  1.00  0.00     0.167 HD
ATOM     49  C   UNL A   1      42.819  30.915  32.623  1.00  0.00     0.037 A 
ATOM     50  C   UNL A   1      42.622  25.236  28.550  1.00  0.00     0.037 A 
ATOM     51  C   UNL A   1      43.968  30.054  32.729  1.00  0.00     0.049 A 
ATOM     52  C   UNL A   1      43.804  25.537  29.431  1.00  0.00     0.074 A 
ATOM     53  C   UNL A   1      45.083  30.196  33.537  1.00  0.00     0.029 A 
ATOM     54  N   UNL A   1      44.149  28.886  32.002  1.00  0.00    -0.354 N 
ATOM     55  N   UNL A   1      43.983  26.533  30.263  1.00  0.00    -0.248 NA
ATOM     56  C   UNL A   1      44.929  24.593  29.375  1.00  0.00     0.031 C 
ATOM     57  C   UNL A   1      45.956  29.135  33.270  1.00  0.00     0.029 A 
ATOM     58  C   UNL A   1      45.365  28.307  32.330  1.00  0.00     0.049 A 
ATOM     59  H   UNL A   1      43.508  28.523  31.349  1.00  0.00     0.167 HD
ATOM     60  C   UNL A   1      45.223  26.324  30.849  1.00  0.00     0.074 A 
ATOM     61  C   UNL A   1      45.749  25.096  30.288  1.00  0.00     0.031 C 
ATOM     62  C   UNL A   1      45.869  27.081  31.769  1.00  0.00     0.037 A 
BRANCH  49  63
ATOM     63  C   UNL A   1      42.805  32.178  33.436  1.00  0.00     0.064 A 
ATOM     64  C   UNL A   1      42.268  32.208  34.732  1.00  0.00     0.173 A 
ATOM     65  C   UNL A   1      43.369  33.359  32.931  1.00  0.00     0.173 A 
ATOM     66  F   UNL A   1      41.708  31.109  35.258  1.00  0.00    -0.203 F 
ATOM     67  C   UNL A   1      42.270  33.383  35.481  1.00  0.00     0.198 A 
ATOM     68  C   UNL A   1      43.396  34.523  33.694  1.00  0.00     0.198 A 
ATOM     69  F   UNL A   1      43.902  33.381  31.700  1.00  0.00    -0.203 F 
ATOM     70  F   UNL A   1      41.710  33.400  36.699  1.00  0.00    -0.200 F 
ATOM     71  C   UNL A   1      42.840  34.537  34.965  1.00  0.00     0.200 A 
ATOM     72  F   UNL A   1      43.958  35.635  33.198  1.00  0.00    -0.200 F 
ATOM     73  F   UNL A   1      42.847  35.665  35.689  1.00  0.00    -0.200 F 
ENDBRANCH  49  63
BRANCH  50  74
ATOM     74  C   UNL A   1      42.610  24.030  27.682  1.00  0.00     0.064 A 
ATOM     75  C   UNL A   1      42.269  22.774  28.204  1.00  0.00     0.173 A 
ATOM     76  C   UNL A   1      42.941  24.104  26.323  1.00  0.00     0.173 A 
ATOM     77  F   UNL A   1      41.966  22.649  29.505  1.00  0.00    -0.203 F 
ATOM     78  C   UNL A   1      42.276  21.635  27.402  1.00  0.00     0.198 A 
ATOM     79  C   UNL A   1      42.923  22.969  25.515  1.00  0.00     0.198 A 
ATOM     80  F   UNL A   1      43.270  25.283  25.775  1.00  0.00    -0.203 F 
ATOM     81  F   UNL A   1      41.988  20.440  27.935  1.00  0.00    -0.200 F 
ATOM     82  C   UNL A   1      42.599  21.734  26.056  1.00  0.00     0.200 A 
ATOM     83  F   UNL A   1      43.223  23.071  24.213  1.00  0.00    -0.200 F 
ATOM     84  F   UNL A   1      42.603  20.639  25.284  1.00  0.00    -0.200 F 
ENDBRANCH  50  74
BRANCH  62  85
ATOM     85  C   UNL A   1      47.201  26.585  32.253  1.00  0.00     0.064 A 
ATOM     86  C   UNL A   1      47.302  25.613  33.258  1.00  0.00     0.173 A 
ATOM     87  C   UNL A   1      48.387  27.064  31.678  1.00  0.00     0.173 A 
ATOM     88  F   UNL A   1      46.196  25.136  33.850  1.00  0.00    -0.203 F 
ATOM     89  C   UNL A   1      48.544  25.155  33.688  1.00  0.00     0.198 A 
ATOM     90  C   UNL A   1      49.627  26.584  32.091  1.00  0.00     0.198 A 
ATOM     91  F   UNL A   1      48.344  27.990  30.710  1.00  0.00    -0.203 F 
ATOM     92  F   UNL A   1      48.619  24.260  34.682  1.00  0.00    -0.200 F 
ATOM     93  C   UNL A   1      49.705  25.637  33.101  1.00  0.00     0.200 A 
ATOM     94  F   UNL A   1      50.747  27.042  31.515  1.00  0.00    -0.200 F 
ATOM     95  F   UNL A   1      50.900  25.192  33.513  1.00  0.00    -0.200 F 
ENDBRANCH  62  85
ENDBRANCH  36  37
ENDBRANCH  28  31
ENDBRANCH  26  27
ENDBRANCH  25  26
ENDBRANCH  24  25
ENDBRANCH   1  24
TORSDOF 16
ENDMDL
MODEL 2
REMARK VINA RESULT:     -11.8      0.156      1.933
REMARK SMILES COc1cc2c(c(OC)c1)[C@H](C)C[C@H](CC(=O)NCCCCCCNC(=O)c1ccc(-c3c4nc(c(-c5c(F)c(F)c(F)c(F)c5F)c5ccc([nH]5)c(-c5c(F)c(F)c(F)c(F)c5F)c5nc(c(-c6c(F)c(F)c(F)c(F)c6F)c6ccc3[nH]6)C=C5)C=C4)cc1)C2
REMARK SMILES IDX 21 1 20 2 19 3 18 4 16 5 17 6 15 8 14 9 3 10 4 11 10 12 5 13
REMARK SMILES IDX 7 14 6 15 91 16 11 17 12 18 13 19 2 20 1 21 8 22 9 23 22 24
REMARK SMILES IDX 23 25 24 26 25 27 26 28 27 30 28 31 29 32 90 33 30 34 89 35
REMARK SMILES IDX 31 36 32 37 33 38 83 39 34 40 88 41 82 42 84 43 35 44 87 45
REMARK SMILES IDX 81 46 80 47 36 49 68 50 48 51 67 52 49 53 52 54 66 55 85 56
REMARK SMILES IDX 50 57 51 58 65 60 86 61 53 62 37 63 38 64 46 65 39 66 40 67
REMARK SMILES IDX 44 68 47 69 41 70 42 71 45 72 43 73 69 74 70 75 78 76 71 77
REMARK SMILES IDX 72 78 76 79 79 80 73 81 74 82 77 83 75 84 54 85 55 86 63 87
REMARK SMILES IDX 56 88 57 89 61 90 64 91 58 92 59 93 62 94 60 95
REMARK H PARENT 18 7 25 29 84 48 52 59
REMARK Flexibility Score: inf
ROOT
ATOM      1  C   UNL A   1      30.682  26.432  25.130  1.00  0.00     0.002 C 
ENDROOT
BRANCH   1   2
ATOM      2  C   UNL A   1      30.061  26.434  23.736  1.00  0.00     0.021 C 
BRANCH   2   3
ATOM      3  C   UNL A   1      30.694  27.394  22.709  1.00  0.00     0.116 C 
BRANCH   3   4
ATOM      4  N   UNL A   1      31.403  26.653  21.672  1.00  0.00    -0.356 N 
ATOM      5  C   UNL A   1      32.645  26.092  21.621  1.00  0.00     0.220 C 
ATOM      6  O   UNL A   1      32.995  25.594  20.547  1.00  0.00    -0.275 OA
ATOM      7  H   UNL A   1      30.881  26.533  20.847  1.00  0.00     0.163 HD
BRANCH   5   8
ATOM      8  C   UNL A   1      33.587  26.050  22.822  1.00  0.00     0.104 C 
BRANCH   8   9
ATOM      9  C   UNL A   1      34.079  24.631  23.179  1.00  0.00     0.003 C 
ATOM     10  C   UNL A   1      33.027  19.992  24.540  1.00  0.00     0.122 A 
ATOM     11  C   UNL A   1      32.604  21.225  24.047  1.00  0.00     0.050 A 
ATOM     12  C   UNL A   1      34.341  19.824  24.961  1.00  0.00     0.093 A 
ATOM     13  C   UNL A   1      33.461  22.337  24.070  1.00  0.00    -0.037 A 
ATOM     14  C   UNL A   1      35.208  20.913  24.988  1.00  0.00     0.126 A 
ATOM     15  C   UNL A   1      34.755  22.199  24.629  1.00  0.00     0.000 A 
ATOM     16  C   UNL A   1      32.940  23.669  23.553  1.00  0.00     0.040 C 
ATOM     17  C   UNL A   1      35.626  23.413  24.837  1.00  0.00     0.020 C 
ATOM     18  C   UNL A   1      36.052  23.612  26.302  1.00  0.00     0.013 C 
ATOM     19  C   UNL A   1      34.984  24.719  24.392  1.00  0.00     0.012 C 
BRANCH  10  20
ATOM     20  O   UNL A   1      32.108  18.977  24.554  1.00  0.00    -0.497 OA
ATOM     21  C   UNL A   1      32.587  17.825  25.253  1.00  0.00     0.278 C 
ENDBRANCH  10  20
BRANCH  14  22
ATOM     22  O   UNL A   1      36.455  20.635  25.491  1.00  0.00    -0.496 OA
ATOM     23  C   UNL A   1      37.258  19.800  24.659  1.00  0.00     0.278 C 
ENDBRANCH  14  22
ENDBRANCH   8   9
ENDBRANCH   5   8
ENDBRANCH   3   4
ENDBRANCH   2   3
ENDBRANCH   1   2
BRANCH   1  24
ATOM     24  C   UNL A   1      31.551  27.652  25.452  1.00  0.00     0.002 C 
BRANCH  24  25
ATOM     25  C   UNL A   1      32.698  27.431  26.448  1.00  0.00     0.021 C 
BRANCH  25  26
ATOM     26  C   UNL A   1      33.914  28.347  26.292  1.00  0.00     0.116 C 
BRANCH  26  27
ATOM     27  N   UNL A   1      33.655  29.698  26.759  1.00  0.00    -0.352 N 
ATOM     28  C   UNL A   1      34.363  30.494  27.625  1.00  0.00     0.251 C 
ATOM     29  H   UNL A   1      32.839  30.110  26.394  1.00  0.00     0.163 HD
ATOM     30  O   UNL A   1      33.864  31.535  28.038  1.00  0.00    -0.269 OA
BRANCH  28  31
ATOM     31  C   UNL A   1      35.720  30.110  28.079  1.00  0.00     0.039 A 
ATOM     32  C   UNL A   1      35.861  29.531  29.344  1.00  0.00     0.014 A 
ATOM     33  C   UNL A   1      36.852  30.378  27.307  1.00  0.00     0.014 A 
ATOM     34  C   UNL A   1      37.129  29.172  29.812  1.00  0.00     0.010 A 
ATOM     35  C   UNL A   1      38.112  29.967  27.750  1.00  0.00     0.010 A 
ATOM     36  C   UNL A   1      38.263  29.365  29.008  1.00  0.00    -0.014 A 
BRANCH  36  37
ATOM     37  C   UNL A   1      39.610  28.946  29.474  1.00  0.00     0.031 A 
ATOM     38  C   UNL A   1      40.385  29.804  30.436  1.00  0.00     0.074 A 
ATOM     39  C   UNL A   1      40.159  27.813  28.995  1.00  0.00     0.049 A 
ATOM     40  N   UNL A   1      41.592  29.631  30.916  1.00  0.00    -0.248 NA
ATOM     41  C   UNL A   1      39.726  31.034  30.901  1.00  0.00     0.031 C 
ATOM     42  C   UNL A   1      39.528  26.914  28.027  1.00  0.00     0.029 A 
ATOM     43  N   UNL A   1      41.375  27.229  29.248  1.00  0.00    -0.354 N 
ATOM     44  C   UNL A   1      41.839  30.731  31.727  1.00  0.00     0.074 A 
ATOM     45  C   UNL A   1      40.678  31.589  31.638  1.00  0.00     0.031 C 
ATOM     46  C   UNL A   1      40.352  25.883  27.783  1.00  0.00     0.029 A 
ATOM     47  C   UNL A   1      41.582  26.064  28.550  1.00  0.00     0.049 A 
ATOM     48  H   UNL A   1      42.037  27.609  29.870  1.00  0.00     0.167 HD
ATOM     49  C   UNL A   1      42.927  30.990  32.492  1.00  0.00     0.037 A 
ATOM     50  C   UNL A   1      42.644  25.236  28.530  1.00  0.00     0.037 A 
ATOM     51  C   UNL A   1      44.071  30.123  32.600  1.00  0.00     0.049 A 
ATOM     52  C   UNL A   1      43.838  25.546  29.390  1.00  0.00     0.074 A 
ATOM     53  C   UNL A   1      45.197  30.273  33.392  1.00  0.00     0.029 A 
ATOM     54  N   UNL A   1      44.236  28.941  31.893  1.00  0.00    -0.354 N 
ATOM     55  N   UNL A   1      44.034  26.557  30.201  1.00  0.00    -0.248 NA
ATOM     56  C   UNL A   1      44.957  24.594  29.339  1.00  0.00     0.031 C 
ATOM     57  C   UNL A   1      46.059  29.201  33.135  1.00  0.00     0.029 A 
ATOM     58  C   UNL A   1      45.452  28.360  32.218  1.00  0.00     0.049 A 
ATOM     59  H   UNL A   1      43.584  28.570  31.255  1.00  0.00     0.167 HD
ATOM     60  C   UNL A   1      45.280  26.351  30.776  1.00  0.00     0.074 A 
ATOM     61  C   UNL A   1      45.790  25.109  30.232  1.00  0.00     0.031 C 
ATOM     62  C   UNL A   1      45.942  27.120  31.674  1.00  0.00     0.037 A 
BRANCH  49  63
ATOM     63  C   UNL A   1      42.930  32.267  33.282  1.00  0.00     0.064 A 
ATOM     64  C   UNL A   1      43.440  33.459  32.745  1.00  0.00     0.173 A 
ATOM     65  C   UNL A   1      42.381  32.310  34.572  1.00  0.00     0.173 A 
ATOM     66  F   UNL A   1      43.984  33.470  31.519  1.00  0.00    -0.203 F 
ATOM     67  C   UNL A   1      43.426  34.641  33.482  1.00  0.00     0.198 A 
ATOM     68  C   UNL A   1      42.343  33.500  35.295  1.00  0.00     0.198 A 
ATOM     69  F   UNL A   1      41.874  31.200  35.129  1.00  0.00    -0.203 F 
ATOM     70  F   UNL A   1      43.961  35.757  32.967  1.00  0.00    -0.200 F 
ATOM     71  C   UNL A   1      42.872  34.662  34.753  1.00  0.00     0.200 A 
ATOM     72  F   UNL A   1      41.796  33.521  36.519  1.00  0.00    -0.200 F 
ATOM     73  F   UNL A   1      42.855  35.800  35.460  1.00  0.00    -0.200 F 
ENDBRANCH  49  63
BRANCH  50  74
ATOM     74  C   UNL A   1      42.614  24.014  27.685  1.00  0.00     0.064 A 
ATOM     75  C   UNL A   1      42.974  24.070  26.331  1.00  0.00     0.173 A 
ATOM     76  C   UNL A   1      42.224  22.774  28.207  1.00  0.00     0.173 A 
ATOM     77  F   UNL A   1      43.333  25.240  25.781  1.00  0.00    -0.203 F 
ATOM     78  C   UNL A   1      42.927  22.934  25.527  1.00  0.00     0.198 A 
ATOM     79  C   UNL A   1      42.203  21.632  27.408  1.00  0.00     0.198 A 
ATOM     80  F   UNL A   1      41.875  22.667  29.498  1.00  0.00    -0.203 F 
ATOM     81  F   UNL A   1      43.234  23.022  24.226  1.00  0.00    -0.200 F 
ATOM     82  C   UNL A   1      42.547  21.714  26.068  1.00  0.00     0.200 A 
ATOM     83  F   UNL A   1      41.847  20.453  27.938  1.00  0.00    -0.200 F 
ATOM     84  F   UNL A   1      42.505  20.620  25.295  1.00  0.00    -0.200 F 
ENDBRANCH  50  74
BRANCH  62  85
ATOM     85  C   UNL A   1      47.276  26.625  32.151  1.00  0.00     0.064 A 
ATOM     86  C   UNL A   1      48.471  27.022  31.534  1.00  0.00     0.173 A 
ATOM     87  C   UNL A   1      47.360  25.770  33.260  1.00  0.00     0.173 A 
ATOM     88  F   UNL A   1      48.441  27.826  30.459  1.00  0.00    -0.203 F 
ATOM     89  C   UNL A   1      49.701  26.562  31.994  1.00  0.00     0.198 A 
ATOM     90  C   UNL A   1      48.594  25.334  33.735  1.00  0.00     0.198 A 
ATOM     91  F   UNL A   1      46.247  25.366  33.888  1.00  0.00    -0.203 F 
ATOM     92  F   UNL A   1      50.827  26.917  31.362  1.00  0.00    -0.200 F 
ATOM     93  C   UNL A   1      49.762  25.723  33.098  1.00  0.00     0.200 A 
ATOM     94  F   UNL A   1      48.652  24.533  34.808  1.00  0.00    -0.200 F 
ATOM     95  F   UNL A   1      50.947  25.285  33.543  1.00  0.00    -0.200 F 
ENDBRANCH  62  85
ENDBRANCH  36  37
ENDBRANCH  28  31
ENDBRANCH  26  27
ENDBRANCH  25  26
ENDBRANCH  24  25
ENDBRANCH   1  24
TORSDOF 16
ENDMDL
MODEL 3
REMARK VINA RESULT:     -11.7      3.682      6.162
REMARK SMILES COc1cc2c(c(OC)c1)[C@H](C)C[C@H](CC(=O)NCCCCCCNC(=O)c1ccc(-c3c4nc(c(-c5c(F)c(F)c(F)c(F)c5F)c5ccc([nH]5)c(-c5c(F)c(F)c(F)c(F)c5F)c5nc(c(-c6c(F)c(F)c(F)c(F)c6F)c6ccc3[nH]6)C=C5)C=C4)cc1)C2
REMARK SMILES IDX 21 1 20 2 19 3 18 4 16 5 17 6 15 8 14 9 3 10 4 11 10 12 5 13
REMARK SMILES IDX 7 14 6 15 91 16 11 17 12 18 13 19 2 20 1 21 8 22 9 23 22 24
REMARK SMILES IDX 23 25 24 26 25 27 26 28 27 30 28 31 29 32 90 33 30 34 89 35
REMARK SMILES IDX 31 36 32 37 33 38 83 39 34 40 88 41 82 42 84 43 35 44 87 45
REMARK SMILES IDX 81 46 80 47 36 49 68 50 48 51 67 52 49 53 52 54 66 55 85 56
REMARK SMILES IDX 50 57 51 58 65 60 86 61 53 62 37 63 38 64 46 65 39 66 40 67
REMARK SMILES IDX 44 68 47 69 41 70 42 71 45 72 43 73 69 74 70 75 78 76 71 77
REMARK SMILES IDX 72 78 76 79 79 80 73 81 74 82 77 83 75 84 54 85 55 86 63 87
REMARK SMILES IDX 56 88 57 89 61 90 64 91 58 92 59 93 62 94 60 95
REMARK H PARENT 18 7 25 29 84 48 52 59
REMARK Flexibility Score: inf
ROOT
ATOM      1  C   UNL A   1      35.372  33.490  28.887  1.00  0.00     0.002 C 
ENDROOT
BRANCH   1   2
ATOM      2  C   UNL A   1      34.550  32.223  29.105  1.00  0.00     0.021 C 
BRANCH   2   3
ATOM      3  C   UNL A   1      34.453  31.259  27.905  1.00  0.00     0.116 C 
BRANCH   3   4
ATOM      4  N   UNL A   1      33.222  31.484  27.155  1.00  0.00    -0.356 N 
ATOM      5  C   UNL A   1      32.205  30.656  26.776  1.00  0.00     0.220 C 
ATOM      6  O   UNL A   1      31.324  31.139  26.060  1.00  0.00    -0.275 OA
ATOM      7  H   UNL A   1      33.101  32.416  26.866  1.00  0.00     0.163 HD
BRANCH   5   8
ATOM      8  C   UNL A   1      32.119  29.195  27.209  1.00  0.00     0.104 C 
BRANCH   8   9
ATOM      9  C   UNL A   1      32.326  28.190  26.055  1.00  0.00     0.003 C 
ATOM     10  C   UNL A   1      34.296  23.959  24.412  1.00  0.00     0.122 A 
ATOM     11  C   UNL A   1      33.950  24.790  25.476  1.00  0.00     0.050 A 
ATOM     12  C   UNL A   1      34.134  24.400  23.103  1.00  0.00     0.093 A 
ATOM     13  C   UNL A   1      33.538  26.113  25.246  1.00  0.00    -0.037 A 
ATOM     14  C   UNL A   1      33.723  25.707  22.854  1.00  0.00     0.126 A 
ATOM     15  C   UNL A   1      33.508  26.606  23.919  1.00  0.00     0.000 A 
ATOM     16  C   UNL A   1      33.206  26.991  26.442  1.00  0.00     0.040 C 
ATOM     17  C   UNL A   1      33.251  28.069  23.656  1.00  0.00     0.020 C 
ATOM     18  C   UNL A   1      34.384  28.754  22.873  1.00  0.00     0.013 C 
ATOM     19  C   UNL A   1      33.036  28.895  24.916  1.00  0.00     0.012 C 
BRANCH  10  20
ATOM     20  O   UNL A   1      34.761  22.709  24.722  1.00  0.00    -0.497 OA
ATOM     21  C   UNL A   1      35.580  22.713  25.894  1.00  0.00     0.278 C 
ENDBRANCH  10  20
BRANCH  14  22
ATOM     22  O   UNL A   1      33.670  26.043  21.524  1.00  0.00    -0.496 OA
ATOM     23  C   UNL A   1      32.508  25.578  20.840  1.00  0.00     0.278 C 
ENDBRANCH  14  22
ENDBRANCH   8   9
ENDBRANCH   5   8
ENDBRANCH   3   4
ENDBRANCH   2   3
ENDBRANCH   1   2
BRANCH   1  24
ATOM     24  C   UNL A   1      34.628  34.632  28.188  1.00  0.00     0.002 C 
BRANCH  24  25
ATOM     25  C   UNL A   1      33.298  35.069  28.819  1.00  0.00     0.021 C 
BRANCH  25  26
ATOM     26  C   UNL A   1      33.335  36.353  29.650  1.00  0.00     0.116 C 
BRANCH  26  27
ATOM     27  N   UNL A   1      32.444  36.299  30.797  1.00  0.00    -0.352 N 
ATOM     28  C   UNL A   1      32.547  35.601  31.975  1.00  0.00     0.251 C 
ATOM     29  H   UNL A   1      31.635  36.854  30.715  1.00  0.00     0.163 HD
ATOM     30  O   UNL A   1      31.583  35.544  32.731  1.00  0.00    -0.269 OA
BRANCH  28  31
ATOM     31  C   UNL A   1      33.801  34.905  32.343  1.00  0.00     0.039 A 
ATOM     32  C   UNL A   1      33.718  33.602  32.844  1.00  0.00     0.014 A 
ATOM     33  C   UNL A   1      35.041  35.542  32.267  1.00  0.00     0.014 A 
ATOM     34  C   UNL A   1      34.881  32.921  33.218  1.00  0.00     0.010 A 
ATOM     35  C   UNL A   1      36.207  34.842  32.586  1.00  0.00     0.010 A 
ATOM     36  C   UNL A   1      36.137  33.527  33.069  1.00  0.00    -0.014 A 
BRANCH  36  37
ATOM     37  C   UNL A   1      37.384  32.798  33.420  1.00  0.00     0.031 A 
ATOM     38  C   UNL A   1      38.113  33.105  34.699  1.00  0.00     0.074 A 
ATOM     39  C   UNL A   1      37.888  31.889  32.562  1.00  0.00     0.049 A 
ATOM     40  N   UNL A   1      39.239  32.610  35.151  1.00  0.00    -0.248 NA
ATOM     41  C   UNL A   1      37.510  34.121  35.575  1.00  0.00     0.031 C 
ATOM     42  C   UNL A   1      37.299  31.529  31.272  1.00  0.00     0.029 A 
ATOM     43  N   UNL A   1      39.015  31.110  32.642  1.00  0.00    -0.354 N 
ATOM     44  C   UNL A   1      39.483  33.261  36.354  1.00  0.00     0.074 A 
ATOM     45  C   UNL A   1      38.415  34.219  36.538  1.00  0.00     0.031 C 
ATOM     46  C   UNL A   1      38.058  30.588  30.690  1.00  0.00     0.029 A 
ATOM     47  C   UNL A   1      39.203  30.299  31.549  1.00  0.00     0.049 A 
ATOM     48  H   UNL A   1      39.631  31.129  33.410  1.00  0.00     0.167 HD
ATOM     49  C   UNL A   1      40.494  33.063  37.233  1.00  0.00     0.037 A 
ATOM     50  C   UNL A   1      40.188  29.425  31.270  1.00  0.00     0.037 A 
ATOM     51  C   UNL A   1      41.544  32.092  37.061  1.00  0.00     0.049 A 
ATOM     52  C   UNL A   1      41.298  29.222  32.264  1.00  0.00     0.074 A 
ATOM     53  C   UNL A   1      42.580  31.779  37.923  1.00  0.00     0.029 A 
ATOM     54  N   UNL A   1      41.689  31.275  35.950  1.00  0.00    -0.354 N 
ATOM     55  N   UNL A   1      41.483  29.798  33.427  1.00  0.00    -0.248 NA
ATOM     56  C   UNL A   1      42.333  28.240  31.911  1.00  0.00     0.031 C 
ATOM     57  C   UNL A   1      43.375  30.800  37.316  1.00  0.00     0.029 A 
ATOM     58  C   UNL A   1      42.808  30.471  36.096  1.00  0.00     0.049 A 
ATOM     59  H   UNL A   1      41.086  31.269  35.171  1.00  0.00     0.167 HD
ATOM     60  C   UNL A   1      42.635  29.232  33.955  1.00  0.00     0.074 A 
ATOM     61  C   UNL A   1      43.100  28.254  32.992  1.00  0.00     0.031 C 
ATOM     62  C   UNL A   1      43.252  29.497  35.132  1.00  0.00     0.037 A 
BRANCH  49  63
ATOM     63  C   UNL A   1      40.513  33.913  38.471  1.00  0.00     0.064 A 
ATOM     64  C   UNL A   1      41.234  35.116  38.522  1.00  0.00     0.173 A 
ATOM     65  C   UNL A   1      39.771  33.543  39.602  1.00  0.00     0.173 A 
ATOM     66  F   UNL A   1      41.968  35.510  37.470  1.00  0.00    -0.203 F 
ATOM     67  C   UNL A   1      41.235  35.903  39.672  1.00  0.00     0.198 A 
ATOM     68  C   UNL A   1      39.751  34.347  40.740  1.00  0.00     0.198 A 
ATOM     69  F   UNL A   1      39.059  32.407  39.602  1.00  0.00    -0.203 F 
ATOM     70  F   UNL A   1      41.968  37.024  39.714  1.00  0.00    -0.200 F 
ATOM     71  C   UNL A   1      40.488  35.521  40.776  1.00  0.00     0.200 A 
ATOM     72  F   UNL A   1      39.019  33.983  41.803  1.00  0.00    -0.200 F 
ATOM     73  F   UNL A   1      40.485  36.282  41.880  1.00  0.00    -0.200 F 
ENDBRANCH  49  63
BRANCH  50  74
ATOM     74  C   UNL A   1      40.153  28.650  30.003  1.00  0.00     0.064 A 
ATOM     75  C   UNL A   1      39.508  27.407  29.940  1.00  0.00     0.173 A 
ATOM     76  C   UNL A   1      40.763  29.130  28.836  1.00  0.00     0.173 A 
ATOM     77  F   UNL A   1      38.930  26.896  31.037  1.00  0.00    -0.203 F 
ATOM     78  C   UNL A   1      39.490  26.664  28.761  1.00  0.00     0.198 A 
ATOM     79  C   UNL A   1      40.721  28.398  27.650  1.00  0.00     0.198 A 
ATOM     80  F   UNL A   1      41.388  30.316  28.843  1.00  0.00    -0.203 F 
ATOM     81  F   UNL A   1      38.904  25.459  28.739  1.00  0.00    -0.200 F 
ATOM     82  C   UNL A   1      40.092  27.164  27.615  1.00  0.00     0.200 A 
ATOM     83  F   UNL A   1      41.293  28.890  26.542  1.00  0.00    -0.200 F 
ATOM     84  F   UNL A   1      40.072  26.451  26.481  1.00  0.00    -0.200 F 
ENDBRANCH  50  74
BRANCH  62  85
ATOM     85  C   UNL A   1      44.478  28.696  35.460  1.00  0.00     0.064 A 
ATOM     86  C   UNL A   1      45.758  29.119  35.074  1.00  0.00     0.173 A 
ATOM     87  C   UNL A   1      44.372  27.508  36.199  1.00  0.00     0.173 A 
ATOM     88  F   UNL A   1      45.910  30.240  34.352  1.00  0.00    -0.203 F 
ATOM     89  C   UNL A   1      46.886  28.370  35.395  1.00  0.00     0.198 A 
ATOM     90  C   UNL A   1      45.505  26.776  36.543  1.00  0.00     0.198 A 
ATOM     91  F   UNL A   1      43.172  27.064  36.597  1.00  0.00    -0.203 F 
ATOM     92  F   UNL A   1      48.095  28.769  34.978  1.00  0.00    -0.200 F 
ATOM     93  C   UNL A   1      46.759  27.202  36.134  1.00  0.00     0.200 A 
ATOM     94  F   UNL A   1      45.382  25.654  37.266  1.00  0.00    -0.200 F 
ATOM     95  F   UNL A   1      47.847  26.484  36.446  1.00  0.00    -0.200 F 
ENDBRANCH  62  85
ENDBRANCH  36  37
ENDBRANCH  28  31
ENDBRANCH  26  27
ENDBRANCH  25  26
ENDBRANCH  24  25
ENDBRANCH   1  24
TORSDOF 16
ENDMDL
