MODEL 1
REMARK VINA RESULT:     -12.1      0.000      0.000
REMARK SMILES Cc1ncccc1NC(=O)Nc1ccc(C(=O)NCCCCCCNC(=O)c2ccc(-c3c4nc(c(-c5c(F)c(F)c(F)c(F)c5F)c5ccc([nH]5)c(-c5c(F)c(F)c(F)c(F)c5F)c5nc(c(-c6c(F)c(F)c(F)c(F)c6F)c6ccc3[nH]6)C=C5)C=C4)cc2)c(O)c1
REMARK SMILES IDX 21 1 20 2 19 3 18 4 16 5 17 6 15 8 12 9 13 10 93 11 14 12
REMARK SMILES IDX 91 13 11 14 8 15 9 16 10 18 7 20 1 21 2 22 3 23 4 24 6 25
REMARK SMILES IDX 5 26 92 27 22 29 23 30 24 31 25 32 26 33 27 35 28 36 29 37
REMARK SMILES IDX 90 38 30 39 89 40 31 41 32 42 33 43 83 44 34 45 88 46 82 47
REMARK SMILES IDX 84 48 35 49 87 50 81 51 80 52 36 54 68 55 48 56 67 57 49 58
REMARK SMILES IDX 52 59 66 60 85 61 50 62 51 63 65 65 86 66 53 67 37 68 38 69
REMARK SMILES IDX 46 70 39 71 40 72 44 73 47 74 41 75 42 76 45 77 43 78 69 79
REMARK SMILES IDX 70 80 78 81 71 82 72 83 76 84 79 85 73 86 74 87 77 88 75 89
REMARK SMILES IDX 54 90 55 91 63 92 56 93 57 94 61 95 64 96 58 97 59 98 62 99
REMARK SMILES IDX 60 100
REMARK H PARENT 18 7 8 17 11 19 92 28 25 34 84 53 52 64
REMARK Flexibility Score: inf
ROOT
ATOM      1  C   UNL A   1      34.478  32.502  29.415  1.00  0.00     0.002 C 
ENDROOT
BRANCH   1   2
ATOM      2  C   UNL A   1      34.920  31.453  28.386  1.00  0.00     0.021 C 
BRANCH   2   3
ATOM      3  C   UNL A   1      33.910  31.073  27.303  1.00  0.00     0.116 C 
BRANCH   3   4
ATOM      4  N   UNL A   1      32.980  30.022  27.675  1.00  0.00    -0.352 N 
ATOM      5  C   UNL A   1      32.478  28.959  26.955  1.00  0.00     0.255 C 
ATOM      6  O   UNL A   1      31.725  28.172  27.527  1.00  0.00    -0.269 OA
ATOM      7  H   UNL A   1      32.652  30.077  28.601  1.00  0.00     0.163 HD
BRANCH   5   8
ATOM      8  C   UNL A   1      32.732  28.786  25.500  1.00  0.00     0.081 A 
ATOM      9  C   UNL A   1      33.012  27.812  22.891  1.00  0.00     0.046 A 
ATOM     10  C   UNL A   1      33.977  27.504  23.847  1.00  0.00     0.027 A 
ATOM     11  C   UNL A   1      32.072  28.807  23.168  1.00  0.00     0.073 A 
ATOM     12  C   UNL A   1      33.825  27.973  25.156  1.00  0.00     0.020 A 
ATOM     13  C   UNL A   1      31.946  29.302  24.467  1.00  0.00     0.130 A 
BRANCH   9  14
ATOM     14  N   UNL A   1      32.876  27.109  21.685  1.00  0.00    -0.308 N 
ATOM     15  N   UNL A   1      32.062  24.928  22.268  1.00  0.00    -0.306 N 
ATOM     16  C   UNL A   1      32.642  25.804  21.412  1.00  0.00     0.323 C 
ATOM     17  H   UNL A   1      32.250  23.989  22.038  1.00  0.00     0.171 HD
ATOM     18  O   UNL A   1      32.965  25.380  20.297  1.00  0.00    -0.248 OA
ATOM     19  H   UNL A   1      32.967  27.673  20.883  1.00  0.00     0.171 HD
BRANCH  15  20
ATOM     20  C   UNL A   1      31.249  25.059  23.417  1.00  0.00     0.064 A 
ATOM     21  C   UNL A   1      32.740  23.507  24.818  1.00  0.00     0.069 C 
ATOM     22  C   UNL A   1      31.646  24.521  24.652  1.00  0.00     0.061 A 
ATOM     23  N   UNL A   1      31.022  24.836  25.822  1.00  0.00    -0.259 NA
ATOM     24  C   UNL A   1      29.944  25.642  25.769  1.00  0.00     0.111 A 
ATOM     25  C   UNL A   1      30.032  25.742  23.396  1.00  0.00     0.030 A 
ATOM     26  C   UNL A   1      29.385  26.072  24.586  1.00  0.00     0.022 A 
ENDBRANCH  15  20
ENDBRANCH   9  14
BRANCH  13  27
ATOM     27  O   UNL A   1      31.016  30.288  24.642  1.00  0.00    -0.507 OA
ATOM     28  H   UNL A   1      31.273  31.116  25.000  1.00  0.00     0.293 HD
ENDBRANCH  13  27
ENDBRANCH   5   8
ENDBRANCH   3   4
ENDBRANCH   2   3
ENDBRANCH   1   2
BRANCH   1  29
ATOM     29  C   UNL A   1      34.539  33.971  28.988  1.00  0.00     0.002 C 
BRANCH  29  30
ATOM     30  C   UNL A   1      33.226  34.755  29.021  1.00  0.00     0.021 C 
BRANCH  30  31
ATOM     31  C   UNL A   1      33.274  36.123  29.691  1.00  0.00     0.116 C 
BRANCH  31  32
ATOM     32  N   UNL A   1      32.444  36.206  30.878  1.00  0.00    -0.352 N 
ATOM     33  C   UNL A   1      32.613  35.649  32.122  1.00  0.00     0.251 C 
ATOM     34  H   UNL A   1      31.629  36.748  30.775  1.00  0.00     0.163 HD
ATOM     35  O   UNL A   1      31.713  35.745  32.952  1.00  0.00    -0.269 OA
BRANCH  33  36
ATOM     36  C   UNL A   1      33.853  34.916  32.476  1.00  0.00     0.039 A 
ATOM     37  C   UNL A   1      35.079  35.570  32.307  1.00  0.00     0.014 A 
ATOM     38  C   UNL A   1      33.835  33.590  32.914  1.00  0.00     0.014 A 
ATOM     39  C   UNL A   1      36.272  34.909  32.604  1.00  0.00     0.010 A 
ATOM     40  C   UNL A   1      35.021  32.959  33.290  1.00  0.00     0.010 A 
ATOM     41  C   UNL A   1      36.255  33.603  33.117  1.00  0.00    -0.014 A 
BRANCH  41  42
ATOM     42  C   UNL A   1      37.525  32.897  33.438  1.00  0.00     0.031 A 
ATOM     43  C   UNL A   1      38.261  33.192  34.716  1.00  0.00     0.074 A 
ATOM     44  C   UNL A   1      38.032  32.007  32.564  1.00  0.00     0.049 A 
ATOM     45  N   UNL A   1      39.370  32.666  35.176  1.00  0.00    -0.248 NA
ATOM     46  C   UNL A   1      37.693  34.237  35.580  1.00  0.00     0.031 C 
ATOM     47  C   UNL A   1      37.451  31.676  31.262  1.00  0.00     0.029 A 
ATOM     48  N   UNL A   1      39.152  31.217  32.638  1.00  0.00    -0.354 N 
ATOM     49  C   UNL A   1      39.635  33.325  36.371  1.00  0.00     0.074 A 
ATOM     50  C   UNL A   1      38.609  34.331  36.532  1.00  0.00     0.031 C 
ATOM     51  C   UNL A   1      38.201  30.732  30.673  1.00  0.00     0.029 A 
ATOM     52  C   UNL A   1      39.330  30.410  31.542  1.00  0.00     0.049 A 
ATOM     53  H   UNL A   1      39.770  31.229  33.404  1.00  0.00     0.167 HD
ATOM     54  C   UNL A   1      40.627  33.095  37.265  1.00  0.00     0.037 A 
ATOM     55  C   UNL A   1      40.290  29.506  31.268  1.00  0.00     0.037 A 
ATOM     56  C   UNL A   1      41.637  32.079  37.110  1.00  0.00     0.049 A 
ATOM     57  C   UNL A   1      41.367  29.247  32.288  1.00  0.00     0.074 A 
ATOM     58  C   UNL A   1      42.646  31.721  37.987  1.00  0.00     0.029 A 
ATOM     59  N   UNL A   1      41.768  31.259  35.998  1.00  0.00    -0.354 N 
ATOM     60  N   UNL A   1      41.559  29.816  33.453  1.00  0.00    -0.248 NA
ATOM     61  C   UNL A   1      42.347  28.203  31.960  1.00  0.00     0.031 C 
ATOM     62  C   UNL A   1      43.421  30.725  37.382  1.00  0.00     0.029 A 
ATOM     63  C   UNL A   1      42.855  30.414  36.156  1.00  0.00     0.049 A 
ATOM     64  H   UNL A   1      41.175  31.276  35.212  1.00  0.00     0.167 HD
ATOM     65  C   UNL A   1      42.661  29.182  34.011  1.00  0.00     0.074 A 
ATOM     66  C   UNL A   1      43.082  28.171  33.062  1.00  0.00     0.031 C 
ATOM     67  C   UNL A   1      43.268  29.413  35.202  1.00  0.00     0.037 A 
BRANCH  54  68
ATOM     68  C   UNL A   1      40.672  33.970  38.488  1.00  0.00     0.064 A 
ATOM     69  C   UNL A   1      39.974  33.641  39.661  1.00  0.00     0.173 A 
ATOM     70  C   UNL A   1      41.431  35.150  38.491  1.00  0.00     0.173 A 
ATOM     71  F   UNL A   1      39.224  32.530  39.711  1.00  0.00    -0.203 F 
ATOM     72  C   UNL A   1      39.995  34.483  40.770  1.00  0.00     0.198 A 
ATOM     73  C   UNL A   1      41.481  35.971  39.615  1.00  0.00     0.198 A 
ATOM     74  F   UNL A   1      42.125  35.512  37.401  1.00  0.00    -0.203 F 
ATOM     75  F   UNL A   1      39.264  34.182  41.853  1.00  0.00    -0.200 F 
ATOM     76  C   UNL A   1      40.753  35.644  40.749  1.00  0.00     0.200 A 
ATOM     77  F   UNL A   1      42.226  37.085  39.598  1.00  0.00    -0.200 F 
ATOM     78  F   UNL A   1      40.774  36.452  41.818  1.00  0.00    -0.200 F 
ENDBRANCH  54  68
BRANCH  55  79
ATOM     79  C   UNL A   1      40.246  28.750  29.990  1.00  0.00     0.064 A 
ATOM     80  C   UNL A   1      40.902  29.227  28.846  1.00  0.00     0.173 A 
ATOM     81  C   UNL A   1      39.562  27.530  29.890  1.00  0.00     0.173 A 
ATOM     82  F   UNL A   1      41.553  30.398  28.887  1.00  0.00    -0.203 F 
ATOM     83  C   UNL A   1      40.860  28.520  27.645  1.00  0.00     0.198 A 
ATOM     84  C   UNL A   1      39.547  26.809  28.697  1.00  0.00     0.198 A 
ATOM     85  F   UNL A   1      38.927  27.028  30.957  1.00  0.00    -0.203 F 
ATOM     86  F   UNL A   1      41.460  29.019  26.556  1.00  0.00    -0.200 F 
ATOM     87  C   UNL A   1      40.189  27.308  27.574  1.00  0.00     0.200 A 
ATOM     88  F   UNL A   1      38.913  25.631  28.637  1.00  0.00    -0.200 F 
ATOM     89  F   UNL A   1      40.159  26.624  26.423  1.00  0.00    -0.200 F 
ENDBRANCH  55  79
BRANCH  67  90
ATOM     90  C   UNL A   1      44.430  28.530  35.562  1.00  0.00     0.064 A 
ATOM     91  C   UNL A   1      44.261  27.343  36.293  1.00  0.00     0.173 A 
ATOM     92  C   UNL A   1      45.731  28.874  35.165  1.00  0.00     0.173 A 
ATOM     93  F   UNL A   1      43.040  26.973  36.709  1.00  0.00    -0.203 F 
ATOM     94  C   UNL A   1      45.356  26.560  36.649  1.00  0.00     0.198 A 
ATOM     95  C   UNL A   1      46.818  28.069  35.491  1.00  0.00     0.198 A 
ATOM     96  F   UNL A   1      45.949  29.991  34.455  1.00  0.00    -0.203 F 
ATOM     97  F   UNL A   1      45.178  25.468  37.406  1.00  0.00    -0.200 F 
ATOM     98  C   UNL A   1      46.633  26.920  36.244  1.00  0.00     0.200 A 
ATOM     99  F   UNL A   1      48.049  28.410  35.084  1.00  0.00    -0.200 F 
ATOM    100  F   UNL A   1      47.685  26.166  36.590  1.00  0.00    -0.200 F 
ENDBRANCH  67  90
ENDBRANCH  41  42
ENDBRANCH  33  36
ENDBRANCH  31  32
ENDBRANCH  30  31
ENDBRANCH  29  30
ENDBRANCH   1  29
TORSDOF 16
ENDMDL
MODEL 2
REMARK VINA RESULT:     -12.0      0.391      1.678
REMARK SMILES Cc1ncccc1NC(=O)Nc1ccc(C(=O)NCCCCCCNC(=O)c2ccc(-c3c4nc(c(-c5c(F)c(F)c(F)c(F)c5F)c5ccc([nH]5)c(-c5c(F)c(F)c(F)c(F)c5F)c5nc(c(-c6c(F)c(F)c(F)c(F)c6F)c6ccc3[nH]6)C=C5)C=C4)cc2)c(O)c1
REMARK SMILES IDX 21 1 20 2 19 3 18 4 16 5 17 6 15 8 12 9 13 10 93 11 14 12
REMARK SMILES IDX 91 13 11 14 8 15 9 16 10 18 7 20 1 21 2 22 3 23 4 24 6 25
REMARK SMILES IDX 5 26 92 27 22 29 23 30 24 31 25 32 26 33 27 35 28 36 29 37
REMARK SMILES IDX 90 38 30 39 89 40 31 41 32 42 33 43 83 44 34 45 88 46 82 47
REMARK SMILES IDX 84 48 35 49 87 50 81 51 80 52 36 54 68 55 48 56 67 57 49 58
REMARK SMILES IDX 52 59 66 60 85 61 50 62 51 63 65 65 86 66 53 67 37 68 38 69
REMARK SMILES IDX 46 70 39 71 40 72 44 73 47 74 41 75 42 76 45 77 43 78 69 79
REMARK SMILES IDX 70 80 78 81 71 82 72 83 76 84 79 85 73 86 74 87 77 88 75 89
REMARK SMILES IDX 54 90 55 91 63 92 56 93 57 94 61 95 64 96 58 97 59 98 62 99
REMARK SMILES IDX 60 100
REMARK H PARENT 18 7 8 17 11 19 92 28 25 34 84 53 52 64
REMARK Flexibility Score: inf
ROOT
ATOM      1  C   UNL A   1      35.276  32.959  28.307  1.00  0.00     0.002 C 
ENDROOT
BRANCH   1   2
ATOM      2  C   UNL A   1      34.041  32.103  28.000  1.00  0.00     0.021 C 
BRANCH   2   3
ATOM      3  C   UNL A   1      34.288  30.664  27.542  1.00  0.00     0.116 C 
BRANCH   3   4
ATOM      4  N   UNL A   1      33.213  29.734  27.839  1.00  0.00    -0.352 N 
ATOM      5  C   UNL A   1      32.590  28.788  27.054  1.00  0.00     0.255 C 
ATOM      6  O   UNL A   1      31.722  28.085  27.568  1.00  0.00    -0.269 OA
ATOM      7  H   UNL A   1      32.870  29.789  28.760  1.00  0.00     0.163 HD
BRANCH   5   8
ATOM      8  C   UNL A   1      32.859  28.654  25.597  1.00  0.00     0.081 A 
ATOM      9  C   UNL A   1      33.104  27.769  22.953  1.00  0.00     0.046 A 
ATOM     10  C   UNL A   1      34.015  27.333  23.911  1.00  0.00     0.027 A 
ATOM     11  C   UNL A   1      32.254  28.836  23.257  1.00  0.00     0.073 A 
ATOM     12  C   UNL A   1      33.879  27.758  25.237  1.00  0.00     0.020 A 
ATOM     13  C   UNL A   1      32.146  29.285  24.575  1.00  0.00     0.130 A 
BRANCH   9  14
ATOM     14  N   UNL A   1      32.930  27.134  21.715  1.00  0.00    -0.308 N 
ATOM     15  N   UNL A   1      31.998  24.975  22.195  1.00  0.00    -0.306 N 
ATOM     16  C   UNL A   1      32.625  25.858  21.380  1.00  0.00     0.323 C 
ATOM     17  H   UNL A   1      32.134  24.039  21.919  1.00  0.00     0.171 HD
ATOM     18  O   UNL A   1      32.924  25.472  20.245  1.00  0.00    -0.248 OA
ATOM     19  H   UNL A   1      33.051  27.730  20.941  1.00  0.00     0.171 HD
BRANCH  15  20
ATOM     20  C   UNL A   1      31.193  25.095  23.351  1.00  0.00     0.064 A 
ATOM     21  C   UNL A   1      32.554  23.345  24.647  1.00  0.00     0.069 C 
ATOM     22  C   UNL A   1      31.542  24.449  24.548  1.00  0.00     0.061 A 
ATOM     23  N   UNL A   1      30.940  24.736  25.737  1.00  0.00    -0.259 NA
ATOM     24  C   UNL A   1      29.928  25.625  25.737  1.00  0.00     0.111 A 
ATOM     25  C   UNL A   1      30.033  25.870  23.376  1.00  0.00     0.030 A 
ATOM     26  C   UNL A   1      29.409  26.172  24.585  1.00  0.00     0.022 A 
ENDBRANCH  15  20
ENDBRANCH   9  14
BRANCH  13  27
ATOM     27  O   UNL A   1      31.308  30.344  24.777  1.00  0.00    -0.507 OA
ATOM     28  H   UNL A   1      31.194  30.986  24.103  1.00  0.00     0.293 HD
ENDBRANCH  13  27
ENDBRANCH   5   8
ENDBRANCH   3   4
ENDBRANCH   2   3
ENDBRANCH   1   2
BRANCH   1  29
ATOM     29  C   UNL A   1      35.042  34.441  28.611  1.00  0.00     0.002 C 
BRANCH  29  30
ATOM     30  C   UNL A   1      33.588  34.903  28.724  1.00  0.00     0.021 C 
BRANCH  30  31
ATOM     31  C   UNL A   1      33.359  36.249  29.400  1.00  0.00     0.116 C 
BRANCH  31  32
ATOM     32  N   UNL A   1      32.494  36.164  30.562  1.00  0.00    -0.352 N 
ATOM     33  C   UNL A   1      32.671  35.508  31.756  1.00  0.00     0.251 C 
ATOM     34  H   UNL A   1      31.644  36.654  30.481  1.00  0.00     0.163 HD
ATOM     35  O   UNL A   1      31.745  35.464  32.561  1.00  0.00    -0.269 OA
BRANCH  33  36
ATOM     36  C   UNL A   1      33.952  34.837  32.083  1.00  0.00     0.039 A 
ATOM     37  C   UNL A   1      33.945  33.448  32.260  1.00  0.00     0.014 A 
ATOM     38  C   UNL A   1      35.138  35.549  32.274  1.00  0.00     0.014 A 
ATOM     39  C   UNL A   1      35.124  32.779  32.594  1.00  0.00     0.010 A 
ATOM     40  C   UNL A   1      36.332  34.871  32.525  1.00  0.00     0.010 A 
ATOM     41  C   UNL A   1      36.334  33.481  32.711  1.00  0.00    -0.014 A 
BRANCH  41  42
ATOM     42  C   UNL A   1      37.592  32.770  33.064  1.00  0.00     0.031 A 
ATOM     43  C   UNL A   1      38.300  33.066  34.358  1.00  0.00     0.074 A 
ATOM     44  C   UNL A   1      38.114  31.873  32.205  1.00  0.00     0.049 A 
ATOM     45  N   UNL A   1      39.396  32.536  34.846  1.00  0.00    -0.248 NA
ATOM     46  C   UNL A   1      37.719  34.118  35.204  1.00  0.00     0.031 C 
ATOM     47  C   UNL A   1      37.562  31.540  30.893  1.00  0.00     0.029 A 
ATOM     48  N   UNL A   1      39.228  31.077  32.309  1.00  0.00    -0.354 N 
ATOM     49  C   UNL A   1      39.637  33.198  36.043  1.00  0.00     0.074 A 
ATOM     50  C   UNL A   1      38.613  34.211  36.177  1.00  0.00     0.031 C 
ATOM     51  C   UNL A   1      38.320  30.589  30.324  1.00  0.00     0.029 A 
ATOM     52  C   UNL A   1      39.426  30.265  31.220  1.00  0.00     0.049 A 
ATOM     53  H   UNL A   1      39.828  31.089  33.089  1.00  0.00     0.167 HD
ATOM     54  C   UNL A   1      40.607  32.967  36.961  1.00  0.00     0.037 A 
ATOM     55  C   UNL A   1      40.388  29.354  30.973  1.00  0.00     0.037 A 
ATOM     56  C   UNL A   1      41.614  31.944  36.833  1.00  0.00     0.049 A 
ATOM     57  C   UNL A   1      41.439  29.094  32.018  1.00  0.00     0.074 A 
ATOM     58  C   UNL A   1      42.601  31.584  37.735  1.00  0.00     0.029 A 
ATOM     59  N   UNL A   1      41.766  31.119  35.728  1.00  0.00    -0.354 N 
ATOM     60  N   UNL A   1      41.608  29.667  33.184  1.00  0.00    -0.248 NA
ATOM     61  C   UNL A   1      42.420  28.043  31.717  1.00  0.00     0.031 C 
ATOM     62  C   UNL A   1      43.383  30.582  37.152  1.00  0.00     0.029 A 
ATOM     63  C   UNL A   1      42.845  30.268  35.914  1.00  0.00     0.049 A 
ATOM     64  H   UNL A   1      41.192  31.136  34.928  1.00  0.00     0.167 HD
ATOM     65  C   UNL A   1      42.693  29.029  33.770  1.00  0.00     0.074 A 
ATOM     66  C   UNL A   1      43.130  28.012  32.835  1.00  0.00     0.031 C 
ATOM     67  C   UNL A   1      43.274  29.262  34.974  1.00  0.00     0.037 A 
BRANCH  54  68
ATOM     68  C   UNL A   1      40.628  33.847  38.181  1.00  0.00     0.064 A 
ATOM     69  C   UNL A   1      41.431  34.996  38.252  1.00  0.00     0.173 A 
ATOM     70  C   UNL A   1      39.826  33.542  39.292  1.00  0.00     0.173 A 
ATOM     71  F   UNL A   1      42.225  35.331  37.223  1.00  0.00    -0.203 F 
ATOM     72  C   UNL A   1      41.467  35.778  39.404  1.00  0.00     0.198 A 
ATOM     73  C   UNL A   1      39.836  34.346  40.428  1.00  0.00     0.198 A 
ATOM     74  F   UNL A   1      39.033  32.460  39.278  1.00  0.00    -0.203 F 
ATOM     75  F   UNL A   1      42.294  36.830  39.473  1.00  0.00    -0.200 F 
ATOM     76  C   UNL A   1      40.666  35.456  40.489  1.00  0.00     0.200 A 
ATOM     77  F   UNL A   1      39.050  34.042  41.470  1.00  0.00    -0.200 F 
ATOM     78  F   UNL A   1      40.700  36.209  41.597  1.00  0.00    -0.200 F 
ENDBRANCH  54  68
BRANCH  55  79
ATOM     79  C   UNL A   1      40.369  28.594  29.696  1.00  0.00     0.064 A 
ATOM     80  C   UNL A   1      41.090  29.038  28.579  1.00  0.00     0.173 A 
ATOM     81  C   UNL A   1      39.643  27.400  29.572  1.00  0.00     0.173 A 
ATOM     82  F   UNL A   1      41.785  30.183  28.643  1.00  0.00    -0.203 F 
ATOM     83  C   UNL A   1      41.073  28.327  27.381  1.00  0.00     0.198 A 
ATOM     84  C   UNL A   1      39.650  26.674  28.383  1.00  0.00     0.198 A 
ATOM     85  F   UNL A   1      38.944  26.929  30.614  1.00  0.00    -0.203 F 
ATOM     86  F   UNL A   1      41.737  28.796  26.316  1.00  0.00    -0.200 F 
ATOM     87  C   UNL A   1      40.359  27.141  27.287  1.00  0.00     0.200 A 
ATOM     88  F   UNL A   1      38.974  25.520  28.301  1.00  0.00    -0.200 F 
ATOM     89  F   UNL A   1      40.351  26.452  26.138  1.00  0.00    -0.200 F 
ENDBRANCH  55  79
BRANCH  67  90
ATOM     90  C   UNL A   1      44.422  28.373  35.365  1.00  0.00     0.064 A 
ATOM     91  C   UNL A   1      45.751  28.701  35.056  1.00  0.00     0.173 A 
ATOM     92  C   UNL A   1      44.187  27.179  36.064  1.00  0.00     0.173 A 
ATOM     93  F   UNL A   1      46.031  29.825  34.378  1.00  0.00    -0.203 F 
ATOM     94  C   UNL A   1      46.797  27.844  35.394  1.00  0.00     0.198 A 
ATOM     95  C   UNL A   1      45.238  26.344  36.432  1.00  0.00     0.198 A 
ATOM     96  F   UNL A   1      42.937  26.823  36.394  1.00  0.00    -0.203 F 
ATOM     97  F   UNL A   1      48.051  28.144  35.028  1.00  0.00    -0.200 F 
ATOM     98  C   UNL A   1      46.540  26.669  36.085  1.00  0.00     0.200 A 
ATOM     99  F   UNL A   1      44.989  25.218  37.114  1.00  0.00    -0.200 F 
ATOM    100  F   UNL A   1      47.546  25.846  36.407  1.00  0.00    -0.200 F 
ENDBRANCH  67  90
ENDBRANCH  41  42
ENDBRANCH  33  36
ENDBRANCH  31  32
ENDBRANCH  30  31
ENDBRANCH  29  30
ENDBRANCH   1  29
TORSDOF 16
ENDMDL
MODEL 3
REMARK VINA RESULT:     -11.9      2.767      4.906
REMARK SMILES Cc1ncccc1NC(=O)Nc1ccc(C(=O)NCCCCCCNC(=O)c2ccc(-c3c4nc(c(-c5c(F)c(F)c(F)c(F)c5F)c5ccc([nH]5)c(-c5c(F)c(F)c(F)c(F)c5F)c5nc(c(-c6c(F)c(F)c(F)c(F)c6F)c6ccc3[nH]6)C=C5)C=C4)cc2)c(O)c1
REMARK SMILES IDX 21 1 20 2 19 3 18 4 16 5 17 6 15 8 12 9 13 10 93 11 14 12
REMARK SMILES IDX 91 13 11 14 8 15 9 16 10 18 7 20 1 21 2 22 3 23 4 24 6 25
REMARK SMILES IDX 5 26 92 27 22 29 23 30 24 31 25 32 26 33 27 35 28 36 29 37
REMARK SMILES IDX 90 38 30 39 89 40 31 41 32 42 33 43 83 44 34 45 88 46 82 47
REMARK SMILES IDX 84 48 35 49 87 50 81 51 80 52 36 54 68 55 48 56 67 57 49 58
REMARK SMILES IDX 52 59 66 60 85 61 50 62 51 63 65 65 86 66 53 67 37 68 38 69
REMARK SMILES IDX 46 70 39 71 40 72 44 73 47 74 41 75 42 76 45 77 43 78 69 79
REMARK SMILES IDX 70 80 78 81 71 82 72 83 76 84 79 85 73 86 74 87 77 88 75 89
REMARK SMILES IDX 54 90 55 91 63 92 56 93 57 94 61 95 64 96 58 97 59 98 62 99
REMARK SMILES IDX 60 100
REMARK H PARENT 18 7 8 17 11 19 92 28 25 34 84 53 52 64
REMARK Flexibility Score: inf
ROOT
ATOM      1  C   UNL A   1      30.889  28.550  24.322  1.00  0.00     0.002 C 
ENDROOT
BRANCH   1   2
ATOM      2  C   UNL A   1      29.769  27.834  23.556  1.00  0.00     0.021 C 
BRANCH   2   3
ATOM      3  C   UNL A   1      30.012  26.374  23.172  1.00  0.00     0.116 C 
BRANCH   3   4
ATOM      4  N   UNL A   1      29.838  25.420  24.253  1.00  0.00    -0.352 N 
ATOM      5  C   UNL A   1      30.761  24.740  25.018  1.00  0.00     0.255 C 
ATOM      6  O   UNL A   1      30.346  24.010  25.917  1.00  0.00    -0.269 OA
ATOM      7  H   UNL A   1      28.899  25.225  24.478  1.00  0.00     0.163 HD
BRANCH   5   8
ATOM      8  C   UNL A   1      32.221  24.780  24.737  1.00  0.00     0.081 A 
ATOM      9  C   UNL A   1      34.999  24.447  24.762  1.00  0.00     0.046 A 
ATOM     10  C   UNL A   1      34.402  25.316  25.672  1.00  0.00     0.027 A 
ATOM     11  C   UNL A   1      34.248  23.964  23.688  1.00  0.00     0.073 A 
ATOM     12  C   UNL A   1      33.011  25.465  25.673  1.00  0.00     0.020 A 
ATOM     13  C   UNL A   1      32.863  24.146  23.671  1.00  0.00     0.130 A 
BRANCH   9  14
ATOM     14  N   UNL A   1      36.304  23.956  24.914  1.00  0.00    -0.308 N 
ATOM     15  N   UNL A   1      36.113  21.925  26.179  1.00  0.00    -0.306 N 
ATOM     16  C   UNL A   1      36.822  22.966  25.679  1.00  0.00     0.323 C 
ATOM     17  H   UNL A   1      36.559  21.491  26.942  1.00  0.00     0.171 HD
ATOM     18  O   UNL A   1      38.032  23.002  25.928  1.00  0.00    -0.248 OA
ATOM     19  H   UNL A   1      36.971  24.418  24.357  1.00  0.00     0.171 HD
BRANCH  15  20
ATOM     20  C   UNL A   1      34.875  21.324  25.853  1.00  0.00     0.064 A 
ATOM     21  C   UNL A   1      33.668  22.405  27.844  1.00  0.00     0.069 C 
ATOM     22  C   UNL A   1      33.698  21.667  26.538  1.00  0.00     0.061 A 
ATOM     23  N   UNL A   1      32.462  21.304  26.096  1.00  0.00    -0.259 NA
ATOM     24  C   UNL A   1      32.383  20.529  24.996  1.00  0.00     0.111 A 
ATOM     25  C   UNL A   1      34.750  20.383  24.830  1.00  0.00     0.030 A 
ATOM     26  C   UNL A   1      33.490  20.005  24.367  1.00  0.00     0.022 A 
ENDBRANCH  15  20
ENDBRANCH   9  14
BRANCH  13  27
ATOM     27  O   UNL A   1      32.212  23.659  22.574  1.00  0.00    -0.507 OA
ATOM     28  H   UNL A   1      32.700  23.382  21.823  1.00  0.00     0.293 HD
ENDBRANCH  13  27
ENDBRANCH   5   8
ENDBRANCH   3   4
ENDBRANCH   2   3
ENDBRANCH   1   2
BRANCH   1  29
ATOM     29  C   UNL A   1      32.134  28.952  23.528  1.00  0.00     0.002 C 
BRANCH  29  30
ATOM     30  C   UNL A   1      33.472  28.901  24.268  1.00  0.00     0.021 C 
BRANCH  30  31
ATOM     31  C   UNL A   1      33.418  29.114  25.775  1.00  0.00     0.116 C 
BRANCH  31  32
ATOM     32  N   UNL A   1      33.045  30.466  26.148  1.00  0.00    -0.352 N 
ATOM     33  C   UNL A   1      33.595  31.316  27.075  1.00  0.00     0.251 C 
ATOM     34  H   UNL A   1      32.273  30.832  25.658  1.00  0.00     0.163 HD
ATOM     35  O   UNL A   1      33.037  32.381  27.321  1.00  0.00    -0.269 OA
BRANCH  33  36
ATOM     36  C   UNL A   1      34.841  30.964  27.799  1.00  0.00     0.039 A 
ATOM     37  C   UNL A   1      34.933  29.693  28.378  1.00  0.00     0.014 A 
ATOM     38  C   UNL A   1      35.888  31.874  27.966  1.00  0.00     0.014 A 
ATOM     39  C   UNL A   1      36.078  29.330  29.091  1.00  0.00     0.010 A 
ATOM     40  C   UNL A   1      37.065  31.482  28.604  1.00  0.00     0.010 A 
ATOM     41  C   UNL A   1      37.164  30.213  29.195  1.00  0.00    -0.014 A 
BRANCH  41  42
ATOM     42  C   UNL A   1      38.386  29.827  29.950  1.00  0.00     0.031 A 
ATOM     43  C   UNL A   1      38.618  30.345  31.343  1.00  0.00     0.074 A 
ATOM     44  C   UNL A   1      39.303  29.029  29.371  1.00  0.00     0.049 A 
ATOM     45  N   UNL A   1      39.613  30.106  32.164  1.00  0.00    -0.248 NA
ATOM     46  C   UNL A   1      37.618  31.281  31.876  1.00  0.00     0.031 C 
ATOM     47  C   UNL A   1      39.228  28.509  28.006  1.00  0.00     0.029 A 
ATOM     48  N   UNL A   1      40.478  28.514  29.860  1.00  0.00    -0.354 N 
ATOM     49  C   UNL A   1      39.362  30.869  33.297  1.00  0.00     0.074 A 
ATOM     50  C   UNL A   1      38.158  31.627  33.035  1.00  0.00     0.031 C 
ATOM     51  C   UNL A   1      40.294  27.726  27.775  1.00  0.00     0.029 A 
ATOM     52  C   UNL A   1      41.140  27.710  28.965  1.00  0.00     0.049 A 
ATOM     53  H   UNL A   1      40.815  28.704  30.765  1.00  0.00     0.167 HD
ATOM     54  C   UNL A   1      40.054  30.914  34.461  1.00  0.00     0.037 A 
ATOM     55  C   UNL A   1      42.297  27.031  29.090  1.00  0.00     0.037 A 
ATOM     56  C   UNL A   1      41.242  30.141  34.726  1.00  0.00     0.049 A 
ATOM     57  C   UNL A   1      43.035  27.073  30.400  1.00  0.00     0.074 A 
ATOM     58  C   UNL A   1      41.981  30.065  35.894  1.00  0.00     0.029 A 
ATOM     59  N   UNL A   1      41.868  29.315  33.804  1.00  0.00    -0.354 N 
ATOM     60  N   UNL A   1      42.743  27.731  31.495  1.00  0.00    -0.248 NA
ATOM     61  C   UNL A   1      44.254  26.259  30.496  1.00  0.00     0.031 C 
ATOM     62  C   UNL A   1      43.085  29.237  35.660  1.00  0.00     0.029 A 
ATOM     63  C   UNL A   1      42.998  28.743  34.368  1.00  0.00     0.049 A 
ATOM     64  H   UNL A   1      41.556  29.158  32.884  1.00  0.00     0.167 HD
ATOM     65  C   UNL A   1      43.721  27.389  32.419  1.00  0.00     0.074 A 
ATOM     66  C   UNL A   1      44.605  26.450  31.759  1.00  0.00     0.031 C 
ATOM     67  C   UNL A   1      43.873  27.812  33.699  1.00  0.00     0.037 A 
BRANCH  54  68
ATOM     68  C   UNL A   1      39.546  31.839  35.533  1.00  0.00     0.064 A 
ATOM     69  C   UNL A   1      40.015  33.156  35.658  1.00  0.00     0.173 A 
ATOM     70  C   UNL A   1      38.569  31.406  36.442  1.00  0.00     0.173 A 
ATOM     71  F   UNL A   1      40.956  33.621  34.823  1.00  0.00    -0.203 F 
ATOM     72  C   UNL A   1      39.561  33.987  36.680  1.00  0.00     0.198 A 
ATOM     73  C   UNL A   1      38.090  32.251  37.439  1.00  0.00     0.198 A 
ATOM     74  F   UNL A   1      38.077  30.159  36.366  1.00  0.00    -0.203 F 
ATOM     75  F   UNL A   1      40.076  35.216  36.821  1.00  0.00    -0.200 F 
ATOM     76  C   UNL A   1      38.595  33.536  37.567  1.00  0.00     0.200 A 
ATOM     77  F   UNL A   1      37.144  31.819  38.286  1.00  0.00    -0.200 F 
ATOM     78  F   UNL A   1      38.159  34.336  38.549  1.00  0.00    -0.200 F 
ENDBRANCH  54  68
BRANCH  55  79
ATOM     79  C   UNL A   1      42.799  26.219  27.951  1.00  0.00     0.064 A 
ATOM     80  C   UNL A   1      43.669  26.769  26.999  1.00  0.00     0.173 A 
ATOM     81  C   UNL A   1      42.432  24.874  27.800  1.00  0.00     0.173 A 
ATOM     82  F   UNL A   1      44.034  28.056  27.091  1.00  0.00    -0.203 F 
ATOM     83  C   UNL A   1      44.140  26.009  25.930  1.00  0.00     0.198 A 
ATOM     84  C   UNL A   1      42.927  24.106  26.747  1.00  0.00     0.198 A 
ATOM     85  F   UNL A   1      41.609  24.299  28.688  1.00  0.00    -0.203 F 
ATOM     86  F   UNL A   1      44.937  26.571  25.011  1.00  0.00    -0.200 F 
ATOM     87  C   UNL A   1      43.775  24.677  25.810  1.00  0.00     0.200 A 
ATOM     88  F   UNL A   1      42.586  22.815  26.644  1.00  0.00    -0.200 F 
ATOM     89  F   UNL A   1      44.236  23.944  24.788  1.00  0.00    -0.200 F 
ENDBRANCH  55  79
BRANCH  67  90
ATOM     90  C   UNL A   1      45.018  27.231  34.482  1.00  0.00     0.064 A 
ATOM     91  C   UNL A   1      44.873  26.068  35.255  1.00  0.00     0.173 A 
ATOM     92  C   UNL A   1      46.280  27.844  34.453  1.00  0.00     0.173 A 
ATOM     93  F   UNL A   1      43.685  25.449  35.328  1.00  0.00    -0.203 F 
ATOM     94  C   UNL A   1      45.937  25.569  36.004  1.00  0.00     0.198 A 
ATOM     95  C   UNL A   1      47.350  27.321  35.172  1.00  0.00     0.198 A 
ATOM     96  F   UNL A   1      46.477  28.951  33.722  1.00  0.00    -0.203 F 
ATOM     97  F   UNL A   1      45.756  24.497  36.789  1.00  0.00    -0.200 F 
ATOM     98  C   UNL A   1      47.175  26.192  35.958  1.00  0.00     0.200 A 
ATOM     99  F   UNL A   1      48.549  27.915  35.114  1.00  0.00    -0.200 F 
ATOM    100  F   UNL A   1      48.196  25.711  36.680  1.00  0.00    -0.200 F 
ENDBRANCH  67  90
ENDBRANCH  41  42
ENDBRANCH  33  36
ENDBRANCH  31  32
ENDBRANCH  30  31
ENDBRANCH  29  30
ENDBRANCH   1  29
TORSDOF 16
ENDMDL
