MODEL 1
REMARK VINA RESULT:     -13.7      0.000      0.000
REMARK SMILES Cc1ccc(S(=O)(=O)N(C)c2cccc(C)c2C)cc1C(=O)NCCCCCCNC(=O)c1ccc(-c2c3nc(c(-c4c(F)c(F)c(F)c(F)c4F)c4ccc([nH]4)c(-c4c(F)c(F)c(F)c(F)c4F)c4nc(c(-c5c(F)c(F)c(F)c(F)c5F)c5ccc2[nH]5)C=C4)C=C3)cc1
REMARK SMILES IDX 26 1 25 2 24 3 23 4 21 5 22 6 20 8 1 9 2 10 3 11 4 12 19 13
REMARK SMILES IDX 5 14 6 15 7 16 8 17 9 18 10 19 11 20 12 21 17 22 13 23 15 24
REMARK SMILES IDX 18 25 14 26 16 27 27 28 28 29 29 30 30 31 31 32 32 34 33 35
REMARK SMILES IDX 34 36 95 37 35 38 94 39 36 40 37 41 38 42 88 43 39 44 93 45
REMARK SMILES IDX 87 46 89 47 40 48 92 49 86 50 85 51 41 53 73 54 53 55 72 56
REMARK SMILES IDX 54 57 57 58 71 59 90 60 55 61 56 62 70 64 91 65 58 66 42 67
REMARK SMILES IDX 43 68 51 69 44 70 45 71 49 72 52 73 46 74 47 75 50 76 48 77
REMARK SMILES IDX 74 78 75 79 83 80 76 81 77 82 81 83 84 84 78 85 79 86 82 87
REMARK SMILES IDX 80 88 59 89 60 90 68 91 61 92 62 93 66 94 69 95 63 96 64 97
REMARK SMILES IDX 67 98 65 99
REMARK H PARENT 23 7 30 33 89 52 57 63
REMARK Flexibility Score: inf
ROOT
ATOM      1  C   UNL A   1      33.177  28.645  25.229  1.00  0.00     0.002 C 
ENDROOT
BRANCH   1   2
ATOM      2  C   UNL A   1      34.083  28.229  24.061  1.00  0.00     0.021 C 
BRANCH   2   3
ATOM      3  C   UNL A   1      33.796  28.938  22.729  1.00  0.00     0.116 C 
BRANCH   3   4
ATOM      4  N   UNL A   1      33.637  27.950  21.685  1.00  0.00    -0.352 N 
ATOM      5  C   UNL A   1      32.978  26.755  21.580  1.00  0.00     0.251 C 
ATOM      6  O   UNL A   1      33.203  26.115  20.547  1.00  0.00    -0.269 OA
ATOM      7  H   UNL A   1      34.113  28.193  20.858  1.00  0.00     0.163 HD
BRANCH   5   8
ATOM      8  C   UNL A   1      31.927  26.229  22.512  1.00  0.00     0.044 A 
ATOM      9  C   UNL A   1      30.300  28.240  22.653  1.00  0.00     0.045 C 
ATOM     10  C   UNL A   1      30.730  26.834  22.945  1.00  0.00    -0.038 A 
ATOM     11  C   UNL A   1      29.866  26.109  23.795  1.00  0.00     0.005 A 
ATOM     12  C   UNL A   1      30.216  24.858  24.295  1.00  0.00     0.022 A 
ATOM     13  C   UNL A   1      32.286  24.977  23.078  1.00  0.00     0.036 A 
ATOM     14  C   UNL A   1      31.445  24.298  23.955  1.00  0.00     0.088 A 
BRANCH  14  15
ATOM     15  S   UNL A   1      31.827  22.723  24.697  1.00  0.00     0.264 S 
ATOM     16  O   UNL A   1      30.682  22.406  25.529  1.00  0.00    -0.201 OA
ATOM     17  O   UNL A   1      32.199  21.865  23.588  1.00  0.00    -0.201 OA
BRANCH  15  18
ATOM     18  N   UNL A   1      33.202  22.896  25.722  1.00  0.00    -0.269 N 
ATOM     19  C   UNL A   1      33.290  24.175  26.483  1.00  0.00     0.164 C 
BRANCH  18  20
ATOM     20  C   UNL A   1      34.477  22.568  25.073  1.00  0.00     0.055 A 
ATOM     21  C   UNL A   1      35.289  23.590  24.555  1.00  0.00     0.027 A 
ATOM     22  C   UNL A   1      35.005  21.260  25.188  1.00  0.00    -0.024 A 
ATOM     23  C   UNL A   1      36.576  23.327  24.098  1.00  0.00     0.002 A 
ATOM     24  C   UNL A   1      36.337  21.007  24.763  1.00  0.00    -0.046 A 
ATOM     25  C   UNL A   1      34.176  20.160  25.803  1.00  0.00     0.047 C 
ATOM     26  C   UNL A   1      37.097  22.045  24.203  1.00  0.00     0.004 A 
ATOM     27  C   UNL A   1      36.982  19.653  24.900  1.00  0.00     0.044 C 
ENDBRANCH  18  20
ENDBRANCH  15  18
ENDBRANCH  14  15
ENDBRANCH   5   8
ENDBRANCH   3   4
ENDBRANCH   2   3
ENDBRANCH   1   2
BRANCH   1  28
ATOM     28  C   UNL A   1      33.559  28.106  26.615  1.00  0.00     0.002 C 
BRANCH  28  29
ATOM     29  C   UNL A   1      33.628  29.141  27.742  1.00  0.00     0.021 C 
BRANCH  29  30
ATOM     30  C   UNL A   1      34.183  30.495  27.312  1.00  0.00     0.116 C 
BRANCH  30  31
ATOM     31  N   UNL A   1      34.678  31.309  28.416  1.00  0.00    -0.352 N 
ATOM     32  C   UNL A   1      35.747  31.084  29.259  1.00  0.00     0.251 C 
ATOM     33  H   UNL A   1      34.177  32.139  28.585  1.00  0.00     0.163 HD
ATOM     34  O   UNL A   1      35.985  31.866  30.178  1.00  0.00    -0.269 OA
BRANCH  32  35
ATOM     35  C   UNL A   1      36.678  29.965  28.985  1.00  0.00     0.039 A 
ATOM     36  C   UNL A   1      36.995  29.095  30.036  1.00  0.00     0.014 A 
ATOM     37  C   UNL A   1      37.350  29.866  27.769  1.00  0.00     0.014 A 
ATOM     38  C   UNL A   1      38.131  28.291  29.942  1.00  0.00     0.010 A 
ATOM     39  C   UNL A   1      38.522  29.137  27.706  1.00  0.00     0.010 A 
ATOM     40  C   UNL A   1      38.947  28.401  28.816  1.00  0.00    -0.014 A 
BRANCH  40  41
ATOM     41  C   UNL A   1      40.306  27.872  28.756  1.00  0.00     0.031 A 
ATOM     42  C   UNL A   1      40.556  26.458  28.406  1.00  0.00     0.074 A 
ATOM     43  C   UNL A   1      41.347  28.711  28.953  1.00  0.00     0.049 A 
ATOM     44  N   UNL A   1      41.649  25.825  28.673  1.00  0.00    -0.248 NA
ATOM     45  C   UNL A   1      39.557  25.627  27.744  1.00  0.00     0.031 C 
ATOM     46  C   UNL A   1      42.761  28.453  28.696  1.00  0.00     0.029 A 
ATOM     47  N   UNL A   1      41.338  29.924  29.661  1.00  0.00    -0.354 N 
ATOM     48  C   UNL A   1      41.601  24.605  28.040  1.00  0.00     0.074 A 
ATOM     49  C   UNL A   1      40.263  24.519  27.499  1.00  0.00     0.031 C 
ATOM     50  C   UNL A   1      43.492  29.257  29.484  1.00  0.00     0.029 A 
ATOM     51  C   UNL A   1      42.569  29.950  30.363  1.00  0.00     0.049 A 
ATOM     52  H   UNL A   1      40.630  30.609  29.668  1.00  0.00     0.167 HD
ATOM     53  C   UNL A   1      42.731  23.844  27.964  1.00  0.00     0.037 A 
ATOM     54  C   UNL A   1      42.595  29.913  31.727  1.00  0.00     0.037 A 
ATOM     55  C   UNL A   1      43.837  24.443  28.704  1.00  0.00     0.049 A 
ATOM     56  C   UNL A   1      43.328  28.726  32.316  1.00  0.00     0.074 A 
ATOM     57  C   UNL A   1      44.914  25.243  28.356  1.00  0.00     0.029 A 
ATOM     58  N   UNL A   1      43.763  24.480  30.083  1.00  0.00    -0.354 N 
ATOM     59  N   UNL A   1      43.779  27.721  31.619  1.00  0.00    -0.248 NA
ATOM     60  C   UNL A   1      43.509  28.534  33.757  1.00  0.00     0.031 C 
ATOM     61  C   UNL A   1      45.465  25.789  29.549  1.00  0.00     0.029 A 
ATOM     62  C   UNL A   1      44.724  25.316  30.617  1.00  0.00     0.049 A 
ATOM     63  H   UNL A   1      43.106  23.976  30.617  1.00  0.00     0.167 HD
ATOM     64  C   UNL A   1      44.251  26.762  32.472  1.00  0.00     0.074 A 
ATOM     65  C   UNL A   1      44.063  27.311  33.800  1.00  0.00     0.031 C 
ATOM     66  C   UNL A   1      44.729  25.562  32.044  1.00  0.00     0.037 A 
BRANCH  53  67
ATOM     67  C   UNL A   1      42.893  22.657  27.046  1.00  0.00     0.064 A 
ATOM     68  C   UNL A   1      42.168  21.467  27.273  1.00  0.00     0.173 A 
ATOM     69  C   UNL A   1      43.773  22.615  25.951  1.00  0.00     0.173 A 
ATOM     70  F   UNL A   1      41.223  21.392  28.219  1.00  0.00    -0.203 F 
ATOM     71  C   UNL A   1      42.396  20.300  26.539  1.00  0.00     0.198 A 
ATOM     72  C   UNL A   1      44.047  21.431  25.257  1.00  0.00     0.198 A 
ATOM     73  F   UNL A   1      44.356  23.727  25.485  1.00  0.00    -0.203 F 
ATOM     74  F   UNL A   1      41.678  19.199  26.802  1.00  0.00    -0.200 F 
ATOM     75  C   UNL A   1      43.366  20.270  25.559  1.00  0.00     0.200 A 
ATOM     76  F   UNL A   1      44.979  21.427  24.292  1.00  0.00    -0.200 F 
ATOM     77  F   UNL A   1      43.624  19.137  24.894  1.00  0.00    -0.200 F 
ENDBRANCH  53  67
BRANCH  54  78
ATOM     78  C   UNL A   1      41.411  30.564  32.349  1.00  0.00     0.064 A 
ATOM     79  C   UNL A   1      41.329  31.971  32.335  1.00  0.00     0.173 A 
ATOM     80  C   UNL A   1      40.238  29.851  32.619  1.00  0.00     0.173 A 
ATOM     81  F   UNL A   1      42.426  32.705  32.081  1.00  0.00    -0.203 F 
ATOM     82  C   UNL A   1      40.107  32.626  32.457  1.00  0.00     0.198 A 
ATOM     83  C   UNL A   1      39.018  30.513  32.766  1.00  0.00     0.198 A 
ATOM     84  F   UNL A   1      40.243  28.510  32.629  1.00  0.00    -0.203 F 
ATOM     85  F   UNL A   1      40.044  33.957  32.313  1.00  0.00    -0.200 F 
ATOM     86  C   UNL A   1      38.948  31.893  32.648  1.00  0.00     0.200 A 
ATOM     87  F   UNL A   1      37.894  29.801  32.928  1.00  0.00    -0.200 F 
ATOM     88  F   UNL A   1      37.760  32.511  32.676  1.00  0.00    -0.200 F 
ENDBRANCH  54  78
BRANCH  66  89
ATOM     89  C   UNL A   1      45.252  24.523  32.979  1.00  0.00     0.064 A 
ATOM     90  C   UNL A   1      44.490  23.401  33.334  1.00  0.00     0.173 A 
ATOM     91  C   UNL A   1      46.484  24.692  33.636  1.00  0.00     0.173 A 
ATOM     92  F   UNL A   1      43.290  23.186  32.775  1.00  0.00    -0.203 F 
ATOM     93  C   UNL A   1      44.947  22.486  34.282  1.00  0.00     0.198 A 
ATOM     94  C   UNL A   1      46.919  23.800  34.613  1.00  0.00     0.198 A 
ATOM     95  F   UNL A   1      47.298  25.714  33.330  1.00  0.00    -0.203 F 
ATOM     96  F   UNL A   1      44.212  21.404  34.570  1.00  0.00    -0.200 F 
ATOM     97  C   UNL A   1      46.154  22.693  34.931  1.00  0.00     0.200 A 
ATOM     98  F   UNL A   1      48.083  24.016  35.242  1.00  0.00    -0.200 F 
ATOM     99  F   UNL A   1      46.581  21.823  35.857  1.00  0.00    -0.200 F 
ENDBRANCH  66  89
ENDBRANCH  40  41
ENDBRANCH  32  35
ENDBRANCH  30  31
ENDBRANCH  29  30
ENDBRANCH  28  29
ENDBRANCH   1  28
TORSDOF 16
ENDMDL
MODEL 2
REMARK VINA RESULT:     -13.2      1.087      1.528
REMARK SMILES Cc1ccc(S(=O)(=O)N(C)c2cccc(C)c2C)cc1C(=O)NCCCCCCNC(=O)c1ccc(-c2c3nc(c(-c4c(F)c(F)c(F)c(F)c4F)c4ccc([nH]4)c(-c4c(F)c(F)c(F)c(F)c4F)c4nc(c(-c5c(F)c(F)c(F)c(F)c5F)c5ccc2[nH]5)C=C4)C=C3)cc1
REMARK SMILES IDX 26 1 25 2 24 3 23 4 21 5 22 6 20 8 1 9 2 10 3 11 4 12 19 13
REMARK SMILES IDX 5 14 6 15 7 16 8 17 9 18 10 19 11 20 12 21 17 22 13 23 15 24
REMARK SMILES IDX 18 25 14 26 16 27 27 28 28 29 29 30 30 31 31 32 32 34 33 35
REMARK SMILES IDX 34 36 95 37 35 38 94 39 36 40 37 41 38 42 88 43 39 44 93 45
REMARK SMILES IDX 87 46 89 47 40 48 92 49 86 50 85 51 41 53 73 54 53 55 72 56
REMARK SMILES IDX 54 57 57 58 71 59 90 60 55 61 56 62 70 64 91 65 58 66 42 67
REMARK SMILES IDX 43 68 51 69 44 70 45 71 49 72 52 73 46 74 47 75 50 76 48 77
REMARK SMILES IDX 74 78 75 79 83 80 76 81 77 82 81 83 84 84 78 85 79 86 82 87
REMARK SMILES IDX 80 88 59 89 60 90 68 91 61 92 62 93 66 94 69 95 63 96 64 97
REMARK SMILES IDX 67 98 65 99
REMARK H PARENT 23 7 30 33 89 52 57 63
REMARK Flexibility Score: inf
ROOT
ATOM      1  C   UNL A   1      33.491  28.705  24.978  1.00  0.00     0.002 C 
ENDROOT
BRANCH   1   2
ATOM      2  C   UNL A   1      31.977  28.592  24.748  1.00  0.00     0.021 C 
BRANCH   2   3
ATOM      3  C   UNL A   1      31.482  29.128  23.396  1.00  0.00     0.116 C 
BRANCH   3   4
ATOM      4  N   UNL A   1      31.522  28.066  22.415  1.00  0.00    -0.352 N 
ATOM      5  C   UNL A   1      31.654  26.705  22.473  1.00  0.00     0.251 C 
ATOM      6  O   UNL A   1      31.791  26.140  21.383  1.00  0.00    -0.269 OA
ATOM      7  H   UNL A   1      31.433  28.398  21.493  1.00  0.00     0.163 HD
BRANCH   5   8
ATOM      8  C   UNL A   1      31.511  25.844  23.692  1.00  0.00     0.044 A 
ATOM      9  C   UNL A   1      29.059  26.318  24.382  1.00  0.00     0.045 C 
ATOM     10  C   UNL A   1      30.379  25.617  24.502  1.00  0.00    -0.038 A 
ATOM     11  C   UNL A   1      30.479  24.712  25.581  1.00  0.00     0.005 A 
ATOM     12  C   UNL A   1      31.691  24.119  25.924  1.00  0.00     0.022 A 
ATOM     13  C   UNL A   1      32.746  25.271  24.095  1.00  0.00     0.036 A 
ATOM     14  C   UNL A   1      32.838  24.419  25.193  1.00  0.00     0.088 A 
BRANCH  14  15
ATOM     15  S   UNL A   1      34.351  23.660  25.751  1.00  0.00     0.264 S 
ATOM     16  O   UNL A   1      35.313  24.743  25.830  1.00  0.00    -0.201 OA
ATOM     17  O   UNL A   1      33.982  22.907  26.935  1.00  0.00    -0.201 OA
BRANCH  15  18
ATOM     18  N   UNL A   1      34.900  22.544  24.558  1.00  0.00    -0.269 N 
ATOM     19  C   UNL A   1      35.057  23.087  23.180  1.00  0.00     0.164 C 
BRANCH  18  20
ATOM     20  C   UNL A   1      34.173  21.268  24.553  1.00  0.00     0.055 A 
ATOM     21  C   UNL A   1      32.820  21.229  24.179  1.00  0.00     0.027 A 
ATOM     22  C   UNL A   1      34.888  20.054  24.684  1.00  0.00    -0.024 A 
ATOM     23  C   UNL A   1      32.158  20.020  23.993  1.00  0.00     0.002 A 
ATOM     24  C   UNL A   1      34.219  18.824  24.446  1.00  0.00    -0.046 A 
ATOM     25  C   UNL A   1      36.359  20.073  25.019  1.00  0.00     0.047 C 
ATOM     26  C   UNL A   1      32.853  18.826  24.124  1.00  0.00     0.004 A 
ATOM     27  C   UNL A   1      34.926  17.496  24.517  1.00  0.00     0.044 C 
ENDBRANCH  18  20
ENDBRANCH  15  18
ENDBRANCH  14  15
ENDBRANCH   5   8
ENDBRANCH   3   4
ENDBRANCH   2   3
ENDBRANCH   1   2
BRANCH   1  28
ATOM     28  C   UNL A   1      34.008  28.261  26.354  1.00  0.00     0.002 C 
BRANCH  28  29
ATOM     29  C   UNL A   1      33.802  29.253  27.502  1.00  0.00     0.021 C 
BRANCH  29  30
ATOM     30  C   UNL A   1      34.398  30.634  27.246  1.00  0.00     0.116 C 
BRANCH  30  31
ATOM     31  N   UNL A   1      34.803  31.337  28.458  1.00  0.00    -0.352 N 
ATOM     32  C   UNL A   1      35.779  31.008  29.377  1.00  0.00     0.251 C 
ATOM     33  H   UNL A   1      34.308  32.166  28.649  1.00  0.00     0.163 HD
ATOM     34  O   UNL A   1      35.945  31.703  30.378  1.00  0.00    -0.269 OA
BRANCH  32  35
ATOM     35  C   UNL A   1      36.705  29.887  29.097  1.00  0.00     0.039 A 
ATOM     36  C   UNL A   1      37.022  29.013  30.146  1.00  0.00     0.014 A 
ATOM     37  C   UNL A   1      37.374  29.787  27.880  1.00  0.00     0.014 A 
ATOM     38  C   UNL A   1      38.154  28.205  30.047  1.00  0.00     0.010 A 
ATOM     39  C   UNL A   1      38.543  29.054  27.812  1.00  0.00     0.010 A 
ATOM     40  C   UNL A   1      38.968  28.314  28.919  1.00  0.00    -0.014 A 
BRANCH  40  41
ATOM     41  C   UNL A   1      40.325  27.780  28.855  1.00  0.00     0.031 A 
ATOM     42  C   UNL A   1      40.569  26.370  28.489  1.00  0.00     0.074 A 
ATOM     43  C   UNL A   1      41.369  28.613  29.062  1.00  0.00     0.049 A 
ATOM     44  N   UNL A   1      41.659  25.729  28.750  1.00  0.00    -0.248 NA
ATOM     45  C   UNL A   1      39.568  25.550  27.817  1.00  0.00     0.031 C 
ATOM     46  C   UNL A   1      42.782  28.352  28.802  1.00  0.00     0.029 A 
ATOM     47  N   UNL A   1      41.365  29.819  29.783  1.00  0.00    -0.354 N 
ATOM     48  C   UNL A   1      41.607  24.516  28.104  1.00  0.00     0.074 A 
ATOM     49  C   UNL A   1      40.269  24.441  27.561  1.00  0.00     0.031 C 
ATOM     50  C   UNL A   1      43.516  29.144  29.600  1.00  0.00     0.029 A 
ATOM     51  C   UNL A   1      42.595  29.832  30.485  1.00  0.00     0.049 A 
ATOM     52  H   UNL A   1      40.659  30.506  29.797  1.00  0.00     0.167 HD
ATOM     53  C   UNL A   1      42.734  23.751  28.021  1.00  0.00     0.037 A 
ATOM     54  C   UNL A   1      42.620  29.780  31.849  1.00  0.00     0.037 A 
ATOM     55  C   UNL A   1      43.842  24.338  28.767  1.00  0.00     0.049 A 
ATOM     56  C   UNL A   1      43.348  28.584  32.426  1.00  0.00     0.074 A 
ATOM     57  C   UNL A   1      44.922  25.137  28.429  1.00  0.00     0.029 A 
ATOM     58  N   UNL A   1      43.767  24.360  30.147  1.00  0.00    -0.354 N 
ATOM     59  N   UNL A   1      43.795  27.584  31.718  1.00  0.00    -0.248 NA
ATOM     60  C   UNL A   1      43.527  28.375  33.864  1.00  0.00     0.031 C 
ATOM     61  C   UNL A   1      45.475  25.668  29.628  1.00  0.00     0.029 A 
ATOM     62  C   UNL A   1      44.731  25.186  30.690  1.00  0.00     0.049 A 
ATOM     63  H   UNL A   1      43.108  23.853  30.675  1.00  0.00     0.167 HD
ATOM     64  C   UNL A   1      44.263  26.614  32.561  1.00  0.00     0.074 A 
ATOM     65  C   UNL A   1      44.076  27.150  33.894  1.00  0.00     0.031 C 
ATOM     66  C   UNL A   1      44.736  25.416  32.120  1.00  0.00     0.037 A 
BRANCH  53  67
ATOM     67  C   UNL A   1      42.891  22.574  27.090  1.00  0.00     0.064 A 
ATOM     68  C   UNL A   1      42.155  21.388  27.297  1.00  0.00     0.173 A 
ATOM     69  C   UNL A   1      43.780  22.537  26.001  1.00  0.00     0.173 A 
ATOM     70  F   UNL A   1      41.202  21.310  28.235  1.00  0.00    -0.203 F 
ATOM     71  C   UNL A   1      42.377  20.227  26.551  1.00  0.00     0.198 A 
ATOM     72  C   UNL A   1      44.048  21.358  25.295  1.00  0.00     0.198 A 
ATOM     73  F   UNL A   1      44.376  23.648  25.552  1.00  0.00    -0.203 F 
ATOM     74  F   UNL A   1      41.647  19.130  26.796  1.00  0.00    -0.200 F 
ATOM     75  C   UNL A   1      43.354  20.200  25.578  1.00  0.00     0.200 A 
ATOM     76  F   UNL A   1      44.987  21.357  24.337  1.00  0.00    -0.200 F 
ATOM     77  F   UNL A   1      43.606  19.073  24.901  1.00  0.00    -0.200 F 
ENDBRANCH  53  67
BRANCH  54  78
ATOM     78  C   UNL A   1      41.438  30.429  32.477  1.00  0.00     0.064 A 
ATOM     79  C   UNL A   1      41.338  31.834  32.436  1.00  0.00     0.173 A 
ATOM     80  C   UNL A   1      40.278  29.707  32.781  1.00  0.00     0.173 A 
ATOM     81  F   UNL A   1      42.421  32.576  32.148  1.00  0.00    -0.203 F 
ATOM     82  C   UNL A   1      40.110  32.476  32.565  1.00  0.00     0.198 A 
ATOM     83  C   UNL A   1      39.053  30.357  32.935  1.00  0.00     0.198 A 
ATOM     84  F   UNL A   1      40.301  28.366  32.819  1.00  0.00    -0.203 F 
ATOM     85  F   UNL A   1      40.028  33.803  32.395  1.00  0.00    -0.200 F 
ATOM     86  C   UNL A   1      38.964  31.733  32.790  1.00  0.00     0.200 A 
ATOM     87  F   UNL A   1      37.941  29.635  33.131  1.00  0.00    -0.200 F 
ATOM     88  F   UNL A   1      37.768  32.337  32.825  1.00  0.00    -0.200 F 
ENDBRANCH  54  78
BRANCH  66  89
ATOM     89  C   UNL A   1      45.254  24.366  33.044  1.00  0.00     0.064 A 
ATOM     90  C   UNL A   1      44.482  23.251  33.399  1.00  0.00     0.173 A 
ATOM     91  C   UNL A   1      46.494  24.515  33.692  1.00  0.00     0.173 A 
ATOM     92  F   UNL A   1      43.274  23.054  32.849  1.00  0.00    -0.203 F 
ATOM     93  C   UNL A   1      44.935  22.324  34.337  1.00  0.00     0.198 A 
ATOM     94  C   UNL A   1      46.926  23.611  34.659  1.00  0.00     0.198 A 
ATOM     95  F   UNL A   1      47.318  25.528  33.384  1.00  0.00    -0.203 F 
ATOM     96  F   UNL A   1      44.189  21.249  34.626  1.00  0.00    -0.200 F 
ATOM     97  C   UNL A   1      46.150  22.512  34.977  1.00  0.00     0.200 A 
ATOM     98  F   UNL A   1      48.098  23.809  35.279  1.00  0.00    -0.200 F 
ATOM     99  F   UNL A   1      46.574  21.632  35.894  1.00  0.00    -0.200 F 
ENDBRANCH  66  89
ENDBRANCH  40  41
ENDBRANCH  32  35
ENDBRANCH  30  31
ENDBRANCH  29  30
ENDBRANCH  28  29
ENDBRANCH   1  28
TORSDOF 16
ENDMDL
MODEL 3
REMARK VINA RESULT:     -12.8      3.444      9.532
REMARK SMILES Cc1ccc(S(=O)(=O)N(C)c2cccc(C)c2C)cc1C(=O)NCCCCCCNC(=O)c1ccc(-c2c3nc(c(-c4c(F)c(F)c(F)c(F)c4F)c4ccc([nH]4)c(-c4c(F)c(F)c(F)c(F)c4F)c4nc(c(-c5c(F)c(F)c(F)c(F)c5F)c5ccc2[nH]5)C=C4)C=C3)cc1
REMARK SMILES IDX 26 1 25 2 24 3 23 4 21 5 22 6 20 8 1 9 2 10 3 11 4 12 19 13
REMARK SMILES IDX 5 14 6 15 7 16 8 17 9 18 10 19 11 20 12 21 17 22 13 23 15 24
REMARK SMILES IDX 18 25 14 26 16 27 27 28 28 29 29 30 30 31 31 32 32 34 33 35
REMARK SMILES IDX 34 36 95 37 35 38 94 39 36 40 37 41 38 42 88 43 39 44 93 45
REMARK SMILES IDX 87 46 89 47 40 48 92 49 86 50 85 51 41 53 73 54 53 55 72 56
REMARK SMILES IDX 54 57 57 58 71 59 90 60 55 61 56 62 70 64 91 65 58 66 42 67
REMARK SMILES IDX 43 68 51 69 44 70 45 71 49 72 52 73 46 74 47 75 50 76 48 77
REMARK SMILES IDX 74 78 75 79 83 80 76 81 77 82 81 83 84 84 78 85 79 86 82 87
REMARK SMILES IDX 80 88 59 89 60 90 68 91 61 92 62 93 66 94 69 95 63 96 64 97
REMARK SMILES IDX 67 98 65 99
REMARK H PARENT 23 7 30 33 89 52 57 63
REMARK Flexibility Score: inf
ROOT
ATOM      1  C   UNL A   1      39.304  21.659  25.876  1.00  0.00     0.002 C 
ENDROOT
BRANCH   1   2
ATOM      2  C   UNL A   1      39.151  23.084  26.427  1.00  0.00     0.021 C 
BRANCH   2   3
ATOM      3  C   UNL A   1      37.795  23.748  26.147  1.00  0.00     0.116 C 
BRANCH   3   4
ATOM      4  N   UNL A   1      37.507  23.672  24.732  1.00  0.00    -0.352 N 
ATOM      5  C   UNL A   1      36.605  22.983  23.967  1.00  0.00     0.251 C 
ATOM      6  O   UNL A   1      36.768  23.074  22.746  1.00  0.00    -0.269 OA
ATOM      7  H   UNL A   1      38.097  24.248  24.194  1.00  0.00     0.163 HD
BRANCH   5   8
ATOM      8  C   UNL A   1      35.384  22.263  24.457  1.00  0.00     0.044 A 
ATOM      9  C   UNL A   1      36.341  19.919  25.001  1.00  0.00     0.045 C 
ATOM     10  C   UNL A   1      35.258  20.954  24.963  1.00  0.00    -0.038 A 
ATOM     11  C   UNL A   1      33.995  20.513  25.415  1.00  0.00     0.005 A 
ATOM     12  C   UNL A   1      32.856  21.302  25.278  1.00  0.00     0.022 A 
ATOM     13  C   UNL A   1      34.200  23.027  24.277  1.00  0.00     0.036 A 
ATOM     14  C   UNL A   1      32.953  22.557  24.682  1.00  0.00     0.088 A 
BRANCH  14  15
ATOM     15  S   UNL A   1      31.430  23.463  24.494  1.00  0.00     0.264 S 
ATOM     16  O   UNL A   1      31.049  23.283  23.106  1.00  0.00    -0.201 OA
ATOM     17  O   UNL A   1      30.574  22.989  25.566  1.00  0.00    -0.201 OA
BRANCH  15  18
ATOM     18  N   UNL A   1      31.730  25.140  24.752  1.00  0.00    -0.269 N 
ATOM     19  C   UNL A   1      31.947  25.553  26.168  1.00  0.00     0.164 C 
BRANCH  18  20
ATOM     20  C   UNL A   1      30.780  26.030  24.073  1.00  0.00     0.055 A 
ATOM     21  C   UNL A   1      29.409  25.956  24.370  1.00  0.00     0.027 A 
ATOM     22  C   UNL A   1      31.264  27.120  23.311  1.00  0.00    -0.024 A 
ATOM     23  C   UNL A   1      28.514  26.900  23.878  1.00  0.00     0.002 A 
ATOM     24  C   UNL A   1      30.351  28.107  22.852  1.00  0.00    -0.046 A 
ATOM     25  C   UNL A   1      32.741  27.256  23.036  1.00  0.00     0.047 C 
ATOM     26  C   UNL A   1      28.982  27.969  23.126  1.00  0.00     0.004 A 
ATOM     27  C   UNL A   1      30.799  29.319  22.079  1.00  0.00     0.044 C 
ENDBRANCH  18  20
ENDBRANCH  15  18
ENDBRANCH  14  15
ENDBRANCH   5   8
ENDBRANCH   3   4
ENDBRANCH   2   3
ENDBRANCH   1   2
BRANCH   1  28
ATOM     28  C   UNL A   1      39.999  20.642  26.793  1.00  0.00     0.002 C 
BRANCH  28  29
ATOM     29  C   UNL A   1      40.992  19.694  26.114  1.00  0.00     0.021 C 
BRANCH  29  30
ATOM     30  C   UNL A   1      42.331  19.574  26.835  1.00  0.00     0.116 C 
BRANCH  30  31
ATOM     31  N   UNL A   1      43.456  20.123  26.087  1.00  0.00    -0.352 N 
ATOM     32  C   UNL A   1      43.789  21.442  25.849  1.00  0.00     0.251 C 
ATOM     33  H   UNL A   1      44.066  19.459  25.695  1.00  0.00     0.163 HD
ATOM     34  O   UNL A   1      44.759  21.716  25.144  1.00  0.00    -0.269 OA
BRANCH  32  35
ATOM     35  C   UNL A   1      43.050  22.524  26.539  1.00  0.00     0.039 A 
ATOM     36  C   UNL A   1      42.785  23.702  25.829  1.00  0.00     0.014 A 
ATOM     37  C   UNL A   1      42.765  22.450  27.901  1.00  0.00     0.014 A 
ATOM     38  C   UNL A   1      42.455  24.864  26.526  1.00  0.00     0.010 A 
ATOM     39  C   UNL A   1      42.524  23.616  28.601  1.00  0.00     0.010 A 
ATOM     40  C   UNL A   1      42.434  24.834  27.921  1.00  0.00    -0.014 A 
BRANCH  40  41
ATOM     41  C   UNL A   1      42.432  26.036  28.748  1.00  0.00     0.031 A 
ATOM     42  C   UNL A   1      41.264  26.941  28.771  1.00  0.00     0.074 A 
ATOM     43  C   UNL A   1      43.487  26.278  29.558  1.00  0.00     0.049 A 
ATOM     44  N   UNL A   1      41.303  28.169  29.167  1.00  0.00    -0.248 NA
ATOM     45  C   UNL A   1      39.945  26.529  28.306  1.00  0.00     0.031 C 
ATOM     46  C   UNL A   1      43.580  27.264  30.631  1.00  0.00     0.029 A 
ATOM     47  N   UNL A   1      44.801  25.806  29.405  1.00  0.00    -0.354 N 
ATOM     48  C   UNL A   1      40.013  28.640  29.228  1.00  0.00     0.074 A 
ATOM     49  C   UNL A   1      39.205  27.587  28.653  1.00  0.00     0.031 C 
ATOM     50  C   UNL A   1      44.873  27.569  30.820  1.00  0.00     0.029 A 
ATOM     51  C   UNL A   1      45.629  26.892  29.782  1.00  0.00     0.049 A 
ATOM     52  H   UNL A   1      45.085  24.913  29.101  1.00  0.00     0.167 HD
ATOM     53  C   UNL A   1      39.761  29.830  29.847  1.00  0.00     0.037 A 
ATOM     54  C   UNL A   1      46.441  27.500  28.870  1.00  0.00     0.037 A 
ATOM     55  C   UNL A   1      40.991  30.490  30.270  1.00  0.00     0.049 A 
ATOM     56  C   UNL A   1      46.161  28.972  28.651  1.00  0.00     0.074 A 
ATOM     57  C   UNL A   1      41.696  30.553  31.461  1.00  0.00     0.029 A 
ATOM     58  N   UNL A   1      41.836  30.991  29.298  1.00  0.00    -0.354 N 
ATOM     59  N   UNL A   1      45.143  29.609  29.157  1.00  0.00    -0.248 NA
ATOM     60  C   UNL A   1      46.955  29.810  27.751  1.00  0.00     0.031 C 
ATOM     61  C   UNL A   1      42.993  31.070  31.182  1.00  0.00     0.029 A 
ATOM     62  C   UNL A   1      43.069  31.323  29.825  1.00  0.00     0.049 A 
ATOM     63  H   UNL A   1      41.591  31.097  28.350  1.00  0.00     0.167 HD
ATOM     64  C   UNL A   1      45.109  30.876  28.643  1.00  0.00     0.074 A 
ATOM     65  C   UNL A   1      46.261  30.960  27.768  1.00  0.00     0.031 C 
ATOM     66  C   UNL A   1      44.120  31.765  28.932  1.00  0.00     0.037 A 
BRANCH  53  67
ATOM     67  C   UNL A   1      38.385  30.298  30.254  1.00  0.00     0.064 A 
ATOM     68  C   UNL A   1      37.462  30.748  29.285  1.00  0.00     0.173 A 
ATOM     69  C   UNL A   1      37.931  30.366  31.582  1.00  0.00     0.173 A 
ATOM     70  F   UNL A   1      37.719  30.652  27.974  1.00  0.00    -0.203 F 
ATOM     71  C   UNL A   1      36.237  31.326  29.629  1.00  0.00     0.198 A 
ATOM     72  C   UNL A   1      36.733  31.001  31.931  1.00  0.00     0.198 A 
ATOM     73  F   UNL A   1      38.603  29.775  32.578  1.00  0.00    -0.203 F 
ATOM     74  F   UNL A   1      35.403  31.738  28.665  1.00  0.00    -0.200 F 
ATOM     75  C   UNL A   1      35.892  31.492  30.954  1.00  0.00     0.200 A 
ATOM     76  F   UNL A   1      36.404  31.133  33.225  1.00  0.00    -0.200 F 
ATOM     77  F   UNL A   1      34.744  32.096  31.286  1.00  0.00    -0.200 F 
ENDBRANCH  53  67
BRANCH  54  78
ATOM     78  C   UNL A   1      46.929  26.570  27.816  1.00  0.00     0.064 A 
ATOM     79  C   UNL A   1      46.238  26.518  26.589  1.00  0.00     0.173 A 
ATOM     80  C   UNL A   1      48.217  26.025  27.856  1.00  0.00     0.173 A 
ATOM     81  F   UNL A   1      44.998  27.027  26.494  1.00  0.00    -0.203 F 
ATOM     82  C   UNL A   1      46.856  26.060  25.429  1.00  0.00     0.198 A 
ATOM     83  C   UNL A   1      48.825  25.543  26.696  1.00  0.00     0.198 A 
ATOM     84  F   UNL A   1      48.935  26.059  28.988  1.00  0.00    -0.203 F 
ATOM     85  F   UNL A   1      46.218  26.141  24.253  1.00  0.00    -0.200 F 
ATOM     86  C   UNL A   1      48.160  25.596  25.481  1.00  0.00     0.200 A 
ATOM     87  F   UNL A   1      50.094  25.115  26.742  1.00  0.00    -0.200 F 
ATOM     88  F   UNL A   1      48.790  25.239  24.353  1.00  0.00    -0.200 F 
ENDBRANCH  54  78
BRANCH  66  89
ATOM     89  C   UNL A   1      44.094  33.150  28.376  1.00  0.00     0.064 A 
ATOM     90  C   UNL A   1      44.197  34.277  29.204  1.00  0.00     0.173 A 
ATOM     91  C   UNL A   1      43.842  33.381  27.012  1.00  0.00     0.173 A 
ATOM     92  F   UNL A   1      44.406  34.139  30.522  1.00  0.00    -0.203 F 
ATOM     93  C   UNL A   1      44.076  35.567  28.689  1.00  0.00     0.198 A 
ATOM     94  C   UNL A   1      43.680  34.669  26.507  1.00  0.00     0.198 A 
ATOM     95  F   UNL A   1      43.770  32.364  26.139  1.00  0.00    -0.203 F 
ATOM     96  F   UNL A   1      44.218  36.624  29.500  1.00  0.00    -0.200 F 
ATOM     97  C   UNL A   1      43.803  35.762  27.345  1.00  0.00     0.200 A 
ATOM     98  F   UNL A   1      43.404  34.845  25.207  1.00  0.00    -0.200 F 
ATOM     99  F   UNL A   1      43.665  37.002  26.856  1.00  0.00    -0.200 F 
ENDBRANCH  66  89
ENDBRANCH  40  41
ENDBRANCH  32  35
ENDBRANCH  30  31
ENDBRANCH  29  30
ENDBRANCH  28  29
ENDBRANCH   1  28
TORSDOF 16
ENDMDL
