MODEL 1
REMARK VINA RESULT:     -11.5      0.000      0.000
REMARK SMILES COc1ccc(CCNC(=O)[C@@]2(C)CC[C@@H](C(=O)NCCCCCCNC(=O)c3ccc(-c4c5nc(c(-c6c(F)c(F)c(F)c(F)c6F)c6ccc([nH]6)c(-c6c(F)c(F)c(F)c(F)c6F)c6nc(c(-c7c(F)c(F)c(F)c(F)c7F)c7ccc4[nH]7)C=C6)C=C5)cc3)C2(C)C)cc1OC
REMARK SMILES IDX 21 1 20 2 19 3 17 4 18 5 16 7 12 8 13 9 14 10 92 11 15 12
REMARK SMILES IDX 93 13 94 14 10 15 9 16 11 18 8 19 7 20 6 21 3 22 4 23 96 24
REMARK SMILES IDX 5 25 95 26 2 27 1 28 97 29 98 30 22 31 23 32 24 33 25 34
REMARK SMILES IDX 26 35 27 36 28 38 29 39 30 40 91 41 31 42 90 43 32 44 33 45
REMARK SMILES IDX 34 46 84 47 35 48 89 49 83 50 85 51 36 52 88 53 82 54 81 55
REMARK SMILES IDX 37 57 69 58 49 59 68 60 50 61 53 62 67 63 86 64 51 65 52 66
REMARK SMILES IDX 66 68 87 69 54 70 38 71 39 72 47 73 40 74 41 75 45 76 48 77
REMARK SMILES IDX 42 78 43 79 46 80 44 81 70 82 71 83 79 84 72 85 73 86 77 87
REMARK SMILES IDX 80 88 74 89 75 90 78 91 76 92 55 93 56 94 64 95 57 96 58 97
REMARK SMILES IDX 62 98 65 99 59 100 60 101 63 102 61 103
REMARK H PARENT 19 6 9 17 26 37 85 56 53 67
REMARK Flexibility Score: inf
ROOT
ATOM      1  C   UNL A   1      35.438  31.441  27.960  1.00  0.00     0.021 C 
ENDROOT
BRANCH   1   2
ATOM      2  C   UNL A   1      35.037  30.002  27.647  1.00  0.00     0.116 C 
BRANCH   2   3
ATOM      3  N   UNL A   1      33.616  29.780  27.771  1.00  0.00    -0.356 N 
ATOM      4  C   UNL A   1      32.731  29.187  26.931  1.00  0.00     0.223 C 
ATOM      5  O   UNL A   1      31.543  29.224  27.270  1.00  0.00    -0.275 OA
ATOM      6  H   UNL A   1      33.223  30.116  28.609  1.00  0.00     0.163 HD
BRANCH   4   7
ATOM      7  C   UNL A   1      33.119  28.478  25.618  1.00  0.00     0.085 C 
ATOM      8  C   UNL A   1      31.884  26.991  23.980  1.00  0.00     0.052 C 
ATOM      9  C   UNL A   1      32.654  26.464  22.742  1.00  0.00     0.022 C 
ATOM     10  C   UNL A   1      31.684  28.512  23.646  1.00  0.00     0.018 C 
ATOM     11  C   UNL A   1      32.699  26.991  25.360  1.00  0.00    -0.010 C 
ATOM     12  C   UNL A   1      32.786  29.270  24.362  1.00  0.00     0.015 C 
ATOM     13  C   UNL A   1      31.951  26.409  26.574  1.00  0.00     0.013 C 
ATOM     14  C   UNL A   1      33.993  26.137  25.275  1.00  0.00     0.013 C 
BRANCH   8  15
ATOM     15  C   UNL A   1      30.482  26.313  24.075  1.00  0.00     0.226 C 
ATOM     16  N   UNL A   1      30.277  24.976  23.938  1.00  0.00    -0.355 N 
ATOM     17  H   UNL A   1      29.343  24.707  24.090  1.00  0.00     0.163 HD
ATOM     18  O   UNL A   1      29.466  26.970  24.334  1.00  0.00    -0.274 OA
BRANCH  16  19
ATOM     19  C   UNL A   1      31.151  23.860  23.611  1.00  0.00     0.120 C 
BRANCH  19  20
ATOM     20  C   UNL A   1      31.249  22.794  24.710  1.00  0.00     0.057 C 
BRANCH  20  21
ATOM     21  C   UNL A   1      32.582  22.100  24.771  1.00  0.00    -0.042 A 
ATOM     22  C   UNL A   1      35.025  20.735  24.926  1.00  0.00     0.160 A 
ATOM     23  C   UNL A   1      34.995  22.137  24.932  1.00  0.00     0.051 A 
ATOM     24  C   UNL A   1      33.834  20.008  24.834  1.00  0.00     0.160 A 
ATOM     25  C   UNL A   1      33.779  22.817  24.840  1.00  0.00     0.008 A 
ATOM     26  C   UNL A   1      32.623  20.701  24.765  1.00  0.00     0.054 A 
BRANCH  22  27
ATOM     27  O   UNL A   1      36.216  20.098  25.145  1.00  0.00    -0.493 OA
ATOM     28  C   UNL A   1      37.337  20.884  24.745  1.00  0.00     0.278 C 
ENDBRANCH  22  27
BRANCH  24  29
ATOM     29  O   UNL A   1      33.674  18.650  24.844  1.00  0.00    -0.493 OA
ATOM     30  C   UNL A   1      32.500  18.139  24.230  1.00  0.00     0.278 C 
ENDBRANCH  24  29
ENDBRANCH  20  21
ENDBRANCH  19  20
ENDBRANCH  16  19
ENDBRANCH   8  15
ENDBRANCH   4   7
ENDBRANCH   2   3
ENDBRANCH   1   2
BRANCH   1  31
ATOM     31  C   UNL A   1      34.427  32.220  28.793  1.00  0.00     0.002 C 
BRANCH  31  32
ATOM     32  C   UNL A   1      34.538  33.742  28.688  1.00  0.00     0.002 C 
BRANCH  32  33
ATOM     33  C   UNL A   1      33.229  34.512  28.885  1.00  0.00     0.021 C 
BRANCH  33  34
ATOM     34  C   UNL A   1      33.381  35.912  29.468  1.00  0.00     0.116 C 
BRANCH  34  35
ATOM     35  N   UNL A   1      32.496  36.138  30.599  1.00  0.00    -0.352 N 
ATOM     36  C   UNL A   1      32.589  35.665  31.880  1.00  0.00     0.251 C 
ATOM     37  H   UNL A   1      31.719  36.714  30.418  1.00  0.00     0.163 HD
ATOM     38  O   UNL A   1      31.652  35.806  32.666  1.00  0.00    -0.269 OA
BRANCH  36  39
ATOM     39  C   UNL A   1      33.812  34.964  32.315  1.00  0.00     0.039 A 
ATOM     40  C   UNL A   1      33.705  33.657  32.794  1.00  0.00     0.014 A 
ATOM     41  C   UNL A   1      35.058  35.595  32.254  1.00  0.00     0.014 A 
ATOM     42  C   UNL A   1      34.858  32.964  33.166  1.00  0.00     0.010 A 
ATOM     43  C   UNL A   1      36.212  34.879  32.555  1.00  0.00     0.010 A 
ATOM     44  C   UNL A   1      36.123  33.558  33.021  1.00  0.00    -0.014 A 
BRANCH  44  45
ATOM     45  C   UNL A   1      37.360  32.815  33.367  1.00  0.00     0.031 A 
ATOM     46  C   UNL A   1      38.092  33.121  34.643  1.00  0.00     0.074 A 
ATOM     47  C   UNL A   1      37.847  31.898  32.508  1.00  0.00     0.049 A 
ATOM     48  N   UNL A   1      39.215  32.620  35.095  1.00  0.00    -0.248 NA
ATOM     49  C   UNL A   1      37.499  34.147  35.517  1.00  0.00     0.031 C 
ATOM     50  C   UNL A   1      37.250  31.545  31.220  1.00  0.00     0.029 A 
ATOM     51  N   UNL A   1      38.963  31.103  32.586  1.00  0.00    -0.354 N 
ATOM     52  C   UNL A   1      39.462  33.273  36.295  1.00  0.00     0.074 A 
ATOM     53  C   UNL A   1      38.408  34.248  36.475  1.00  0.00     0.031 C 
ATOM     54  C   UNL A   1      37.991  30.589  30.638  1.00  0.00     0.029 A 
ATOM     55  C   UNL A   1      39.138  30.291  31.492  1.00  0.00     0.049 A 
ATOM     56  H   UNL A   1      39.581  31.113  33.352  1.00  0.00     0.167 HD
ATOM     57  C   UNL A   1      40.466  33.061  37.180  1.00  0.00     0.037 A 
ATOM     58  C   UNL A   1      40.118  29.413  31.205  1.00  0.00     0.037 A 
ATOM     59  C   UNL A   1      41.501  32.076  37.006  1.00  0.00     0.049 A 
ATOM     60  C   UNL A   1      41.233  29.212  32.199  1.00  0.00     0.074 A 
ATOM     61  C   UNL A   1      42.531  31.746  37.869  1.00  0.00     0.029 A 
ATOM     62  N   UNL A   1      41.640  31.265  35.889  1.00  0.00    -0.354 N 
ATOM     63  N   UNL A   1      41.418  29.783  33.364  1.00  0.00    -0.248 NA
ATOM     64  C   UNL A   1      42.273  28.238  31.837  1.00  0.00     0.031 C 
ATOM     65  C   UNL A   1      43.324  30.775  37.252  1.00  0.00     0.029 A 
ATOM     66  C   UNL A   1      42.754  30.454  36.030  1.00  0.00     0.049 A 
ATOM     67  H   UNL A   1      41.036  31.266  35.111  1.00  0.00     0.167 HD
ATOM     68  C   UNL A   1      42.573  29.218  33.888  1.00  0.00     0.074 A 
ATOM     69  C   UNL A   1      43.037  28.246  32.920  1.00  0.00     0.031 C 
ATOM     70  C   UNL A   1      43.196  29.483  35.061  1.00  0.00     0.037 A 
BRANCH  57  71
ATOM     71  C   UNL A   1      40.491  33.906  38.421  1.00  0.00     0.064 A 
ATOM     72  C   UNL A   1      39.794  33.532  39.581  1.00  0.00     0.173 A 
ATOM     73  C   UNL A   1      41.260  35.078  38.469  1.00  0.00     0.173 A 
ATOM     74  F   UNL A   1      39.034  32.427  39.585  1.00  0.00    -0.203 F 
ATOM     75  C   UNL A   1      39.843  34.315  40.731  1.00  0.00     0.198 A 
ATOM     76  C   UNL A   1      41.333  35.841  39.632  1.00  0.00     0.198 A 
ATOM     77  F   UNL A   1      41.951  35.479  37.392  1.00  0.00    -0.203 F 
ATOM     78  F   UNL A   1      39.130  33.963  41.810  1.00  0.00    -0.200 F 
ATOM     79  C   UNL A   1      40.619  35.464  40.759  1.00  0.00     0.200 A 
ATOM     80  F   UNL A   1      42.096  36.944  39.662  1.00  0.00    -0.200 F 
ATOM     81  F   UNL A   1      40.675  36.210  41.871  1.00  0.00    -0.200 F 
ENDBRANCH  57  71
BRANCH  58  82
ATOM     82  C   UNL A   1      40.087  28.647  29.932  1.00  0.00     0.064 A 
ATOM     83  C   UNL A   1      39.442  27.404  29.853  1.00  0.00     0.173 A 
ATOM     84  C   UNL A   1      40.719  29.127  28.775  1.00  0.00     0.173 A 
ATOM     85  F   UNL A   1      38.842  26.891  30.936  1.00  0.00    -0.203 F 
ATOM     86  C   UNL A   1      39.456  26.659  28.675  1.00  0.00     0.198 A 
ATOM     87  C   UNL A   1      40.704  28.396  27.589  1.00  0.00     0.198 A 
ATOM     88  F   UNL A   1      41.346  30.312  28.795  1.00  0.00    -0.203 F 
ATOM     89  F   UNL A   1      38.881  25.449  28.644  1.00  0.00    -0.200 F 
ATOM     90  C   UNL A   1      40.082  27.158  27.543  1.00  0.00     0.200 A 
ATOM     91  F   UNL A   1      41.296  28.889  26.493  1.00  0.00    -0.200 F 
ATOM     92  F   UNL A   1      40.095  26.440  26.411  1.00  0.00    -0.200 F 
ENDBRANCH  58  82
BRANCH  70  93
ATOM     93  C   UNL A   1      44.424  28.681  35.387  1.00  0.00     0.064 A 
ATOM     94  C   UNL A   1      45.708  29.125  35.042  1.00  0.00     0.173 A 
ATOM     95  C   UNL A   1      44.314  27.473  36.094  1.00  0.00     0.173 A 
ATOM     96  F   UNL A   1      45.866  30.266  34.353  1.00  0.00    -0.203 F 
ATOM     97  C   UNL A   1      46.836  28.375  35.366  1.00  0.00     0.198 A 
ATOM     98  C   UNL A   1      45.446  26.744  36.447  1.00  0.00     0.198 A 
ATOM     99  F   UNL A   1      43.110  27.007  36.456  1.00  0.00    -0.203 F 
ATOM    100  F   UNL A   1      48.049  28.794  34.981  1.00  0.00    -0.200 F 
ATOM    101  C   UNL A   1      46.705  27.191  36.076  1.00  0.00     0.200 A 
ATOM    102  F   UNL A   1      45.318  25.609  37.147  1.00  0.00    -0.200 F 
ATOM    103  F   UNL A   1      47.793  26.477  36.396  1.00  0.00    -0.200 F 
ENDBRANCH  70  93
ENDBRANCH  44  45
ENDBRANCH  36  39
ENDBRANCH  34  35
ENDBRANCH  33  34
ENDBRANCH  32  33
ENDBRANCH  31  32
ENDBRANCH   1  31
TORSDOF 19
ENDMDL
MODEL 2
REMARK VINA RESULT:     -11.5      6.168     11.973
REMARK SMILES COc1ccc(CCNC(=O)[C@@]2(C)CC[C@@H](C(=O)NCCCCCCNC(=O)c3ccc(-c4c5nc(c(-c6c(F)c(F)c(F)c(F)c6F)c6ccc([nH]6)c(-c6c(F)c(F)c(F)c(F)c6F)c6nc(c(-c7c(F)c(F)c(F)c(F)c7F)c7ccc4[nH]7)C=C6)C=C5)cc3)C2(C)C)cc1OC
REMARK SMILES IDX 21 1 20 2 19 3 17 4 18 5 16 7 12 8 13 9 14 10 92 11 15 12
REMARK SMILES IDX 93 13 94 14 10 15 9 16 11 18 8 19 7 20 6 21 3 22 4 23 96 24
REMARK SMILES IDX 5 25 95 26 2 27 1 28 97 29 98 30 22 31 23 32 24 33 25 34
REMARK SMILES IDX 26 35 27 36 28 38 29 39 30 40 91 41 31 42 90 43 32 44 33 45
REMARK SMILES IDX 34 46 84 47 35 48 89 49 83 50 85 51 36 52 88 53 82 54 81 55
REMARK SMILES IDX 37 57 69 58 49 59 68 60 50 61 53 62 67 63 86 64 51 65 52 66
REMARK SMILES IDX 66 68 87 69 54 70 38 71 39 72 47 73 40 74 41 75 45 76 48 77
REMARK SMILES IDX 42 78 43 79 46 80 44 81 70 82 71 83 79 84 72 85 73 86 77 87
REMARK SMILES IDX 80 88 74 89 75 90 78 91 76 92 55 93 56 94 64 95 57 96 58 97
REMARK SMILES IDX 62 98 65 99 59 100 60 101 63 102 61 103
REMARK H PARENT 19 6 9 17 26 37 85 56 53 67
REMARK Flexibility Score: inf
ROOT
ATOM      1  C   UNL A   1      39.158  21.665  26.132  1.00  0.00     0.021 C 
ENDROOT
BRANCH   1   2
ATOM      2  C   UNL A   1      38.289  22.907  25.955  1.00  0.00     0.116 C 
BRANCH   2   3
ATOM      3  N   UNL A   1      37.777  23.043  24.612  1.00  0.00    -0.356 N 
ATOM      4  C   UNL A   1      36.533  22.843  24.110  1.00  0.00     0.223 C 
ATOM      5  O   UNL A   1      36.412  22.951  22.884  1.00  0.00    -0.275 OA
ATOM      6  H   UNL A   1      38.445  23.327  23.948  1.00  0.00     0.163 HD
BRANCH   4   7
ATOM      7  C   UNL A   1      35.292  22.513  24.964  1.00  0.00     0.085 C 
ATOM      8  C   UNL A   1      32.824  22.236  24.464  1.00  0.00     0.052 C 
ATOM      9  C   UNL A   1      31.871  21.892  25.637  1.00  0.00     0.022 C 
ATOM     10  C   UNL A   1      33.612  20.896  24.249  1.00  0.00     0.018 C 
ATOM     11  C   UNL A   1      33.962  23.319  24.784  1.00  0.00    -0.010 C 
ATOM     12  C   UNL A   1      34.930  21.035  24.987  1.00  0.00     0.015 C 
ATOM     13  C   UNL A   1      34.129  24.436  23.738  1.00  0.00     0.013 C 
ATOM     14  C   UNL A   1      33.685  24.085  26.105  1.00  0.00     0.013 C 
BRANCH   8  15
ATOM     15  C   UNL A   1      32.004  22.545  23.173  1.00  0.00     0.226 C 
ATOM     16  N   UNL A   1      30.999  23.460  23.115  1.00  0.00    -0.355 N 
ATOM     17  H   UNL A   1      30.631  23.577  22.210  1.00  0.00     0.163 HD
ATOM     18  O   UNL A   1      32.266  21.993  22.097  1.00  0.00    -0.274 OA
BRANCH  16  19
ATOM     19  C   UNL A   1      30.355  24.300  24.113  1.00  0.00     0.120 C 
BRANCH  19  20
ATOM     20  C   UNL A   1      30.337  25.794  23.762  1.00  0.00     0.057 C 
BRANCH  20  21
ATOM     21  C   UNL A   1      31.275  26.627  24.590  1.00  0.00    -0.042 A 
ATOM     22  C   UNL A   1      33.092  28.162  26.074  1.00  0.00     0.160 A 
ATOM     23  C   UNL A   1      32.025  27.514  26.712  1.00  0.00     0.051 A 
ATOM     24  C   UNL A   1      33.250  28.054  24.688  1.00  0.00     0.160 A 
ATOM     25  C   UNL A   1      31.112  26.760  25.971  1.00  0.00     0.008 A 
ATOM     26  C   UNL A   1      32.342  27.280  23.962  1.00  0.00     0.054 A 
BRANCH  22  27
ATOM     27  O   UNL A   1      34.040  28.786  26.838  1.00  0.00    -0.493 OA
ATOM     28  C   UNL A   1      33.624  30.078  27.276  1.00  0.00     0.278 C 
ENDBRANCH  22  27
BRANCH  24  29
ATOM     29  O   UNL A   1      34.239  28.591  23.909  1.00  0.00    -0.493 OA
ATOM     30  C   UNL A   1      34.026  28.577  22.506  1.00  0.00     0.278 C 
ENDBRANCH  24  29
ENDBRANCH  20  21
ENDBRANCH  19  20
ENDBRANCH  16  19
ENDBRANCH   8  15
ENDBRANCH   4   7
ENDBRANCH   2   3
ENDBRANCH   1   2
BRANCH   1  31
ATOM     31  C   UNL A   1      40.645  21.945  26.313  1.00  0.00     0.002 C 
BRANCH  31  32
ATOM     32  C   UNL A   1      41.439  20.821  26.981  1.00  0.00     0.002 C 
BRANCH  32  33
ATOM     33  C   UNL A   1      41.621  19.554  26.140  1.00  0.00     0.021 C 
BRANCH  33  34
ATOM     34  C   UNL A   1      42.877  18.747  26.446  1.00  0.00     0.116 C 
BRANCH  34  35
ATOM     35  N   UNL A   1      43.704  18.544  25.269  1.00  0.00    -0.352 N 
ATOM     36  C   UNL A   1      44.364  19.467  24.504  1.00  0.00     0.251 C 
ATOM     37  H   UNL A   1      43.803  17.608  24.979  1.00  0.00     0.163 HD
ATOM     38  O   UNL A   1      44.871  19.140  23.431  1.00  0.00    -0.269 OA
BRANCH  36  39
ATOM     39  C   UNL A   1      44.452  20.868  24.960  1.00  0.00     0.039 A 
ATOM     40  C   UNL A   1      45.164  21.154  26.126  1.00  0.00     0.014 A 
ATOM     41  C   UNL A   1      43.831  21.894  24.240  1.00  0.00     0.014 A 
ATOM     42  C   UNL A   1      45.295  22.479  26.544  1.00  0.00     0.010 A 
ATOM     43  C   UNL A   1      44.026  23.219  24.617  1.00  0.00     0.010 A 
ATOM     44  C   UNL A   1      44.753  23.524  25.778  1.00  0.00    -0.014 A 
BRANCH  44  45
ATOM     45  C   UNL A   1      44.929  24.940  26.185  1.00  0.00     0.031 A 
ATOM     46  C   UNL A   1      46.280  25.591  26.085  1.00  0.00     0.074 A 
ATOM     47  C   UNL A   1      43.883  25.622  26.688  1.00  0.00     0.049 A 
ATOM     48  N   UNL A   1      46.647  26.798  26.439  1.00  0.00    -0.248 NA
ATOM     49  C   UNL A   1      47.372  24.769  25.538  1.00  0.00     0.031 C 
ATOM     50  C   UNL A   1      42.534  25.085  26.875  1.00  0.00     0.029 A 
ATOM     51  N   UNL A   1      43.792  26.914  27.144  1.00  0.00    -0.354 N 
ATOM     52  C   UNL A   1      48.006  26.874  26.166  1.00  0.00     0.074 A 
ATOM     53  C   UNL A   1      48.414  25.576  25.672  1.00  0.00     0.031 C 
ATOM     54  C   UNL A   1      41.745  26.045  27.385  1.00  0.00     0.029 A 
ATOM     55  C   UNL A   1      42.540  27.250  27.600  1.00  0.00     0.049 A 
ATOM     56  H   UNL A   1      44.552  27.540  27.146  1.00  0.00     0.167 HD
ATOM     57  C   UNL A   1      48.833  27.938  26.292  1.00  0.00     0.037 A 
ATOM     58  C   UNL A   1      42.089  28.399  28.139  1.00  0.00     0.037 A 
ATOM     59  C   UNL A   1      48.418  29.233  26.765  1.00  0.00     0.049 A 
ATOM     60  C   UNL A   1      43.037  29.560  28.287  1.00  0.00     0.074 A 
ATOM     61  C   UNL A   1      49.167  30.390  26.878  1.00  0.00     0.029 A 
ATOM     62  N   UNL A   1      47.139  29.539  27.208  1.00  0.00    -0.354 N 
ATOM     63  N   UNL A   1      44.302  29.644  27.958  1.00  0.00    -0.248 NA
ATOM     64  C   UNL A   1      42.489  30.790  28.877  1.00  0.00     0.031 C 
ATOM     65  C   UNL A   1      48.358  31.382  27.440  1.00  0.00     0.029 A 
ATOM     66  C   UNL A   1      47.087  30.860  27.620  1.00  0.00     0.049 A 
ATOM     67  H   UNL A   1      46.382  28.909  27.227  1.00  0.00     0.167 HD
ATOM     68  C   UNL A   1      44.694  30.939  28.270  1.00  0.00     0.074 A 
ATOM     69  C   UNL A   1      43.526  31.611  28.798  1.00  0.00     0.031 C 
ATOM     70  C   UNL A   1      45.911  31.518  28.134  1.00  0.00     0.037 A 
BRANCH  57  71
ATOM     71  C   UNL A   1      50.274  27.752  25.907  1.00  0.00     0.064 A 
ATOM     72  C   UNL A   1      51.267  27.509  26.870  1.00  0.00     0.173 A 
ATOM     73  C   UNL A   1      50.658  27.767  24.559  1.00  0.00     0.173 A 
ATOM     74  F   UNL A   1      50.955  27.496  28.174  1.00  0.00    -0.203 F 
ATOM     75  C   UNL A   1      52.595  27.318  26.497  1.00  0.00     0.198 A 
ATOM     76  C   UNL A   1      51.982  27.543  24.188  1.00  0.00     0.198 A 
ATOM     77  F   UNL A   1      49.749  27.988  23.598  1.00  0.00    -0.203 F 
ATOM     78  F   UNL A   1      53.533  27.137  27.436  1.00  0.00    -0.200 F 
ATOM     79  C   UNL A   1      52.950  27.326  25.156  1.00  0.00     0.200 A 
ATOM     80  F   UNL A   1      52.321  27.536  22.890  1.00  0.00    -0.200 F 
ATOM     81  F   UNL A   1      54.226  27.130  24.799  1.00  0.00    -0.200 F 
ENDBRANCH  57  71
BRANCH  58  82
ATOM     82  C   UNL A   1      40.670  28.516  28.569  1.00  0.00     0.064 A 
ATOM     83  C   UNL A   1      39.685  28.981  27.686  1.00  0.00     0.173 A 
ATOM     84  C   UNL A   1      40.273  28.188  29.873  1.00  0.00     0.173 A 
ATOM     85  F   UNL A   1      40.017  29.327  26.434  1.00  0.00    -0.203 F 
ATOM     86  C   UNL A   1      38.363  29.142  28.100  1.00  0.00     0.198 A 
ATOM     87  C   UNL A   1      38.945  28.318  30.276  1.00  0.00     0.198 A 
ATOM     88  F   UNL A   1      41.174  27.734  30.757  1.00  0.00    -0.203 F 
ATOM     89  F   UNL A   1      37.455  29.642  27.252  1.00  0.00    -0.200 F 
ATOM     90  C   UNL A   1      37.994  28.805  29.393  1.00  0.00     0.200 A 
ATOM     91  F   UNL A   1      38.589  27.977  31.522  1.00  0.00    -0.200 F 
ATOM     92  F   UNL A   1      36.723  28.961  29.791  1.00  0.00    -0.200 F 
ENDBRANCH  58  82
BRANCH  70  93
ATOM     93  C   UNL A   1      46.035  32.963  28.524  1.00  0.00     0.064 A 
ATOM     94  C   UNL A   1      45.794  33.998  27.609  1.00  0.00     0.173 A 
ATOM     95  C   UNL A   1      46.357  33.315  29.844  1.00  0.00     0.173 A 
ATOM     96  F   UNL A   1      45.497  33.715  26.331  1.00  0.00    -0.203 F 
ATOM     97  C   UNL A   1      45.898  35.332  27.994  1.00  0.00     0.198 A 
ATOM     98  C   UNL A   1      46.426  34.650  30.234  1.00  0.00     0.198 A 
ATOM     99  F   UNL A   1      46.589  32.365  30.762  1.00  0.00    -0.203 F 
ATOM    100  F   UNL A   1      45.713  36.304  27.090  1.00  0.00    -0.200 F 
ATOM    101  C   UNL A   1      46.205  35.657  29.307  1.00  0.00     0.200 A 
ATOM    102  F   UNL A   1      46.707  34.961  31.507  1.00  0.00    -0.200 F 
ATOM    103  F   UNL A   1      46.294  36.942  29.677  1.00  0.00    -0.200 F 
ENDBRANCH  70  93
ENDBRANCH  44  45
ENDBRANCH  36  39
ENDBRANCH  34  35
ENDBRANCH  33  34
ENDBRANCH  32  33
ENDBRANCH  31  32
ENDBRANCH   1  31
TORSDOF 19
ENDMDL
MODEL 3
REMARK VINA RESULT:     -11.3      5.933     10.820
REMARK SMILES COc1ccc(CCNC(=O)[C@@]2(C)CC[C@@H](C(=O)NCCCCCCNC(=O)c3ccc(-c4c5nc(c(-c6c(F)c(F)c(F)c(F)c6F)c6ccc([nH]6)c(-c6c(F)c(F)c(F)c(F)c6F)c6nc(c(-c7c(F)c(F)c(F)c(F)c7F)c7ccc4[nH]7)C=C6)C=C5)cc3)C2(C)C)cc1OC
REMARK SMILES IDX 21 1 20 2 19 3 17 4 18 5 16 7 12 8 13 9 14 10 92 11 15 12
REMARK SMILES IDX 93 13 94 14 10 15 9 16 11 18 8 19 7 20 6 21 3 22 4 23 96 24
REMARK SMILES IDX 5 25 95 26 2 27 1 28 97 29 98 30 22 31 23 32 24 33 25 34
REMARK SMILES IDX 26 35 27 36 28 38 29 39 30 40 91 41 31 42 90 43 32 44 33 45
REMARK SMILES IDX 34 46 84 47 35 48 89 49 83 50 85 51 36 52 88 53 82 54 81 55
REMARK SMILES IDX 37 57 69 58 49 59 68 60 50 61 53 62 67 63 86 64 51 65 52 66
REMARK SMILES IDX 66 68 87 69 54 70 38 71 39 72 47 73 40 74 41 75 45 76 48 77
REMARK SMILES IDX 42 78 43 79 46 80 44 81 70 82 71 83 79 84 72 85 73 86 77 87
REMARK SMILES IDX 80 88 74 89 75 90 78 91 76 92 55 93 56 94 64 95 57 96 58 97
REMARK SMILES IDX 62 98 65 99 59 100 60 101 63 102 61 103
REMARK H PARENT 19 6 9 17 26 37 85 56 53 67
REMARK Flexibility Score: inf
ROOT
ATOM      1  C   UNL A   1      37.131  23.287  24.828  1.00  0.00     0.021 C 
ENDROOT
BRANCH   1   2
ATOM      2  C   UNL A   1      35.883  23.786  25.551  1.00  0.00     0.116 C 
BRANCH   2   3
ATOM      3  N   UNL A   1      35.526  22.958  26.679  1.00  0.00    -0.356 N 
ATOM      4  C   UNL A   1      34.477  22.119  26.869  1.00  0.00     0.223 C 
ATOM      5  O   UNL A   1      34.381  21.605  27.990  1.00  0.00    -0.275 OA
ATOM      6  H   UNL A   1      36.148  23.014  27.440  1.00  0.00     0.163 HD
BRANCH   4   7
ATOM      7  C   UNL A   1      33.435  21.769  25.788  1.00  0.00     0.085 C 
ATOM      8  C   UNL A   1      32.504  22.985  23.770  1.00  0.00     0.052 C 
ATOM      9  C   UNL A   1      31.436  22.265  22.907  1.00  0.00     0.022 C 
ATOM     10  C   UNL A   1      33.820  22.205  23.420  1.00  0.00     0.018 C 
ATOM     11  C   UNL A   1      32.351  22.812  25.357  1.00  0.00    -0.010 C 
ATOM     12  C   UNL A   1      34.033  21.181  24.518  1.00  0.00     0.015 C 
ATOM     13  C   UNL A   1      32.471  24.108  26.180  1.00  0.00     0.013 C 
ATOM     14  C   UNL A   1      30.960  22.248  25.752  1.00  0.00     0.013 C 
BRANCH   8  15
ATOM     15  C   UNL A   1      32.665  24.467  23.309  1.00  0.00     0.226 C 
ATOM     16  N   UNL A   1      31.650  25.373  23.308  1.00  0.00    -0.355 N 
ATOM     17  H   UNL A   1      31.938  26.278  23.048  1.00  0.00     0.163 HD
ATOM     18  O   UNL A   1      33.762  24.915  22.956  1.00  0.00    -0.274 OA
BRANCH  16  19
ATOM     19  C   UNL A   1      30.230  25.283  23.608  1.00  0.00     0.120 C 
BRANCH  19  20
ATOM     20  C   UNL A   1      29.745  26.288  24.661  1.00  0.00     0.057 C 
BRANCH  20  21
ATOM     21  C   UNL A   1      30.815  27.220  25.154  1.00  0.00    -0.042 A 
ATOM     22  C   UNL A   1      32.857  28.949  25.994  1.00  0.00     0.160 A 
ATOM     23  C   UNL A   1      32.137  28.195  26.932  1.00  0.00     0.051 A 
ATOM     24  C   UNL A   1      32.554  28.849  24.632  1.00  0.00     0.160 A 
ATOM     25  C   UNL A   1      31.111  27.344  26.515  1.00  0.00     0.008 A 
ATOM     26  C   UNL A   1      31.539  27.979  24.227  1.00  0.00     0.054 A 
BRANCH  22  27
ATOM     27  O   UNL A   1      33.937  29.674  26.417  1.00  0.00    -0.493 OA
ATOM     28  C   UNL A   1      33.590  30.646  27.401  1.00  0.00     0.278 C 
ENDBRANCH  22  27
BRANCH  24  29
ATOM     29  O   UNL A   1      33.165  29.483  23.585  1.00  0.00    -0.493 OA
ATOM     30  C   UNL A   1      34.199  28.771  22.923  1.00  0.00     0.278 C 
ENDBRANCH  24  29
ENDBRANCH  20  21
ENDBRANCH  19  20
ENDBRANCH  16  19
ENDBRANCH   8  15
ENDBRANCH   4   7
ENDBRANCH   2   3
ENDBRANCH   1   2
BRANCH   1  31
ATOM     31  C   UNL A   1      37.779  22.054  25.445  1.00  0.00     0.002 C 
BRANCH  31  32
ATOM     32  C   UNL A   1      37.464  20.734  24.740  1.00  0.00     0.002 C 
BRANCH  32  33
ATOM     33  C   UNL A   1      38.482  19.611  24.959  1.00  0.00     0.021 C 
BRANCH  33  34
ATOM     34  C   UNL A   1      39.520  19.879  26.042  1.00  0.00     0.116 C 
BRANCH  34  35
ATOM     35  N   UNL A   1      40.605  18.912  26.019  1.00  0.00    -0.352 N 
ATOM     36  C   UNL A   1      41.955  19.124  26.075  1.00  0.00     0.251 C 
ATOM     37  H   UNL A   1      40.328  17.970  25.953  1.00  0.00     0.163 HD
ATOM     38  O   UNL A   1      42.741  18.201  25.859  1.00  0.00    -0.269 OA
BRANCH  36  39
ATOM     39  C   UNL A   1      42.474  20.472  26.378  1.00  0.00     0.039 A 
ATOM     40  C   UNL A   1      42.863  21.297  25.321  1.00  0.00     0.014 A 
ATOM     41  C   UNL A   1      42.578  20.918  27.699  1.00  0.00     0.014 A 
ATOM     42  C   UNL A   1      43.311  22.592  25.588  1.00  0.00     0.010 A 
ATOM     43  C   UNL A   1      42.954  22.232  27.958  1.00  0.00     0.010 A 
ATOM     44  C   UNL A   1      43.332  23.079  26.906  1.00  0.00    -0.014 A 
BRANCH  44  45
ATOM     45  C   UNL A   1      43.759  24.470  27.198  1.00  0.00     0.031 A 
ATOM     46  C   UNL A   1      42.752  25.488  27.653  1.00  0.00     0.074 A 
ATOM     47  C   UNL A   1      45.045  24.825  27.008  1.00  0.00     0.049 A 
ATOM     48  N   UNL A   1      42.917  26.763  27.908  1.00  0.00    -0.248 NA
ATOM     49  C   UNL A   1      41.366  25.020  27.821  1.00  0.00     0.031 C 
ATOM     50  C   UNL A   1      46.105  23.938  26.529  1.00  0.00     0.029 A 
ATOM     51  N   UNL A   1      45.676  26.031  27.187  1.00  0.00    -0.354 N 
ATOM     52  C   UNL A   1      41.663  27.244  28.255  1.00  0.00     0.074 A 
ATOM     53  C   UNL A   1      40.733  26.143  28.123  1.00  0.00     0.031 C 
ATOM     54  C   UNL A   1      47.259  24.622  26.472  1.00  0.00     0.029 A 
ATOM     55  C   UNL A   1      47.013  26.005  26.871  1.00  0.00     0.049 A 
ATOM     56  H   UNL A   1      45.215  26.839  27.510  1.00  0.00     0.167 HD
ATOM     57  C   UNL A   1      41.322  28.487  28.670  1.00  0.00     0.037 A 
ATOM     58  C   UNL A   1      47.933  26.988  26.892  1.00  0.00     0.037 A 
ATOM     59  C   UNL A   1      42.254  29.574  28.819  1.00  0.00     0.049 A 
ATOM     60  C   UNL A   1      47.520  28.366  27.339  1.00  0.00     0.074 A 
ATOM     61  C   UNL A   1      42.017  30.855  29.284  1.00  0.00     0.029 A 
ATOM     62  N   UNL A   1      43.602  29.507  28.499  1.00  0.00    -0.354 N 
ATOM     63  N   UNL A   1      46.346  28.792  27.735  1.00  0.00    -0.248 NA
ATOM     64  C   UNL A   1      48.566  29.399  27.348  1.00  0.00     0.031 C 
ATOM     65  C   UNL A   1      43.209  31.579  29.195  1.00  0.00     0.029 A 
ATOM     66  C   UNL A   1      44.204  30.732  28.732  1.00  0.00     0.049 A 
ATOM     67  H   UNL A   1      44.062  28.706  28.156  1.00  0.00     0.167 HD
ATOM     68  C   UNL A   1      46.516  30.130  28.068  1.00  0.00     0.074 A 
ATOM     69  C   UNL A   1      47.913  30.439  27.845  1.00  0.00     0.031 C 
ATOM     70  C   UNL A   1      45.599  31.021  28.515  1.00  0.00     0.037 A 
BRANCH  57  71
ATOM     71  C   UNL A   1      39.878  28.740  29.001  1.00  0.00     0.064 A 
ATOM     72  C   UNL A   1      39.369  28.524  30.291  1.00  0.00     0.173 A 
ATOM     73  C   UNL A   1      39.004  29.250  28.029  1.00  0.00     0.173 A 
ATOM     74  F   UNL A   1      40.160  28.028  31.254  1.00  0.00    -0.203 F 
ATOM     75  C   UNL A   1      38.034  28.783  30.588  1.00  0.00     0.198 A 
ATOM     76  C   UNL A   1      37.677  29.538  28.339  1.00  0.00     0.198 A 
ATOM     77  F   UNL A   1      39.438  29.481  26.782  1.00  0.00    -0.203 F 
ATOM     78  F   UNL A   1      37.560  28.523  31.814  1.00  0.00    -0.200 F 
ATOM     79  C   UNL A   1      37.191  29.298  29.615  1.00  0.00     0.200 A 
ATOM     80  F   UNL A   1      36.867  30.049  27.400  1.00  0.00    -0.200 F 
ATOM     81  F   UNL A   1      35.909  29.557  29.905  1.00  0.00    -0.200 F 
ENDBRANCH  57  71
BRANCH  58  82
ATOM     82  C   UNL A   1      49.337  26.707  26.492  1.00  0.00     0.064 A 
ATOM     83  C   UNL A   1      49.757  26.878  25.165  1.00  0.00     0.173 A 
ATOM     84  C   UNL A   1      50.281  26.242  27.419  1.00  0.00     0.173 A 
ATOM     85  F   UNL A   1      48.887  27.301  24.236  1.00  0.00    -0.203 F 
ATOM     86  C   UNL A   1      51.059  26.566  24.775  1.00  0.00     0.198 A 
ATOM     87  C   UNL A   1      51.591  25.962  27.034  1.00  0.00     0.198 A 
ATOM     88  F   UNL A   1      49.933  26.065  28.702  1.00  0.00    -0.203 F 
ATOM     89  F   UNL A   1      51.416  26.685  23.490  1.00  0.00    -0.200 F 
ATOM     90  C   UNL A   1      51.976  26.114  25.711  1.00  0.00     0.200 A 
ATOM     91  F   UNL A   1      52.478  25.540  27.945  1.00  0.00    -0.200 F 
ATOM     92  F   UNL A   1      53.227  25.813  25.335  1.00  0.00    -0.200 F 
ENDBRANCH  58  82
BRANCH  70  93
ATOM     93  C   UNL A   1      46.083  32.407  28.833  1.00  0.00     0.064 A 
ATOM     94  C   UNL A   1      46.036  33.441  27.887  1.00  0.00     0.173 A 
ATOM     95  C   UNL A   1      46.559  32.714  30.118  1.00  0.00     0.173 A 
ATOM     96  F   UNL A   1      45.602  33.197  26.641  1.00  0.00    -0.203 F 
ATOM     97  C   UNL A   1      46.473  34.724  28.207  1.00  0.00     0.198 A 
ATOM     98  C   UNL A   1      46.963  34.005  30.444  1.00  0.00     0.198 A 
ATOM     99  F   UNL A   1      46.617  31.764  31.063  1.00  0.00    -0.203 F 
ATOM    100  F   UNL A   1      46.467  35.684  27.271  1.00  0.00    -0.200 F 
ATOM    101  C   UNL A   1      46.928  35.007  29.486  1.00  0.00     0.200 A 
ATOM    102  F   UNL A   1      47.387  34.280  31.685  1.00  0.00    -0.200 F 
ATOM    103  F   UNL A   1      47.339  36.245  29.793  1.00  0.00    -0.200 F 
ENDBRANCH  70  93
ENDBRANCH  44  45
ENDBRANCH  36  39
ENDBRANCH  34  35
ENDBRANCH  33  34
ENDBRANCH  32  33
ENDBRANCH  31  32
ENDBRANCH   1  31
TORSDOF 19
ENDMDL
