MODEL 1
REMARK VINA RESULT:     -11.2      0.000      0.000
REMARK SMILES COC(=O)c1ccccc1-c1ccc(/C=C(\C#N)C(=O)NCCCCCCNC(=O)c2ccc(-c3c4nc(c(-c5c(F)c(F)c(F)c(F)c5F)c5ccc([nH]5)c(-c5c(F)c(F)c(F)c(F)c5F)c5nc(c(-c6c(F)c(F)c(F)c(F)c6F)c6ccc3[nH]6)C=C5)C=C4)cc2)o1
REMARK SMILES IDX 23 1 22 2 21 3 19 4 20 5 16 7 15 8 14 9 11 10 12 11 94 12
REMARK SMILES IDX 13 13 10 14 5 15 6 16 7 17 9 18 8 19 3 20 4 21 2 22 1 23
REMARK SMILES IDX 17 24 18 25 24 26 25 27 26 28 27 29 28 30 29 31 30 33 31 34
REMARK SMILES IDX 32 35 93 36 33 37 92 38 34 39 35 40 36 41 86 42 37 43 91 44
REMARK SMILES IDX 85 45 87 46 38 47 90 48 84 49 83 50 39 52 71 53 51 54 70 55
REMARK SMILES IDX 52 56 55 57 69 58 88 59 53 60 54 61 68 63 89 64 56 65 40 66
REMARK SMILES IDX 41 67 49 68 42 69 43 70 47 71 50 72 44 73 45 74 48 75 46 76
REMARK SMILES IDX 72 77 73 78 81 79 74 80 75 81 79 82 82 83 76 84 77 85 80 86
REMARK SMILES IDX 78 87 57 88 58 89 66 90 59 91 60 92 64 93 67 94 61 95 62 96
REMARK SMILES IDX 65 97 63 98
REMARK H PARENT 21 6 28 32 87 51 55 62
REMARK Flexibility Score: inf
ROOT
ATOM      1  C   UNL A   1      35.251  31.445  28.015  1.00  0.00     0.021 C 
ENDROOT
BRANCH   1   2
ATOM      2  C   UNL A   1      34.481  30.254  27.451  1.00  0.00     0.116 C 
BRANCH   2   3
ATOM      3  N   UNL A   1      33.244  30.689  26.832  1.00  0.00    -0.351 N 
ATOM      4  C   UNL A   1      32.344  30.081  26.018  1.00  0.00     0.262 C 
ATOM      5  O   UNL A   1      31.400  30.780  25.637  1.00  0.00    -0.268 OA
ATOM      6  H   UNL A   1      33.007  31.620  27.048  1.00  0.00     0.163 HD
BRANCH   4   7
ATOM      7  C   UNL A   1      32.436  28.649  25.602  1.00  0.00     0.120 C 
ATOM      8  C   UNL A   1      33.202  28.391  24.520  1.00  0.00     0.072 C 
BRANCH   8   9
ATOM      9  C   UNL A   1      33.383  27.106  23.927  1.00  0.00     0.129 A 
ATOM     10  C   UNL A   1      34.029  24.988  23.657  1.00  0.00     0.135 A 
ATOM     11  C   UNL A   1      33.388  25.342  22.493  1.00  0.00     0.051 A 
ATOM     12  O   UNL A   1      34.005  26.033  24.527  1.00  0.00    -0.457 OA
ATOM     13  C   UNL A   1      32.975  26.684  22.665  1.00  0.00     0.051 A 
BRANCH  10  14
ATOM     14  C   UNL A   1      34.712  23.784  24.112  1.00  0.00     0.032 A 
ATOM     15  C   UNL A   1      34.246  23.012  25.193  1.00  0.00     0.071 A 
ATOM     16  C   UNL A   1      35.001  21.933  25.680  1.00  0.00     0.016 A 
ATOM     17  C   UNL A   1      36.208  21.593  25.073  1.00  0.00     0.001 A 
ATOM     18  C   UNL A   1      35.920  23.411  23.501  1.00  0.00     0.013 A 
ATOM     19  C   UNL A   1      36.662  22.325  23.979  1.00  0.00     0.001 A 
BRANCH  15  20
ATOM     20  C   UNL A   1      32.965  23.287  25.874  1.00  0.00     0.338 C 
ATOM     21  O   UNL A   1      32.884  23.790  26.986  1.00  0.00    -0.246 OA
BRANCH  20  22
ATOM     22  O   UNL A   1      31.940  22.834  25.115  1.00  0.00    -0.465 OA
ATOM     23  C   UNL A   1      30.731  22.608  25.837  1.00  0.00     0.282 C 
ENDBRANCH  20  22
ENDBRANCH  15  20
ENDBRANCH  10  14
ENDBRANCH   8   9
BRANCH   7  24
ATOM     24  C   UNL A   1      31.667  27.538  26.298  1.00  0.00     0.105 C 
ATOM     25  N   UNL A   1      31.028  26.618  26.877  1.00  0.00    -0.192 NA
ENDBRANCH   7  24
ENDBRANCH   4   7
ENDBRANCH   2   3
ENDBRANCH   1   2
BRANCH   1  26
ATOM     26  C   UNL A   1      34.401  32.309  28.955  1.00  0.00     0.002 C 
BRANCH  26  27
ATOM     27  C   UNL A   1      34.505  33.820  28.703  1.00  0.00     0.002 C 
BRANCH  27  28
ATOM     28  C   UNL A   1      33.185  34.585  28.835  1.00  0.00     0.021 C 
BRANCH  28  29
ATOM     29  C   UNL A   1      33.351  36.033  29.279  1.00  0.00     0.116 C 
BRANCH  29  30
ATOM     30  N   UNL A   1      32.529  36.330  30.441  1.00  0.00    -0.352 N 
ATOM     31  C   UNL A   1      32.599  35.818  31.709  1.00  0.00     0.251 C 
ATOM     32  H   UNL A   1      31.817  36.995  30.295  1.00  0.00     0.163 HD
ATOM     33  O   UNL A   1      31.675  35.986  32.498  1.00  0.00    -0.269 OA
BRANCH  31  34
ATOM     34  C   UNL A   1      33.795  35.060  32.127  1.00  0.00     0.039 A 
ATOM     35  C   UNL A   1      33.649  33.728  32.522  1.00  0.00     0.014 A 
ATOM     36  C   UNL A   1      35.051  35.673  32.159  1.00  0.00     0.014 A 
ATOM     37  C   UNL A   1      34.772  32.997  32.912  1.00  0.00     0.010 A 
ATOM     38  C   UNL A   1      36.178  34.925  32.482  1.00  0.00     0.010 A 
ATOM     39  C   UNL A   1      36.047  33.584  32.874  1.00  0.00    -0.014 A 
BRANCH  39  40
ATOM     40  C   UNL A   1      37.256  32.820  33.266  1.00  0.00     0.031 A 
ATOM     41  C   UNL A   1      37.943  33.125  34.569  1.00  0.00     0.074 A 
ATOM     42  C   UNL A   1      37.762  31.896  32.430  1.00  0.00     0.049 A 
ATOM     43  N   UNL A   1      39.050  32.626  35.058  1.00  0.00    -0.248 NA
ATOM     44  C   UNL A   1      37.315  34.144  35.424  1.00  0.00     0.031 C 
ATOM     45  C   UNL A   1      37.203  31.539  31.125  1.00  0.00     0.029 A 
ATOM     46  N   UNL A   1      38.868  31.093  32.548  1.00  0.00    -0.354 N 
ATOM     47  C   UNL A   1      39.254  33.277  36.268  1.00  0.00     0.074 A 
ATOM     48  C   UNL A   1      38.190  34.245  36.414  1.00  0.00     0.031 C 
ATOM     49  C   UNL A   1      37.956  30.574  30.573  1.00  0.00     0.029 A 
ATOM     50  C   UNL A   1      39.070  30.272  31.466  1.00  0.00     0.049 A 
ATOM     51  H   UNL A   1      39.461  31.103  33.334  1.00  0.00     0.167 HD
ATOM     52  C   UNL A   1      40.227  33.066  37.186  1.00  0.00     0.037 A 
ATOM     53  C   UNL A   1      40.050  29.380  31.222  1.00  0.00     0.037 A 
ATOM     54  C   UNL A   1      41.272  32.086  37.046  1.00  0.00     0.049 A 
ATOM     55  C   UNL A   1      41.130  29.181  32.253  1.00  0.00     0.074 A 
ATOM     56  C   UNL A   1      42.284  31.769  37.934  1.00  0.00     0.029 A 
ATOM     57  N   UNL A   1      41.434  31.262  35.941  1.00  0.00    -0.354 N 
ATOM     58  N   UNL A   1      41.282  29.763  33.417  1.00  0.00    -0.248 NA
ATOM     59  C   UNL A   1      42.170  28.194  31.935  1.00  0.00     0.031 C 
ATOM     60  C   UNL A   1      43.082  30.779  37.352  1.00  0.00     0.029 A 
ATOM     61  C   UNL A   1      42.538  30.445  36.121  1.00  0.00     0.049 A 
ATOM     62  H   UNL A   1      40.851  31.257  35.149  1.00  0.00     0.167 HD
ATOM     63  C   UNL A   1      42.411  29.190  33.986  1.00  0.00     0.074 A 
ATOM     64  C   UNL A   1      42.899  28.204  33.042  1.00  0.00     0.031 C 
ATOM     65  C   UNL A   1      42.994  29.455  35.180  1.00  0.00     0.037 A 
BRANCH  52  66
ATOM     66  C   UNL A   1      40.199  33.903  38.432  1.00  0.00     0.064 A 
ATOM     67  C   UNL A   1      40.918  35.106  38.521  1.00  0.00     0.173 A 
ATOM     68  C   UNL A   1      39.417  33.524  39.533  1.00  0.00     0.173 A 
ATOM     69  F   UNL A   1      41.691  35.507  37.501  1.00  0.00    -0.203 F 
ATOM     70  C   UNL A   1      40.874  35.883  39.676  1.00  0.00     0.198 A 
ATOM     71  C   UNL A   1      39.352  34.319  40.674  1.00  0.00     0.198 A 
ATOM     72  F   UNL A   1      38.707  32.387  39.498  1.00  0.00    -0.203 F 
ATOM     73  F   UNL A   1      41.605  37.004  39.754  1.00  0.00    -0.200 F 
ATOM     74  C   UNL A   1      40.085  35.494  40.747  1.00  0.00     0.200 A 
ATOM     75  F   UNL A   1      38.579  33.948  41.704  1.00  0.00    -0.200 F 
ATOM     76  F   UNL A   1      40.037  36.248  41.853  1.00  0.00    -0.200 F 
ENDBRANCH  52  66
BRANCH  53  77
ATOM     77  C   UNL A   1      40.046  28.590  29.965  1.00  0.00     0.064 A 
ATOM     78  C   UNL A   1      39.424  27.335  29.908  1.00  0.00     0.173 A 
ATOM     79  C   UNL A   1      40.679  29.056  28.804  1.00  0.00     0.173 A 
ATOM     80  F   UNL A   1      38.822  26.837  30.999  1.00  0.00    -0.203 F 
ATOM     81  C   UNL A   1      39.459  26.564  28.748  1.00  0.00     0.198 A 
ATOM     82  C   UNL A   1      40.689  28.298  27.635  1.00  0.00     0.198 A 
ATOM     83  F   UNL A   1      41.285  30.253  28.803  1.00  0.00    -0.203 F 
ATOM     84  F   UNL A   1      38.904  25.345  28.740  1.00  0.00    -0.200 F 
ATOM     85  C   UNL A   1      40.088  27.048  27.611  1.00  0.00     0.200 A 
ATOM     86  F   UNL A   1      41.286  28.773  26.534  1.00  0.00    -0.200 F 
ATOM     87  F   UNL A   1      40.125  26.305  26.497  1.00  0.00    -0.200 F 
ENDBRANCH  53  77
BRANCH  65  88
ATOM     88  C   UNL A   1      44.192  28.634  35.557  1.00  0.00     0.064 A 
ATOM     89  C   UNL A   1      44.070  27.437  36.277  1.00  0.00     0.173 A 
ATOM     90  C   UNL A   1      45.477  29.035  35.159  1.00  0.00     0.173 A 
ATOM     91  F   UNL A   1      42.865  27.020  36.693  1.00  0.00    -0.203 F 
ATOM     92  C   UNL A   1      45.194  26.683  36.606  1.00  0.00     0.198 A 
ATOM     93  C   UNL A   1      46.595  28.263  35.463  1.00  0.00     0.198 A 
ATOM     94  F   UNL A   1      45.647  30.169  34.463  1.00  0.00    -0.203 F 
ATOM     95  F   UNL A   1      45.059  25.568  37.335  1.00  0.00    -0.200 F 
ATOM     96  C   UNL A   1      46.453  27.092  36.192  1.00  0.00     0.200 A 
ATOM     97  F   UNL A   1      47.809  28.653  35.052  1.00  0.00    -0.200 F 
ATOM     98  F   UNL A   1      47.532  26.362  36.504  1.00  0.00    -0.200 F 
ENDBRANCH  65  88
ENDBRANCH  39  40
ENDBRANCH  31  34
ENDBRANCH  29  30
ENDBRANCH  28  29
ENDBRANCH  27  28
ENDBRANCH  26  27
ENDBRANCH   1  26
TORSDOF 18
ENDMDL
MODEL 2
REMARK VINA RESULT:     -11.2      1.788      7.650
REMARK SMILES COC(=O)c1ccccc1-c1ccc(/C=C(\C#N)C(=O)NCCCCCCNC(=O)c2ccc(-c3c4nc(c(-c5c(F)c(F)c(F)c(F)c5F)c5ccc([nH]5)c(-c5c(F)c(F)c(F)c(F)c5F)c5nc(c(-c6c(F)c(F)c(F)c(F)c6F)c6ccc3[nH]6)C=C5)C=C4)cc2)o1
REMARK SMILES IDX 23 1 22 2 21 3 19 4 20 5 16 7 15 8 14 9 11 10 12 11 94 12
REMARK SMILES IDX 13 13 10 14 5 15 6 16 7 17 9 18 8 19 3 20 4 21 2 22 1 23
REMARK SMILES IDX 17 24 18 25 24 26 25 27 26 28 27 29 28 30 29 31 30 33 31 34
REMARK SMILES IDX 32 35 93 36 33 37 92 38 34 39 35 40 36 41 86 42 37 43 91 44
REMARK SMILES IDX 85 45 87 46 38 47 90 48 84 49 83 50 39 52 71 53 51 54 70 55
REMARK SMILES IDX 52 56 55 57 69 58 88 59 53 60 54 61 68 63 89 64 56 65 40 66
REMARK SMILES IDX 41 67 49 68 42 69 43 70 47 71 50 72 44 73 45 74 48 75 46 76
REMARK SMILES IDX 72 77 73 78 81 79 74 80 75 81 79 82 82 83 76 84 77 85 80 86
REMARK SMILES IDX 78 87 57 88 58 89 66 90 59 91 60 92 64 93 67 94 61 95 62 96
REMARK SMILES IDX 65 97 63 98
REMARK H PARENT 21 6 28 32 87 51 55 62
REMARK Flexibility Score: inf
ROOT
ATOM      1  C   UNL A   1      31.912  28.551  25.845  1.00  0.00     0.021 C 
ENDROOT
BRANCH   1   2
ATOM      2  C   UNL A   1      31.656  28.837  24.367  1.00  0.00     0.116 C 
BRANCH   2   3
ATOM      3  N   UNL A   1      30.317  28.427  23.990  1.00  0.00    -0.351 N 
ATOM      4  C   UNL A   1      29.714  27.219  23.858  1.00  0.00     0.262 C 
ATOM      5  O   UNL A   1      28.542  27.239  23.469  1.00  0.00    -0.268 OA
ATOM      6  H   UNL A   1      29.721  29.184  23.787  1.00  0.00     0.163 HD
BRANCH   4   7
ATOM      7  C   UNL A   1      30.380  25.920  24.175  1.00  0.00     0.120 C 
ATOM      8  C   UNL A   1      31.052  25.332  23.162  1.00  0.00     0.072 C 
BRANCH   8   9
ATOM      9  C   UNL A   1      31.712  24.069  23.236  1.00  0.00     0.129 A 
ATOM     10  C   UNL A   1      33.314  22.550  23.561  1.00  0.00     0.135 A 
ATOM     11  C   UNL A   1      32.214  21.855  23.117  1.00  0.00     0.051 A 
ATOM     12  O   UNL A   1      33.009  23.873  23.658  1.00  0.00    -0.457 OA
ATOM     13  C   UNL A   1      31.197  22.818  22.914  1.00  0.00     0.051 A 
BRANCH  10  14
ATOM     14  C   UNL A   1      34.677  22.175  23.910  1.00  0.00     0.032 A 
ATOM     15  C   UNL A   1      34.971  21.081  24.747  1.00  0.00     0.071 A 
ATOM     16  C   UNL A   1      36.289  20.829  25.161  1.00  0.00     0.016 A 
ATOM     17  C   UNL A   1      37.329  21.643  24.717  1.00  0.00     0.001 A 
ATOM     18  C   UNL A   1      35.743  22.969  23.457  1.00  0.00     0.013 A 
ATOM     19  C   UNL A   1      37.058  22.705  23.858  1.00  0.00     0.001 A 
BRANCH  15  20
ATOM     20  C   UNL A   1      33.932  20.153  25.238  1.00  0.00     0.338 C 
ATOM     21  O   UNL A   1      33.273  20.351  26.249  1.00  0.00    -0.246 OA
BRANCH  20  22
ATOM     22  O   UNL A   1      33.892  19.056  24.448  1.00  0.00    -0.465 OA
ATOM     23  C   UNL A   1      32.687  18.301  24.554  1.00  0.00     0.282 C 
ENDBRANCH  20  22
ENDBRANCH  15  20
ENDBRANCH  10  14
ENDBRANCH   8   9
BRANCH   7  24
ATOM     24  C   UNL A   1      30.264  25.245  25.532  1.00  0.00     0.105 C 
ATOM     25  N   UNL A   1      30.169  24.686  26.658  1.00  0.00    -0.192 NA
ENDBRANCH   7  24
ENDBRANCH   4   7
ENDBRANCH   2   3
ENDBRANCH   1   2
BRANCH   1  26
ATOM     26  C   UNL A   1      31.818  29.810  26.716  1.00  0.00     0.002 C 
BRANCH  26  27
ATOM     27  C   UNL A   1      31.435  31.087  25.955  1.00  0.00     0.002 C 
BRANCH  27  28
ATOM     28  C   UNL A   1      31.305  32.340  26.826  1.00  0.00     0.021 C 
BRANCH  28  29
ATOM     29  C   UNL A   1      32.638  32.984  27.187  1.00  0.00     0.116 C 
BRANCH  29  30
ATOM     30  N   UNL A   1      32.460  34.354  27.640  1.00  0.00    -0.352 N 
ATOM     31  C   UNL A   1      33.025  34.996  28.709  1.00  0.00     0.251 C 
ATOM     32  H   UNL A   1      31.843  34.900  27.100  1.00  0.00     0.163 HD
ATOM     33  O   UNL A   1      32.576  36.070  29.097  1.00  0.00    -0.269 OA
BRANCH  31  34
ATOM     34  C   UNL A   1      34.181  34.390  29.399  1.00  0.00     0.039 A 
ATOM     35  C   UNL A   1      33.962  33.626  30.547  1.00  0.00     0.014 A 
ATOM     36  C   UNL A   1      35.482  34.605  28.931  1.00  0.00     0.014 A 
ATOM     37  C   UNL A   1      35.045  33.041  31.205  1.00  0.00     0.010 A 
ATOM     38  C   UNL A   1      36.553  33.966  29.546  1.00  0.00     0.010 A 
ATOM     39  C   UNL A   1      36.346  33.190  30.697  1.00  0.00    -0.014 A 
BRANCH  39  40
ATOM     40  C   UNL A   1      37.508  32.562  31.369  1.00  0.00     0.031 A 
ATOM     41  C   UNL A   1      38.243  31.435  30.696  1.00  0.00     0.074 A 
ATOM     42  C   UNL A   1      37.867  32.967  32.601  1.00  0.00     0.049 A 
ATOM     43  N   UNL A   1      39.232  30.705  31.146  1.00  0.00    -0.248 NA
ATOM     44  C   UNL A   1      37.788  31.063  29.347  1.00  0.00     0.031 C 
ATOM     45  C   UNL A   1      37.208  34.026  33.367  1.00  0.00     0.029 A 
ATOM     46  N   UNL A   1      38.868  32.531  33.431  1.00  0.00    -0.354 N 
ATOM     47  C   UNL A   1      39.508  29.785  30.142  1.00  0.00     0.074 A 
ATOM     48  C   UNL A   1      38.549  30.010  29.084  1.00  0.00     0.031 C 
ATOM     49  C   UNL A   1      37.836  34.172  34.546  1.00  0.00     0.029 A 
ATOM     50  C   UNL A   1      38.915  33.193  34.632  1.00  0.00     0.049 A 
ATOM     51  H   UNL A   1      39.494  31.812  33.187  1.00  0.00     0.167 HD
ATOM     52  C   UNL A   1      40.491  28.855  30.097  1.00  0.00     0.037 A 
ATOM     53  C   UNL A   1      39.735  33.022  35.687  1.00  0.00     0.037 A 
ATOM     54  C   UNL A   1      41.457  28.650  31.145  1.00  0.00     0.049 A 
ATOM     55  C   UNL A   1      40.806  31.966  35.618  1.00  0.00     0.074 A 
ATOM     56  C   UNL A   1      42.514  27.758  31.181  1.00  0.00     0.029 A 
ATOM     57  N   UNL A   1      41.482  29.351  32.342  1.00  0.00    -0.354 N 
ATOM     58  N   UNL A   1      41.092  31.140  34.641  1.00  0.00    -0.248 NA
ATOM     59  C   UNL A   1      41.672  31.827  36.796  1.00  0.00     0.031 C 
ATOM     60  C   UNL A   1      43.157  27.893  32.416  1.00  0.00     0.029 A 
ATOM     61  C   UNL A   1      42.529  28.903  33.129  1.00  0.00     0.049 A 
ATOM     62  H   UNL A   1      40.849  30.062  32.593  1.00  0.00     0.167 HD
ATOM     63  C   UNL A   1      42.190  30.407  35.072  1.00  0.00     0.074 A 
ATOM     64  C   UNL A   1      42.527  30.897  36.393  1.00  0.00     0.031 C 
ATOM     65  C   UNL A   1      42.860  29.418  34.432  1.00  0.00     0.037 A 
BRANCH  52  66
ATOM     66  C   UNL A   1      40.579  27.997  28.870  1.00  0.00     0.064 A 
ATOM     67  C   UNL A   1      39.852  26.801  28.758  1.00  0.00     0.173 A 
ATOM     68  C   UNL A   1      41.365  28.390  27.776  1.00  0.00     0.173 A 
ATOM     69  F   UNL A   1      39.096  26.374  29.781  1.00  0.00    -0.203 F 
ATOM     70  C   UNL A   1      39.929  26.019  27.609  1.00  0.00     0.198 A 
ATOM     71  C   UNL A   1      41.414  27.620  26.616  1.00  0.00     0.198 A 
ATOM     72  F   UNL A   1      42.075  29.526  27.826  1.00  0.00    -0.203 F 
ATOM     73  F   UNL A   1      39.261  24.858  27.545  1.00  0.00    -0.200 F 
ATOM     74  C   UNL A   1      40.703  26.433  26.537  1.00  0.00     0.200 A 
ATOM     75  F   UNL A   1      42.153  28.028  25.574  1.00  0.00    -0.200 F 
ATOM     76  F   UNL A   1      40.768  25.684  25.428  1.00  0.00    -0.200 F 
ENDBRANCH  52  66
BRANCH  53  77
ATOM     77  C   UNL A   1      39.595  33.882  36.890  1.00  0.00     0.064 A 
ATOM     78  C   UNL A   1      40.238  35.126  36.961  1.00  0.00     0.173 A 
ATOM     79  C   UNL A   1      38.839  33.476  37.999  1.00  0.00     0.173 A 
ATOM     80  F   UNL A   1      40.990  35.550  35.934  1.00  0.00    -0.203 F 
ATOM     81  C   UNL A   1      40.155  35.917  38.105  1.00  0.00     0.198 A 
ATOM     82  C   UNL A   1      38.731  34.281  39.131  1.00  0.00     0.198 A 
ATOM     83  F   UNL A   1      38.199  32.298  37.980  1.00  0.00    -0.203 F 
ATOM     84  F   UNL A   1      40.826  37.075  38.166  1.00  0.00    -0.200 F 
ATOM     85  C   UNL A   1      39.398  35.496  39.187  1.00  0.00     0.200 A 
ATOM     86  F   UNL A   1      37.988  33.877  40.171  1.00  0.00    -0.200 F 
ATOM     87  F   UNL A   1      39.320  36.255  40.289  1.00  0.00    -0.200 F 
ENDBRANCH  53  77
BRANCH  65  88
ATOM     88  C   UNL A   1      44.054  28.835  35.129  1.00  0.00     0.064 A 
ATOM     89  C   UNL A   1      45.346  29.344  34.933  1.00  0.00     0.173 A 
ATOM     90  C   UNL A   1      43.895  27.776  36.036  1.00  0.00     0.173 A 
ATOM     91  F   UNL A   1      45.551  30.346  34.064  1.00  0.00    -0.203 F 
ATOM     92  C   UNL A   1      46.439  28.796  35.600  1.00  0.00     0.198 A 
ATOM     93  C   UNL A   1      44.986  27.250  36.724  1.00  0.00     0.198 A 
ATOM     94  F   UNL A   1      42.679  27.257  36.265  1.00  0.00    -0.203 F 
ATOM     95  F   UNL A   1      47.670  29.266  35.360  1.00  0.00    -0.200 F 
ATOM     96  C   UNL A   1      46.257  27.757  36.499  1.00  0.00     0.200 A 
ATOM     97  F   UNL A   1      44.807  26.255  37.603  1.00  0.00    -0.200 F 
ATOM     98  F   UNL A   1      47.309  27.236  37.145  1.00  0.00    -0.200 F 
ENDBRANCH  65  88
ENDBRANCH  39  40
ENDBRANCH  31  34
ENDBRANCH  29  30
ENDBRANCH  28  29
ENDBRANCH  27  28
ENDBRANCH  26  27
ENDBRANCH   1  26
TORSDOF 18
ENDMDL
MODEL 3
REMARK VINA RESULT:     -11.1      2.022      3.443
REMARK SMILES COC(=O)c1ccccc1-c1ccc(/C=C(\C#N)C(=O)NCCCCCCNC(=O)c2ccc(-c3c4nc(c(-c5c(F)c(F)c(F)c(F)c5F)c5ccc([nH]5)c(-c5c(F)c(F)c(F)c(F)c5F)c5nc(c(-c6c(F)c(F)c(F)c(F)c6F)c6ccc3[nH]6)C=C5)C=C4)cc2)o1
REMARK SMILES IDX 23 1 22 2 21 3 19 4 20 5 16 7 15 8 14 9 11 10 12 11 94 12
REMARK SMILES IDX 13 13 10 14 5 15 6 16 7 17 9 18 8 19 3 20 4 21 2 22 1 23
REMARK SMILES IDX 17 24 18 25 24 26 25 27 26 28 27 29 28 30 29 31 30 33 31 34
REMARK SMILES IDX 32 35 93 36 33 37 92 38 34 39 35 40 36 41 86 42 37 43 91 44
REMARK SMILES IDX 85 45 87 46 38 47 90 48 84 49 83 50 39 52 71 53 51 54 70 55
REMARK SMILES IDX 52 56 55 57 69 58 88 59 53 60 54 61 68 63 89 64 56 65 40 66
REMARK SMILES IDX 41 67 49 68 42 69 43 70 47 71 50 72 44 73 45 74 48 75 46 76
REMARK SMILES IDX 72 77 73 78 81 79 74 80 75 81 79 82 82 83 76 84 77 85 80 86
REMARK SMILES IDX 78 87 57 88 58 89 66 90 59 91 60 92 64 93 67 94 61 95 62 96
REMARK SMILES IDX 65 97 63 98
REMARK H PARENT 21 6 28 32 87 51 55 62
REMARK Flexibility Score: inf
ROOT
ATOM      1  C   UNL A   1      31.602  29.278  24.241  1.00  0.00     0.021 C 
ENDROOT
BRANCH   1   2
ATOM      2  C   UNL A   1      30.833  28.904  22.976  1.00  0.00     0.116 C 
BRANCH   2   3
ATOM      3  N   UNL A   1      29.602  28.213  23.309  1.00  0.00    -0.351 N 
ATOM      4  C   UNL A   1      29.324  26.953  23.725  1.00  0.00     0.262 C 
ATOM      5  O   UNL A   1      28.128  26.685  23.879  1.00  0.00    -0.268 OA
ATOM      6  H   UNL A   1      28.801  28.778  23.214  1.00  0.00     0.163 HD
BRANCH   4   7
ATOM      7  C   UNL A   1      30.368  25.924  24.014  1.00  0.00     0.120 C 
ATOM      8  C   UNL A   1      30.850  25.249  22.948  1.00  0.00     0.072 C 
BRANCH   8   9
ATOM      9  C   UNL A   1      31.810  24.194  23.007  1.00  0.00     0.129 A 
ATOM     10  C   UNL A   1      32.693  22.172  23.338  1.00  0.00     0.135 A 
ATOM     11  C   UNL A   1      33.732  22.982  22.944  1.00  0.00     0.051 A 
ATOM     12  O   UNL A   1      31.537  22.889  23.352  1.00  0.00    -0.457 OA
ATOM     13  C   UNL A   1      33.172  24.264  22.731  1.00  0.00     0.051 A 
BRANCH  10  14
ATOM     14  C   UNL A   1      32.594  20.777  23.744  1.00  0.00     0.032 A 
ATOM     15  C   UNL A   1      32.855  20.351  25.060  1.00  0.00     0.071 A 
ATOM     16  C   UNL A   1      32.872  18.984  25.381  1.00  0.00     0.016 A 
ATOM     17  C   UNL A   1      32.594  18.033  24.401  1.00  0.00     0.001 A 
ATOM     18  C   UNL A   1      32.294  19.803  22.778  1.00  0.00     0.013 A 
ATOM     19  C   UNL A   1      32.295  18.442  23.104  1.00  0.00     0.001 A 
BRANCH  15  20
ATOM     20  C   UNL A   1      33.131  21.294  26.162  1.00  0.00     0.338 C 
ATOM     21  O   UNL A   1      32.363  22.184  26.499  1.00  0.00    -0.246 OA
BRANCH  20  22
ATOM     22  O   UNL A   1      34.366  21.059  26.664  1.00  0.00    -0.465 OA
ATOM     23  C   UNL A   1      35.399  21.841  26.069  1.00  0.00     0.282 C 
ENDBRANCH  20  22
ENDBRANCH  15  20
ENDBRANCH  10  14
ENDBRANCH   8   9
BRANCH   7  24
ATOM     24  C   UNL A   1      30.827  25.591  25.424  1.00  0.00     0.105 C 
ATOM     25  N   UNL A   1      31.209  25.315  26.593  1.00  0.00    -0.192 NA
ENDBRANCH   7  24
ENDBRANCH   4   7
ENDBRANCH   2   3
ENDBRANCH   1   2
BRANCH   1  26
ATOM     26  C   UNL A   1      30.950  30.434  25.010  1.00  0.00     0.002 C 
BRANCH  26  27
ATOM     27  C   UNL A   1      31.575  30.723  26.382  1.00  0.00     0.002 C 
BRANCH  27  28
ATOM     28  C   UNL A   1      31.439  32.173  26.857  1.00  0.00     0.021 C 
BRANCH  28  29
ATOM     29  C   UNL A   1      32.767  32.911  26.979  1.00  0.00     0.116 C 
BRANCH  29  30
ATOM     30  N   UNL A   1      32.598  34.204  27.623  1.00  0.00    -0.352 N 
ATOM     31  C   UNL A   1      33.170  34.684  28.770  1.00  0.00     0.251 C 
ATOM     32  H   UNL A   1      31.982  34.824  27.168  1.00  0.00     0.163 HD
ATOM     33  O   UNL A   1      32.727  35.694  29.308  1.00  0.00    -0.269 OA
BRANCH  31  34
ATOM     34  C   UNL A   1      34.325  33.981  29.362  1.00  0.00     0.039 A 
ATOM     35  C   UNL A   1      35.616  34.393  29.025  1.00  0.00     0.014 A 
ATOM     36  C   UNL A   1      34.132  32.896  30.223  1.00  0.00     0.014 A 
ATOM     37  C   UNL A   1      36.717  33.742  29.583  1.00  0.00     0.010 A 
ATOM     38  C   UNL A   1      35.227  32.293  30.832  1.00  0.00     0.010 A 
ATOM     39  C   UNL A   1      36.529  32.701  30.507  1.00  0.00    -0.014 A 
BRANCH  39  40
ATOM     40  C   UNL A   1      37.684  32.008  31.127  1.00  0.00     0.031 A 
ATOM     41  C   UNL A   1      38.128  32.386  32.513  1.00  0.00     0.074 A 
ATOM     42  C   UNL A   1      38.363  31.083  30.424  1.00  0.00     0.049 A 
ATOM     43  N   UNL A   1      39.156  31.957  33.200  1.00  0.00    -0.248 NA
ATOM     44  C   UNL A   1      37.323  33.401  33.210  1.00  0.00     0.031 C 
ATOM     45  C   UNL A   1      38.048  30.658  29.059  1.00  0.00     0.029 A 
ATOM     46  N   UNL A   1      39.465  30.337  30.757  1.00  0.00    -0.354 N 
ATOM     47  C   UNL A   1      39.125  32.655  34.401  1.00  0.00     0.074 A 
ATOM     48  C   UNL A   1      38.013  33.576  34.327  1.00  0.00     0.031 C 
ATOM     49  C   UNL A   1      38.923  29.712  28.679  1.00  0.00     0.029 A 
ATOM     50  C   UNL A   1      39.881  29.492  29.758  1.00  0.00     0.049 A 
ATOM     51  H   UNL A   1      39.915  30.401  31.631  1.00  0.00     0.167 HD
ATOM     52  C   UNL A   1      39.936  32.520  35.476  1.00  0.00     0.037 A 
ATOM     53  C   UNL A   1      40.924  28.641  29.718  1.00  0.00     0.037 A 
ATOM     54  C   UNL A   1      41.029  31.586  35.552  1.00  0.00     0.049 A 
ATOM     55  C   UNL A   1      41.821  28.526  30.921  1.00  0.00     0.074 A 
ATOM     56  C   UNL A   1      41.889  31.346  36.609  1.00  0.00     0.029 A 
ATOM     57  N   UNL A   1      41.410  30.736  34.524  1.00  0.00    -0.354 N 
ATOM     58  N   UNL A   1      41.749  29.151  32.071  1.00  0.00    -0.248 NA
ATOM     59  C   UNL A   1      42.940  27.580  30.822  1.00  0.00     0.031 C 
ATOM     60  C   UNL A   1      42.814  30.377  36.209  1.00  0.00     0.029 A 
ATOM     61  C   UNL A   1      42.501  29.978  34.918  1.00  0.00     0.049 A 
ATOM     62  H   UNL A   1      40.970  30.678  33.645  1.00  0.00     0.167 HD
ATOM     63  C   UNL A   1      42.789  28.651  32.843  1.00  0.00     0.074 A 
ATOM     64  C   UNL A   1      43.470  27.660  32.035  1.00  0.00     0.031 C 
ATOM     65  C   UNL A   1      43.150  28.982  34.107  1.00  0.00     0.037 A 
BRANCH  52  66
ATOM     66  C   UNL A   1      39.664  33.394  36.665  1.00  0.00     0.064 A 
ATOM     67  C   UNL A   1      38.774  32.999  37.677  1.00  0.00     0.173 A 
ATOM     68  C   UNL A   1      40.327  34.621  36.819  1.00  0.00     0.173 A 
ATOM     69  F   UNL A   1      38.105  31.841  37.572  1.00  0.00    -0.203 F 
ATOM     70  C   UNL A   1      38.540  33.810  38.784  1.00  0.00     0.198 A 
ATOM     71  C   UNL A   1      40.113  35.416  37.942  1.00  0.00     0.198 A 
ATOM     72  F   UNL A   1      41.192  35.044  35.885  1.00  0.00    -0.203 F 
ATOM     73  F   UNL A   1      37.652  33.432  39.713  1.00  0.00    -0.200 F 
ATOM     74  C   UNL A   1      39.216  35.013  38.919  1.00  0.00     0.200 A 
ATOM     75  F   UNL A   1      40.776  36.573  38.079  1.00  0.00    -0.200 F 
ATOM     76  F   UNL A   1      38.996  35.788  39.990  1.00  0.00    -0.200 F 
ENDBRANCH  52  66
BRANCH  53  77
ATOM     77  C   UNL A   1      41.166  27.812  28.509  1.00  0.00     0.064 A 
ATOM     78  C   UNL A   1      42.019  28.261  27.490  1.00  0.00     0.173 A 
ATOM     79  C   UNL A   1      40.539  26.570  28.334  1.00  0.00     0.173 A 
ATOM     80  F   UNL A   1      42.626  29.452  27.603  1.00  0.00    -0.203 F 
ATOM     81  C   UNL A   1      42.213  27.514  26.331  1.00  0.00     0.198 A 
ATOM     82  C   UNL A   1      40.756  25.810  27.187  1.00  0.00     0.198 A 
ATOM     83  F   UNL A   1      39.718  26.092  29.280  1.00  0.00    -0.203 F 
ATOM     84  F   UNL A   1      42.989  27.994  25.350  1.00  0.00    -0.200 F 
ATOM     85  C   UNL A   1      41.585  26.287  26.181  1.00  0.00     0.200 A 
ATOM     86  F   UNL A   1      40.158  24.618  27.051  1.00  0.00    -0.200 F 
ATOM     87  F   UNL A   1      41.768  25.570  25.065  1.00  0.00    -0.200 F 
ENDBRANCH  53  77
BRANCH  65  88
ATOM     88  C   UNL A   1      44.300  28.231  34.712  1.00  0.00     0.064 A 
ATOM     89  C   UNL A   1      45.616  28.709  34.635  1.00  0.00     0.173 A 
ATOM     90  C   UNL A   1      44.074  27.036  35.411  1.00  0.00     0.173 A 
ATOM     91  F   UNL A   1      45.885  29.839  33.964  1.00  0.00    -0.203 F 
ATOM     92  C   UNL A   1      46.667  28.003  35.214  1.00  0.00     0.198 A 
ATOM     93  C   UNL A   1      45.123  26.349  36.015  1.00  0.00     0.198 A 
ATOM     94  F   UNL A   1      42.832  26.539  35.519  1.00  0.00    -0.203 F 
ATOM     95  F   UNL A   1      47.923  28.453  35.087  1.00  0.00    -0.200 F 
ATOM     96  C   UNL A   1      46.419  26.830  35.910  1.00  0.00     0.200 A 
ATOM     97  F   UNL A   1      44.880  25.222  36.699  1.00  0.00    -0.200 F 
ATOM     98  F   UNL A   1      47.432  26.156  36.472  1.00  0.00    -0.200 F 
ENDBRANCH  65  88
ENDBRANCH  39  40
ENDBRANCH  31  34
ENDBRANCH  29  30
ENDBRANCH  28  29
ENDBRANCH  27  28
ENDBRANCH  26  27
ENDBRANCH   1  26
TORSDOF 18
ENDMDL
