MODEL 1
REMARK VINA RESULT:     -11.1      0.000      0.000
REMARK SMILES CCC1(CC)CCN(c2nc(C(C)C)c(C(=O)NCCCCCCNC(=O)c3ccc(-c4c5nc(c(-c6c(F)c(F)c(F)c(F)c6F)c6ccc([nH]6)c(-c6c(F)c(F)c(F)c(F)c6F)c6nc(c(-c7c(F)c(F)c(F)c(F)c7F)c7ccc4[nH]7)C=C6)C=C5)cc3)s2)C1
REMARK SMILES IDX 21 1 20 2 19 3 18 4 16 5 17 6 15 8 9 9 10 10 91 11 11 12
REMARK SMILES IDX 8 13 3 14 6 15 92 16 7 17 2 18 1 19 4 20 5 21 12 22 13 23
REMARK SMILES IDX 14 24 22 25 23 26 24 27 25 28 26 29 27 31 28 32 29 33 90 34
REMARK SMILES IDX 30 35 89 36 31 37 32 38 33 39 83 40 34 41 88 42 82 43 84 44
REMARK SMILES IDX 35 45 87 46 81 47 80 48 36 50 68 51 48 52 67 53 49 54 52 55
REMARK SMILES IDX 66 56 85 57 50 58 51 59 65 61 86 62 53 63 37 64 38 65 46 66
REMARK SMILES IDX 39 67 40 68 44 69 47 70 41 71 42 72 45 73 43 74 69 75 70 76
REMARK SMILES IDX 78 77 71 78 72 79 76 80 79 81 73 82 74 83 77 84 75 85 54 86
REMARK SMILES IDX 55 87 63 88 56 89 57 90 61 91 64 92 58 93 59 94 62 95 60 96
REMARK H PARENT 18 7 25 30 84 49 52 60
REMARK Flexibility Score: inf
ROOT
ATOM      1  C   UNL A   1      35.086  30.327  27.448  1.00  0.00     0.002 C 
ENDROOT
BRANCH   1   2
ATOM      2  C   UNL A   1      34.587  29.037  26.795  1.00  0.00     0.021 C 
BRANCH   2   3
ATOM      3  C   UNL A   1      33.350  29.217  25.911  1.00  0.00     0.116 C 
BRANCH   3   4
ATOM      4  N   UNL A   1      32.211  28.509  26.430  1.00  0.00    -0.351 N 
ATOM      5  C   UNL A   1      31.666  27.258  26.323  1.00  0.00     0.263 C 
ATOM      6  O   UNL A   1      30.692  27.155  27.086  1.00  0.00    -0.268 OA
ATOM      7  H   UNL A   1      31.675  29.081  27.025  1.00  0.00     0.163 HD
BRANCH   5   8
ATOM      8  C   UNL A   1      32.103  26.142  25.478  1.00  0.00     0.117 A 
ATOM      9  C   UNL A   1      32.704  23.769  24.996  1.00  0.00     0.186 A 
ATOM     10  N   UNL A   1      32.831  24.521  23.938  1.00  0.00    -0.224 NA
ATOM     11  S   UNL A   1      32.239  24.632  26.386  1.00  0.00    -0.091 S 
ATOM     12  C   UNL A   1      32.411  25.833  24.149  1.00  0.00     0.069 A 
BRANCH   9  13
ATOM     13  N   UNL A   1      32.900  22.425  24.979  1.00  0.00    -0.347 N 
ATOM     14  C   UNL A   1      34.499  20.623  25.004  1.00  0.00    -0.011 C 
ATOM     15  C   UNL A   1      34.035  20.984  26.428  1.00  0.00     0.030 C 
ATOM     16  C   UNL A   1      34.031  21.887  24.211  1.00  0.00     0.126 C 
ATOM     17  C   UNL A   1      32.694  21.662  26.205  1.00  0.00     0.119 C 
BRANCH  14  18
ATOM     18  C   UNL A   1      33.774  19.382  24.404  1.00  0.00     0.005 C 
ATOM     19  C   UNL A   1      34.535  18.063  24.383  1.00  0.00     0.004 C 
ENDBRANCH  14  18
BRANCH  14  20
ATOM     20  C   UNL A   1      36.043  20.521  24.922  1.00  0.00     0.005 C 
ATOM     21  C   UNL A   1      36.808  21.833  24.840  1.00  0.00     0.004 C 
ENDBRANCH  14  20
ENDBRANCH   9  13
BRANCH  12  22
ATOM     22  C   UNL A   1      32.361  26.578  22.842  1.00  0.00     0.034 C 
ATOM     23  C   UNL A   1      31.000  27.221  22.574  1.00  0.00     0.014 C 
ATOM     24  C   UNL A   1      33.611  27.417  22.573  1.00  0.00     0.014 C 
ENDBRANCH  12  22
ENDBRANCH   5   8
ENDBRANCH   3   4
ENDBRANCH   2   3
ENDBRANCH   1   2
BRANCH   1  25
ATOM     25  C   UNL A   1      34.004  31.226  28.057  1.00  0.00     0.002 C 
BRANCH  25  26
ATOM     26  C   UNL A   1      33.760  32.562  27.349  1.00  0.00     0.021 C 
BRANCH  26  27
ATOM     27  C   UNL A   1      32.377  33.177  27.555  1.00  0.00     0.116 C 
BRANCH  27  28
ATOM     28  N   UNL A   1      32.440  34.593  27.876  1.00  0.00    -0.352 N 
ATOM     29  C   UNL A   1      33.216  35.271  28.776  1.00  0.00     0.251 C 
ATOM     30  H   UNL A   1      31.822  35.158  27.360  1.00  0.00     0.163 HD
ATOM     31  O   UNL A   1      32.980  36.461  29.001  1.00  0.00    -0.269 OA
BRANCH  29  32
ATOM     32  C   UNL A   1      34.326  34.608  29.494  1.00  0.00     0.039 A 
ATOM     33  C   UNL A   1      35.607  34.662  28.934  1.00  0.00     0.014 A 
ATOM     34  C   UNL A   1      34.109  33.877  30.665  1.00  0.00     0.014 A 
ATOM     35  C   UNL A   1      36.674  34.018  29.565  1.00  0.00     0.010 A 
ATOM     36  C   UNL A   1      35.187  33.289  31.329  1.00  0.00     0.010 A 
ATOM     37  C   UNL A   1      36.476  33.341  30.777  1.00  0.00    -0.014 A 
BRANCH  37  38
ATOM     38  C   UNL A   1      37.602  32.663  31.466  1.00  0.00     0.031 A 
ATOM     39  C   UNL A   1      38.299  31.501  30.816  1.00  0.00     0.074 A 
ATOM     40  C   UNL A   1      37.960  33.055  32.702  1.00  0.00     0.049 A 
ATOM     41  N   UNL A   1      39.267  30.750  31.278  1.00  0.00    -0.248 NA
ATOM     42  C   UNL A   1      37.823  31.113  29.479  1.00  0.00     0.031 C 
ATOM     43  C   UNL A   1      37.324  34.132  33.463  1.00  0.00     0.029 A 
ATOM     44  N   UNL A   1      38.936  32.582  33.544  1.00  0.00    -0.354 N 
ATOM     45  C   UNL A   1      39.498  29.788  30.303  1.00  0.00     0.074 A 
ATOM     46  C   UNL A   1      38.541  30.024  29.243  1.00  0.00     0.031 C 
ATOM     47  C   UNL A   1      37.933  34.245  34.653  1.00  0.00     0.029 A 
ATOM     48  C   UNL A   1      38.984  33.236  34.750  1.00  0.00     0.049 A 
ATOM     49  H   UNL A   1      39.543  31.846  33.305  1.00  0.00     0.167 HD
ATOM     50  C   UNL A   1      40.436  28.810  30.284  1.00  0.00     0.037 A 
ATOM     51  C   UNL A   1      39.783  33.040  35.815  1.00  0.00     0.037 A 
ATOM     52  C   UNL A   1      41.410  28.603  31.324  1.00  0.00     0.049 A 
ATOM     53  C   UNL A   1      40.844  31.977  35.757  1.00  0.00     0.074 A 
ATOM     54  C   UNL A   1      42.454  27.695  31.359  1.00  0.00     0.029 A 
ATOM     55  N   UNL A   1      41.457  29.314  32.513  1.00  0.00    -0.354 N 
ATOM     56  N   UNL A   1      41.108  31.125  34.796  1.00  0.00    -0.248 NA
ATOM     57  C   UNL A   1      41.728  31.857  36.924  1.00  0.00     0.031 C 
ATOM     58  C   UNL A   1      43.108  27.830  32.589  1.00  0.00     0.029 A 
ATOM     59  C   UNL A   1      42.499  28.852  33.301  1.00  0.00     0.049 A 
ATOM     60  H   UNL A   1      40.840  30.040  32.762  1.00  0.00     0.167 HD
ATOM     61  C   UNL A   1      42.196  30.383  35.230  1.00  0.00     0.074 A 
ATOM     62  C   UNL A   1      42.554  30.896  36.537  1.00  0.00     0.031 C 
ATOM     63  C   UNL A   1      42.842  29.370  34.601  1.00  0.00     0.037 A 
BRANCH  50  64
ATOM     64  C   UNL A   1      40.445  27.887  29.101  1.00  0.00     0.064 A 
ATOM     65  C   UNL A   1      41.255  28.131  27.980  1.00  0.00     0.173 A 
ATOM     66  C   UNL A   1      39.641  26.737  29.091  1.00  0.00     0.173 A 
ATOM     67  F   UNL A   1      42.033  29.221  27.935  1.00  0.00    -0.203 F 
ATOM     68  C   UNL A   1      41.230  27.279  26.879  1.00  0.00     0.198 A 
ATOM     69  C   UNL A   1      39.642  25.871  28.000  1.00  0.00     0.198 A 
ATOM     70  F   UNL A   1      38.853  26.453  30.138  1.00  0.00    -0.203 F 
ATOM     71  F   UNL A   1      41.967  27.564  25.796  1.00  0.00    -0.200 F 
ATOM     72  C   UNL A   1      40.427  26.149  26.891  1.00  0.00     0.200 A 
ATOM     73  F   UNL A   1      38.874  24.773  28.018  1.00  0.00    -0.200 F 
ATOM     74  F   UNL A   1      40.402  25.330  25.829  1.00  0.00    -0.200 F 
ENDBRANCH  50  64
BRANCH  51  75
ATOM     75  C   UNL A   1      39.626  33.904  37.012  1.00  0.00     0.064 A 
ATOM     76  C   UNL A   1      40.248  35.158  37.081  1.00  0.00     0.173 A 
ATOM     77  C   UNL A   1      38.826  33.509  38.095  1.00  0.00     0.173 A 
ATOM     78  F   UNL A   1      41.036  35.569  36.076  1.00  0.00    -0.203 F 
ATOM     79  C   UNL A   1      40.081  35.983  38.190  1.00  0.00     0.198 A 
ATOM     80  C   UNL A   1      38.643  34.345  39.194  1.00  0.00     0.198 A 
ATOM     81  F   UNL A   1      38.206  32.321  38.072  1.00  0.00    -0.203 F 
ATOM     82  F   UNL A   1      40.708  37.166  38.242  1.00  0.00    -0.200 F 
ATOM     83  C   UNL A   1      39.272  35.579  39.242  1.00  0.00     0.200 A 
ATOM     84  F   UNL A   1      37.849  33.958  40.201  1.00  0.00    -0.200 F 
ATOM     85  F   UNL A   1      39.103  36.379  40.304  1.00  0.00    -0.200 F 
ENDBRANCH  51  75
BRANCH  63  86
ATOM     86  C   UNL A   1      44.016  28.761  35.310  1.00  0.00     0.064 A 
ATOM     87  C   UNL A   1      43.863  27.675  36.185  1.00  0.00     0.173 A 
ATOM     88  C   UNL A   1      45.312  29.245  35.082  1.00  0.00     0.173 A 
ATOM     89  F   UNL A   1      42.640  27.187  36.447  1.00  0.00    -0.203 F 
ATOM     90  C   UNL A   1      44.964  27.111  36.824  1.00  0.00     0.198 A 
ATOM     91  C   UNL A   1      46.414  28.662  35.702  1.00  0.00     0.198 A 
ATOM     92  F   UNL A   1      45.512  30.278  34.250  1.00  0.00    -0.203 F 
ATOM     93  F   UNL A   1      44.790  26.103  37.690  1.00  0.00    -0.200 F 
ATOM     94  C   UNL A   1      46.238  27.600  36.577  1.00  0.00     0.200 A 
ATOM     95  F   UNL A   1      47.646  29.128  35.455  1.00  0.00    -0.200 F 
ATOM     96  F   UNL A   1      47.297  27.052  37.189  1.00  0.00    -0.200 F 
ENDBRANCH  63  86
ENDBRANCH  37  38
ENDBRANCH  29  32
ENDBRANCH  27  28
ENDBRANCH  26  27
ENDBRANCH  25  26
ENDBRANCH   1  25
TORSDOF 17
ENDMDL
MODEL 2
REMARK VINA RESULT:     -10.7      4.370     10.764
REMARK SMILES CCC1(CC)CCN(c2nc(C(C)C)c(C(=O)NCCCCCCNC(=O)c3ccc(-c4c5nc(c(-c6c(F)c(F)c(F)c(F)c6F)c6ccc([nH]6)c(-c6c(F)c(F)c(F)c(F)c6F)c6nc(c(-c7c(F)c(F)c(F)c(F)c7F)c7ccc4[nH]7)C=C6)C=C5)cc3)s2)C1
REMARK SMILES IDX 21 1 20 2 19 3 18 4 16 5 17 6 15 8 9 9 10 10 91 11 11 12
REMARK SMILES IDX 8 13 3 14 6 15 92 16 7 17 2 18 1 19 4 20 5 21 12 22 13 23
REMARK SMILES IDX 14 24 22 25 23 26 24 27 25 28 26 29 27 31 28 32 29 33 90 34
REMARK SMILES IDX 30 35 89 36 31 37 32 38 33 39 83 40 34 41 88 42 82 43 84 44
REMARK SMILES IDX 35 45 87 46 81 47 80 48 36 50 68 51 48 52 67 53 49 54 52 55
REMARK SMILES IDX 66 56 85 57 50 58 51 59 65 61 86 62 53 63 37 64 38 65 46 66
REMARK SMILES IDX 39 67 40 68 44 69 47 70 41 71 42 72 45 73 43 74 69 75 70 76
REMARK SMILES IDX 78 77 71 78 72 79 76 80 79 81 73 82 74 83 77 84 75 85 54 86
REMARK SMILES IDX 55 87 63 88 56 89 57 90 61 91 64 92 58 93 59 94 62 95 60 96
REMARK H PARENT 18 7 25 30 84 49 52 60
REMARK Flexibility Score: inf
ROOT
ATOM      1  C   UNL A   1      37.803  33.690  29.451  1.00  0.00     0.002 C 
ENDROOT
BRANCH   1   2
ATOM      2  C   UNL A   1      38.201  33.684  30.928  1.00  0.00     0.021 C 
BRANCH   2   3
ATOM      3  C   UNL A   1      37.023  33.535  31.895  1.00  0.00     0.116 C 
BRANCH   3   4
ATOM      4  N   UNL A   1      36.625  32.162  32.049  1.00  0.00    -0.351 N 
ATOM      5  C   UNL A   1      37.116  31.028  32.638  1.00  0.00     0.263 C 
ATOM      6  O   UNL A   1      36.288  30.108  32.538  1.00  0.00    -0.268 OA
ATOM      7  H   UNL A   1      35.761  31.989  31.610  1.00  0.00     0.163 HD
BRANCH   5   8
ATOM      8  C   UNL A   1      38.403  30.837  33.315  1.00  0.00     0.117 A 
ATOM      9  C   UNL A   1      40.541  29.654  33.817  1.00  0.00     0.186 A 
ATOM     10  N   UNL A   1      40.409  30.733  34.537  1.00  0.00    -0.224 NA
ATOM     11  S   UNL A   1      39.203  29.342  32.814  1.00  0.00    -0.091 S 
ATOM     12  C   UNL A   1      39.270  31.468  34.212  1.00  0.00     0.069 A 
BRANCH   9  13
ATOM     13  N   UNL A   1      41.651  28.872  33.848  1.00  0.00    -0.347 N 
ATOM     14  C   UNL A   1      43.263  27.718  35.217  1.00  0.00    -0.011 C 
ATOM     15  C   UNL A   1      42.086  26.799  34.838  1.00  0.00     0.030 C 
ATOM     16  C   UNL A   1      42.661  29.123  34.885  1.00  0.00     0.126 C 
ATOM     17  C   UNL A   1      41.521  27.444  33.583  1.00  0.00     0.119 C 
BRANCH  14  18
ATOM     18  C   UNL A   1      44.528  27.514  34.332  1.00  0.00     0.005 C 
ATOM     19  C   UNL A   1      45.869  27.951  34.907  1.00  0.00     0.004 C 
ENDBRANCH  14  18
BRANCH  14  20
ATOM     20  C   UNL A   1      43.568  27.647  36.735  1.00  0.00     0.005 C 
ATOM     21  C   UNL A   1      43.479  26.274  37.383  1.00  0.00     0.004 C 
ENDBRANCH  14  20
ENDBRANCH   9  13
BRANCH  12  22
ATOM     22  C   UNL A   1      39.301  32.804  34.904  1.00  0.00     0.034 C 
ATOM     23  C   UNL A   1      40.004  33.885  34.083  1.00  0.00     0.014 C 
ATOM     24  C   UNL A   1      37.977  33.169  35.579  1.00  0.00     0.014 C 
ENDBRANCH  12  22
ENDBRANCH   5   8
ENDBRANCH   3   4
ENDBRANCH   2   3
ENDBRANCH   1   2
BRANCH   1  25
ATOM     25  C   UNL A   1      36.396  34.215  29.143  1.00  0.00     0.002 C 
BRANCH  25  26
ATOM     26  C   UNL A   1      35.500  33.294  28.311  1.00  0.00     0.021 C 
BRANCH  26  27
ATOM     27  C   UNL A   1      34.579  32.371  29.107  1.00  0.00     0.116 C 
BRANCH  27  28
ATOM     28  N   UNL A   1      34.011  31.312  28.291  1.00  0.00    -0.352 N 
ATOM     29  C   UNL A   1      34.598  30.222  27.707  1.00  0.00     0.251 C 
ATOM     30  H   UNL A   1      33.044  31.390  28.132  1.00  0.00     0.163 HD
ATOM     31  O   UNL A   1      33.947  29.540  26.911  1.00  0.00    -0.269 OA
BRANCH  29  32
ATOM     32  C   UNL A   1      35.999  29.850  27.999  1.00  0.00     0.039 A 
ATOM     33  C   UNL A   1      36.295  29.308  29.255  1.00  0.00     0.014 A 
ATOM     34  C   UNL A   1      37.029  30.093  27.087  1.00  0.00     0.014 A 
ATOM     35  C   UNL A   1      37.612  28.975  29.581  1.00  0.00     0.010 A 
ATOM     36  C   UNL A   1      38.334  29.701  27.388  1.00  0.00     0.010 A 
ATOM     37  C   UNL A   1      38.640  29.153  28.643  1.00  0.00    -0.014 A 
BRANCH  37  38
ATOM     38  C   UNL A   1      40.042  28.793  28.970  1.00  0.00     0.031 A 
ATOM     39  C   UNL A   1      40.922  29.763  29.708  1.00  0.00     0.074 A 
ATOM     40  C   UNL A   1      40.542  27.616  28.552  1.00  0.00     0.049 A 
ATOM     41  N   UNL A   1      42.184  29.652  30.039  1.00  0.00    -0.248 NA
ATOM     42  C   UNL A   1      40.308  31.042  30.097  1.00  0.00     0.031 C 
ATOM     43  C   UNL A   1      39.807  26.614  27.780  1.00  0.00     0.029 A 
ATOM     44  N   UNL A   1      41.793  27.069  28.705  1.00  0.00    -0.354 N 
ATOM     45  C   UNL A   1      42.520  30.852  30.653  1.00  0.00     0.074 A 
ATOM     46  C   UNL A   1      41.343  31.692  30.608  1.00  0.00     0.031 C 
ATOM     47  C   UNL A   1      40.615  25.570  27.536  1.00  0.00     0.029 A 
ATOM     48  C   UNL A   1      41.930  25.839  28.112  1.00  0.00     0.049 A 
ATOM     49  H   UNL A   1      42.520  27.517  29.194  1.00  0.00     0.167 HD
ATOM     50  C   UNL A   1      43.698  31.212  31.219  1.00  0.00     0.037 A 
ATOM     51  C   UNL A   1      42.997  25.022  28.039  1.00  0.00     0.037 A 
ATOM     52  C   UNL A   1      44.854  30.358  31.293  1.00  0.00     0.049 A 
ATOM     53  C   UNL A   1      44.281  25.423  28.709  1.00  0.00     0.074 A 
ATOM     54  C   UNL A   1      46.065  30.597  31.920  1.00  0.00     0.029 A 
ATOM     55  N   UNL A   1      44.943  29.098  30.719  1.00  0.00    -0.354 N 
ATOM     56  N   UNL A   1      44.565  26.527  29.357  1.00  0.00    -0.248 NA
ATOM     57  C   UNL A   1      45.389  24.460  28.651  1.00  0.00     0.031 C 
ATOM     58  C   UNL A   1      46.901  29.498  31.690  1.00  0.00     0.029 A 
ATOM     59  C   UNL A   1      46.196  28.556  30.958  1.00  0.00     0.049 A 
ATOM     60  H   UNL A   1      44.222  28.655  30.216  1.00  0.00     0.167 HD
ATOM     61  C   UNL A   1      45.871  26.385  29.801  1.00  0.00     0.074 A 
ATOM     62  C   UNL A   1      46.321  25.080  29.360  1.00  0.00     0.031 C 
ATOM     63  C   UNL A   1      46.630  27.257  30.511  1.00  0.00     0.037 A 
BRANCH  50  64
ATOM     64  C   UNL A   1      43.791  32.595  31.795  1.00  0.00     0.064 A 
ATOM     65  C   UNL A   1      44.100  33.708  30.997  1.00  0.00     0.173 A 
ATOM     66  C   UNL A   1      43.559  32.812  33.161  1.00  0.00     0.173 A 
ATOM     67  F   UNL A   1      44.342  33.553  29.688  1.00  0.00    -0.203 F 
ATOM     68  C   UNL A   1      44.211  34.980  31.553  1.00  0.00     0.198 A 
ATOM     69  C   UNL A   1      43.641  34.090  33.708  1.00  0.00     0.198 A 
ATOM     70  F   UNL A   1      43.254  31.785  33.968  1.00  0.00    -0.203 F 
ATOM     71  F   UNL A   1      44.565  36.017  30.783  1.00  0.00    -0.200 F 
ATOM     72  C   UNL A   1      43.978  35.170  32.907  1.00  0.00     0.200 A 
ATOM     73  F   UNL A   1      43.405  34.275  35.015  1.00  0.00    -0.200 F 
ATOM     74  F   UNL A   1      44.088  36.395  33.441  1.00  0.00    -0.200 F 
ENDBRANCH  50  64
BRANCH  51  75
ATOM     75  C   UNL A   1      42.873  23.724  27.330  1.00  0.00     0.064 A 
ATOM     76  C   UNL A   1      43.324  23.578  26.011  1.00  0.00     0.173 A 
ATOM     77  C   UNL A   1      42.334  22.596  27.966  1.00  0.00     0.173 A 
ATOM     78  F   UNL A   1      43.831  24.635  25.358  1.00  0.00    -0.203 F 
ATOM     79  C   UNL A   1      43.235  22.355  25.352  1.00  0.00     0.198 A 
ATOM     80  C   UNL A   1      42.265  21.368  27.313  1.00  0.00     0.198 A 
ATOM     81  F   UNL A   1      41.895  22.685  29.230  1.00  0.00    -0.203 F 
ATOM     82  F   UNL A   1      43.649  22.250  24.082  1.00  0.00    -0.200 F 
ATOM     83  C   UNL A   1      42.712  21.249  26.006  1.00  0.00     0.200 A 
ATOM     84  F   UNL A   1      41.774  20.298  27.953  1.00  0.00    -0.200 F 
ATOM     85  F   UNL A   1      42.638  20.069  25.375  1.00  0.00    -0.200 F 
ENDBRANCH  51  75
BRANCH  63  86
ATOM     86  C   UNL A   1      48.019  26.819  30.875  1.00  0.00     0.064 A 
ATOM     87  C   UNL A   1      49.134  27.215  30.120  1.00  0.00     0.173 A 
ATOM     88  C   UNL A   1      48.239  26.027  32.010  1.00  0.00     0.173 A 
ATOM     89  F   UNL A   1      48.971  27.960  29.017  1.00  0.00    -0.203 F 
ATOM     90  C   UNL A   1      50.418  26.813  30.479  1.00  0.00     0.198 A 
ATOM     91  C   UNL A   1      49.526  25.649  32.381  1.00  0.00     0.198 A 
ATOM     92  F   UNL A   1      47.206  25.627  32.767  1.00  0.00    -0.203 F 
ATOM     93  F   UNL A   1      51.464  27.166  29.720  1.00  0.00    -0.200 F 
ATOM     94  C   UNL A   1      50.613  26.037  31.611  1.00  0.00     0.200 A 
ATOM     95  F   UNL A   1      49.716  24.908  33.481  1.00  0.00    -0.200 F 
ATOM     96  F   UNL A   1      51.851  25.656  31.958  1.00  0.00    -0.200 F 
ENDBRANCH  63  86
ENDBRANCH  37  38
ENDBRANCH  29  32
ENDBRANCH  27  28
ENDBRANCH  26  27
ENDBRANCH  25  26
ENDBRANCH   1  25
TORSDOF 17
ENDMDL
MODEL 3
REMARK VINA RESULT:     -10.6      0.793      2.257
REMARK SMILES CCC1(CC)CCN(c2nc(C(C)C)c(C(=O)NCCCCCCNC(=O)c3ccc(-c4c5nc(c(-c6c(F)c(F)c(F)c(F)c6F)c6ccc([nH]6)c(-c6c(F)c(F)c(F)c(F)c6F)c6nc(c(-c7c(F)c(F)c(F)c(F)c7F)c7ccc4[nH]7)C=C6)C=C5)cc3)s2)C1
REMARK SMILES IDX 21 1 20 2 19 3 18 4 16 5 17 6 15 8 9 9 10 10 91 11 11 12
REMARK SMILES IDX 8 13 3 14 6 15 92 16 7 17 2 18 1 19 4 20 5 21 12 22 13 23
REMARK SMILES IDX 14 24 22 25 23 26 24 27 25 28 26 29 27 31 28 32 29 33 90 34
REMARK SMILES IDX 30 35 89 36 31 37 32 38 33 39 83 40 34 41 88 42 82 43 84 44
REMARK SMILES IDX 35 45 87 46 81 47 80 48 36 50 68 51 48 52 67 53 49 54 52 55
REMARK SMILES IDX 66 56 85 57 50 58 51 59 65 61 86 62 53 63 37 64 38 65 46 66
REMARK SMILES IDX 39 67 40 68 44 69 47 70 41 71 42 72 45 73 43 74 69 75 70 76
REMARK SMILES IDX 78 77 71 78 72 79 76 80 79 81 73 82 74 83 77 84 75 85 54 86
REMARK SMILES IDX 55 87 63 88 56 89 57 90 61 91 64 92 58 93 59 94 62 95 60 96
REMARK H PARENT 18 7 25 30 84 49 52 60
REMARK Flexibility Score: inf
ROOT
ATOM      1  C   UNL A   1      34.540  30.386  27.609  1.00  0.00     0.002 C 
ENDROOT
BRANCH   1   2
ATOM      2  C   UNL A   1      33.648  29.935  26.451  1.00  0.00     0.021 C 
BRANCH   2   3
ATOM      3  C   UNL A   1      32.149  30.107  26.708  1.00  0.00     0.116 C 
BRANCH   3   4
ATOM      4  N   UNL A   1      31.497  28.847  26.947  1.00  0.00    -0.351 N 
ATOM      5  C   UNL A   1      31.626  27.549  26.532  1.00  0.00     0.263 C 
ATOM      6  O   UNL A   1      30.825  26.827  27.148  1.00  0.00    -0.268 OA
ATOM      7  H   UNL A   1      30.753  28.944  27.584  1.00  0.00     0.163 HD
BRANCH   5   8
ATOM      8  C   UNL A   1      32.546  26.999  25.531  1.00  0.00     0.117 A 
ATOM      9  C   UNL A   1      34.147  25.322  24.610  1.00  0.00     0.186 A 
ATOM     10  N   UNL A   1      33.982  26.326  23.795  1.00  0.00    -0.224 NA
ATOM     11  S   UNL A   1      33.287  25.486  26.068  1.00  0.00    -0.091 S 
ATOM     12  C   UNL A   1      33.020  27.234  24.237  1.00  0.00     0.069 A 
BRANCH   9  13
ATOM     13  N   UNL A   1      34.912  24.241  24.309  1.00  0.00    -0.347 N 
ATOM     14  C   UNL A   1      35.411  21.932  24.784  1.00  0.00    -0.011 C 
ATOM     15  C   UNL A   1      34.370  22.063  23.656  1.00  0.00     0.030 C 
ATOM     16  C   UNL A   1      35.360  23.367  25.402  1.00  0.00     0.126 C 
ATOM     17  C   UNL A   1      34.605  23.464  23.115  1.00  0.00     0.119 C 
BRANCH  14  18
ATOM     18  C   UNL A   1      36.860  21.680  24.272  1.00  0.00     0.005 C 
ATOM     19  C   UNL A   1      37.603  20.470  24.824  1.00  0.00     0.004 C 
ENDBRANCH  14  18
BRANCH  14  20
ATOM     20  C   UNL A   1      34.959  20.906  25.853  1.00  0.00     0.005 C 
ATOM     21  C   UNL A   1      33.710  21.256  26.647  1.00  0.00     0.004 C 
ENDBRANCH  14  20
ENDBRANCH   9  13
BRANCH  12  22
ATOM     22  C   UNL A   1      32.710  28.229  23.152  1.00  0.00     0.034 C 
ATOM     23  C   UNL A   1      33.925  28.572  22.292  1.00  0.00     0.014 C 
ATOM     24  C   UNL A   1      31.385  27.956  22.438  1.00  0.00     0.014 C 
ENDBRANCH  12  22
ENDBRANCH   5   8
ENDBRANCH   3   4
ENDBRANCH   2   3
ENDBRANCH   1   2
BRANCH   1  25
ATOM     25  C   UNL A   1      34.089  31.656  28.340  1.00  0.00     0.002 C 
BRANCH  25  26
ATOM     26  C   UNL A   1      33.745  32.857  27.455  1.00  0.00     0.021 C 
BRANCH  26  27
ATOM     27  C   UNL A   1      32.392  33.513  27.726  1.00  0.00     0.116 C 
BRANCH  27  28
ATOM     28  N   UNL A   1      32.512  34.927  28.039  1.00  0.00    -0.352 N 
ATOM     29  C   UNL A   1      33.320  35.580  28.929  1.00  0.00     0.251 C 
ATOM     30  H   UNL A   1      31.912  35.513  27.524  1.00  0.00     0.163 HD
ATOM     31  O   UNL A   1      33.133  36.779  29.148  1.00  0.00    -0.269 OA
BRANCH  29  32
ATOM     32  C   UNL A   1      34.409  34.878  29.642  1.00  0.00     0.039 A 
ATOM     33  C   UNL A   1      35.685  34.872  29.068  1.00  0.00     0.014 A 
ATOM     34  C   UNL A   1      34.176  34.169  30.823  1.00  0.00     0.014 A 
ATOM     35  C   UNL A   1      36.732  34.191  29.694  1.00  0.00     0.010 A 
ATOM     36  C   UNL A   1      35.235  33.544  31.482  1.00  0.00     0.010 A 
ATOM     37  C   UNL A   1      36.519  33.536  30.916  1.00  0.00    -0.014 A 
BRANCH  37  38
ATOM     38  C   UNL A   1      37.623  32.818  31.600  1.00  0.00     0.031 A 
ATOM     39  C   UNL A   1      38.275  31.631  30.948  1.00  0.00     0.074 A 
ATOM     40  C   UNL A   1      38.001  33.199  32.834  1.00  0.00     0.049 A 
ATOM     41  N   UNL A   1      39.217  30.846  31.407  1.00  0.00    -0.248 NA
ATOM     42  C   UNL A   1      37.778  31.258  29.615  1.00  0.00     0.031 C 
ATOM     43  C   UNL A   1      37.409  34.299  33.596  1.00  0.00     0.029 A 
ATOM     44  N   UNL A   1      38.964  32.692  33.672  1.00  0.00    -0.354 N 
ATOM     45  C   UNL A   1      39.408  29.876  30.432  1.00  0.00     0.074 A 
ATOM     46  C   UNL A   1      38.455  30.144  29.377  1.00  0.00     0.031 C 
ATOM     47  C   UNL A   1      38.028  34.392  34.783  1.00  0.00     0.029 A 
ATOM     48  C   UNL A   1      39.042  33.346  34.877  1.00  0.00     0.049 A 
ATOM     49  H   UNL A   1      39.543  31.934  33.431  1.00  0.00     0.167 HD
ATOM     50  C   UNL A   1      40.310  28.864  30.410  1.00  0.00     0.037 A 
ATOM     51  C   UNL A   1      39.839  33.123  35.938  1.00  0.00     0.037 A 
ATOM     52  C   UNL A   1      41.281  28.623  31.445  1.00  0.00     0.049 A 
ATOM     53  C   UNL A   1      40.861  32.022  35.876  1.00  0.00     0.074 A 
ATOM     54  C   UNL A   1      42.292  27.679  31.477  1.00  0.00     0.029 A 
ATOM     55  N   UNL A   1      41.360  29.334  32.634  1.00  0.00    -0.354 N 
ATOM     56  N   UNL A   1      41.088  31.160  34.915  1.00  0.00    -0.248 NA
ATOM     57  C   UNL A   1      41.746  31.872  37.039  1.00  0.00     0.031 C 
ATOM     58  C   UNL A   1      42.957  27.792  32.704  1.00  0.00     0.029 A 
ATOM     59  C   UNL A   1      42.389  28.835  33.417  1.00  0.00     0.049 A 
ATOM     60  H   UNL A   1      40.771  30.082  32.885  1.00  0.00     0.167 HD
ATOM     61  C   UNL A   1      42.151  30.380  35.344  1.00  0.00     0.074 A 
ATOM     62  C   UNL A   1      42.534  30.880  36.649  1.00  0.00     0.031 C 
ATOM     63  C   UNL A   1      42.757  29.342  34.714  1.00  0.00     0.037 A 
BRANCH  50  64
ATOM     64  C   UNL A   1      40.280  27.939  29.228  1.00  0.00     0.064 A 
ATOM     65  C   UNL A   1      39.525  26.755  29.238  1.00  0.00     0.173 A 
ATOM     66  C   UNL A   1      41.006  28.245  28.068  1.00  0.00     0.173 A 
ATOM     67  F   UNL A   1      38.823  26.410  30.326  1.00  0.00    -0.203 F 
ATOM     68  C   UNL A   1      39.532  25.893  28.143  1.00  0.00     0.198 A 
ATOM     69  C   UNL A   1      40.985  27.396  26.964  1.00  0.00     0.198 A 
ATOM     70  F   UNL A   1      41.737  29.367  28.003  1.00  0.00    -0.203 F 
ATOM     71  F   UNL A   1      38.852  24.739  28.198  1.00  0.00    -0.200 F 
ATOM     72  C   UNL A   1      40.257  26.216  27.007  1.00  0.00     0.200 A 
ATOM     73  F   UNL A   1      41.678  27.715  25.862  1.00  0.00    -0.200 F 
ATOM     74  F   UNL A   1      40.264  25.384  25.955  1.00  0.00    -0.200 F 
ENDBRANCH  50  64
BRANCH  51  75
ATOM     75  C   UNL A   1      39.720  33.994  37.134  1.00  0.00     0.064 A 
ATOM     76  C   UNL A   1      38.928  33.612  38.225  1.00  0.00     0.173 A 
ATOM     77  C   UNL A   1      40.420  35.206  37.224  1.00  0.00     0.173 A 
ATOM     78  F   UNL A   1      38.227  32.469  38.176  1.00  0.00    -0.203 F 
ATOM     79  C   UNL A   1      38.835  34.413  39.361  1.00  0.00     0.198 A 
ATOM     80  C   UNL A   1      40.343  35.995  38.370  1.00  0.00     0.198 A 
ATOM     81  F   UNL A   1      41.195  35.610  36.209  1.00  0.00    -0.203 F 
ATOM     82  F   UNL A   1      38.049  34.038  40.379  1.00  0.00    -0.200 F 
ATOM     83  C   UNL A   1      39.549  35.600  39.435  1.00  0.00     0.200 A 
ATOM     84  F   UNL A   1      41.046  37.133  38.444  1.00  0.00    -0.200 F 
ATOM     85  F   UNL A   1      39.468  36.364  40.533  1.00  0.00    -0.200 F 
ENDBRANCH  51  75
BRANCH  63  86
ATOM     86  C   UNL A   1      43.912  28.692  35.418  1.00  0.00     0.064 A 
ATOM     87  C   UNL A   1      45.235  29.097  35.187  1.00  0.00     0.173 A 
ATOM     88  C   UNL A   1      43.689  27.680  36.362  1.00  0.00     0.173 A 
ATOM     89  F   UNL A   1      45.499  30.052  34.282  1.00  0.00    -0.203 F 
ATOM     90  C   UNL A   1      46.295  28.495  35.860  1.00  0.00     0.198 A 
ATOM     91  C   UNL A   1      44.748  27.098  37.051  1.00  0.00     0.198 A 
ATOM     92  F   UNL A   1      42.441  27.260  36.622  1.00  0.00    -0.203 F 
ATOM     93  F   UNL A   1      47.554  28.867  35.591  1.00  0.00    -0.200 F 
ATOM     94  C   UNL A   1      46.050  27.501  36.795  1.00  0.00     0.200 A 
ATOM     95  F   UNL A   1      44.511  26.144  37.963  1.00  0.00    -0.200 F 
ATOM     96  F   UNL A   1      47.071  26.926  37.446  1.00  0.00    -0.200 F 
ENDBRANCH  63  86
ENDBRANCH  37  38
ENDBRANCH  29  32
ENDBRANCH  27  28
ENDBRANCH  26  27
ENDBRANCH  25  26
ENDBRANCH   1  25
TORSDOF 17
ENDMDL
