MODEL 1
REMARK VINA RESULT:     -12.6      0.000      0.000
REMARK SMILES Cc1cc(NC(=O)c2sccc2/C=C/C(=O)NCCCCCCNC(=O)c2ccc(-c3c4nc(c(-c5c(F)c(F)c(F)c(F)c5F)c5ccc([nH]5)c(-c5c(F)c(F)c(F)c(F)c5F)c5nc(c(-c6c(F)c(F)c(F)c(F)c6F)c6ccc3[nH]6)C=C5)C=C4)cc2)ccn1
REMARK SMILES IDX 20 1 19 2 18 3 17 4 15 5 16 6 14 8 13 9 12 10 8 11 9 12
REMARK SMILES IDX 10 13 11 14 6 15 5 16 7 18 4 19 1 20 2 21 3 22 92 23 91 24
REMARK SMILES IDX 90 25 21 26 22 27 23 28 24 29 25 30 26 32 27 33 28 34 89 35
REMARK SMILES IDX 29 36 88 37 30 38 31 39 32 40 82 41 33 42 87 43 81 44 83 45
REMARK SMILES IDX 34 46 86 47 80 48 79 49 35 51 67 52 47 53 66 54 48 55 51 56
REMARK SMILES IDX 65 57 84 58 49 59 50 60 64 62 85 63 52 64 36 65 37 66 45 67
REMARK SMILES IDX 38 68 39 69 43 70 46 71 40 72 41 73 44 74 42 75 68 76 69 77
REMARK SMILES IDX 77 78 70 79 71 80 75 81 78 82 72 83 73 84 76 85 74 86 53 87
REMARK SMILES IDX 54 88 62 89 55 90 56 91 60 92 63 93 57 94 58 95 61 96 59 97
REMARK H PARENT 17 7 5 17 24 31 83 50 51 61
REMARK Flexibility Score: inf
ROOT
ATOM      1  C   UNL A   1      30.272  27.870  23.356  1.00  0.00     0.002 C 
ENDROOT
BRANCH   1   2
ATOM      2  C   UNL A   1      30.050  26.559  24.116  1.00  0.00     0.021 C 
BRANCH   2   3
ATOM      3  C   UNL A   1      30.841  25.389  23.542  1.00  0.00     0.116 C 
BRANCH   3   4
ATOM      4  N   UNL A   1      31.532  25.768  22.327  1.00  0.00    -0.353 N 
ATOM      5  C   UNL A   1      32.801  25.512  21.914  1.00  0.00     0.243 C 
ATOM      6  O   UNL A   1      33.151  25.839  20.781  1.00  0.00    -0.270 OA
ATOM      7  H   UNL A   1      30.993  26.297  21.696  1.00  0.00     0.163 HD
BRANCH   5   8
ATOM      8  C   UNL A   1      33.744  24.760  22.768  1.00  0.00     0.072 C 
ATOM      9  C   UNL A   1      33.893  23.426  22.779  1.00  0.00     0.015 C 
BRANCH   9  10
ATOM     10  C   UNL A   1      34.847  22.746  23.604  1.00  0.00    -0.002 A 
ATOM     11  C   UNL A   1      34.517  22.036  24.749  1.00  0.00     0.099 A 
ATOM     12  S   UNL A   1      35.917  21.419  25.531  1.00  0.00    -0.138 S 
ATOM     13  C   UNL A   1      36.942  21.993  24.292  1.00  0.00     0.066 A 
ATOM     14  C   UNL A   1      36.250  22.692  23.330  1.00  0.00     0.020 A 
BRANCH  11  15
ATOM     15  C   UNL A   1      33.238  21.770  25.371  1.00  0.00     0.266 C 
ATOM     16  N   UNL A   1      32.515  20.629  25.080  1.00  0.00    -0.321 N 
ATOM     17  H   UNL A   1      31.620  20.621  25.490  1.00  0.00     0.170 HD
ATOM     18  O   UNL A   1      32.702  22.567  26.149  1.00  0.00    -0.268 OA
BRANCH  16  19
ATOM     19  C   UNL A   1      32.786  19.475  24.321  1.00  0.00     0.044 A 
ATOM     20  C   UNL A   1      34.397  16.109  24.998  1.00  0.00     0.067 C 
ATOM     21  C   UNL A   1      33.720  17.254  24.307  1.00  0.00     0.039 A 
ATOM     22  C   UNL A   1      33.524  18.470  24.955  1.00  0.00     0.049 A 
ATOM     23  N   UNL A   1      33.250  17.016  23.064  1.00  0.00    -0.261 NA
ATOM     24  C   UNL A   1      32.601  18.021  22.443  1.00  0.00     0.113 A 
ATOM     25  C   UNL A   1      32.359  19.257  23.019  1.00  0.00     0.046 A 
ENDBRANCH  16  19
ENDBRANCH  11  15
ENDBRANCH   9  10
ENDBRANCH   5   8
ENDBRANCH   3   4
ENDBRANCH   2   3
ENDBRANCH   1   2
BRANCH   1  26
ATOM     26  C   UNL A   1      30.979  28.970  24.159  1.00  0.00     0.002 C 
BRANCH  26  27
ATOM     27  C   UNL A   1      31.969  28.475  25.220  1.00  0.00     0.021 C 
BRANCH  27  28
ATOM     28  C   UNL A   1      33.167  29.389  25.452  1.00  0.00     0.116 C 
BRANCH  28  29
ATOM     29  N   UNL A   1      32.770  30.680  25.987  1.00  0.00    -0.352 N 
ATOM     30  C   UNL A   1      33.294  31.397  27.029  1.00  0.00     0.251 C 
ATOM     31  H   UNL A   1      32.006  31.103  25.531  1.00  0.00     0.163 HD
ATOM     32  O   UNL A   1      32.695  32.382  27.452  1.00  0.00    -0.269 OA
BRANCH  30  33
ATOM     33  C   UNL A   1      34.575  30.997  27.653  1.00  0.00     0.039 A 
ATOM     34  C   UNL A   1      34.719  29.677  28.090  1.00  0.00     0.014 A 
ATOM     35  C   UNL A   1      35.599  31.923  27.879  1.00  0.00     0.014 A 
ATOM     36  C   UNL A   1      35.890  29.281  28.739  1.00  0.00     0.010 A 
ATOM     37  C   UNL A   1      36.794  31.511  28.466  1.00  0.00     0.010 A 
ATOM     38  C   UNL A   1      36.939  30.195  28.928  1.00  0.00    -0.014 A 
BRANCH  38  39
ATOM     39  C   UNL A   1      38.162  29.803  29.672  1.00  0.00     0.031 A 
ATOM     40  C   UNL A   1      38.400  30.341  31.058  1.00  0.00     0.074 A 
ATOM     41  C   UNL A   1      39.069  28.993  29.095  1.00  0.00     0.049 A 
ATOM     42  N   UNL A   1      39.416  30.150  31.860  1.00  0.00    -0.248 NA
ATOM     43  C   UNL A   1      37.366  31.235  31.606  1.00  0.00     0.031 C 
ATOM     44  C   UNL A   1      38.973  28.442  27.744  1.00  0.00     0.029 A 
ATOM     45  N   UNL A   1      40.255  28.495  29.574  1.00  0.00    -0.354 N 
ATOM     46  C   UNL A   1      39.155  30.912  32.991  1.00  0.00     0.074 A 
ATOM     47  C   UNL A   1      37.909  31.609  32.754  1.00  0.00     0.031 C 
ATOM     48  C   UNL A   1      40.045  27.667  27.508  1.00  0.00     0.029 A 
ATOM     49  C   UNL A   1      40.914  27.686  28.681  1.00  0.00     0.049 A 
ATOM     50  H   UNL A   1      40.601  28.699  30.474  1.00  0.00     0.167 HD
ATOM     51  C   UNL A   1      39.875  31.004  34.134  1.00  0.00     0.037 A 
ATOM     52  C   UNL A   1      42.085  27.034  28.802  1.00  0.00     0.037 A 
ATOM     53  C   UNL A   1      41.092  30.279  34.383  1.00  0.00     0.049 A 
ATOM     54  C   UNL A   1      42.848  27.125  30.096  1.00  0.00     0.074 A 
ATOM     55  C   UNL A   1      41.871  30.263  35.527  1.00  0.00     0.029 A 
ATOM     56  N   UNL A   1      41.704  29.432  33.471  1.00  0.00    -0.354 N 
ATOM     57  N   UNL A   1      42.559  27.801  31.182  1.00  0.00    -0.248 NA
ATOM     58  C   UNL A   1      44.091  26.348  30.188  1.00  0.00     0.031 C 
ATOM     59  C   UNL A   1      42.972  29.431  35.294  1.00  0.00     0.029 A 
ATOM     60  C   UNL A   1      42.853  28.893  34.024  1.00  0.00     0.049 A 
ATOM     61  H   UNL A   1      41.370  29.242  32.563  1.00  0.00     0.167 HD
ATOM     62  C   UNL A   1      43.560  27.500  32.096  1.00  0.00     0.074 A 
ATOM     63  C   UNL A   1      44.457  26.573  31.441  1.00  0.00     0.031 C 
ATOM     64  C   UNL A   1      43.721  27.951  33.365  1.00  0.00     0.037 A 
BRANCH  51  65
ATOM     65  C   UNL A   1      39.358  31.914  35.211  1.00  0.00     0.064 A 
ATOM     66  C   UNL A   1      38.528  31.441  36.238  1.00  0.00     0.173 A 
ATOM     67  C   UNL A   1      39.727  33.268  35.237  1.00  0.00     0.173 A 
ATOM     68  F   UNL A   1      38.134  30.159  36.251  1.00  0.00    -0.203 F 
ATOM     69  C   UNL A   1      38.065  32.295  37.236  1.00  0.00     0.198 A 
ATOM     70  C   UNL A   1      39.287  34.112  36.254  1.00  0.00     0.198 A 
ATOM     71  F   UNL A   1      40.523  33.771  34.282  1.00  0.00    -0.203 F 
ATOM     72  F   UNL A   1      37.234  31.830  38.180  1.00  0.00    -0.200 F 
ATOM     73  C   UNL A   1      38.450  33.626  37.248  1.00  0.00     0.200 A 
ATOM     74  F   UNL A   1      39.670  35.396  36.270  1.00  0.00    -0.200 F 
ATOM     75  F   UNL A   1      38.010  34.444  38.213  1.00  0.00    -0.200 F 
ENDBRANCH  51  65
BRANCH  52  76
ATOM     76  C   UNL A   1      42.592  26.201  27.680  1.00  0.00     0.064 A 
ATOM     77  C   UNL A   1      42.161  24.877  27.513  1.00  0.00     0.173 A 
ATOM     78  C   UNL A   1      43.526  26.703  26.763  1.00  0.00     0.173 A 
ATOM     79  F   UNL A   1      41.282  24.347  28.377  1.00  0.00    -0.203 F 
ATOM     80  C   UNL A   1      42.667  24.077  26.492  1.00  0.00     0.198 A 
ATOM     81  C   UNL A   1      44.011  25.911  25.724  1.00  0.00     0.198 A 
ATOM     82  F   UNL A   1      43.965  27.965  26.873  1.00  0.00    -0.203 F 
ATOM     83  F   UNL A   1      42.278  22.800  26.388  1.00  0.00    -0.200 F 
ATOM     84  C   UNL A   1      43.589  24.596  25.595  1.00  0.00     0.200 A 
ATOM     85  F   UNL A   1      44.890  26.420  24.850  1.00  0.00    -0.200 F 
ATOM     86  F   UNL A   1      44.077  23.826  24.613  1.00  0.00    -0.200 F 
ENDBRANCH  52  76
BRANCH  64  87
ATOM     87  C   UNL A   1      44.878  27.403  34.147  1.00  0.00     0.064 A 
ATOM     88  C   UNL A   1      46.119  28.056  34.188  1.00  0.00     0.173 A 
ATOM     89  C   UNL A   1      44.732  26.220  34.887  1.00  0.00     0.173 A 
ATOM     90  F   UNL A   1      46.313  29.183  33.487  1.00  0.00    -0.203 F 
ATOM     91  C   UNL A   1      47.179  27.527  34.918  1.00  0.00     0.198 A 
ATOM     92  C   UNL A   1      45.785  25.710  35.639  1.00  0.00     0.198 A 
ATOM     93  F   UNL A   1      43.562  25.562  34.885  1.00  0.00    -0.203 F 
ATOM     94  F   UNL A   1      48.372  28.140  34.902  1.00  0.00    -0.200 F 
ATOM     95  C   UNL A   1      47.011  26.360  35.647  1.00  0.00     0.200 A 
ATOM     96  F   UNL A   1      45.617  24.589  36.353  1.00  0.00    -0.200 F 
ATOM     97  F   UNL A   1      48.033  25.853  36.351  1.00  0.00    -0.200 F 
ENDBRANCH  64  87
ENDBRANCH  38  39
ENDBRANCH  30  33
ENDBRANCH  28  29
ENDBRANCH  27  28
ENDBRANCH  26  27
ENDBRANCH   1  26
TORSDOF 16
ENDMDL
MODEL 2
REMARK VINA RESULT:     -12.6      2.020      3.260
REMARK SMILES Cc1cc(NC(=O)c2sccc2/C=C/C(=O)NCCCCCCNC(=O)c2ccc(-c3c4nc(c(-c5c(F)c(F)c(F)c(F)c5F)c5ccc([nH]5)c(-c5c(F)c(F)c(F)c(F)c5F)c5nc(c(-c6c(F)c(F)c(F)c(F)c6F)c6ccc3[nH]6)C=C5)C=C4)cc2)ccn1
REMARK SMILES IDX 20 1 19 2 18 3 17 4 15 5 16 6 14 8 13 9 12 10 8 11 9 12
REMARK SMILES IDX 10 13 11 14 6 15 5 16 7 18 4 19 1 20 2 21 3 22 92 23 91 24
REMARK SMILES IDX 90 25 21 26 22 27 23 28 24 29 25 30 26 32 27 33 28 34 89 35
REMARK SMILES IDX 29 36 88 37 30 38 31 39 32 40 82 41 33 42 87 43 81 44 83 45
REMARK SMILES IDX 34 46 86 47 80 48 79 49 35 51 67 52 47 53 66 54 48 55 51 56
REMARK SMILES IDX 65 57 84 58 49 59 50 60 64 62 85 63 52 64 36 65 37 66 45 67
REMARK SMILES IDX 38 68 39 69 43 70 46 71 40 72 41 73 44 74 42 75 68 76 69 77
REMARK SMILES IDX 77 78 70 79 71 80 75 81 78 82 72 83 73 84 76 85 74 86 53 87
REMARK SMILES IDX 54 88 62 89 55 90 56 91 60 92 63 93 57 94 58 95 61 96 59 97
REMARK H PARENT 17 7 5 17 24 31 83 50 51 61
REMARK Flexibility Score: inf
ROOT
ATOM      1  C   UNL A   1      32.248  29.809  26.882  1.00  0.00     0.002 C 
ENDROOT
BRANCH   1   2
ATOM      2  C   UNL A   1      31.538  28.520  27.307  1.00  0.00     0.021 C 
BRANCH   2   3
ATOM      3  C   UNL A   1      32.076  27.277  26.607  1.00  0.00     0.116 C 
BRANCH   3   4
ATOM      4  N   UNL A   1      31.134  26.180  26.689  1.00  0.00    -0.353 N 
ATOM      5  C   UNL A   1      31.315  24.844  26.516  1.00  0.00     0.243 C 
ATOM      6  O   UNL A   1      30.388  24.069  26.746  1.00  0.00    -0.270 OA
ATOM      7  H   UNL A   1      30.212  26.445  26.906  1.00  0.00     0.163 HD
BRANCH   5   8
ATOM      8  C   UNL A   1      32.637  24.295  26.151  1.00  0.00     0.072 C 
ATOM      9  C   UNL A   1      32.946  23.716  24.980  1.00  0.00     0.015 C 
BRANCH   9  10
ATOM     10  C   UNL A   1      34.255  23.227  24.662  1.00  0.00    -0.002 A 
ATOM     11  C   UNL A   1      34.857  22.150  25.296  1.00  0.00     0.099 A 
ATOM     12  S   UNL A   1      36.454  21.893  24.718  1.00  0.00    -0.138 S 
ATOM     13  C   UNL A   1      36.301  23.132  23.552  1.00  0.00     0.066 A 
ATOM     14  C   UNL A   1      35.085  23.772  23.634  1.00  0.00     0.020 A 
BRANCH  11  15
ATOM     15  C   UNL A   1      34.379  21.267  26.339  1.00  0.00     0.266 C 
ATOM     16  N   UNL A   1      33.677  20.114  26.045  1.00  0.00    -0.321 N 
ATOM     17  H   UNL A   1      33.323  19.661  26.844  1.00  0.00     0.170 HD
ATOM     18  O   UNL A   1      34.524  21.522  27.539  1.00  0.00    -0.268 OA
BRANCH  16  19
ATOM     19  C   UNL A   1      33.362  19.448  24.845  1.00  0.00     0.044 A 
ATOM     20  C   UNL A   1      34.433  16.211  23.186  1.00  0.00     0.067 C 
ATOM     21  C   UNL A   1      33.753  17.519  23.456  1.00  0.00     0.039 A 
ATOM     22  C   UNL A   1      34.097  18.293  24.560  1.00  0.00     0.049 A 
ATOM     23  N   UNL A   1      32.748  17.860  22.622  1.00  0.00    -0.261 NA
ATOM     24  C   UNL A   1      32.096  19.013  22.875  1.00  0.00     0.113 A 
ATOM     25  C   UNL A   1      32.373  19.836  23.953  1.00  0.00     0.046 A 
ENDBRANCH  16  19
ENDBRANCH  11  15
ENDBRANCH   9  10
ENDBRANCH   5   8
ENDBRANCH   3   4
ENDBRANCH   2   3
ENDBRANCH   1   2
BRANCH   1  26
ATOM     26  C   UNL A   1      31.398  30.764  26.032  1.00  0.00     0.002 C 
BRANCH  26  27
ATOM     27  C   UNL A   1      31.326  32.207  26.541  1.00  0.00     0.021 C 
BRANCH  27  28
ATOM     28  C   UNL A   1      32.604  32.718  27.199  1.00  0.00     0.116 C 
BRANCH  28  29
ATOM     29  N   UNL A   1      32.472  34.093  27.647  1.00  0.00    -0.352 N 
ATOM     30  C   UNL A   1      33.110  34.750  28.666  1.00  0.00     0.251 C 
ATOM     31  H   UNL A   1      31.823  34.636  27.142  1.00  0.00     0.163 HD
ATOM     32  O   UNL A   1      32.719  35.860  29.013  1.00  0.00    -0.269 OA
BRANCH  30  33
ATOM     33  C   UNL A   1      34.266  34.133  29.355  1.00  0.00     0.039 A 
ATOM     34  C   UNL A   1      35.553  34.505  28.958  1.00  0.00     0.014 A 
ATOM     35  C   UNL A   1      34.094  33.143  30.328  1.00  0.00     0.014 A 
ATOM     36  C   UNL A   1      36.666  33.898  29.542  1.00  0.00     0.010 A 
ATOM     37  C   UNL A   1      35.205  32.586  30.959  1.00  0.00     0.010 A 
ATOM     38  C   UNL A   1      36.501  32.936  30.551  1.00  0.00    -0.014 A 
BRANCH  38  39
ATOM     39  C   UNL A   1      37.673  32.239  31.135  1.00  0.00     0.031 A 
ATOM     40  C   UNL A   1      38.157  32.612  32.511  1.00  0.00     0.074 A 
ATOM     41  C   UNL A   1      38.318  31.297  30.423  1.00  0.00     0.049 A 
ATOM     42  N   UNL A   1      39.180  32.150  33.186  1.00  0.00    -0.248 NA
ATOM     43  C   UNL A   1      37.405  33.665  33.213  1.00  0.00     0.031 C 
ATOM     44  C   UNL A   1      37.973  30.878  29.065  1.00  0.00     0.029 A 
ATOM     45  N   UNL A   1      39.406  30.523  30.743  1.00  0.00    -0.354 N 
ATOM     46  C   UNL A   1      39.204  32.867  34.374  1.00  0.00     0.074 A 
ATOM     47  C   UNL A   1      38.126  33.830  34.311  1.00  0.00     0.031 C 
ATOM     48  C   UNL A   1      38.819  29.911  28.675  1.00  0.00     0.029 A 
ATOM     49  C   UNL A   1      39.780  29.659  29.744  1.00  0.00     0.049 A 
ATOM     50  H   UNL A   1      39.874  30.583  31.608  1.00  0.00     0.167 HD
ATOM     51  C   UNL A   1      40.034  32.720  35.435  1.00  0.00     0.037 A 
ATOM     52  C   UNL A   1      40.785  28.763  29.702  1.00  0.00     0.037 A 
ATOM     53  C   UNL A   1      41.079  31.735  35.511  1.00  0.00     0.049 A 
ATOM     54  C   UNL A   1      41.670  28.596  30.907  1.00  0.00     0.074 A 
ATOM     55  C   UNL A   1      41.943  31.470  36.559  1.00  0.00     0.029 A 
ATOM     56  N   UNL A   1      41.397  30.844  34.496  1.00  0.00    -0.354 N 
ATOM     57  N   UNL A   1      41.645  29.237  32.049  1.00  0.00    -0.248 NA
ATOM     58  C   UNL A   1      42.714  27.565  30.822  1.00  0.00     0.031 C 
ATOM     59  C   UNL A   1      42.805  30.440  36.166  1.00  0.00     0.029 A 
ATOM     60  C   UNL A   1      42.447  30.033  34.891  1.00  0.00     0.049 A 
ATOM     61  H   UNL A   1      40.943  30.796  33.623  1.00  0.00     0.167 HD
ATOM     62  C   UNL A   1      42.639  28.664  32.832  1.00  0.00     0.074 A 
ATOM     63  C   UNL A   1      43.241  27.615  32.036  1.00  0.00     0.031 C 
ATOM     64  C   UNL A   1      43.018  28.977  34.095  1.00  0.00     0.037 A 
BRANCH  51  65
ATOM     65  C   UNL A   1      39.838  33.640  36.605  1.00  0.00     0.064 A 
ATOM     66  C   UNL A   1      40.491  34.880  36.683  1.00  0.00     0.173 A 
ATOM     67  C   UNL A   1      38.960  33.295  37.643  1.00  0.00     0.173 A 
ATOM     68  F   UNL A   1      41.352  35.251  35.723  1.00  0.00    -0.203 F 
ATOM     69  C   UNL A   1      40.292  35.727  37.769  1.00  0.00     0.198 A 
ATOM     70  C   UNL A   1      38.740  34.159  38.713  1.00  0.00     0.198 A 
ATOM     71  F   UNL A   1      38.307  32.124  37.616  1.00  0.00    -0.203 F 
ATOM     72  F   UNL A   1      40.962  36.886  37.844  1.00  0.00    -0.200 F 
ATOM     73  C   UNL A   1      39.411  35.371  38.779  1.00  0.00     0.200 A 
ATOM     74  F   UNL A   1      37.879  33.818  39.682  1.00  0.00    -0.200 F 
ATOM     75  F   UNL A   1      39.214  36.192  39.819  1.00  0.00    -0.200 F 
ENDBRANCH  51  65
BRANCH  52  76
ATOM     76  C   UNL A   1      40.983  27.925  28.491  1.00  0.00     0.064 A 
ATOM     77  C   UNL A   1      41.834  28.342  27.457  1.00  0.00     0.173 A 
ATOM     78  C   UNL A   1      40.319  26.701  28.333  1.00  0.00     0.173 A 
ATOM     79  F   UNL A   1      42.478  29.515  27.554  1.00  0.00    -0.203 F 
ATOM     80  C   UNL A   1      41.989  27.584  26.300  1.00  0.00     0.198 A 
ATOM     81  C   UNL A   1      40.495  25.928  27.187  1.00  0.00     0.198 A 
ATOM     82  F   UNL A   1      39.500  26.252  29.296  1.00  0.00    -0.203 F 
ATOM     83  F   UNL A   1      42.766  28.033  25.305  1.00  0.00    -0.200 F 
ATOM     84  C   UNL A   1      41.322  26.375  26.167  1.00  0.00     0.200 A 
ATOM     85  F   UNL A   1      39.862  24.753  27.069  1.00  0.00    -0.200 F 
ATOM     86  F   UNL A   1      41.470  25.645  25.053  1.00  0.00    -0.200 F 
ENDBRANCH  52  76
BRANCH  64  87
ATOM     87  C   UNL A   1      44.096  28.139  34.716  1.00  0.00     0.064 A 
ATOM     88  C   UNL A   1      43.804  26.956  35.412  1.00  0.00     0.173 A 
ATOM     89  C   UNL A   1      45.442  28.512  34.588  1.00  0.00     0.173 A 
ATOM     90  F   UNL A   1      42.532  26.564  35.573  1.00  0.00    -0.203 F 
ATOM     91  C   UNL A   1      44.821  26.195  35.983  1.00  0.00     0.198 A 
ATOM     92  C   UNL A   1      46.457  27.733  35.135  1.00  0.00     0.198 A 
ATOM     93  F   UNL A   1      45.773  29.631  33.926  1.00  0.00    -0.203 F 
ATOM     94  F   UNL A   1      44.516  25.096  36.687  1.00  0.00    -0.200 F 
ATOM     95  C   UNL A   1      46.145  26.580  35.840  1.00  0.00     0.200 A 
ATOM     96  F   UNL A   1      47.737  28.100  34.985  1.00  0.00    -0.200 F 
ATOM     97  F   UNL A   1      47.122  25.844  36.388  1.00  0.00    -0.200 F 
ENDBRANCH  64  87
ENDBRANCH  38  39
ENDBRANCH  30  33
ENDBRANCH  28  29
ENDBRANCH  27  28
ENDBRANCH  26  27
ENDBRANCH   1  26
TORSDOF 16
ENDMDL
MODEL 3
REMARK VINA RESULT:     -12.5      3.158      5.549
REMARK SMILES Cc1cc(NC(=O)c2sccc2/C=C/C(=O)NCCCCCCNC(=O)c2ccc(-c3c4nc(c(-c5c(F)c(F)c(F)c(F)c5F)c5ccc([nH]5)c(-c5c(F)c(F)c(F)c(F)c5F)c5nc(c(-c6c(F)c(F)c(F)c(F)c6F)c6ccc3[nH]6)C=C5)C=C4)cc2)ccn1
REMARK SMILES IDX 20 1 19 2 18 3 17 4 15 5 16 6 14 8 13 9 12 10 8 11 9 12
REMARK SMILES IDX 10 13 11 14 6 15 5 16 7 18 4 19 1 20 2 21 3 22 92 23 91 24
REMARK SMILES IDX 90 25 21 26 22 27 23 28 24 29 25 30 26 32 27 33 28 34 89 35
REMARK SMILES IDX 29 36 88 37 30 38 31 39 32 40 82 41 33 42 87 43 81 44 83 45
REMARK SMILES IDX 34 46 86 47 80 48 79 49 35 51 67 52 47 53 66 54 48 55 51 56
REMARK SMILES IDX 65 57 84 58 49 59 50 60 64 62 85 63 52 64 36 65 37 66 45 67
REMARK SMILES IDX 38 68 39 69 43 70 46 71 40 72 41 73 44 74 42 75 68 76 69 77
REMARK SMILES IDX 77 78 70 79 71 80 75 81 78 82 72 83 73 84 76 85 74 86 53 87
REMARK SMILES IDX 54 88 62 89 55 90 56 91 60 92 63 93 57 94 58 95 61 96 59 97
REMARK H PARENT 17 7 5 17 24 31 83 50 51 61
REMARK Flexibility Score: inf
ROOT
ATOM      1  C   UNL A   1      34.728  32.468  29.076  1.00  0.00     0.002 C 
ENDROOT
BRANCH   1   2
ATOM      2  C   UNL A   1      35.555  31.741  28.011  1.00  0.00     0.021 C 
BRANCH   2   3
ATOM      3  C   UNL A   1      34.974  30.387  27.617  1.00  0.00     0.116 C 
BRANCH   3   4
ATOM      4  N   UNL A   1      33.528  30.433  27.561  1.00  0.00    -0.353 N 
ATOM      5  C   UNL A   1      32.632  29.524  27.093  1.00  0.00     0.243 C 
ATOM      6  O   UNL A   1      31.428  29.722  27.247  1.00  0.00    -0.270 OA
ATOM      7  H   UNL A   1      33.128  31.257  27.922  1.00  0.00     0.163 HD
BRANCH   5   8
ATOM      8  C   UNL A   1      33.080  28.253  26.488  1.00  0.00     0.072 C 
ATOM      9  C   UNL A   1      32.554  27.043  26.735  1.00  0.00     0.015 C 
BRANCH   9  10
ATOM     10  C   UNL A   1      33.004  25.842  26.096  1.00  0.00    -0.002 A 
ATOM     11  C   UNL A   1      32.174  24.781  25.766  1.00  0.00     0.099 A 
ATOM     12  S   UNL A   1      33.062  23.476  25.086  1.00  0.00    -0.138 S 
ATOM     13  C   UNL A   1      34.521  24.364  25.123  1.00  0.00     0.066 A 
ATOM     14  C   UNL A   1      34.356  25.605  25.694  1.00  0.00     0.020 A 
BRANCH  11  15
ATOM     15  C   UNL A   1      30.747  24.600  25.923  1.00  0.00     0.266 C 
ATOM     16  N   UNL A   1      29.840  25.300  25.150  1.00  0.00    -0.321 N 
ATOM     17  H   UNL A   1      28.905  25.162  25.427  1.00  0.00     0.170 HD
ATOM     18  O   UNL A   1      30.265  23.859  26.785  1.00  0.00    -0.268 OA
BRANCH  16  19
ATOM     19  C   UNL A   1      29.969  26.169  24.049  1.00  0.00     0.044 A 
ATOM     20  C   UNL A   1      28.149  29.257  22.813  1.00  0.00     0.067 C 
ATOM     21  C   UNL A   1      29.117  28.117  22.918  1.00  0.00     0.039 A 
ATOM     22  C   UNL A   1      28.982  27.150  23.909  1.00  0.00     0.049 A 
ATOM     23  N   UNL A   1      30.155  28.127  22.056  1.00  0.00    -0.261 NA
ATOM     24  C   UNL A   1      31.060  27.133  22.164  1.00  0.00     0.113 A 
ATOM     25  C   UNL A   1      31.002  26.137  23.124  1.00  0.00     0.046 A 
ENDBRANCH  16  19
ENDBRANCH  11  15
ENDBRANCH   9  10
ENDBRANCH   5   8
ENDBRANCH   3   4
ENDBRANCH   2   3
ENDBRANCH   1   2
BRANCH   1  26
ATOM     26  C   UNL A   1      34.737  33.999  28.966  1.00  0.00     0.002 C 
BRANCH  26  27
ATOM     27  C   UNL A   1      33.363  34.671  29.063  1.00  0.00     0.021 C 
BRANCH  27  28
ATOM     28  C   UNL A   1      33.383  36.087  29.633  1.00  0.00     0.116 C 
BRANCH  28  29
ATOM     29  N   UNL A   1      32.487  36.228  30.766  1.00  0.00    -0.352 N 
ATOM     30  C   UNL A   1      32.554  35.668  32.015  1.00  0.00     0.251 C 
ATOM     31  H   UNL A   1      31.711  36.816  30.614  1.00  0.00     0.163 HD
ATOM     32  O   UNL A   1      31.594  35.757  32.774  1.00  0.00    -0.269 OA
BRANCH  30  33
ATOM     33  C   UNL A   1      33.773  34.956  32.458  1.00  0.00     0.039 A 
ATOM     34  C   UNL A   1      34.999  35.625  32.385  1.00  0.00     0.014 A 
ATOM     35  C   UNL A   1      33.731  33.620  32.868  1.00  0.00     0.014 A 
ATOM     36  C   UNL A   1      36.176  34.962  32.736  1.00  0.00     0.010 A 
ATOM     37  C   UNL A   1      34.898  32.980  33.282  1.00  0.00     0.010 A 
ATOM     38  C   UNL A   1      36.135  33.635  33.192  1.00  0.00    -0.014 A 
BRANCH  38  39
ATOM     39  C   UNL A   1      37.385  32.901  33.507  1.00  0.00     0.031 A 
ATOM     40  C   UNL A   1      38.122  33.192  34.787  1.00  0.00     0.074 A 
ATOM     41  C   UNL A   1      37.873  32.000  32.635  1.00  0.00     0.049 A 
ATOM     42  N   UNL A   1      39.245  32.688  35.233  1.00  0.00    -0.248 NA
ATOM     43  C   UNL A   1      37.528  34.205  35.676  1.00  0.00     0.031 C 
ATOM     44  C   UNL A   1      37.276  31.662  31.344  1.00  0.00     0.029 A 
ATOM     45  N   UNL A   1      38.990  31.205  32.702  1.00  0.00    -0.354 N 
ATOM     46  C   UNL A   1      39.500  33.334  36.434  1.00  0.00     0.074 A 
ATOM     47  C   UNL A   1      38.443  34.303  36.628  1.00  0.00     0.031 C 
ATOM     48  C   UNL A   1      38.021  30.716  30.748  1.00  0.00     0.029 A 
ATOM     49  C   UNL A   1      39.160  30.399  31.604  1.00  0.00     0.049 A 
ATOM     50  H   UNL A   1      39.612  31.213  33.467  1.00  0.00     0.167 HD
ATOM     51  C   UNL A   1      40.510  33.123  37.312  1.00  0.00     0.037 A 
ATOM     52  C   UNL A   1      40.126  29.503  31.325  1.00  0.00     0.037 A 
ATOM     53  C   UNL A   1      41.537  32.131  37.136  1.00  0.00     0.049 A 
ATOM     54  C   UNL A   1      41.218  29.263  32.333  1.00  0.00     0.074 A 
ATOM     55  C   UNL A   1      42.577  31.803  37.989  1.00  0.00     0.029 A 
ATOM     56  N   UNL A   1      41.648  31.300  36.032  1.00  0.00    -0.354 N 
ATOM     57  N   UNL A   1      41.414  29.837  33.495  1.00  0.00    -0.248 NA
ATOM     58  C   UNL A   1      42.213  28.235  31.998  1.00  0.00     0.031 C 
ATOM     59  C   UNL A   1      43.336  30.795  37.385  1.00  0.00     0.029 A 
ATOM     60  C   UNL A   1      42.742  30.463  36.178  1.00  0.00     0.049 A 
ATOM     61  H   UNL A   1      41.039  31.305  35.257  1.00  0.00     0.167 HD
ATOM     62  C   UNL A   1      42.528  29.216  34.045  1.00  0.00     0.074 A 
ATOM     63  C   UNL A   1      42.957  28.213  33.093  1.00  0.00     0.031 C 
ATOM     64  C   UNL A   1      43.140  29.454  35.231  1.00  0.00     0.037 A 
BRANCH  51  65
ATOM     65  C   UNL A   1      40.548  33.974  38.548  1.00  0.00     0.064 A 
ATOM     66  C   UNL A   1      41.274  35.174  38.593  1.00  0.00     0.173 A 
ATOM     67  C   UNL A   1      39.821  33.605  39.690  1.00  0.00     0.173 A 
ATOM     68  F   UNL A   1      41.997  35.565  37.533  1.00  0.00    -0.203 F 
ATOM     69  C   UNL A   1      41.291  35.958  39.743  1.00  0.00     0.198 A 
ATOM     70  C   UNL A   1      39.816  34.408  40.828  1.00  0.00     0.198 A 
ATOM     71  F   UNL A   1      39.106  32.470  39.699  1.00  0.00    -0.203 F 
ATOM     72  F   UNL A   1      42.030  37.077  39.777  1.00  0.00    -0.200 F 
ATOM     73  C   UNL A   1      40.557  35.580  40.856  1.00  0.00     0.200 A 
ATOM     74  F   UNL A   1      39.096  34.046  41.899  1.00  0.00    -0.200 F 
ATOM     75  F   UNL A   1      40.568  36.340  41.959  1.00  0.00    -0.200 F 
ENDBRANCH  51  65
BRANCH  52  76
ATOM     76  C   UNL A   1      40.085  28.736  30.053  1.00  0.00     0.064 A 
ATOM     77  C   UNL A   1      39.456  27.484  29.987  1.00  0.00     0.173 A 
ATOM     78  C   UNL A   1      40.685  29.226  28.885  1.00  0.00     0.173 A 
ATOM     79  F   UNL A   1      38.884  26.965  31.084  1.00  0.00    -0.203 F 
ATOM     80  C   UNL A   1      39.454  26.740  28.811  1.00  0.00     0.198 A 
ATOM     81  C   UNL A   1      40.659  28.493  27.700  1.00  0.00     0.198 A 
ATOM     82  F   UNL A   1      41.294  30.421  28.893  1.00  0.00    -0.203 F 
ATOM     83  F   UNL A   1      38.892  25.524  28.790  1.00  0.00    -0.200 F 
ATOM     84  C   UNL A   1      40.052  27.246  27.666  1.00  0.00     0.200 A 
ATOM     85  F   UNL A   1      41.224  28.992  26.593  1.00  0.00    -0.200 F 
ATOM     86  F   UNL A   1      40.052  26.529  26.534  1.00  0.00    -0.200 F 
ENDBRANCH  52  76
BRANCH  64  87
ATOM     87  C   UNL A   1      44.302  28.577  35.593  1.00  0.00     0.064 A 
ATOM     88  C   UNL A   1      45.617  28.904  35.229  1.00  0.00     0.173 A 
ATOM     89  C   UNL A   1      44.097  27.406  36.338  1.00  0.00     0.173 A 
ATOM     90  F   UNL A   1      45.862  30.005  34.504  1.00  0.00    -0.203 F 
ATOM     91  C   UNL A   1      46.679  28.073  35.573  1.00  0.00     0.198 A 
ATOM     92  C   UNL A   1      45.165  26.594  36.706  1.00  0.00     0.198 A 
ATOM     93  F   UNL A   1      42.859  27.054  36.717  1.00  0.00    -0.203 F 
ATOM     94  F   UNL A   1      47.921  28.377  35.170  1.00  0.00    -0.200 F 
ATOM     95  C   UNL A   1      46.455  26.924  36.314  1.00  0.00     0.200 A 
ATOM     96  F   UNL A   1      44.948  25.491  37.433  1.00  0.00    -0.200 F 
ATOM     97  F   UNL A   1      47.480  26.127  36.647  1.00  0.00    -0.200 F 
ENDBRANCH  64  87
ENDBRANCH  38  39
ENDBRANCH  30  33
ENDBRANCH  28  29
ENDBRANCH  27  28
ENDBRANCH  26  27
ENDBRANCH   1  26
TORSDOF 16
ENDMDL
