MODEL 1
REMARK VINA RESULT:     -12.8      0.000      0.000
REMARK SMILES O=C(NCCCCCCNC(=O)c1ccc2c(c1)[C@@H]1C=CC[C@@H]1[C@H](c1ccncc1)N2)c1ccc(-c2c3nc(c(-c4c(F)c(F)c(F)c(F)c4F)c4ccc([nH]4)c(-c4c(F)c(F)c(F)c(F)c4F)c4nc(c(-c5c(F)c(F)c(F)c(F)c5F)c5ccc2[nH]5)C=C4)C=C3)cc1
REMARK SMILES IDX 6 1 5 2 4 3 3 4 1 5 2 6 32 8 33 9 94 10 34 11 93 12 35 13
REMARK SMILES IDX 36 14 37 15 87 16 38 17 92 18 86 19 88 20 39 21 91 22 85 23
REMARK SMILES IDX 84 24 40 26 72 27 52 28 71 29 53 30 56 31 70 32 89 33 54 34
REMARK SMILES IDX 55 35 69 37 90 38 57 39 41 40 42 41 50 42 43 43 44 44 48 45
REMARK SMILES IDX 51 46 45 47 46 48 49 49 47 50 73 51 74 52 82 53 75 54 76 55
REMARK SMILES IDX 80 56 83 57 77 58 78 59 81 60 79 61 58 62 59 63 67 64 60 65
REMARK SMILES IDX 61 66 65 67 68 68 62 69 63 70 66 71 64 72 7 73 8 74 9 75
REMARK SMILES IDX 10 76 11 77 12 79 13 80 14 81 18 82 15 83 17 84 16 85 19 86
REMARK SMILES IDX 31 87 20 88 23 89 24 90 21 92 22 93 25 94 26 95 30 96 27 97
REMARK SMILES IDX 29 98 28 99
REMARK H PARENT 3 7 88 25 56 36 10 78 31 91
REMARK Flexibility Score: inf
ROOT
ATOM      1  C   UNL A   1      33.294  26.591  26.402  1.00  0.00     0.002 C 
ENDROOT
BRANCH   1   2
ATOM      2  C   UNL A   1      32.693  27.965  26.102  1.00  0.00     0.021 C 
BRANCH   2   3
ATOM      3  C   UNL A   1      33.712  29.050  25.774  1.00  0.00     0.116 C 
BRANCH   3   4
ATOM      4  N   UNL A   1      33.224  30.378  26.106  1.00  0.00    -0.352 N 
ATOM      5  O   UNL A   1      32.997  32.249  27.345  1.00  0.00    -0.269 OA
ATOM      6  C   UNL A   1      33.653  31.246  27.077  1.00  0.00     0.251 C 
ATOM      7  H   UNL A   1      32.477  30.702  25.553  1.00  0.00     0.163 HD
BRANCH   6   8
ATOM      8  C   UNL A   1      34.898  30.965  27.818  1.00  0.00     0.039 A 
ATOM      9  C   UNL A   1      35.907  31.928  27.921  1.00  0.00     0.014 A 
ATOM     10  C   UNL A   1      35.041  29.724  28.445  1.00  0.00     0.014 A 
ATOM     11  C   UNL A   1      37.107  31.609  28.551  1.00  0.00     0.010 A 
ATOM     12  C   UNL A   1      36.217  29.433  29.139  1.00  0.00     0.010 A 
ATOM     13  C   UNL A   1      37.267  30.365  29.176  1.00  0.00    -0.014 A 
BRANCH  13  14
ATOM     14  C   UNL A   1      38.514  30.049  29.916  1.00  0.00     0.031 A 
ATOM     15  C   UNL A   1      39.515  29.086  29.349  1.00  0.00     0.074 A 
ATOM     16  C   UNL A   1      38.714  30.600  31.127  1.00  0.00     0.049 A 
ATOM     17  N   UNL A   1      40.601  28.602  29.897  1.00  0.00    -0.248 NA
ATOM     18  C   UNL A   1      39.255  28.594  27.989  1.00  0.00     0.031 C 
ATOM     19  C   UNL A   1      37.811  31.549  31.778  1.00  0.00     0.029 A 
ATOM     20  N   UNL A   1      39.728  30.426  32.035  1.00  0.00    -0.354 N 
ATOM     21  C   UNL A   1      41.139  27.728  28.962  1.00  0.00     0.074 A 
ATOM     22  C   UNL A   1      40.246  27.730  27.821  1.00  0.00     0.031 C 
ATOM     23  C   UNL A   1      38.309  31.875  32.979  1.00  0.00     0.029 A 
ATOM     24  C   UNL A   1      39.530  31.108  33.209  1.00  0.00     0.049 A 
ATOM     25  H   UNL A   1      40.519  29.866  31.861  1.00  0.00     0.167 HD
ATOM     26  C   UNL A   1      42.277  26.996  29.049  1.00  0.00     0.037 A 
ATOM     27  C   UNL A   1      40.227  31.089  34.359  1.00  0.00     0.037 A 
ATOM     28  C   UNL A   1      43.154  27.003  30.193  1.00  0.00     0.049 A 
ATOM     29  C   UNL A   1      41.456  30.231  34.457  1.00  0.00     0.074 A 
ATOM     30  C   UNL A   1      44.350  26.328  30.368  1.00  0.00     0.029 A 
ATOM     31  N   UNL A   1      42.919  27.709  31.366  1.00  0.00    -0.354 N 
ATOM     32  N   UNL A   1      41.980  29.436  33.555  1.00  0.00    -0.248 NA
ATOM     33  C   UNL A   1      42.192  30.267  35.726  1.00  0.00     0.031 C 
ATOM     34  C   UNL A   1      44.802  26.572  31.669  1.00  0.00     0.029 A 
ATOM     35  C   UNL A   1      43.931  27.460  32.280  1.00  0.00     0.049 A 
ATOM     36  H   UNL A   1      42.147  28.300  31.525  1.00  0.00     0.167 HD
ATOM     37  C   UNL A   1      43.124  28.903  34.133  1.00  0.00     0.074 A 
ATOM     38  C   UNL A   1      43.216  29.464  35.465  1.00  0.00     0.031 C 
ATOM     39  C   UNL A   1      44.019  28.035  33.600  1.00  0.00     0.037 A 
BRANCH  26  40
ATOM     40  C   UNL A   1      42.612  26.094  27.894  1.00  0.00     0.064 A 
ATOM     41  C   UNL A   1      43.524  26.470  26.896  1.00  0.00     0.173 A 
ATOM     42  C   UNL A   1      42.015  24.827  27.789  1.00  0.00     0.173 A 
ATOM     43  F   UNL A   1      44.120  27.671  26.943  1.00  0.00    -0.203 F 
ATOM     44  C   UNL A   1      43.789  25.633  25.814  1.00  0.00     0.198 A 
ATOM     45  C   UNL A   1      42.310  23.978  26.724  1.00  0.00     0.198 A 
ATOM     46  F   UNL A   1      41.143  24.409  28.718  1.00  0.00    -0.203 F 
ATOM     47  F   UNL A   1      44.611  26.044  24.838  1.00  0.00    -0.200 F 
ATOM     48  C   UNL A   1      43.185  24.388  25.730  1.00  0.00     0.200 A 
ATOM     49  F   UNL A   1      41.738  22.769  26.655  1.00  0.00    -0.200 F 
ATOM     50  F   UNL A   1      43.438  23.587  24.686  1.00  0.00    -0.200 F 
ENDBRANCH  26  40
BRANCH  27  51
ATOM     51  C   UNL A   1      39.757  31.908  35.504  1.00  0.00     0.064 A 
ATOM     52  C   UNL A   1      40.256  33.199  35.721  1.00  0.00     0.173 A 
ATOM     53  C   UNL A   1      38.758  31.439  36.371  1.00  0.00     0.173 A 
ATOM     54  F   UNL A   1      41.221  33.686  34.927  1.00  0.00    -0.203 F 
ATOM     55  C   UNL A   1      39.776  33.989  36.764  1.00  0.00     0.198 A 
ATOM     56  C   UNL A   1      38.260  32.239  37.396  1.00  0.00     0.198 A 
ATOM     57  F   UNL A   1      38.242  30.213  36.199  1.00  0.00    -0.203 F 
ATOM     58  F   UNL A   1      40.288  35.210  36.967  1.00  0.00    -0.200 F 
ATOM     59  C   UNL A   1      38.771  33.512  37.594  1.00  0.00     0.200 A 
ATOM     60  F   UNL A   1      37.274  31.782  38.180  1.00  0.00    -0.200 F 
ATOM     61  F   UNL A   1      38.298  34.280  38.584  1.00  0.00    -0.200 F 
ENDBRANCH  27  51
BRANCH  39  62
ATOM     62  C   UNL A   1      45.218  27.675  34.430  1.00  0.00     0.064 A 
ATOM     63  C   UNL A   1      46.385  28.452  34.426  1.00  0.00     0.173 A 
ATOM     64  C   UNL A   1      45.162  26.576  35.303  1.00  0.00     0.173 A 
ATOM     65  F   UNL A   1      46.495  29.502  33.599  1.00  0.00    -0.203 F 
ATOM     66  C   UNL A   1      47.457  28.135  35.259  1.00  0.00     0.198 A 
ATOM     67  C   UNL A   1      46.222  26.282  36.155  1.00  0.00     0.198 A 
ATOM     68  F   UNL A   1      44.066  25.803  35.346  1.00  0.00    -0.203 F 
ATOM     69  F   UNL A   1      48.576  28.872  35.216  1.00  0.00    -0.200 F 
ATOM     70  C   UNL A   1      47.369  27.059  36.130  1.00  0.00     0.200 A 
ATOM     71  F   UNL A   1      46.128  25.252  37.007  1.00  0.00    -0.200 F 
ATOM     72  F   UNL A   1      48.393  26.771  36.946  1.00  0.00    -0.200 F 
ENDBRANCH  39  62
ENDBRANCH  13  14
ENDBRANCH   6   8
ENDBRANCH   3   4
ENDBRANCH   2   3
ENDBRANCH   1   2
BRANCH   1  73
ATOM     73  C   UNL A   1      34.330  26.096  25.388  1.00  0.00     0.002 C 
BRANCH  73  74
ATOM     74  C   UNL A   1      34.561  24.583  25.376  1.00  0.00     0.021 C 
BRANCH  74  75
ATOM     75  C   UNL A   1      33.846  23.819  26.486  1.00  0.00     0.116 C 
BRANCH  75  76
ATOM     76  N   UNL A   1      33.107  22.676  25.974  1.00  0.00    -0.352 N 
ATOM     77  C   UNL A   1      31.864  22.646  25.392  1.00  0.00     0.251 C 
ATOM     78  H   UNL A   1      33.559  21.806  26.056  1.00  0.00     0.163 HD
ATOM     79  O   UNL A   1      31.299  21.576  25.185  1.00  0.00    -0.269 OA
BRANCH  77  80
ATOM     80  C   UNL A   1      31.202  23.914  25.027  1.00  0.00     0.040 A 
ATOM     81  C   UNL A   1      30.370  24.539  25.952  1.00  0.00     0.016 A 
ATOM     82  C   UNL A   1      31.430  24.499  23.781  1.00  0.00     0.020 A 
ATOM     83  C   UNL A   1      29.792  25.768  25.631  1.00  0.00     0.027 A 
ATOM     84  C   UNL A   1      30.914  25.769  23.488  1.00  0.00    -0.017 A 
ATOM     85  C   UNL A   1      30.034  26.383  24.392  1.00  0.00     0.038 A 
ATOM     86  C   UNL A   1      31.329  26.462  22.212  1.00  0.00     0.049 C 
ATOM     87  N   UNL A   1      29.467  27.624  24.127  1.00  0.00    -0.378 N 
ATOM     88  C   UNL A   1      32.825  26.659  22.121  1.00  0.00    -0.023 C 
ATOM     89  C   UNL A   1      30.844  27.918  22.102  1.00  0.00     0.031 C 
ATOM     90  C   UNL A   1      29.478  28.130  22.760  1.00  0.00     0.114 C 
ATOM     91  H   UNL A   1      29.063  28.154  24.852  1.00  0.00     0.161 HD
ATOM     92  C   UNL A   1      33.185  27.924  22.366  1.00  0.00    -0.030 C 
ATOM     93  C   UNL A   1      31.994  28.781  22.653  1.00  0.00     0.034 C 
BRANCH  90  94
ATOM     94  C   UNL A   1      29.021  29.580  22.679  1.00  0.00    -0.022 A 
ATOM     95  C   UNL A   1      28.395  30.036  21.509  1.00  0.00     0.026 A 
ATOM     96  C   UNL A   1      29.201  30.505  23.715  1.00  0.00     0.026 A 
ATOM     97  C   UNL A   1      27.988  31.359  21.428  1.00  0.00     0.111 A 
ATOM     98  C   UNL A   1      28.745  31.804  23.547  1.00  0.00     0.111 A 
ATOM     99  N   UNL A   1      28.144  32.252  22.425  1.00  0.00    -0.265 NA
ENDBRANCH  90  94
ENDBRANCH  77  80
ENDBRANCH  75  76
ENDBRANCH  74  75
ENDBRANCH  73  74
ENDBRANCH   1  73
TORSDOF 14
ENDMDL
MODEL 2
REMARK VINA RESULT:     -12.7      2.724      8.431
REMARK SMILES O=C(NCCCCCCNC(=O)c1ccc2c(c1)[C@@H]1C=CC[C@@H]1[C@H](c1ccncc1)N2)c1ccc(-c2c3nc(c(-c4c(F)c(F)c(F)c(F)c4F)c4ccc([nH]4)c(-c4c(F)c(F)c(F)c(F)c4F)c4nc(c(-c5c(F)c(F)c(F)c(F)c5F)c5ccc2[nH]5)C=C4)C=C3)cc1
REMARK SMILES IDX 6 1 5 2 4 3 3 4 1 5 2 6 32 8 33 9 94 10 34 11 93 12 35 13
REMARK SMILES IDX 36 14 37 15 87 16 38 17 92 18 86 19 88 20 39 21 91 22 85 23
REMARK SMILES IDX 84 24 40 26 72 27 52 28 71 29 53 30 56 31 70 32 89 33 54 34
REMARK SMILES IDX 55 35 69 37 90 38 57 39 41 40 42 41 50 42 43 43 44 44 48 45
REMARK SMILES IDX 51 46 45 47 46 48 49 49 47 50 73 51 74 52 82 53 75 54 76 55
REMARK SMILES IDX 80 56 83 57 77 58 78 59 81 60 79 61 58 62 59 63 67 64 60 65
REMARK SMILES IDX 61 66 65 67 68 68 62 69 63 70 66 71 64 72 7 73 8 74 9 75
REMARK SMILES IDX 10 76 11 77 12 79 13 80 14 81 18 82 15 83 17 84 16 85 19 86
REMARK SMILES IDX 31 87 20 88 23 89 24 90 21 92 22 93 25 94 26 95 30 96 27 97
REMARK SMILES IDX 29 98 28 99
REMARK H PARENT 3 7 88 25 56 36 10 78 31 91
REMARK Flexibility Score: inf
ROOT
ATOM      1  C   UNL A   1      31.743  27.927  26.620  1.00  0.00     0.002 C 
ENDROOT
BRANCH   1   2
ATOM      2  C   UNL A   1      33.206  27.487  26.698  1.00  0.00     0.021 C 
BRANCH   2   3
ATOM      3  C   UNL A   1      34.212  28.532  26.227  1.00  0.00     0.116 C 
BRANCH   3   4
ATOM      4  N   UNL A   1      33.903  29.859  26.734  1.00  0.00    -0.352 N 
ATOM      5  O   UNL A   1      34.059  31.635  28.114  1.00  0.00    -0.269 OA
ATOM      6  C   UNL A   1      34.571  30.615  27.660  1.00  0.00     0.251 C 
ATOM      7  H   UNL A   1      33.094  30.274  26.356  1.00  0.00     0.163 HD
BRANCH   6   8
ATOM      8  C   UNL A   1      35.905  30.193  28.131  1.00  0.00     0.039 A 
ATOM      9  C   UNL A   1      37.038  30.361  27.327  1.00  0.00     0.014 A 
ATOM     10  C   UNL A   1      36.025  29.648  29.412  1.00  0.00     0.014 A 
ATOM     11  C   UNL A   1      38.270  29.877  27.756  1.00  0.00     0.010 A 
ATOM     12  C   UNL A   1      37.275  29.230  29.870  1.00  0.00     0.010 A 
ATOM     13  C   UNL A   1      38.402  29.319  29.035  1.00  0.00    -0.014 A 
BRANCH  13  14
ATOM     14  C   UNL A   1      39.728  28.873  29.529  1.00  0.00     0.031 A 
ATOM     15  C   UNL A   1      40.529  29.738  30.456  1.00  0.00     0.074 A 
ATOM     16  C   UNL A   1      40.228  27.700  29.096  1.00  0.00     0.049 A 
ATOM     17  N   UNL A   1      41.749  29.571  30.900  1.00  0.00    -0.248 NA
ATOM     18  C   UNL A   1      39.875  30.963  30.940  1.00  0.00     0.031 C 
ATOM     19  C   UNL A   1      39.539  26.775  28.196  1.00  0.00     0.029 A 
ATOM     20  N   UNL A   1      41.436  27.097  29.337  1.00  0.00    -0.354 N 
ATOM     21  C   UNL A   1      42.019  30.678  31.692  1.00  0.00     0.074 A 
ATOM     22  C   UNL A   1      40.845  31.525  31.647  1.00  0.00     0.031 C 
ATOM     23  C   UNL A   1      40.334  25.722  27.959  1.00  0.00     0.029 A 
ATOM     24  C   UNL A   1      41.610  25.929  28.637  1.00  0.00     0.049 A 
ATOM     25  H   UNL A   1      42.112  27.466  29.951  1.00  0.00     0.167 HD
ATOM     26  C   UNL A   1      43.144  30.958  32.394  1.00  0.00     0.037 A 
ATOM     27  C   UNL A   1      42.688  25.134  28.518  1.00  0.00     0.037 A 
ATOM     28  C   UNL A   1      44.307  30.106  32.426  1.00  0.00     0.049 A 
ATOM     29  C   UNL A   1      43.945  25.488  29.262  1.00  0.00     0.074 A 
ATOM     30  C   UNL A   1      45.484  30.278  33.135  1.00  0.00     0.029 A 
ATOM     31  N   UNL A   1      44.445  28.928  31.703  1.00  0.00    -0.354 N 
ATOM     32  N   UNL A   1      44.180  26.517  30.039  1.00  0.00    -0.248 NA
ATOM     33  C   UNL A   1      45.083  24.572  29.115  1.00  0.00     0.031 C 
ATOM     34  C   UNL A   1      46.357  29.242  32.789  1.00  0.00     0.029 A 
ATOM     35  C   UNL A   1      45.700  28.381  31.923  1.00  0.00     0.049 A 
ATOM     36  H   UNL A   1      43.754  28.540  31.119  1.00  0.00     0.167 HD
ATOM     37  C   UNL A   1      45.480  26.357  30.502  1.00  0.00     0.074 A 
ATOM     38  C   UNL A   1      45.982  25.132  29.915  1.00  0.00     0.031 C 
ATOM     39  C   UNL A   1      46.184  27.152  31.343  1.00  0.00     0.037 A 
BRANCH  26  40
ATOM     40  C   UNL A   1      43.187  32.258  33.147  1.00  0.00     0.064 A 
ATOM     41  C   UNL A   1      43.662  33.443  32.563  1.00  0.00     0.173 A 
ATOM     42  C   UNL A   1      42.737  32.322  34.476  1.00  0.00     0.173 A 
ATOM     43  F   UNL A   1      44.109  33.439  31.298  1.00  0.00    -0.203 F 
ATOM     44  C   UNL A   1      43.729  34.627  33.293  1.00  0.00     0.198 A 
ATOM     45  C   UNL A   1      42.772  33.517  35.192  1.00  0.00     0.198 A 
ATOM     46  F   UNL A   1      42.263  31.224  35.085  1.00  0.00    -0.203 F 
ATOM     47  F   UNL A   1      44.251  35.728  32.734  1.00  0.00    -0.200 F 
ATOM     48  C   UNL A   1      43.281  34.664  34.605  1.00  0.00     0.200 A 
ATOM     49  F   UNL A   1      42.323  33.553  36.453  1.00  0.00    -0.200 F 
ATOM     50  F   UNL A   1      43.351  35.803  35.307  1.00  0.00    -0.200 F 
ENDBRANCH  26  40
BRANCH  27  51
ATOM     51  C   UNL A   1      42.610  23.934  27.648  1.00  0.00     0.064 A 
ATOM     52  C   UNL A   1      42.934  24.007  26.287  1.00  0.00     0.173 A 
ATOM     53  C   UNL A   1      42.264  22.679  28.172  1.00  0.00     0.173 A 
ATOM     54  F   UNL A   1      43.257  25.188  25.739  1.00  0.00    -0.203 F 
ATOM     55  C   UNL A   1      42.912  22.871  25.482  1.00  0.00     0.198 A 
ATOM     56  C   UNL A   1      42.270  21.539  27.372  1.00  0.00     0.198 A 
ATOM     57  F   UNL A   1      41.955  22.555  29.472  1.00  0.00    -0.203 F 
ATOM     58  F   UNL A   1      43.201  22.971  24.177  1.00  0.00    -0.200 F 
ATOM     59  C   UNL A   1      42.590  21.636  26.027  1.00  0.00     0.200 A 
ATOM     60  F   UNL A   1      41.980  20.346  27.909  1.00  0.00    -0.200 F 
ATOM     61  F   UNL A   1      42.589  20.541  25.255  1.00  0.00    -0.200 F 
ENDBRANCH  27  51
BRANCH  39  62
ATOM     62  C   UNL A   1      47.561  26.700  31.739  1.00  0.00     0.064 A 
ATOM     63  C   UNL A   1      47.774  25.803  32.795  1.00  0.00     0.173 A 
ATOM     64  C   UNL A   1      48.676  27.114  30.992  1.00  0.00     0.173 A 
ATOM     65  F   UNL A   1      46.745  25.390  33.549  1.00  0.00    -0.203 F 
ATOM     66  C   UNL A   1      49.055  25.344  33.095  1.00  0.00     0.198 A 
ATOM     67  C   UNL A   1      49.949  26.629  31.276  1.00  0.00     0.198 A 
ATOM     68  F   UNL A   1      48.525  27.969  29.970  1.00  0.00    -0.203 F 
ATOM     69  F   UNL A   1      49.241  24.512  34.129  1.00  0.00    -0.200 F 
ATOM     70  C   UNL A   1      50.139  25.747  32.328  1.00  0.00     0.200 A 
ATOM     71  F   UNL A   1      50.991  27.008  30.523  1.00  0.00    -0.200 F 
ATOM     72  F   UNL A   1      51.366  25.287  32.605  1.00  0.00    -0.200 F 
ENDBRANCH  39  62
ENDBRANCH  13  14
ENDBRANCH   6   8
ENDBRANCH   3   4
ENDBRANCH   2   3
ENDBRANCH   1   2
BRANCH   1  73
ATOM     73  C   UNL A   1      31.099  27.810  25.235  1.00  0.00     0.002 C 
BRANCH  73  74
ATOM     74  C   UNL A   1      31.152  29.079  24.381  1.00  0.00     0.021 C 
BRANCH  74  75
ATOM     75  C   UNL A   1      31.207  28.834  22.877  1.00  0.00     0.116 C 
BRANCH  75  76
ATOM     76  N   UNL A   1      32.547  29.011  22.343  1.00  0.00    -0.352 N 
ATOM     77  C   UNL A   1      33.550  28.083  22.208  1.00  0.00     0.251 C 
ATOM     78  H   UNL A   1      32.766  29.920  22.035  1.00  0.00     0.163 HD
ATOM     79  O   UNL A   1      34.689  28.434  21.914  1.00  0.00    -0.269 OA
BRANCH  77  80
ATOM     80  C   UNL A   1      33.253  26.655  22.436  1.00  0.00     0.040 A 
ATOM     81  C   UNL A   1      32.664  25.911  21.416  1.00  0.00     0.016 A 
ATOM     82  C   UNL A   1      33.585  26.047  23.647  1.00  0.00     0.020 A 
ATOM     83  C   UNL A   1      32.438  24.547  21.609  1.00  0.00     0.027 A 
ATOM     84  C   UNL A   1      33.430  24.663  23.812  1.00  0.00    -0.017 A 
ATOM     85  C   UNL A   1      32.792  23.914  22.811  1.00  0.00     0.038 A 
ATOM     86  C   UNL A   1      33.971  23.999  25.057  1.00  0.00     0.049 C 
ATOM     87  N   UNL A   1      32.582  22.548  22.948  1.00  0.00    -0.378 N 
ATOM     88  C   UNL A   1      35.458  24.212  25.226  1.00  0.00    -0.023 C 
ATOM     89  C   UNL A   1      33.906  22.463  25.027  1.00  0.00     0.031 C 
ATOM     90  C   UNL A   1      32.679  21.945  24.271  1.00  0.00     0.114 C 
ATOM     91  H   UNL A   1      32.370  21.994  22.161  1.00  0.00     0.161 HD
ATOM     92  C   UNL A   1      36.164  23.121  24.910  1.00  0.00    -0.030 C 
ATOM     93  C   UNL A   1      35.271  21.999  24.487  1.00  0.00     0.034 C 
BRANCH  90  94
ATOM     94  C   UNL A   1      32.640  20.424  24.215  1.00  0.00    -0.022 A 
ATOM     95  C   UNL A   1      32.845  19.690  25.394  1.00  0.00     0.026 A 
ATOM     96  C   UNL A   1      32.420  19.700  23.037  1.00  0.00     0.026 A 
ATOM     97  C   UNL A   1      32.822  18.305  25.344  1.00  0.00     0.111 A 
ATOM     98  C   UNL A   1      32.398  18.314  23.091  1.00  0.00     0.111 A 
ATOM     99  N   UNL A   1      32.596  17.601  24.219  1.00  0.00    -0.265 NA
ENDBRANCH  90  94
ENDBRANCH  77  80
ENDBRANCH  75  76
ENDBRANCH  74  75
ENDBRANCH  73  74
ENDBRANCH   1  73
TORSDOF 14
ENDMDL
MODEL 3
REMARK VINA RESULT:     -12.7      3.868      7.675
REMARK SMILES O=C(NCCCCCCNC(=O)c1ccc2c(c1)[C@@H]1C=CC[C@@H]1[C@H](c1ccncc1)N2)c1ccc(-c2c3nc(c(-c4c(F)c(F)c(F)c(F)c4F)c4ccc([nH]4)c(-c4c(F)c(F)c(F)c(F)c4F)c4nc(c(-c5c(F)c(F)c(F)c(F)c5F)c5ccc2[nH]5)C=C4)C=C3)cc1
REMARK SMILES IDX 6 1 5 2 4 3 3 4 1 5 2 6 32 8 33 9 94 10 34 11 93 12 35 13
REMARK SMILES IDX 36 14 37 15 87 16 38 17 92 18 86 19 88 20 39 21 91 22 85 23
REMARK SMILES IDX 84 24 40 26 72 27 52 28 71 29 53 30 56 31 70 32 89 33 54 34
REMARK SMILES IDX 55 35 69 37 90 38 57 39 41 40 42 41 50 42 43 43 44 44 48 45
REMARK SMILES IDX 51 46 45 47 46 48 49 49 47 50 73 51 74 52 82 53 75 54 76 55
REMARK SMILES IDX 80 56 83 57 77 58 78 59 81 60 79 61 58 62 59 63 67 64 60 65
REMARK SMILES IDX 61 66 65 67 68 68 62 69 63 70 66 71 64 72 7 73 8 74 9 75
REMARK SMILES IDX 10 76 11 77 12 79 13 80 14 81 18 82 15 83 17 84 16 85 19 86
REMARK SMILES IDX 31 87 20 88 23 89 24 90 21 92 22 93 25 94 26 95 30 96 27 97
REMARK SMILES IDX 29 98 28 99
REMARK H PARENT 3 7 88 25 56 36 10 78 31 91
REMARK Flexibility Score: inf
ROOT
ATOM      1  C   UNL A   1      34.873  25.054  24.995  1.00  0.00     0.002 C 
ENDROOT
BRANCH   1   2
ATOM      2  C   UNL A   1      35.777  24.000  25.636  1.00  0.00     0.021 C 
BRANCH   2   3
ATOM      3  C   UNL A   1      37.128  23.817  24.953  1.00  0.00     0.116 C 
BRANCH   3   4
ATOM      4  N   UNL A   1      37.908  22.750  25.557  1.00  0.00    -0.352 N 
ATOM      5  O   UNL A   1      39.667  21.816  26.614  1.00  0.00    -0.269 OA
ATOM      6  C   UNL A   1      39.021  22.827  26.352  1.00  0.00     0.251 C 
ATOM      7  H   UNL A   1      37.589  21.838  25.367  1.00  0.00     0.163 HD
BRANCH   6   8
ATOM      8  C   UNL A   1      39.459  24.134  26.881  1.00  0.00     0.039 A 
ATOM      9  C   UNL A   1      40.153  25.041  26.073  1.00  0.00     0.014 A 
ATOM     10  C   UNL A   1      39.141  24.466  28.200  1.00  0.00     0.014 A 
ATOM     11  C   UNL A   1      40.631  26.229  26.617  1.00  0.00     0.010 A 
ATOM     12  C   UNL A   1      39.559  25.691  28.724  1.00  0.00     0.010 A 
ATOM     13  C   UNL A   1      40.327  26.570  27.943  1.00  0.00    -0.014 A 
BRANCH  13  14
ATOM     14  C   UNL A   1      40.767  27.871  28.505  1.00  0.00     0.031 A 
ATOM     15  C   UNL A   1      42.189  28.075  28.936  1.00  0.00     0.074 A 
ATOM     16  C   UNL A   1      39.861  28.853  28.670  1.00  0.00     0.049 A 
ATOM     17  N   UNL A   1      42.731  29.096  29.550  1.00  0.00    -0.248 NA
ATOM     18  C   UNL A   1      43.126  26.980  28.646  1.00  0.00     0.031 C 
ATOM     19  C   UNL A   1      38.452  28.769  28.288  1.00  0.00     0.029 A 
ATOM     20  N   UNL A   1      39.986  30.103  29.221  1.00  0.00    -0.354 N 
ATOM     21  C   UNL A   1      44.063  28.757  29.746  1.00  0.00     0.074 A 
ATOM     22  C   UNL A   1      44.241  27.425  29.207  1.00  0.00     0.031 C 
ATOM     23  C   UNL A   1      37.840  29.916  28.614  1.00  0.00     0.029 A 
ATOM     24  C   UNL A   1      38.798  30.789  29.287  1.00  0.00     0.049 A 
ATOM     25  H   UNL A   1      40.841  30.472  29.538  1.00  0.00     0.167 HD
ATOM     26  C   UNL A   1      45.045  29.495  30.319  1.00  0.00     0.037 A 
ATOM     27  C   UNL A   1      38.501  31.968  29.861  1.00  0.00     0.037 A 
ATOM     28  C   UNL A   1      44.849  30.819  30.854  1.00  0.00     0.049 A 
ATOM     29  C   UNL A   1      39.591  32.748  30.539  1.00  0.00     0.074 A 
ATOM     30  C   UNL A   1      45.785  31.668  31.422  1.00  0.00     0.029 A 
ATOM     31  N   UNL A   1      43.630  31.482  30.902  1.00  0.00    -0.354 N 
ATOM     32  N   UNL A   1      40.856  32.439  30.687  1.00  0.00    -0.248 NA
ATOM     33  C   UNL A   1      39.215  34.040  31.127  1.00  0.00     0.031 C 
ATOM     34  C   UNL A   1      45.120  32.812  31.874  1.00  0.00     0.029 A 
ATOM     35  C   UNL A   1      43.783  32.714  31.520  1.00  0.00     0.049 A 
ATOM     36  H   UNL A   1      42.781  31.128  30.550  1.00  0.00     0.167 HD
ATOM     37  C   UNL A   1      41.436  33.509  31.355  1.00  0.00     0.074 A 
ATOM     38  C   UNL A   1      40.383  34.476  31.585  1.00  0.00     0.031 C 
ATOM     39  C   UNL A   1      42.728  33.674  31.732  1.00  0.00     0.037 A 
BRANCH  26  40
ATOM     40  C   UNL A   1      46.405  28.867  30.438  1.00  0.00     0.064 A 
ATOM     41  C   UNL A   1      47.376  28.998  29.433  1.00  0.00     0.173 A 
ATOM     42  C   UNL A   1      46.747  28.128  31.582  1.00  0.00     0.173 A 
ATOM     43  F   UNL A   1      47.103  29.688  28.315  1.00  0.00    -0.203 F 
ATOM     44  C   UNL A   1      48.616  28.373  29.547  1.00  0.00     0.198 A 
ATOM     45  C   UNL A   1      48.001  27.535  31.709  1.00  0.00     0.198 A 
ATOM     46  F   UNL A   1      45.863  27.977  32.581  1.00  0.00    -0.203 F 
ATOM     47  F   UNL A   1      49.500  28.456  28.543  1.00  0.00    -0.200 F 
ATOM     48  C   UNL A   1      48.929  27.647  30.685  1.00  0.00     0.200 A 
ATOM     49  F   UNL A   1      48.307  26.848  32.817  1.00  0.00    -0.200 F 
ATOM     50  F   UNL A   1      50.121  27.043  30.791  1.00  0.00    -0.200 F 
ENDBRANCH  26  40
BRANCH  27  51
ATOM     51  C   UNL A   1      37.102  32.462  29.817  1.00  0.00     0.064 A 
ATOM     52  C   UNL A   1      36.222  32.233  30.883  1.00  0.00     0.173 A 
ATOM     53  C   UNL A   1      36.633  33.221  28.733  1.00  0.00     0.173 A 
ATOM     54  F   UNL A   1      36.620  31.501  31.934  1.00  0.00    -0.203 F 
ATOM     55  C   UNL A   1      34.925  32.742  30.865  1.00  0.00     0.198 A 
ATOM     56  C   UNL A   1      35.346  33.753  28.730  1.00  0.00     0.198 A 
ATOM     57  F   UNL A   1      37.441  33.476  27.693  1.00  0.00    -0.203 F 
ATOM     58  F   UNL A   1      34.094  32.487  31.885  1.00  0.00    -0.200 F 
ATOM     59  C   UNL A   1      34.492  33.510  29.794  1.00  0.00     0.200 A 
ATOM     60  F   UNL A   1      34.941  34.512  27.703  1.00  0.00    -0.200 F 
ATOM     61  F   UNL A   1      33.251  34.015  29.788  1.00  0.00    -0.200 F 
ENDBRANCH  27  51
BRANCH  39  62
ATOM     62  C   UNL A   1      43.101  34.975  32.383  1.00  0.00     0.064 A 
ATOM     63  C   UNL A   1      43.575  36.068  31.643  1.00  0.00     0.173 A 
ATOM     64  C   UNL A   1      42.904  35.151  33.762  1.00  0.00     0.173 A 
ATOM     65  F   UNL A   1      43.797  35.946  30.326  1.00  0.00    -0.203 F 
ATOM     66  C   UNL A   1      43.847  37.286  32.262  1.00  0.00     0.198 A 
ATOM     67  C   UNL A   1      43.146  36.379  34.371  1.00  0.00     0.198 A 
ATOM     68  F   UNL A   1      42.449  34.137  34.514  1.00  0.00    -0.203 F 
ATOM     69  F   UNL A   1      44.331  38.308  31.542  1.00  0.00    -0.200 F 
ATOM     70  C   UNL A   1      43.621  37.444  33.622  1.00  0.00     0.200 A 
ATOM     71  F   UNL A   1      42.911  36.532  35.682  1.00  0.00    -0.200 F 
ATOM     72  F   UNL A   1      43.862  38.623  34.210  1.00  0.00    -0.200 F 
ENDBRANCH  39  62
ENDBRANCH  13  14
ENDBRANCH   6   8
ENDBRANCH   3   4
ENDBRANCH   2   3
ENDBRANCH   1   2
BRANCH   1  73
ATOM     73  C   UNL A   1      33.988  25.837  25.970  1.00  0.00     0.002 C 
BRANCH  73  74
ATOM     74  C   UNL A   1      33.518  27.205  25.470  1.00  0.00     0.021 C 
BRANCH  74  75
ATOM     75  C   UNL A   1      33.712  27.441  23.976  1.00  0.00     0.116 C 
BRANCH  75  76
ATOM     76  N   UNL A   1      32.446  27.620  23.282  1.00  0.00    -0.352 N 
ATOM     77  C   UNL A   1      31.662  26.677  22.666  1.00  0.00     0.251 C 
ATOM     78  H   UNL A   1      32.105  28.542  23.250  1.00  0.00     0.163 HD
ATOM     79  O   UNL A   1      30.716  27.017  21.960  1.00  0.00    -0.269 OA
BRANCH  77  80
ATOM     80  C   UNL A   1      31.972  25.244  22.845  1.00  0.00     0.040 A 
ATOM     81  C   UNL A   1      32.868  24.627  21.976  1.00  0.00     0.016 A 
ATOM     82  C   UNL A   1      31.400  24.522  23.893  1.00  0.00     0.020 A 
ATOM     83  C   UNL A   1      33.208  23.289  22.182  1.00  0.00     0.027 A 
ATOM     84  C   UNL A   1      31.800  23.203  24.147  1.00  0.00    -0.017 A 
ATOM     85  C   UNL A   1      32.663  22.556  23.248  1.00  0.00     0.038 A 
ATOM     86  C   UNL A   1      31.310  22.506  25.395  1.00  0.00     0.049 C 
ATOM     87  N   UNL A   1      33.055  21.237  23.438  1.00  0.00    -0.378 N 
ATOM     88  C   UNL A   1      31.696  23.242  26.658  1.00  0.00    -0.023 C 
ATOM     89  C   UNL A   1      31.970  21.140  25.650  1.00  0.00     0.031 C 
ATOM     90  C   UNL A   1      32.293  20.395  24.352  1.00  0.00     0.114 C 
ATOM     91  H   UNL A   1      33.837  20.875  22.961  1.00  0.00     0.161 HD
ATOM     92  C   UNL A   1      32.712  22.651  27.297  1.00  0.00    -0.030 C 
ATOM     93  C   UNL A   1      33.166  21.422  26.577  1.00  0.00     0.034 C 
BRANCH  90  94
ATOM     94  C   UNL A   1      32.977  19.061  24.612  1.00  0.00    -0.022 A 
ATOM     95  C   UNL A   1      34.341  18.921  24.309  1.00  0.00     0.026 A 
ATOM     96  C   UNL A   1      32.316  17.942  25.132  1.00  0.00     0.026 A 
ATOM     97  C   UNL A   1      34.964  17.703  24.533  1.00  0.00     0.111 A 
ATOM     98  C   UNL A   1      33.029  16.771  25.338  1.00  0.00     0.111 A 
ATOM     99  N   UNL A   1      34.340  16.626  25.048  1.00  0.00    -0.265 NA
ENDBRANCH  90  94
ENDBRANCH  77  80
ENDBRANCH  75  76
ENDBRANCH  74  75
ENDBRANCH  73  74
ENDBRANCH   1  73
TORSDOF 14
ENDMDL
