MODEL 1
REMARK VINA RESULT:     -12.8      0.000      0.000
REMARK SMILES CS(=O)(=O)c1ccc(/C=C(/C(=O)NCCCCCCNC(=O)c2ccc(-c3c4nc(c(-c5c(F)c(F)c(F)c(F)c5F)c5ccc([nH]5)c(-c5c(F)c(F)c(F)c(F)c5F)c5nc(c(-c6c(F)c(F)c(F)c(F)c6F)c6ccc3[nH]6)C=C5)C=C4)cc2)c2ccc(O)cc2)cc1
REMARK SMILES IDX 16 1 15 2 14 3 13 4 11 5 12 6 10 8 9 9 8 10 5 11 6 12 94 13
REMARK SMILES IDX 7 14 93 15 2 16 1 17 3 18 4 19 86 20 87 21 92 22 88 23 91 24
REMARK SMILES IDX 89 25 90 26 17 28 18 29 19 30 20 31 21 32 22 34 23 35 24 36
REMARK SMILES IDX 85 37 25 38 84 39 26 40 27 41 28 42 78 43 29 44 83 45 77 46
REMARK SMILES IDX 79 47 30 48 82 49 76 50 75 51 31 53 63 54 43 55 62 56 44 57
REMARK SMILES IDX 47 58 61 59 80 60 45 61 46 62 60 64 81 65 48 66 32 67 33 68
REMARK SMILES IDX 41 69 34 70 35 71 39 72 42 73 36 74 37 75 40 76 38 77 64 78
REMARK SMILES IDX 65 79 73 80 66 81 67 82 71 83 74 84 68 85 69 86 72 87 70 88
REMARK SMILES IDX 49 89 50 90 58 91 51 92 52 93 56 94 59 95 53 96 54 97 57 98
REMARK SMILES IDX 55 99
REMARK H PARENT 13 7 90 27 20 33 79 52 47 63
REMARK Flexibility Score: inf
ROOT
ATOM      1  C   UNL A   1      36.890  22.034  24.351  1.00  0.00     0.002 C 
ENDROOT
BRANCH   1   2
ATOM      2  C   UNL A   1      35.728  22.635  23.541  1.00  0.00     0.021 C 
BRANCH   2   3
ATOM      3  C   UNL A   1      35.078  23.848  24.214  1.00  0.00     0.116 C 
BRANCH   3   4
ATOM      4  N   UNL A   1      34.125  23.396  25.206  1.00  0.00    -0.352 N 
ATOM      5  C   UNL A   1      33.016  23.934  25.776  1.00  0.00     0.251 C 
ATOM      6  O   UNL A   1      32.509  23.277  26.688  1.00  0.00    -0.269 OA
ATOM      7  H   UNL A   1      34.326  22.493  25.545  1.00  0.00     0.163 HD
BRANCH   5   8
ATOM      8  C   UNL A   1      32.354  25.201  25.281  1.00  0.00     0.047 C 
ATOM      9  C   UNL A   1      31.689  25.254  24.105  1.00  0.00     0.022 C 
BRANCH   9  10
ATOM     10  C   UNL A   1      30.860  26.350  23.556  1.00  0.00    -0.025 A 
ATOM     11  C   UNL A   1      29.199  28.481  22.782  1.00  0.00     0.067 A 
ATOM     12  C   UNL A   1      30.536  28.456  22.381  1.00  0.00     0.021 A 
ATOM     13  C   UNL A   1      28.666  27.427  23.523  1.00  0.00     0.021 A 
ATOM     14  C   UNL A   1      31.355  27.382  22.750  1.00  0.00     0.009 A 
ATOM     15  C   UNL A   1      29.497  26.367  23.902  1.00  0.00     0.009 A 
BRANCH  11  16
ATOM     16  S   UNL A   1      28.195  29.892  22.377  1.00  0.00     0.175 S 
ATOM     17  C   UNL A   1      28.963  31.275  23.175  1.00  0.00     0.163 C 
ATOM     18  O   UNL A   1      26.904  29.698  23.016  1.00  0.00    -0.224 OA
ATOM     19  O   UNL A   1      28.302  30.076  20.945  1.00  0.00    -0.224 OA
ENDBRANCH  11  16
ENDBRANCH   9  10
BRANCH   8  20
ATOM     20  C   UNL A   1      32.620  26.436  26.065  1.00  0.00    -0.013 A 
ATOM     21  C   UNL A   1      33.855  27.086  25.888  1.00  0.00     0.013 A 
ATOM     22  C   UNL A   1      31.665  27.018  26.910  1.00  0.00     0.013 A 
ATOM     23  C   UNL A   1      34.118  28.305  26.508  1.00  0.00     0.047 A 
ATOM     24  C   UNL A   1      31.921  28.253  27.516  1.00  0.00     0.047 A 
ATOM     25  C   UNL A   1      33.141  28.890  27.299  1.00  0.00     0.115 A 
BRANCH  25  26
ATOM     26  O   UNL A   1      33.416  30.112  27.837  1.00  0.00    -0.508 OA
ATOM     27  H   UNL A   1      34.277  30.473  27.761  1.00  0.00     0.293 HD
ENDBRANCH  25  26
ENDBRANCH   8  20
ENDBRANCH   5   8
ENDBRANCH   3   4
ENDBRANCH   2   3
ENDBRANCH   1   2
BRANCH   1  28
ATOM     28  C   UNL A   1      36.611  20.652  24.956  1.00  0.00     0.002 C 
BRANCH  28  29
ATOM     29  C   UNL A   1      37.812  19.704  24.974  1.00  0.00     0.021 C 
BRANCH  29  30
ATOM     30  C   UNL A   1      39.006  20.215  25.773  1.00  0.00     0.116 C 
BRANCH  30  31
ATOM     31  N   UNL A   1      40.033  19.197  25.928  1.00  0.00    -0.352 N 
ATOM     32  C   UNL A   1      41.383  19.353  26.121  1.00  0.00     0.251 C 
ATOM     33  H   UNL A   1      39.716  18.267  25.889  1.00  0.00     0.163 HD
ATOM     34  O   UNL A   1      42.138  18.390  26.030  1.00  0.00    -0.269 OA
BRANCH  32  35
ATOM     35  C   UNL A   1      41.931  20.692  26.424  1.00  0.00     0.039 A 
ATOM     36  C   UNL A   1      42.216  21.560  25.366  1.00  0.00     0.014 A 
ATOM     37  C   UNL A   1      42.178  21.082  27.743  1.00  0.00     0.014 A 
ATOM     38  C   UNL A   1      42.700  22.842  25.636  1.00  0.00     0.010 A 
ATOM     39  C   UNL A   1      42.597  22.382  28.013  1.00  0.00     0.010 A 
ATOM     40  C   UNL A   1      42.868  23.271  26.962  1.00  0.00    -0.014 A 
BRANCH  40  41
ATOM     41  C   UNL A   1      43.340  24.645  27.270  1.00  0.00     0.031 A 
ATOM     42  C   UNL A   1      42.377  25.672  27.796  1.00  0.00     0.074 A 
ATOM     43  C   UNL A   1      44.619  24.983  27.018  1.00  0.00     0.049 A 
ATOM     44  N   UNL A   1      42.577  26.940  28.058  1.00  0.00    -0.248 NA
ATOM     45  C   UNL A   1      40.996  25.222  28.033  1.00  0.00     0.031 C 
ATOM     46  C   UNL A   1      45.636  24.087  26.465  1.00  0.00     0.029 A 
ATOM     47  N   UNL A   1      45.279  26.175  27.183  1.00  0.00    -0.354 N 
ATOM     48  C   UNL A   1      41.350  27.438  28.473  1.00  0.00     0.074 A 
ATOM     49  C   UNL A   1      40.398  26.352  28.380  1.00  0.00     0.031 C 
ATOM     50  C   UNL A   1      46.796  24.755  26.355  1.00  0.00     0.029 A 
ATOM     51  C   UNL A   1      46.596  26.134  26.796  1.00  0.00     0.049 A 
ATOM     52  H   UNL A   1      44.849  26.984  27.544  1.00  0.00     0.167 HD
ATOM     53  C   UNL A   1      41.049  28.683  28.915  1.00  0.00     0.037 A 
ATOM     54  C   UNL A   1      47.534  27.099  26.792  1.00  0.00     0.037 A 
ATOM     55  C   UNL A   1      42.006  29.751  29.034  1.00  0.00     0.049 A 
ATOM     56  C   UNL A   1      47.174  28.472  27.291  1.00  0.00     0.074 A 
ATOM     57  C   UNL A   1      41.815  31.030  29.529  1.00  0.00     0.029 A 
ATOM     58  N   UNL A   1      43.337  29.664  28.655  1.00  0.00    -0.354 N 
ATOM     59  N   UNL A   1      46.027  28.915  27.743  1.00  0.00    -0.248 NA
ATOM     60  C   UNL A   1      48.246  29.479  27.286  1.00  0.00     0.031 C 
ATOM     61  C   UNL A   1      43.020  31.729  29.408  1.00  0.00     0.029 A 
ATOM     62  C   UNL A   1      43.975  30.873  28.885  1.00  0.00     0.049 A 
ATOM     63  H   UNL A   1      43.766  28.863  28.278  1.00  0.00     0.167 HD
ATOM     64  C   UNL A   1      46.242  30.238  28.103  1.00  0.00     0.074 A 
ATOM     65  C   UNL A   1      47.635  30.524  27.828  1.00  0.00     0.031 C 
ATOM     66  C   UNL A   1      45.365  31.136  28.614  1.00  0.00     0.037 A 
BRANCH  53  67
ATOM     67  C   UNL A   1      39.626  28.956  29.307  1.00  0.00     0.064 A 
ATOM     68  C   UNL A   1      39.171  28.745  30.618  1.00  0.00     0.173 A 
ATOM     69  C   UNL A   1      38.715  29.467  28.372  1.00  0.00     0.173 A 
ATOM     70  F   UNL A   1      39.999  28.245  31.548  1.00  0.00    -0.203 F 
ATOM     71  C   UNL A   1      37.849  29.006  30.969  1.00  0.00     0.198 A 
ATOM     72  C   UNL A   1      37.401  29.757  28.734  1.00  0.00     0.198 A 
ATOM     73  F   UNL A   1      39.099  29.693  27.106  1.00  0.00    -0.203 F 
ATOM     74  F   UNL A   1      37.426  28.750  32.214  1.00  0.00    -0.200 F 
ATOM     75  C   UNL A   1      36.968  29.519  30.030  1.00  0.00     0.200 A 
ATOM     76  F   UNL A   1      36.555  30.265  27.828  1.00  0.00    -0.200 F 
ATOM     77  F   UNL A   1      35.698  29.778  30.370  1.00  0.00    -0.200 F 
ENDBRANCH  53  67
BRANCH  54  78
ATOM     78  C   UNL A   1      48.911  26.794  26.325  1.00  0.00     0.064 A 
ATOM     79  C   UNL A   1      49.275  26.992  24.986  1.00  0.00     0.173 A 
ATOM     80  C   UNL A   1      49.887  26.299  27.201  1.00  0.00     0.173 A 
ATOM     81  F   UNL A   1      48.370  27.446  24.106  1.00  0.00    -0.203 F 
ATOM     82  C   UNL A   1      50.558  26.687  24.537  1.00  0.00     0.198 A 
ATOM     83  C   UNL A   1      51.178  26.020  26.757  1.00  0.00     0.198 A 
ATOM     84  F   UNL A   1      49.590  26.098  28.494  1.00  0.00    -0.203 F 
ATOM     85  F   UNL A   1      50.868  26.843  23.242  1.00  0.00    -0.200 F 
ATOM     86  C   UNL A   1      51.510  26.206  25.423  1.00  0.00     0.200 A 
ATOM     87  F   UNL A   1      52.098  25.570  27.621  1.00  0.00    -0.200 F 
ATOM     88  F   UNL A   1      52.745  25.916  24.992  1.00  0.00    -0.200 F 
ENDBRANCH  54  78
BRANCH  66  89
ATOM     89  C   UNL A   1      45.893  32.502  28.943  1.00  0.00     0.064 A 
ATOM     90  C   UNL A   1      46.512  32.776  30.171  1.00  0.00     0.173 A 
ATOM     91  C   UNL A   1      45.816  33.538  27.999  1.00  0.00     0.173 A 
ATOM     92  F   UNL A   1      46.595  31.823  31.111  1.00  0.00    -0.203 F 
ATOM     93  C   UNL A   1      47.013  34.044  30.452  1.00  0.00     0.198 A 
ATOM     94  C   UNL A   1      46.344  34.796  28.272  1.00  0.00     0.198 A 
ATOM     95  F   UNL A   1      45.239  33.326  26.806  1.00  0.00    -0.203 F 
ATOM     96  F   UNL A   1      47.558  34.297  31.650  1.00  0.00    -0.200 F 
ATOM     97  C   UNL A   1      46.935  35.051  29.501  1.00  0.00     0.200 A 
ATOM     98  F   UNL A   1      46.281  35.764  27.347  1.00  0.00    -0.200 F 
ATOM     99  F   UNL A   1      47.425  36.269  29.771  1.00  0.00    -0.200 F 
ENDBRANCH  66  89
ENDBRANCH  40  41
ENDBRANCH  32  35
ENDBRANCH  30  31
ENDBRANCH  29  30
ENDBRANCH  28  29
ENDBRANCH   1  28
TORSDOF 17
ENDMDL
MODEL 2
REMARK VINA RESULT:     -12.6      5.494     11.021
REMARK SMILES CS(=O)(=O)c1ccc(/C=C(/C(=O)NCCCCCCNC(=O)c2ccc(-c3c4nc(c(-c5c(F)c(F)c(F)c(F)c5F)c5ccc([nH]5)c(-c5c(F)c(F)c(F)c(F)c5F)c5nc(c(-c6c(F)c(F)c(F)c(F)c6F)c6ccc3[nH]6)C=C5)C=C4)cc2)c2ccc(O)cc2)cc1
REMARK SMILES IDX 16 1 15 2 14 3 13 4 11 5 12 6 10 8 9 9 8 10 5 11 6 12 94 13
REMARK SMILES IDX 7 14 93 15 2 16 1 17 3 18 4 19 86 20 87 21 92 22 88 23 91 24
REMARK SMILES IDX 89 25 90 26 17 28 18 29 19 30 20 31 21 32 22 34 23 35 24 36
REMARK SMILES IDX 85 37 25 38 84 39 26 40 27 41 28 42 78 43 29 44 83 45 77 46
REMARK SMILES IDX 79 47 30 48 82 49 76 50 75 51 31 53 63 54 43 55 62 56 44 57
REMARK SMILES IDX 47 58 61 59 80 60 45 61 46 62 60 64 81 65 48 66 32 67 33 68
REMARK SMILES IDX 41 69 34 70 35 71 39 72 42 73 36 74 37 75 40 76 38 77 64 78
REMARK SMILES IDX 65 79 73 80 66 81 67 82 71 83 74 84 68 85 69 86 72 87 70 88
REMARK SMILES IDX 49 89 50 90 58 91 51 92 52 93 56 94 59 95 53 96 54 97 57 98
REMARK SMILES IDX 55 99
REMARK H PARENT 13 7 90 27 20 33 79 52 47 63
REMARK Flexibility Score: inf
ROOT
ATOM      1  C   UNL A   1      32.308  29.436  26.856  1.00  0.00     0.002 C 
ENDROOT
BRANCH   1   2
ATOM      2  C   UNL A   1      31.786  27.993  26.740  1.00  0.00     0.021 C 
BRANCH   2   3
ATOM      3  C   UNL A   1      32.848  26.995  26.271  1.00  0.00     0.116 C 
BRANCH   3   4
ATOM      4  N   UNL A   1      33.042  27.133  24.842  1.00  0.00    -0.352 N 
ATOM      5  C   UNL A   1      33.422  26.290  23.847  1.00  0.00     0.251 C 
ATOM      6  O   UNL A   1      33.582  26.808  22.739  1.00  0.00    -0.269 OA
ATOM      7  H   UNL A   1      32.855  28.044  24.518  1.00  0.00     0.163 HD
BRANCH   5   8
ATOM      8  C   UNL A   1      33.547  24.793  24.023  1.00  0.00     0.047 C 
ATOM      9  C   UNL A   1      32.465  23.984  24.092  1.00  0.00     0.022 C 
BRANCH   9  10
ATOM     10  C   UNL A   1      32.412  22.505  24.100  1.00  0.00    -0.025 A 
ATOM     11  C   UNL A   1      32.492  19.703  23.893  1.00  0.00     0.067 A 
ATOM     12  C   UNL A   1      32.732  20.321  25.122  1.00  0.00     0.021 A 
ATOM     13  C   UNL A   1      32.161  20.467  22.774  1.00  0.00     0.021 A 
ATOM     14  C   UNL A   1      32.671  21.716  25.227  1.00  0.00     0.009 A 
ATOM     15  C   UNL A   1      32.118  21.861  22.885  1.00  0.00     0.009 A 
BRANCH  11  16
ATOM     16  S   UNL A   1      32.658  17.938  23.759  1.00  0.00     0.175 S 
ATOM     17  C   UNL A   1      34.332  17.575  24.210  1.00  0.00     0.163 C 
ATOM     18  O   UNL A   1      32.516  17.599  22.352  1.00  0.00    -0.224 OA
ATOM     19  O   UNL A   1      31.783  17.364  24.759  1.00  0.00    -0.224 OA
ENDBRANCH  11  16
ENDBRANCH   9  10
BRANCH   8  20
ATOM     20  C   UNL A   1      34.911  24.271  24.293  1.00  0.00    -0.013 A 
ATOM     21  C   UNL A   1      35.438  24.418  25.590  1.00  0.00     0.013 A 
ATOM     22  C   UNL A   1      35.659  23.572  23.336  1.00  0.00     0.013 A 
ATOM     23  C   UNL A   1      36.662  23.851  25.935  1.00  0.00     0.047 A 
ATOM     24  C   UNL A   1      36.880  22.984  23.688  1.00  0.00     0.047 A 
ATOM     25  C   UNL A   1      37.363  23.120  24.988  1.00  0.00     0.115 A 
BRANCH  25  26
ATOM     26  O   UNL A   1      38.526  22.531  25.384  1.00  0.00    -0.508 OA
ATOM     27  H   UNL A   1      38.523  21.914  26.089  1.00  0.00     0.293 HD
ENDBRANCH  25  26
ENDBRANCH   8  20
ENDBRANCH   5   8
ENDBRANCH   3   4
ENDBRANCH   2   3
ENDBRANCH   1   2
BRANCH   1  28
ATOM     28  C   UNL A   1      31.641  30.444  25.912  1.00  0.00     0.002 C 
BRANCH  28  29
ATOM     29  C   UNL A   1      31.412  31.834  26.513  1.00  0.00     0.021 C 
BRANCH  29  30
ATOM     30  C   UNL A   1      32.637  32.436  27.191  1.00  0.00     0.116 C 
BRANCH  30  31
ATOM     31  N   UNL A   1      32.441  33.838  27.522  1.00  0.00    -0.352 N 
ATOM     32  C   UNL A   1      33.045  34.588  28.500  1.00  0.00     0.251 C 
ATOM     33  H   UNL A   1      31.784  34.316  26.969  1.00  0.00     0.163 HD
ATOM     34  O   UNL A   1      32.620  35.705  28.778  1.00  0.00    -0.269 OA
BRANCH  32  35
ATOM     35  C   UNL A   1      34.206  34.040  29.233  1.00  0.00     0.039 A 
ATOM     36  C   UNL A   1      33.979  33.229  30.349  1.00  0.00     0.014 A 
ATOM     37  C   UNL A   1      35.511  34.338  28.833  1.00  0.00     0.014 A 
ATOM     38  C   UNL A   1      35.063  32.673  31.031  1.00  0.00     0.010 A 
ATOM     39  C   UNL A   1      36.588  33.731  29.472  1.00  0.00     0.010 A 
ATOM     40  C   UNL A   1      36.374  32.898  30.582  1.00  0.00    -0.014 A 
BRANCH  40  41
ATOM     41  C   UNL A   1      37.537  32.280  31.267  1.00  0.00     0.031 A 
ATOM     42  C   UNL A   1      38.252  31.118  30.638  1.00  0.00     0.074 A 
ATOM     43  C   UNL A   1      37.908  32.727  32.483  1.00  0.00     0.049 A 
ATOM     44  N   UNL A   1      39.241  30.399  31.109  1.00  0.00    -0.248 NA
ATOM     45  C   UNL A   1      37.776  30.687  29.314  1.00  0.00     0.031 C 
ATOM     46  C   UNL A   1      37.264  33.817  33.216  1.00  0.00     0.029 A 
ATOM     47  N   UNL A   1      38.912  32.309  33.321  1.00  0.00    -0.354 N 
ATOM     48  C   UNL A   1      39.491  29.427  30.150  1.00  0.00     0.074 A 
ATOM     49  C   UNL A   1      38.519  29.614  29.094  1.00  0.00     0.031 C 
ATOM     50  C   UNL A   1      37.900  33.996  34.385  1.00  0.00     0.029 A 
ATOM     51  C   UNL A   1      38.973  33.012  34.500  1.00  0.00     0.049 A 
ATOM     52  H   UNL A   1      39.529  31.576  33.099  1.00  0.00     0.167 HD
ATOM     53  C   UNL A   1      40.459  28.480  30.140  1.00  0.00     0.037 A 
ATOM     54  C   UNL A   1      39.797  32.873  35.555  1.00  0.00     0.037 A 
ATOM     55  C   UNL A   1      41.442  28.318  31.179  1.00  0.00     0.049 A 
ATOM     56  C   UNL A   1      40.866  31.815  35.516  1.00  0.00     0.074 A 
ATOM     57  C   UNL A   1      42.502  27.429  31.233  1.00  0.00     0.029 A 
ATOM     58  N   UNL A   1      41.487  29.064  32.346  1.00  0.00    -0.354 N 
ATOM     59  N   UNL A   1      41.135  30.943  34.575  1.00  0.00    -0.248 NA
ATOM     60  C   UNL A   1      41.752  31.727  36.687  1.00  0.00     0.031 C 
ATOM     61  C   UNL A   1      43.161  27.608  32.453  1.00  0.00     0.029 A 
ATOM     62  C   UNL A   1      42.543  28.642  33.138  1.00  0.00     0.049 A 
ATOM     63  H   UNL A   1      40.861  29.787  32.579  1.00  0.00     0.167 HD
ATOM     64  C   UNL A   1      42.234  30.224  35.023  1.00  0.00     0.074 A 
ATOM     65  C   UNL A   1      42.591  30.770  36.316  1.00  0.00     0.031 C 
ATOM     66  C   UNL A   1      42.889  29.203  34.419  1.00  0.00     0.037 A 
BRANCH  53  67
ATOM     67  C   UNL A   1      40.505  27.546  28.965  1.00  0.00     0.064 A 
ATOM     68  C   UNL A   1      41.328  27.799  27.856  1.00  0.00     0.173 A 
ATOM     69  C   UNL A   1      39.745  26.367  28.962  1.00  0.00     0.173 A 
ATOM     70  F   UNL A   1      42.065  28.918  27.805  1.00  0.00    -0.203 F 
ATOM     71  C   UNL A   1      41.364  26.922  26.776  1.00  0.00     0.198 A 
ATOM     72  C   UNL A   1      39.807  25.477  27.892  1.00  0.00     0.198 A 
ATOM     73  F   UNL A   1      38.945  26.075  29.998  1.00  0.00    -0.203 F 
ATOM     74  F   UNL A   1      42.120  27.210  25.707  1.00  0.00    -0.200 F 
ATOM     75  C   UNL A   1      40.610  25.759  26.798  1.00  0.00     0.200 A 
ATOM     76  F   UNL A   1      39.087  24.347  27.921  1.00  0.00    -0.200 F 
ATOM     77  F   UNL A   1      40.652  24.912  25.760  1.00  0.00    -0.200 F 
ENDBRANCH  53  67
BRANCH  54  78
ATOM     78  C   UNL A   1      39.662  33.778  36.725  1.00  0.00     0.064 A 
ATOM     79  C   UNL A   1      38.899  33.403  37.840  1.00  0.00     0.173 A 
ATOM     80  C   UNL A   1      40.287  35.033  36.756  1.00  0.00     0.173 A 
ATOM     81  F   UNL A   1      38.266  32.220  37.849  1.00  0.00    -0.203 F 
ATOM     82  C   UNL A   1      38.750  34.256  38.931  1.00  0.00     0.198 A 
ATOM     83  C   UNL A   1      40.160  35.874  37.859  1.00  0.00     0.198 A 
ATOM     84  F   UNL A   1      41.033  35.437  35.716  1.00  0.00    -0.203 F 
ATOM     85  F   UNL A   1      37.979  33.890  39.964  1.00  0.00    -0.200 F 
ATOM     86  C   UNL A   1      39.385  35.488  38.942  1.00  0.00     0.200 A 
ATOM     87  F   UNL A   1      40.787  37.058  37.871  1.00  0.00    -0.200 F 
ATOM     88  F   UNL A   1      39.245  36.307  39.993  1.00  0.00    -0.200 F 
ENDBRANCH  54  78
BRANCH  66  89
ATOM     89  C   UNL A   1      44.080  28.632  35.132  1.00  0.00     0.064 A 
ATOM     90  C   UNL A   1      45.353  29.207  35.014  1.00  0.00     0.173 A 
ATOM     91  C   UNL A   1      43.935  27.520  35.976  1.00  0.00     0.173 A 
ATOM     92  F   UNL A   1      45.546  30.261  34.207  1.00  0.00    -0.203 F 
ATOM     93  C   UNL A   1      46.444  28.675  35.697  1.00  0.00     0.198 A 
ATOM     94  C   UNL A   1      45.021  27.010  36.680  1.00  0.00     0.198 A 
ATOM     95  F   UNL A   1      42.736  26.938  36.128  1.00  0.00    -0.203 F 
ATOM     96  F   UNL A   1      47.661  29.211  35.534  1.00  0.00    -0.200 F 
ATOM     97  C   UNL A   1      46.275  27.582  36.535  1.00  0.00     0.200 A 
ATOM     98  F   UNL A   1      44.854  25.963  37.500  1.00  0.00    -0.200 F 
ATOM     99  F   UNL A   1      47.325  27.077  37.198  1.00  0.00    -0.200 F 
ENDBRANCH  66  89
ENDBRANCH  40  41
ENDBRANCH  32  35
ENDBRANCH  30  31
ENDBRANCH  29  30
ENDBRANCH  28  29
ENDBRANCH   1  28
TORSDOF 17
ENDMDL
MODEL 3
REMARK VINA RESULT:     -12.6      0.461      7.124
REMARK SMILES CS(=O)(=O)c1ccc(/C=C(/C(=O)NCCCCCCNC(=O)c2ccc(-c3c4nc(c(-c5c(F)c(F)c(F)c(F)c5F)c5ccc([nH]5)c(-c5c(F)c(F)c(F)c(F)c5F)c5nc(c(-c6c(F)c(F)c(F)c(F)c6F)c6ccc3[nH]6)C=C5)C=C4)cc2)c2ccc(O)cc2)cc1
REMARK SMILES IDX 16 1 15 2 14 3 13 4 11 5 12 6 10 8 9 9 8 10 5 11 6 12 94 13
REMARK SMILES IDX 7 14 93 15 2 16 1 17 3 18 4 19 86 20 87 21 92 22 88 23 91 24
REMARK SMILES IDX 89 25 90 26 17 28 18 29 19 30 20 31 21 32 22 34 23 35 24 36
REMARK SMILES IDX 85 37 25 38 84 39 26 40 27 41 28 42 78 43 29 44 83 45 77 46
REMARK SMILES IDX 79 47 30 48 82 49 76 50 75 51 31 53 63 54 43 55 62 56 44 57
REMARK SMILES IDX 47 58 61 59 80 60 45 61 46 62 60 64 81 65 48 66 32 67 33 68
REMARK SMILES IDX 41 69 34 70 35 71 39 72 42 73 36 74 37 75 40 76 38 77 64 78
REMARK SMILES IDX 65 79 73 80 66 81 67 82 71 83 74 84 68 85 69 86 72 87 70 88
REMARK SMILES IDX 49 89 50 90 58 91 51 92 52 93 56 94 59 95 53 96 54 97 57 98
REMARK SMILES IDX 55 99
REMARK H PARENT 13 7 90 27 20 33 79 52 47 63
REMARK Flexibility Score: inf
ROOT
ATOM      1  C   UNL A   1      36.661  22.010  24.568  1.00  0.00     0.002 C 
ENDROOT
BRANCH   1   2
ATOM      2  C   UNL A   1      35.477  22.587  23.772  1.00  0.00     0.021 C 
BRANCH   2   3
ATOM      3  C   UNL A   1      34.820  23.796  24.445  1.00  0.00     0.116 C 
BRANCH   3   4
ATOM      4  N   UNL A   1      33.793  23.339  25.360  1.00  0.00    -0.352 N 
ATOM      5  C   UNL A   1      32.657  23.886  25.865  1.00  0.00     0.251 C 
ATOM      6  O   UNL A   1      32.079  23.218  26.725  1.00  0.00    -0.269 OA
ATOM      7  H   UNL A   1      33.956  22.426  25.691  1.00  0.00     0.163 HD
BRANCH   5   8
ATOM      8  C   UNL A   1      32.052  25.175  25.355  1.00  0.00     0.047 C 
ATOM      9  C   UNL A   1      31.377  25.240  24.184  1.00  0.00     0.022 C 
BRANCH   9  10
ATOM     10  C   UNL A   1      30.596  26.365  23.625  1.00  0.00    -0.025 A 
ATOM     11  C   UNL A   1      29.025  28.556  22.831  1.00  0.00     0.067 A 
ATOM     12  C   UNL A   1      30.365  28.480  22.445  1.00  0.00     0.021 A 
ATOM     13  C   UNL A   1      28.445  27.523  23.567  1.00  0.00     0.021 A 
ATOM     14  C   UNL A   1      31.139  27.377  22.825  1.00  0.00     0.009 A 
ATOM     15  C   UNL A   1      29.231  26.433  23.955  1.00  0.00     0.009 A 
BRANCH  11  16
ATOM     16  S   UNL A   1      28.079  30.002  22.413  1.00  0.00     0.175 S 
ATOM     17  C   UNL A   1      29.029  31.382  22.990  1.00  0.00     0.163 C 
ATOM     18  O   UNL A   1      26.862  29.965  23.207  1.00  0.00    -0.224 OA
ATOM     19  O   UNL A   1      28.028  30.059  20.967  1.00  0.00    -0.224 OA
ENDBRANCH  11  16
ENDBRANCH   9  10
BRANCH   8  20
ATOM     20  C   UNL A   1      32.386  26.408  26.114  1.00  0.00    -0.013 A 
ATOM     21  C   UNL A   1      33.663  26.974  25.941  1.00  0.00     0.013 A 
ATOM     22  C   UNL A   1      31.459  27.069  26.931  1.00  0.00     0.013 A 
ATOM     23  C   UNL A   1      33.995  28.188  26.537  1.00  0.00     0.047 A 
ATOM     24  C   UNL A   1      31.786  28.300  27.513  1.00  0.00     0.047 A 
ATOM     25  C   UNL A   1      33.047  28.853  27.300  1.00  0.00     0.115 A 
BRANCH  25  26
ATOM     26  O   UNL A   1      33.392  30.066  27.814  1.00  0.00    -0.508 OA
ATOM     27  H   UNL A   1      32.934  30.409  28.555  1.00  0.00     0.293 HD
ENDBRANCH  25  26
ENDBRANCH   8  20
ENDBRANCH   5   8
ENDBRANCH   3   4
ENDBRANCH   2   3
ENDBRANCH   1   2
BRANCH   1  28
ATOM     28  C   UNL A   1      36.504  20.545  24.992  1.00  0.00     0.002 C 
BRANCH  28  29
ATOM     29  C   UNL A   1      37.788  19.714  24.925  1.00  0.00     0.021 C 
BRANCH  29  30
ATOM     30  C   UNL A   1      38.945  20.277  25.744  1.00  0.00     0.116 C 
BRANCH  30  31
ATOM     31  N   UNL A   1      40.011  19.304  25.919  1.00  0.00    -0.352 N 
ATOM     32  C   UNL A   1      41.349  19.517  26.137  1.00  0.00     0.251 C 
ATOM     33  H   UNL A   1      39.735  18.361  25.875  1.00  0.00     0.163 HD
ATOM     34  O   UNL A   1      42.146  18.587  26.061  1.00  0.00    -0.269 OA
BRANCH  32  35
ATOM     35  C   UNL A   1      41.834  20.877  26.449  1.00  0.00     0.039 A 
ATOM     36  C   UNL A   1      42.130  21.748  25.396  1.00  0.00     0.014 A 
ATOM     37  C   UNL A   1      42.012  21.288  27.773  1.00  0.00     0.014 A 
ATOM     38  C   UNL A   1      42.555  23.049  25.673  1.00  0.00     0.010 A 
ATOM     39  C   UNL A   1      42.370  22.604  28.049  1.00  0.00     0.010 A 
ATOM     40  C   UNL A   1      42.651  23.495  27.001  1.00  0.00    -0.014 A 
BRANCH  40  41
ATOM     41  C   UNL A   1      43.058  24.888  27.315  1.00  0.00     0.031 A 
ATOM     42  C   UNL A   1      44.468  25.338  27.058  1.00  0.00     0.074 A 
ATOM     43  C   UNL A   1      42.174  25.726  27.889  1.00  0.00     0.049 A 
ATOM     44  N   UNL A   1      45.034  26.487  27.329  1.00  0.00    -0.248 NA
ATOM     45  C   UNL A   1      45.372  24.356  26.438  1.00  0.00     0.031 C 
ATOM     46  C   UNL A   1      40.790  25.392  28.230  1.00  0.00     0.029 A 
ATOM     47  N   UNL A   1      42.312  27.029  28.298  1.00  0.00    -0.354 N 
ATOM     48  C   UNL A   1      46.357  26.360  26.928  1.00  0.00     0.074 A 
ATOM     49  C   UNL A   1      46.526  25.006  26.444  1.00  0.00     0.031 C 
ATOM     50  C   UNL A   1      40.201  26.467  28.778  1.00  0.00     0.029 A 
ATOM     51  C   UNL A   1      41.173  27.554  28.859  1.00  0.00     0.049 A 
ATOM     52  H   UNL A   1      43.148  27.539  28.199  1.00  0.00     0.167 HD
ATOM     53  C   UNL A   1      47.338  27.294  26.941  1.00  0.00     0.037 A 
ATOM     54  C   UNL A   1      40.942  28.772  29.384  1.00  0.00     0.037 A 
ATOM     55  C   UNL A   1      47.158  28.648  27.396  1.00  0.00     0.049 A 
ATOM     56  C   UNL A   1      42.047  29.792  29.383  1.00  0.00     0.074 A 
ATOM     57  C   UNL A   1      48.071  29.689  27.392  1.00  0.00     0.029 A 
ATOM     58  N   UNL A   1      45.984  29.150  27.935  1.00  0.00    -0.354 N 
ATOM     59  N   UNL A   1      43.276  29.682  28.942  1.00  0.00    -0.248 NA
ATOM     60  C   UNL A   1      41.729  31.112  29.948  1.00  0.00     0.031 C 
ATOM     61  C   UNL A   1      47.462  30.807  27.969  1.00  0.00     0.029 A 
ATOM     62  C   UNL A   1      46.154  30.479  28.288  1.00  0.00     0.049 A 
ATOM     63  H   UNL A   1      45.151  28.638  28.051  1.00  0.00     0.167 HD
ATOM     64  C   UNL A   1      43.870  30.920  29.147  1.00  0.00     0.074 A 
ATOM     65  C   UNL A   1      42.861  31.772  29.742  1.00  0.00     0.031 C 
ATOM     66  C   UNL A   1      45.136  31.315  28.870  1.00  0.00     0.037 A 
BRANCH  53  67
ATOM     67  C   UNL A   1      48.694  26.886  26.444  1.00  0.00     0.064 A 
ATOM     68  C   UNL A   1      49.069  27.057  25.102  1.00  0.00     0.173 A 
ATOM     69  C   UNL A   1      49.644  26.348  27.326  1.00  0.00     0.173 A 
ATOM     70  F   UNL A   1      48.193  27.555  24.216  1.00  0.00    -0.203 F 
ATOM     71  C   UNL A   1      50.332  26.677  24.657  1.00  0.00     0.198 A 
ATOM     72  C   UNL A   1      50.917  25.998  26.882  1.00  0.00     0.198 A 
ATOM     73  F   UNL A   1      49.340  26.167  28.620  1.00  0.00    -0.203 F 
ATOM     74  F   UNL A   1      50.648  26.805  23.360  1.00  0.00    -0.200 F 
ATOM     75  C   UNL A   1      51.257  26.156  25.547  1.00  0.00     0.200 A 
ATOM     76  F   UNL A   1      51.814  25.505  27.747  1.00  0.00    -0.200 F 
ATOM     77  F   UNL A   1      52.475  25.798  25.118  1.00  0.00    -0.200 F 
ENDBRANCH  53  67
BRANCH  54  78
ATOM     78  C   UNL A   1      39.600  29.102  29.930  1.00  0.00     0.064 A 
ATOM     79  C   UNL A   1      38.620  29.691  29.119  1.00  0.00     0.173 A 
ATOM     80  C   UNL A   1      39.269  28.839  31.266  1.00  0.00     0.173 A 
ATOM     81  F   UNL A   1      38.896  29.979  27.838  1.00  0.00    -0.203 F 
ATOM     82  C   UNL A   1      37.368  30.023  29.630  1.00  0.00     0.198 A 
ATOM     83  C   UNL A   1      38.007  29.147  31.769  1.00  0.00     0.198 A 
ATOM     84  F   UNL A   1      40.170  28.271  32.082  1.00  0.00    -0.203 F 
ATOM     85  F   UNL A   1      36.464  30.627  28.845  1.00  0.00    -0.200 F 
ATOM     86  C   UNL A   1      37.060  29.746  30.953  1.00  0.00     0.200 A 
ATOM     87  F   UNL A   1      37.710  28.863  33.045  1.00  0.00    -0.200 F 
ATOM     88  F   UNL A   1      35.854  30.062  31.444  1.00  0.00    -0.200 F 
ENDBRANCH  54  78
BRANCH  66  89
ATOM     89  C   UNL A   1      45.493  32.742  29.172  1.00  0.00     0.064 A 
ATOM     90  C   UNL A   1      46.006  33.123  30.419  1.00  0.00     0.173 A 
ATOM     91  C   UNL A   1      45.357  33.730  28.185  1.00  0.00     0.173 A 
ATOM     92  F   UNL A   1      46.139  32.218  31.400  1.00  0.00    -0.203 F 
ATOM     93  C   UNL A   1      46.349  34.449  30.676  1.00  0.00     0.198 A 
ATOM     94  C   UNL A   1      45.727  35.048  28.435  1.00  0.00     0.198 A 
ATOM     95  F   UNL A   1      44.876  33.414  26.972  1.00  0.00    -0.203 F 
ATOM     96  F   UNL A   1      46.793  34.800  31.890  1.00  0.00    -0.200 F 
ATOM     97  C   UNL A   1      46.216  35.408  29.682  1.00  0.00     0.200 A 
ATOM     98  F   UNL A   1      45.612  35.970  27.470  1.00  0.00    -0.200 F 
ATOM     99  F   UNL A   1      46.554  36.681  29.929  1.00  0.00    -0.200 F 
ENDBRANCH  66  89
ENDBRANCH  40  41
ENDBRANCH  32  35
ENDBRANCH  30  31
ENDBRANCH  29  30
ENDBRANCH  28  29
ENDBRANCH   1  28
TORSDOF 17
ENDMDL
