MODEL 1
REMARK VINA RESULT:     -10.2      0.000      0.000
REMARK SMILES O=C(C[C@@H]1CN(C(=O)C[NH2+]CC2CC2)CCO1)NCCCCCCNC(=O)c1ccc(-c2c3nc(c(-c4c(F)c(F)c(F)c(F)c4F)c4ccc([nH]4)c(-c4c(F)c(F)c(F)c(F)c4F)c4nc(c(-c5c(F)c(F)c(F)c(F)c5F)c5ccc2[nH]5)C=C4)C=C3)cc1
REMARK SMILES IDX 19 1 18 2 1 3 2 4 3 6 4 7 5 8 17 9 6 10 16 11 15 12 7 13
REMARK SMILES IDX 8 14 9 15 10 16 11 19 12 20 13 21 14 22 20 23 21 24 22 25
REMARK SMILES IDX 23 26 24 27 25 28 26 29 27 31 28 32 29 33 90 34 30 35 89 36
REMARK SMILES IDX 31 37 32 38 33 39 83 40 34 41 88 42 82 43 84 44 35 45 87 46
REMARK SMILES IDX 81 47 80 48 36 50 68 51 48 52 67 53 49 54 52 55 66 56 85 57
REMARK SMILES IDX 50 58 51 59 65 61 86 62 53 63 37 64 38 65 46 66 39 67 40 68
REMARK SMILES IDX 44 69 47 70 41 71 42 72 45 73 43 74 69 75 70 76 78 77 71 78
REMARK SMILES IDX 72 79 76 80 79 81 73 82 74 83 77 84 75 85 54 86 55 87 63 88
REMARK SMILES IDX 56 89 57 90 61 91 64 92 58 93 59 94 62 95 60 96
REMARK H PARENT 18 5 10 17 10 18 25 30 84 49 52 60
REMARK Flexibility Score: inf
ROOT
ATOM      1  C   UNL A   1      32.847  20.819  26.069  1.00  0.00     0.116 C 
ENDROOT
BRANCH   1   2
ATOM      2  N   UNL A   1      32.035  22.002  25.866  1.00  0.00    -0.356 N 
ATOM      3  O   UNL A   1      32.143  22.746  28.036  1.00  0.00    -0.275 OA
ATOM      4  C   UNL A   1      31.751  22.887  26.885  1.00  0.00     0.222 C 
ATOM      5  H   UNL A   1      31.672  22.180  24.968  1.00  0.00     0.163 HD
BRANCH   4   6
ATOM      6  C   UNL A   1      30.921  24.070  26.440  1.00  0.00     0.133 C 
BRANCH   6   7
ATOM      7  C   UNL A   1      31.690  25.151  25.668  1.00  0.00     0.147 C 
ATOM      8  C   UNL A   1      31.453  25.203  24.139  1.00  0.00     0.152 C 
ATOM      9  O   UNL A   1      33.097  24.978  25.956  1.00  0.00    -0.374 OA
ATOM     10  N   UNL A   1      32.308  26.230  23.525  1.00  0.00    -0.333 N 
ATOM     11  C   UNL A   1      33.881  26.044  25.394  1.00  0.00     0.182 C 
ATOM     12  C   UNL A   1      33.723  26.095  23.875  1.00  0.00     0.148 C 
BRANCH  10  13
ATOM     13  C   UNL A   1      31.918  27.210  22.625  1.00  0.00     0.277 C 
ATOM     14  O   UNL A   1      30.933  27.072  21.895  1.00  0.00    -0.268 OA
BRANCH  13  15
ATOM     15  C   UNL A   1      32.754  28.491  22.525  1.00  0.00     0.362 C 
BRANCH  15  16
ATOM     16  N   UNL A   1      32.176  29.528  23.388  1.00  0.00    -0.338 N 
ATOM     17  H   UNL A   1      31.169  29.382  23.446  1.00  0.00     0.346 HD
ATOM     18  H   UNL A   1      32.399  30.435  22.977  1.00  0.00     0.346 HD
BRANCH  16  19
ATOM     19  C   UNL A   1      32.730  29.502  24.729  1.00  0.00     0.264 C 
BRANCH  19  20
ATOM     20  C   UNL A   1      31.720  29.554  25.824  1.00  0.00     0.044 C 
ATOM     21  C   UNL A   1      31.939  28.698  27.050  1.00  0.00     0.010 C 
ATOM     22  C   UNL A   1      32.049  30.191  27.151  1.00  0.00     0.010 C 
ENDBRANCH  19  20
ENDBRANCH  16  19
ENDBRANCH  15  16
ENDBRANCH  13  15
ENDBRANCH  10  13
ENDBRANCH   6   7
ENDBRANCH   4   6
ENDBRANCH   1   2
BRANCH   1  23
ATOM     23  C   UNL A   1      34.054  20.777  25.127  1.00  0.00     0.021 C 
BRANCH  23  24
ATOM     24  C   UNL A   1      34.049  21.820  24.000  1.00  0.00     0.002 C 
BRANCH  24  25
ATOM     25  C   UNL A   1      35.195  22.825  24.064  1.00  0.00     0.002 C 
BRANCH  25  26
ATOM     26  C   UNL A   1      35.890  22.955  25.416  1.00  0.00     0.021 C 
BRANCH  26  27
ATOM     27  C   UNL A   1      37.219  23.693  25.370  1.00  0.00     0.116 C 
BRANCH  27  28
ATOM     28  N   UNL A   1      38.363  22.823  25.608  1.00  0.00    -0.352 N 
ATOM     29  C   UNL A   1      39.560  23.102  26.231  1.00  0.00     0.251 C 
ATOM     30  H   UNL A   1      38.268  21.902  25.274  1.00  0.00     0.163 HD
ATOM     31  O   UNL A   1      40.466  22.283  26.218  1.00  0.00    -0.269 OA
BRANCH  29  32
ATOM     32  C   UNL A   1      39.755  24.416  26.889  1.00  0.00     0.039 A 
ATOM     33  C   UNL A   1      39.317  24.587  28.205  1.00  0.00     0.014 A 
ATOM     34  C   UNL A   1      40.385  25.467  26.220  1.00  0.00     0.014 A 
ATOM     35  C   UNL A   1      39.585  25.785  28.874  1.00  0.00     0.010 A 
ATOM     36  C   UNL A   1      40.740  26.616  26.916  1.00  0.00     0.010 A 
ATOM     37  C   UNL A   1      40.340  26.792  28.249  1.00  0.00    -0.014 A 
BRANCH  37  38
ATOM     38  C   UNL A   1      40.710  28.044  28.958  1.00  0.00     0.031 A 
ATOM     39  C   UNL A   1      42.098  28.206  29.517  1.00  0.00     0.074 A 
ATOM     40  C   UNL A   1      39.782  29.000  29.165  1.00  0.00     0.049 A 
ATOM     41  N   UNL A   1      42.588  29.166  30.260  1.00  0.00    -0.248 NA
ATOM     42  C   UNL A   1      43.057  27.124  29.232  1.00  0.00     0.031 C 
ATOM     43  C   UNL A   1      38.389  28.940  28.721  1.00  0.00     0.029 A 
ATOM     44  N   UNL A   1      39.867  30.204  29.821  1.00  0.00    -0.354 N 
ATOM     45  C   UNL A   1      43.897  28.798  30.540  1.00  0.00     0.074 A 
ATOM     46  C   UNL A   1      44.109  27.497  29.945  1.00  0.00     0.031 C 
ATOM     47  C   UNL A   1      37.757  30.064  29.095  1.00  0.00     0.029 A 
ATOM     48  C   UNL A   1      38.686  30.904  29.844  1.00  0.00     0.049 A 
ATOM     49  H   UNL A   1      40.697  30.535  30.234  1.00  0.00     0.167 HD
ATOM     50  C   UNL A   1      44.849  29.495  31.205  1.00  0.00     0.037 A 
ATOM     51  C   UNL A   1      38.384  32.086  30.416  1.00  0.00     0.037 A 
ATOM     52  C   UNL A   1      44.644  30.802  31.768  1.00  0.00     0.049 A 
ATOM     53  C   UNL A   1      39.460  32.837  31.157  1.00  0.00     0.074 A 
ATOM     54  C   UNL A   1      45.557  31.613  32.420  1.00  0.00     0.029 A 
ATOM     55  N   UNL A   1      43.442  31.493  31.742  1.00  0.00    -0.354 N 
ATOM     56  N   UNL A   1      40.711  32.505  31.359  1.00  0.00    -0.248 NA
ATOM     57  C   UNL A   1      39.082  34.131  31.743  1.00  0.00     0.031 C 
ATOM     58  C   UNL A   1      44.897  32.776  32.827  1.00  0.00     0.029 A 
ATOM     59  C   UNL A   1      43.587  32.714  32.380  1.00  0.00     0.049 A 
ATOM     60  H   UNL A   1      42.610  31.165  31.332  1.00  0.00     0.167 HD
ATOM     61  C   UNL A   1      41.278  33.561  32.061  1.00  0.00     0.074 A 
ATOM     62  C   UNL A   1      40.237  34.552  32.236  1.00  0.00     0.031 C 
ATOM     63  C   UNL A   1      42.545  33.697  32.525  1.00  0.00     0.037 A 
BRANCH  50  64
ATOM     64  C   UNL A   1      46.206  28.867  31.344  1.00  0.00     0.064 A 
ATOM     65  C   UNL A   1      46.527  28.050  32.438  1.00  0.00     0.173 A 
ATOM     66  C   UNL A   1      47.177  29.037  30.346  1.00  0.00     0.173 A 
ATOM     67  F   UNL A   1      45.638  27.866  33.427  1.00  0.00    -0.203 F 
ATOM     68  C   UNL A   1      47.777  27.447  32.542  1.00  0.00     0.198 A 
ATOM     69  C   UNL A   1      48.416  28.406  30.436  1.00  0.00     0.198 A 
ATOM     70  F   UNL A   1      46.921  29.804  29.275  1.00  0.00    -0.203 F 
ATOM     71  F   UNL A   1      48.075  26.708  33.620  1.00  0.00    -0.200 F 
ATOM     72  C   UNL A   1      48.716  27.616  31.536  1.00  0.00     0.200 A 
ATOM     73  F   UNL A   1      49.317  28.559  29.457  1.00  0.00    -0.200 F 
ATOM     74  F   UNL A   1      49.914  27.024  31.630  1.00  0.00    -0.200 F 
ENDBRANCH  50  64
BRANCH  51  75
ATOM     75  C   UNL A   1      37.009  32.647  30.307  1.00  0.00     0.064 A 
ATOM     76  C   UNL A   1      36.636  33.435  29.209  1.00  0.00     0.173 A 
ATOM     77  C   UNL A   1      36.053  32.438  31.311  1.00  0.00     0.173 A 
ATOM     78  F   UNL A   1      37.522  33.681  28.231  1.00  0.00    -0.203 F 
ATOM     79  C   UNL A   1      35.375  34.023  29.136  1.00  0.00     0.198 A 
ATOM     80  C   UNL A   1      34.779  32.997  31.221  1.00  0.00     0.198 A 
ATOM     81  F   UNL A   1      36.353  31.687  32.381  1.00  0.00    -0.203 F 
ATOM     82  F   UNL A   1      35.069  34.823  28.107  1.00  0.00    -0.200 F 
ATOM     83  C   UNL A   1      34.445  33.799  30.141  1.00  0.00     0.200 A 
ATOM     84  F   UNL A   1      33.879  32.766  32.187  1.00  0.00    -0.200 F 
ATOM     85  F   UNL A   1      33.234  34.368  30.074  1.00  0.00    -0.200 F 
ENDBRANCH  51  75
BRANCH  63  86
ATOM     86  C   UNL A   1      42.890  34.982  33.219  1.00  0.00     0.064 A 
ATOM     87  C   UNL A   1      43.379  36.094  32.518  1.00  0.00     0.173 A 
ATOM     88  C   UNL A   1      42.689  35.115  34.602  1.00  0.00     0.173 A 
ATOM     89  F   UNL A   1      43.601  36.014  31.197  1.00  0.00    -0.203 F 
ATOM     90  C   UNL A   1      43.679  37.281  33.178  1.00  0.00     0.198 A 
ATOM     91  C   UNL A   1      42.958  36.314  35.255  1.00  0.00     0.198 A 
ATOM     92  F   UNL A   1      42.216  34.084  35.319  1.00  0.00    -0.203 F 
ATOM     93  F   UNL A   1      44.193  38.314  32.496  1.00  0.00    -0.200 F 
ATOM     94  C   UNL A   1      43.461  37.393  34.544  1.00  0.00     0.200 A 
ATOM     95  F   UNL A   1      42.732  36.426  36.570  1.00  0.00    -0.200 F 
ATOM     96  F   UNL A   1      43.742  38.540  35.176  1.00  0.00    -0.200 F 
ENDBRANCH  63  86
ENDBRANCH  37  38
ENDBRANCH  29  32
ENDBRANCH  27  28
ENDBRANCH  26  27
ENDBRANCH  25  26
ENDBRANCH  24  25
ENDBRANCH  23  24
ENDBRANCH   1  23
TORSDOF 19
ENDMDL
MODEL 2
REMARK VINA RESULT:     -10.1      3.365      4.836
REMARK SMILES O=C(C[C@@H]1CN(C(=O)C[NH2+]CC2CC2)CCO1)NCCCCCCNC(=O)c1ccc(-c2c3nc(c(-c4c(F)c(F)c(F)c(F)c4F)c4ccc([nH]4)c(-c4c(F)c(F)c(F)c(F)c4F)c4nc(c(-c5c(F)c(F)c(F)c(F)c5F)c5ccc2[nH]5)C=C4)C=C3)cc1
REMARK SMILES IDX 19 1 18 2 1 3 2 4 3 6 4 7 5 8 17 9 6 10 16 11 15 12 7 13
REMARK SMILES IDX 8 14 9 15 10 16 11 19 12 20 13 21 14 22 20 23 21 24 22 25
REMARK SMILES IDX 23 26 24 27 25 28 26 29 27 31 28 32 29 33 90 34 30 35 89 36
REMARK SMILES IDX 31 37 32 38 33 39 83 40 34 41 88 42 82 43 84 44 35 45 87 46
REMARK SMILES IDX 81 47 80 48 36 50 68 51 48 52 67 53 49 54 52 55 66 56 85 57
REMARK SMILES IDX 50 58 51 59 65 61 86 62 53 63 37 64 38 65 46 66 39 67 40 68
REMARK SMILES IDX 44 69 47 70 41 71 42 72 45 73 43 74 69 75 70 76 78 77 71 78
REMARK SMILES IDX 72 79 76 80 79 81 73 82 74 83 77 84 75 85 54 86 55 87 63 88
REMARK SMILES IDX 56 89 57 90 61 91 64 92 58 93 59 94 62 95 60 96
REMARK H PARENT 18 5 10 17 10 18 25 30 84 49 52 60
REMARK Flexibility Score: inf
ROOT
ATOM      1  C   UNL A   1      33.256  20.881  25.872  1.00  0.00     0.116 C 
ENDROOT
BRANCH   1   2
ATOM      2  N   UNL A   1      32.450  22.083  25.787  1.00  0.00    -0.356 N 
ATOM      3  O   UNL A   1      32.516  22.579  28.028  1.00  0.00    -0.275 OA
ATOM      4  C   UNL A   1      32.148  22.849  26.893  1.00  0.00     0.222 C 
ATOM      5  H   UNL A   1      32.105  22.362  24.908  1.00  0.00     0.163 HD
BRANCH   4   6
ATOM      6  C   UNL A   1      31.328  24.078  26.567  1.00  0.00     0.133 C 
BRANCH   6   7
ATOM      7  C   UNL A   1      32.123  25.251  25.976  1.00  0.00     0.147 C 
ATOM      8  C   UNL A   1      31.464  26.001  24.793  1.00  0.00     0.152 C 
ATOM      9  O   UNL A   1      33.426  24.751  25.597  1.00  0.00    -0.374 OA
ATOM     10  N   UNL A   1      32.367  27.044  24.284  1.00  0.00    -0.333 N 
ATOM     11  C   UNL A   1      34.292  25.817  25.173  1.00  0.00     0.182 C 
ATOM     12  C   UNL A   1      33.707  26.549  23.965  1.00  0.00     0.148 C 
BRANCH  10  13
ATOM     13  C   UNL A   1      32.046  28.365  24.016  1.00  0.00     0.277 C 
ATOM     14  O   UNL A   1      32.911  29.234  23.877  1.00  0.00    -0.268 OA
BRANCH  13  15
ATOM     15  C   UNL A   1      30.566  28.756  23.914  1.00  0.00     0.362 C 
BRANCH  15  16
ATOM     16  N   UNL A   1      30.168  28.823  22.503  1.00  0.00    -0.338 N 
ATOM     17  H   UNL A   1      29.804  27.914  22.222  1.00  0.00     0.346 HD
ATOM     18  H   UNL A   1      30.993  29.079  21.959  1.00  0.00     0.346 HD
BRANCH  16  19
ATOM     19  C   UNL A   1      29.150  29.829  22.264  1.00  0.00     0.264 C 
BRANCH  19  20
ATOM     20  C   UNL A   1      28.764  30.626  23.463  1.00  0.00     0.044 C 
ATOM     21  C   UNL A   1      28.873  32.132  23.394  1.00  0.00     0.010 C 
ATOM     22  C   UNL A   1      27.522  31.481  23.456  1.00  0.00     0.010 C 
ENDBRANCH  19  20
ENDBRANCH  16  19
ENDBRANCH  15  16
ENDBRANCH  13  15
ENDBRANCH  10  13
ENDBRANCH   6   7
ENDBRANCH   4   6
ENDBRANCH   1   2
BRANCH   1  23
ATOM     23  C   UNL A   1      34.298  20.803  24.752  1.00  0.00     0.021 C 
BRANCH  23  24
ATOM     24  C   UNL A   1      35.755  21.011  25.189  1.00  0.00     0.002 C 
BRANCH  24  25
ATOM     25  C   UNL A   1      36.657  19.801  24.977  1.00  0.00     0.002 C 
BRANCH  25  26
ATOM     26  C   UNL A   1      38.126  20.107  24.698  1.00  0.00     0.021 C 
BRANCH  26  27
ATOM     27  C   UNL A   1      38.997  20.191  25.943  1.00  0.00     0.116 C 
BRANCH  27  28
ATOM     28  N   UNL A   1      40.054  19.189  25.967  1.00  0.00    -0.352 N 
ATOM     29  C   UNL A   1      41.415  19.357  26.109  1.00  0.00     0.251 C 
ATOM     30  H   UNL A   1      39.754  18.257  25.866  1.00  0.00     0.163 HD
ATOM     31  O   UNL A   1      42.170  18.407  25.966  1.00  0.00    -0.269 OA
BRANCH  29  32
ATOM     32  C   UNL A   1      41.961  20.703  26.401  1.00  0.00     0.039 A 
ATOM     33  C   UNL A   1      42.282  21.550  25.337  1.00  0.00     0.014 A 
ATOM     34  C   UNL A   1      42.135  21.137  27.716  1.00  0.00     0.014 A 
ATOM     35  C   UNL A   1      42.701  22.859  25.596  1.00  0.00     0.010 A 
ATOM     36  C   UNL A   1      42.452  22.466  27.971  1.00  0.00     0.010 A 
ATOM     37  C   UNL A   1      42.745  23.342  26.915  1.00  0.00    -0.014 A 
BRANCH  37  38
ATOM     38  C   UNL A   1      43.109  24.749  27.220  1.00  0.00     0.031 A 
ATOM     39  C   UNL A   1      44.521  25.222  26.999  1.00  0.00     0.074 A 
ATOM     40  C   UNL A   1      42.196  25.577  27.766  1.00  0.00     0.049 A 
ATOM     41  N   UNL A   1      45.069  26.371  27.303  1.00  0.00    -0.248 NA
ATOM     42  C   UNL A   1      45.452  24.261  26.384  1.00  0.00     0.031 C 
ATOM     43  C   UNL A   1      40.810  25.224  28.079  1.00  0.00     0.029 A 
ATOM     44  N   UNL A   1      42.302  26.886  28.172  1.00  0.00    -0.354 N 
ATOM     45  C   UNL A   1      46.403  26.265  26.932  1.00  0.00     0.074 A 
ATOM     46  C   UNL A   1      46.600  24.919  26.442  1.00  0.00     0.031 C 
ATOM     47  C   UNL A   1      40.190  26.292  28.605  1.00  0.00     0.029 A 
ATOM     48  C   UNL A   1      41.144  27.393  28.709  1.00  0.00     0.049 A 
ATOM     49  H   UNL A   1      43.130  27.411  28.085  1.00  0.00     0.167 HD
ATOM     50  C   UNL A   1      47.369  27.212  26.967  1.00  0.00     0.037 A 
ATOM     51  C   UNL A   1      40.885  28.605  29.237  1.00  0.00     0.037 A 
ATOM     52  C   UNL A   1      47.162  28.559  27.426  1.00  0.00     0.049 A 
ATOM     53  C   UNL A   1      41.982  29.638  29.269  1.00  0.00     0.074 A 
ATOM     54  C   UNL A   1      48.063  29.608  27.457  1.00  0.00     0.029 A 
ATOM     55  N   UNL A   1      45.965  29.044  27.932  1.00  0.00    -0.354 N 
ATOM     56  N   UNL A   1      43.222  29.543  28.856  1.00  0.00    -0.248 NA
ATOM     57  C   UNL A   1      41.640  30.950  29.836  1.00  0.00     0.031 C 
ATOM     58  C   UNL A   1      47.425  30.717  28.021  1.00  0.00     0.029 A 
ATOM     59  C   UNL A   1      46.110  30.374  28.291  1.00  0.00     0.049 A 
ATOM     60  H   UNL A   1      45.136  28.522  28.023  1.00  0.00     0.167 HD
ATOM     61  C   UNL A   1      43.795  30.788  29.078  1.00  0.00     0.074 A 
ATOM     62  C   UNL A   1      42.762  31.627  29.647  1.00  0.00     0.031 C 
ATOM     63  C   UNL A   1      45.064  31.200  28.837  1.00  0.00     0.037 A 
BRANCH  50  64
ATOM     64  C   UNL A   1      48.737  26.833  26.475  1.00  0.00     0.064 A 
ATOM     65  C   UNL A   1      49.115  27.030  25.139  1.00  0.00     0.173 A 
ATOM     66  C   UNL A   1      49.697  26.320  27.360  1.00  0.00     0.173 A 
ATOM     67  F   UNL A   1      48.230  27.505  24.249  1.00  0.00    -0.203 F 
ATOM     68  C   UNL A   1      50.396  26.705  24.700  1.00  0.00     0.198 A 
ATOM     69  C   UNL A   1      50.988  26.026  26.925  1.00  0.00     0.198 A 
ATOM     70  F   UNL A   1      49.390  26.117  28.650  1.00  0.00    -0.203 F 
ATOM     71  F   UNL A   1      50.719  26.859  23.408  1.00  0.00    -0.200 F 
ATOM     72  C   UNL A   1      51.334  26.214  25.596  1.00  0.00     0.200 A 
ATOM     73  F   UNL A   1      51.897  25.565  27.794  1.00  0.00    -0.200 F 
ATOM     74  F   UNL A   1      52.570  25.915  25.175  1.00  0.00    -0.200 F 
ENDBRANCH  50  64
BRANCH  51  75
ATOM     75  C   UNL A   1      39.532  28.922  29.769  1.00  0.00     0.064 A 
ATOM     76  C   UNL A   1      38.557  29.516  28.955  1.00  0.00     0.173 A 
ATOM     77  C   UNL A   1      39.196  28.672  31.108  1.00  0.00     0.173 A 
ATOM     78  F   UNL A   1      38.836  29.793  27.672  1.00  0.00    -0.203 F 
ATOM     79  C   UNL A   1      37.313  29.881  29.466  1.00  0.00     0.198 A 
ATOM     80  C   UNL A   1      37.939  29.006  31.610  1.00  0.00     0.198 A 
ATOM     81  F   UNL A   1      40.088  28.099  31.930  1.00  0.00    -0.203 F 
ATOM     82  F   UNL A   1      36.426  30.505  28.681  1.00  0.00    -0.200 F 
ATOM     83  C   UNL A   1      37.004  29.622  30.793  1.00  0.00     0.200 A 
ATOM     84  F   UNL A   1      37.639  28.739  32.888  1.00  0.00    -0.200 F 
ATOM     85  F   UNL A   1      35.810  29.977  31.286  1.00  0.00    -0.200 F 
ENDBRANCH  51  75
BRANCH  63  86
ATOM     86  C   UNL A   1      45.393  32.633  29.139  1.00  0.00     0.064 A 
ATOM     87  C   UNL A   1      45.230  33.646  28.184  1.00  0.00     0.173 A 
ATOM     88  C   UNL A   1      45.838  33.001  30.418  1.00  0.00     0.173 A 
ATOM     89  F   UNL A   1      44.820  33.344  26.942  1.00  0.00    -0.203 F 
ATOM     90  C   UNL A   1      45.527  34.971  28.489  1.00  0.00     0.198 A 
ATOM     91  C   UNL A   1      46.102  34.332  30.731  1.00  0.00     0.198 A 
ATOM     92  F   UNL A   1      46.003  32.071  31.371  1.00  0.00    -0.203 F 
ATOM     93  F   UNL A   1      45.413  35.916  27.545  1.00  0.00    -0.200 F 
ATOM     94  C   UNL A   1      45.954  35.314  29.764  1.00  0.00     0.200 A 
ATOM     95  F   UNL A   1      46.499  34.663  31.967  1.00  0.00    -0.200 F 
ATOM     96  F   UNL A   1      46.231  36.591  30.058  1.00  0.00    -0.200 F 
ENDBRANCH  63  86
ENDBRANCH  37  38
ENDBRANCH  29  32
ENDBRANCH  27  28
ENDBRANCH  26  27
ENDBRANCH  25  26
ENDBRANCH  24  25
ENDBRANCH  23  24
ENDBRANCH   1  23
TORSDOF 19
ENDMDL
MODEL 3
REMARK VINA RESULT:     -10.0      3.985      9.187
REMARK SMILES O=C(C[C@@H]1CN(C(=O)C[NH2+]CC2CC2)CCO1)NCCCCCCNC(=O)c1ccc(-c2c3nc(c(-c4c(F)c(F)c(F)c(F)c4F)c4ccc([nH]4)c(-c4c(F)c(F)c(F)c(F)c4F)c4nc(c(-c5c(F)c(F)c(F)c(F)c5F)c5ccc2[nH]5)C=C4)C=C3)cc1
REMARK SMILES IDX 19 1 18 2 1 3 2 4 3 6 4 7 5 8 17 9 6 10 16 11 15 12 7 13
REMARK SMILES IDX 8 14 9 15 10 16 11 19 12 20 13 21 14 22 20 23 21 24 22 25
REMARK SMILES IDX 23 26 24 27 25 28 26 29 27 31 28 32 29 33 90 34 30 35 89 36
REMARK SMILES IDX 31 37 32 38 33 39 83 40 34 41 88 42 82 43 84 44 35 45 87 46
REMARK SMILES IDX 81 47 80 48 36 50 68 51 48 52 67 53 49 54 52 55 66 56 85 57
REMARK SMILES IDX 50 58 51 59 65 61 86 62 53 63 37 64 38 65 46 66 39 67 40 68
REMARK SMILES IDX 44 69 47 70 41 71 42 72 45 73 43 74 69 75 70 76 78 77 71 78
REMARK SMILES IDX 72 79 76 80 79 81 73 82 74 83 77 84 75 85 54 86 55 87 63 88
REMARK SMILES IDX 56 89 57 90 61 91 64 92 58 93 59 94 62 95 60 96
REMARK H PARENT 18 5 10 17 10 18 25 30 84 49 52 60
REMARK Flexibility Score: inf
ROOT
ATOM      1  C   UNL A   1      33.823  30.982  27.680  1.00  0.00     0.116 C 
ENDROOT
BRANCH   1   2
ATOM      2  N   UNL A   1      34.092  30.127  26.541  1.00  0.00    -0.356 N 
ATOM      3  O   UNL A   1      31.897  29.849  25.924  1.00  0.00    -0.275 OA
ATOM      4  C   UNL A   1      33.087  29.628  25.739  1.00  0.00     0.222 C 
ATOM      5  H   UNL A   1      35.025  29.892  26.332  1.00  0.00     0.163 HD
BRANCH   4   6
ATOM      6  C   UNL A   1      33.596  28.791  24.587  1.00  0.00     0.133 C 
BRANCH   6   7
ATOM      7  C   UNL A   1      33.134  27.328  24.592  1.00  0.00     0.147 C 
ATOM      8  C   UNL A   1      33.006  26.653  25.980  1.00  0.00     0.152 C 
ATOM      9  O   UNL A   1      34.037  26.579  23.746  1.00  0.00    -0.374 OA
ATOM     10  N   UNL A   1      32.631  25.239  25.826  1.00  0.00    -0.333 N 
ATOM     11  C   UNL A   1      33.589  25.225  23.572  1.00  0.00     0.182 C 
ATOM     12  C   UNL A   1      33.506  24.500  24.915  1.00  0.00     0.148 C 
BRANCH  10  13
ATOM     13  C   UNL A   1      31.624  24.567  26.502  1.00  0.00     0.277 C 
ATOM     14  O   UNL A   1      31.797  24.087  27.625  1.00  0.00    -0.268 OA
BRANCH  13  15
ATOM     15  C   UNL A   1      30.263  24.401  25.816  1.00  0.00     0.362 C 
BRANCH  15  16
ATOM     16  N   UNL A   1      30.264  25.115  24.534  1.00  0.00    -0.338 N 
ATOM     17  H   UNL A   1      29.831  24.521  23.828  1.00  0.00     0.346 HD
ATOM     18  H   UNL A   1      31.234  25.328  24.298  1.00  0.00     0.346 HD
BRANCH  16  19
ATOM     19  C   UNL A   1      29.538  26.369  24.599  1.00  0.00     0.264 C 
BRANCH  19  20
ATOM     20  C   UNL A   1      29.563  27.172  23.344  1.00  0.00     0.044 C 
ATOM     21  C   UNL A   1      28.480  28.204  23.125  1.00  0.00     0.010 C 
ATOM     22  C   UNL A   1      29.893  28.644  23.374  1.00  0.00     0.010 C 
ENDBRANCH  19  20
ENDBRANCH  16  19
ENDBRANCH  15  16
ENDBRANCH  13  15
ENDBRANCH  10  13
ENDBRANCH   6   7
ENDBRANCH   4   6
ENDBRANCH   1   2
BRANCH   1  23
ATOM     23  C   UNL A   1      35.108  31.553  28.289  1.00  0.00     0.021 C 
BRANCH  23  24
ATOM     24  C   UNL A   1      35.372  33.038  28.001  1.00  0.00     0.002 C 
BRANCH  24  25
ATOM     25  C   UNL A   1      35.287  33.944  29.224  1.00  0.00     0.002 C 
BRANCH  25  26
ATOM     26  C   UNL A   1      34.303  35.107  29.122  1.00  0.00     0.021 C 
BRANCH  26  27
ATOM     27  C   UNL A   1      32.903  34.791  29.626  1.00  0.00     0.116 C 
BRANCH  27  28
ATOM     28  N   UNL A   1      32.424  35.748  30.614  1.00  0.00    -0.352 N 
ATOM     29  C   UNL A   1      32.825  35.932  31.920  1.00  0.00     0.251 C 
ATOM     30  H   UNL A   1      31.709  36.350  30.306  1.00  0.00     0.163 HD
ATOM     31  O   UNL A   1      32.212  36.696  32.650  1.00  0.00    -0.269 OA
BRANCH  29  32
ATOM     32  C   UNL A   1      33.984  35.172  32.444  1.00  0.00     0.039 A 
ATOM     33  C   UNL A   1      33.794  33.856  32.873  1.00  0.00     0.014 A 
ATOM     34  C   UNL A   1      35.256  35.745  32.492  1.00  0.00     0.014 A 
ATOM     35  C   UNL A   1      34.895  33.092  33.273  1.00  0.00     0.010 A 
ATOM     36  C   UNL A   1      36.361  34.956  32.792  1.00  0.00     0.010 A 
ATOM     37  C   UNL A   1      36.194  33.622  33.192  1.00  0.00    -0.014 A 
BRANCH  37  38
ATOM     38  C   UNL A   1      37.391  32.813  33.534  1.00  0.00     0.031 A 
ATOM     39  C   UNL A   1      38.136  33.081  34.815  1.00  0.00     0.074 A 
ATOM     40  C   UNL A   1      37.854  31.893  32.663  1.00  0.00     0.049 A 
ATOM     41  N   UNL A   1      39.260  32.568  35.246  1.00  0.00    -0.248 NA
ATOM     42  C   UNL A   1      37.556  34.089  35.719  1.00  0.00     0.031 C 
ATOM     43  C   UNL A   1      37.254  31.577  31.366  1.00  0.00     0.029 A 
ATOM     44  N   UNL A   1      38.949  31.066  32.731  1.00  0.00    -0.354 N 
ATOM     45  C   UNL A   1      39.526  33.198  36.454  1.00  0.00     0.074 A 
ATOM     46  C   UNL A   1      38.484  34.178  36.660  1.00  0.00     0.031 C 
ATOM     47  C   UNL A   1      37.973  30.611  30.771  1.00  0.00     0.029 A 
ATOM     48  C   UNL A   1      39.108  30.271  31.622  1.00  0.00     0.049 A 
ATOM     49  H   UNL A   1      39.560  31.045  33.502  1.00  0.00     0.167 HD
ATOM     50  C   UNL A   1      40.530  32.959  37.330  1.00  0.00     0.037 A 
ATOM     51  C   UNL A   1      40.070  29.377  31.322  1.00  0.00     0.037 A 
ATOM     52  C   UNL A   1      41.548  31.961  37.137  1.00  0.00     0.049 A 
ATOM     53  C   UNL A   1      41.180  29.136  32.312  1.00  0.00     0.074 A 
ATOM     54  C   UNL A   1      42.581  31.608  37.987  1.00  0.00     0.029 A 
ATOM     55  N   UNL A   1      41.657  31.152  36.016  1.00  0.00    -0.354 N 
ATOM     56  N   UNL A   1      41.384  29.695  33.480  1.00  0.00    -0.248 NA
ATOM     57  C   UNL A   1      42.192  28.135  31.944  1.00  0.00     0.031 C 
ATOM     58  C   UNL A   1      43.342  30.615  37.362  1.00  0.00     0.029 A 
ATOM     59  C   UNL A   1      42.749  30.311  36.147  1.00  0.00     0.049 A 
ATOM     60  H   UNL A   1      41.048  31.172  35.243  1.00  0.00     0.167 HD
ATOM     61  C   UNL A   1      42.520  29.089  34.001  1.00  0.00     0.074 A 
ATOM     62  C   UNL A   1      42.953  28.108  33.028  1.00  0.00     0.031 C 
ATOM     63  C   UNL A   1      43.153  29.325  35.176  1.00  0.00     0.037 A 
BRANCH  50  64
ATOM     64  C   UNL A   1      40.568  33.776  38.589  1.00  0.00     0.064 A 
ATOM     65  C   UNL A   1      41.347  34.939  38.685  1.00  0.00     0.173 A 
ATOM     66  C   UNL A   1      39.775  33.426  39.692  1.00  0.00     0.173 A 
ATOM     67  F   UNL A   1      42.134  35.311  37.662  1.00  0.00    -0.203 F 
ATOM     68  C   UNL A   1      41.351  35.707  39.845  1.00  0.00     0.198 A 
ATOM     69  C   UNL A   1      39.756  34.215  40.840  1.00  0.00     0.198 A 
ATOM     70  F   UNL A   1      39.008  32.326  39.653  1.00  0.00    -0.203 F 
ATOM     71  F   UNL A   1      42.139  36.789  39.928  1.00  0.00    -0.200 F 
ATOM     72  C   UNL A   1      40.547  35.351  40.918  1.00  0.00     0.200 A 
ATOM     73  F   UNL A   1      38.970  33.877  41.871  1.00  0.00    -0.200 F 
ATOM     74  F   UNL A   1      40.541  36.099  42.029  1.00  0.00    -0.200 F 
ENDBRANCH  50  64
BRANCH  51  75
ATOM     75  C   UNL A   1      40.030  28.629  30.036  1.00  0.00     0.064 A 
ATOM     76  C   UNL A   1      39.415  27.372  29.950  1.00  0.00     0.173 A 
ATOM     77  C   UNL A   1      40.632  29.138  28.876  1.00  0.00     0.173 A 
ATOM     78  F   UNL A   1      38.842  26.833  31.037  1.00  0.00    -0.203 F 
ATOM     79  C   UNL A   1      39.437  26.635  28.768  1.00  0.00     0.198 A 
ATOM     80  C   UNL A   1      40.624  28.416  27.683  1.00  0.00     0.198 A 
ATOM     81  F   UNL A   1      41.229  30.339  28.898  1.00  0.00    -0.203 F 
ATOM     82  F   UNL A   1      38.899  25.410  28.734  1.00  0.00    -0.200 F 
ATOM     83  C   UNL A   1      40.038  27.160  27.633  1.00  0.00     0.200 A 
ATOM     84  F   UNL A   1      41.192  28.933  26.586  1.00  0.00    -0.200 F 
ATOM     85  F   UNL A   1      40.064  26.451  26.498  1.00  0.00    -0.200 F 
ENDBRANCH  51  75
BRANCH  63  86
ATOM     86  C   UNL A   1      44.348  28.477  35.500  1.00  0.00     0.064 A 
ATOM     87  C   UNL A   1      45.640  28.834  35.091  1.00  0.00     0.173 A 
ATOM     88  C   UNL A   1      44.200  27.311  36.267  1.00  0.00     0.173 A 
ATOM     89  F   UNL A   1      45.833  29.932  34.344  1.00  0.00    -0.203 F 
ATOM     90  C   UNL A   1      46.738  28.041  35.414  1.00  0.00     0.198 A 
ATOM     91  C   UNL A   1      45.303  26.538  36.618  1.00  0.00     0.198 A 
ATOM     92  F   UNL A   1      42.985  26.929  36.691  1.00  0.00    -0.203 F 
ATOM     93  F   UNL A   1      47.957  28.374  34.969  1.00  0.00    -0.200 F 
ATOM     94  C   UNL A   1      46.569  26.899  36.184  1.00  0.00     0.200 A 
ATOM     95  F   UNL A   1      45.140  25.445  37.374  1.00  0.00    -0.200 F 
ATOM     96  F   UNL A   1      47.628  26.142  36.501  1.00  0.00    -0.200 F 
ENDBRANCH  63  86
ENDBRANCH  37  38
ENDBRANCH  29  32
ENDBRANCH  27  28
ENDBRANCH  26  27
ENDBRANCH  25  26
ENDBRANCH  24  25
ENDBRANCH  23  24
ENDBRANCH   1  23
TORSDOF 19
ENDMDL
