MODEL 1
REMARK VINA RESULT:      -8.1      0.000      0.000
REMARK SMILES COc1ccccc1C(=O)N/C(=C/c1ccc2c(c1)OCO2)C(=O)Nc1ccc(C(=O)NCCCCCCNC(=O)c2ccc(-c3c4nc(c(-c5c(F)c(F)c(F)c(F)c5F)c5ccc([nH]5)c(-c5c(F)c(F)c(F)c(F)c5F)c5nc(c(-c6c(F)c(F)c(F)c(F)c6F)c6ccc3[nH]6)C=C5)C=C4)cc2)cc1
REMARK SMILES IDX 34 1 33 2 32 3 30 4 31 5 29 7 26 8 27 9 106 10 28 11 105 12
REMARK SMILES IDX 25 13 23 14 24 15 12 17 13 18 11 19 9 20 10 21 8 23 3 24
REMARK SMILES IDX 4 25 5 26 7 27 6 28 2 29 1 30 14 31 15 32 19 33 16 34 18 35
REMARK SMILES IDX 17 36 20 37 22 38 21 39 35 40 36 41 37 42 38 43 39 44 40 45
REMARK SMILES IDX 41 47 42 48 43 49 104 50 44 51 103 52 45 53 46 54 47 55
REMARK SMILES IDX 97 56 48 57 102 58 96 59 98 60 49 61 101 62 95 63 94 64
REMARK SMILES IDX 50 66 82 67 62 68 81 69 63 70 66 71 80 72 99 73 64 74 65 75
REMARK SMILES IDX 79 77 100 78 67 79 51 80 52 81 60 82 53 83 54 84 58 85 61 86
REMARK SMILES IDX 55 87 56 88 59 89 57 90 83 91 84 92 92 93 85 94 86 95 90 96
REMARK SMILES IDX 93 97 87 98 88 99 91 100 89 101 68 102 69 103 77 104 70 105
REMARK SMILES IDX 71 106 75 107 78 108 72 109 73 110 76 111 74 112
REMARK H PARENT 32 6 25 16 11 22 39 46 98 65 66 76
REMARK Flexibility Score: inf
ROOT
ATOM      1  C   UNL A   1      39.911  34.092  30.292  1.00  0.00     0.021 C 
ENDROOT
BRANCH   1   2
ATOM      2  C   UNL A   1      40.115  34.454  28.815  1.00  0.00     0.116 C 
BRANCH   2   3
ATOM      3  N   UNL A   1      40.700  35.769  28.712  1.00  0.00    -0.352 N 
ATOM      4  C   UNL A   1      41.965  36.168  28.371  1.00  0.00     0.251 C 
ATOM      5  O   UNL A   1      42.197  37.369  28.262  1.00  0.00    -0.269 OA
ATOM      6  H   UNL A   1      40.085  36.507  28.924  1.00  0.00     0.163 HD
BRANCH   4   7
ATOM      7  C   UNL A   1      43.064  35.200  28.123  1.00  0.00     0.039 A 
ATOM      8  C   UNL A   1      45.715  32.694  27.458  1.00  0.00     0.041 A 
ATOM      9  C   UNL A   1      44.786  33.281  25.841  1.00  0.00     0.027 A 
ATOM     10  C   UNL A   1      45.619  33.367  29.310  1.00  0.00     0.027 A 
ATOM     11  C   UNL A   1      43.242  34.726  26.215  1.00  0.00     0.016 A 
ATOM     12  C   UNL A   1      44.182  34.694  29.665  1.00  0.00     0.016 A 
BRANCH   8  13
ATOM     13  N   UNL A   1      45.742  31.262  27.286  1.00  0.00    -0.321 N 
ATOM     14  C   UNL A   1      46.970  30.741  27.116  1.00  0.00     0.272 C 
ATOM     15  O   UNL A   1      47.502  31.216  26.115  1.00  0.00    -0.267 OA
ATOM     16  H   UNL A   1      44.926  30.709  27.292  1.00  0.00     0.170 HD
BRANCH  14  17
ATOM     17  C   UNL A   1      47.734  30.004  28.266  1.00  0.00     0.108 C 
ATOM     18  C   UNL A   1      47.038  29.194  29.118  1.00  0.00     0.040 C 
BRANCH  17  19
ATOM     19  N   UNL A   1      49.079  30.247  28.639  1.00  0.00    -0.317 N 
ATOM     20  C   UNL A   1      49.814  30.879  29.645  1.00  0.00     0.259 C 
ATOM     21  O   UNL A   1      51.041  30.930  29.521  1.00  0.00    -0.269 OA
ATOM     22  H   UNL A   1      49.689  29.842  27.981  1.00  0.00     0.170 HD
BRANCH  20  23
ATOM     23  C   UNL A   1      49.212  31.544  30.806  1.00  0.00     0.082 A 
ATOM     24  C   UNL A   1      48.732  30.780  31.826  1.00  0.00     0.131 A 
ATOM     25  C   UNL A   1      47.570  31.205  32.477  1.00  0.00     0.047 A 
ATOM     26  C   UNL A   1      47.251  32.551  32.493  1.00  0.00     0.004 A 
ATOM     27  C   UNL A   1      49.075  32.929  30.963  1.00  0.00     0.018 A 
ATOM     28  C   UNL A   1      48.131  33.431  31.876  1.00  0.00     0.001 A 
BRANCH  24  29
ATOM     29  O   UNL A   1      49.567  29.971  32.574  1.00  0.00    -0.496 OA
ATOM     30  C   UNL A   1      50.666  30.459  33.352  1.00  0.00     0.278 C 
ENDBRANCH  24  29
ENDBRANCH  20  23
ENDBRANCH  17  19
BRANCH  18  31
ATOM     31  C   UNL A   1      45.685  28.647  28.873  1.00  0.00    -0.019 A 
ATOM     32  C   UNL A   1      44.444  29.505  29.158  1.00  0.00     0.012 A 
ATOM     33  C   UNL A   1      45.508  27.770  27.919  1.00  0.00     0.058 A 
ATOM     34  C   UNL A   1      42.709  30.287  28.607  1.00  0.00     0.051 A 
ATOM     35  C   UNL A   1      44.286  28.268  27.557  1.00  0.00     0.166 A 
ATOM     36  C   UNL A   1      42.704  29.588  27.732  1.00  0.00     0.165 A 
ATOM     37  O   UNL A   1      43.811  27.396  26.008  1.00  0.00    -0.454 OA
ATOM     38  O   UNL A   1      41.594  29.387  26.447  1.00  0.00    -0.454 OA
ATOM     39  C   UNL A   1      42.280  28.141  25.377  1.00  0.00     0.468 C 
ENDBRANCH  18  31
ENDBRANCH  14  17
ENDBRANCH   8  13
ENDBRANCH   4   7
ENDBRANCH   2   3
ENDBRANCH   1   2
BRANCH   1  40
ATOM     40  C   UNL A   1      38.445  33.816  30.615  1.00  0.00     0.002 C 
BRANCH  40  41
ATOM     41  C   UNL A   1      37.505  34.333  29.525  1.00  0.00     0.002 C 
BRANCH  41  42
ATOM     42  C   UNL A   1      36.232  33.494  29.402  1.00  0.00     0.021 C 
BRANCH  42  43
ATOM     43  C   UNL A   1      35.933  33.148  27.954  1.00  0.00     0.116 C 
BRANCH  43  44
ATOM     44  N   UNL A   1      34.786  32.252  27.877  1.00  0.00    -0.352 N 
ATOM     45  C   UNL A   1      34.781  30.887  27.803  1.00  0.00     0.251 C 
ATOM     46  H   UNL A   1      33.902  32.685  27.876  1.00  0.00     0.163 HD
ATOM     47  O   UNL A   1      33.802  30.275  27.397  1.00  0.00    -0.269 OA
BRANCH  45  48
ATOM     48  C   UNL A   1      35.996  30.177  28.229  1.00  0.00     0.039 A 
ATOM     49  C   UNL A   1      37.092  30.115  27.372  1.00  0.00     0.014 A 
ATOM     50  C   UNL A   1      36.050  29.627  29.513  1.00  0.00     0.014 A 
ATOM     51  C   UNL A   1      38.270  29.532  27.829  1.00  0.00     0.010 A 
ATOM     52  C   UNL A   1      37.256  29.167  30.005  1.00  0.00     0.010 A 
ATOM     53  C   UNL A   1      38.373  29.094  29.161  1.00  0.00    -0.014 A 
BRANCH  53  54
ATOM     54  C   UNL A   1      39.629  28.532  29.699  1.00  0.00     0.031 A 
ATOM     55  C   UNL A   1      40.374  29.273  30.769  1.00  0.00     0.074 A 
ATOM     56  C   UNL A   1      40.133  27.395  29.183  1.00  0.00     0.049 A 
ATOM     57  N   UNL A   1      41.536  28.998  31.303  1.00  0.00    -0.248 NA
ATOM     58  C   UNL A   1      39.745  30.498  31.292  1.00  0.00     0.031 C 
ATOM     59  C   UNL A   1      39.506  26.597  28.130  1.00  0.00     0.029 A 
ATOM     60  N   UNL A   1      41.294  26.719  29.467  1.00  0.00    -0.354 N 
ATOM     61  C   UNL A   1      41.775  30.012  32.216  1.00  0.00     0.074 A 
ATOM     62  C   UNL A   1      40.676  30.946  32.119  1.00  0.00     0.031 C 
ATOM     63  C   UNL A   1      40.272  25.525  27.878  1.00  0.00     0.029 A 
ATOM     64  C   UNL A   1      41.477  25.596  28.699  1.00  0.00     0.049 A 
ATOM     65  H   UNL A   1      41.934  27.013  30.156  1.00  0.00     0.167 HD
ATOM     66  C   UNL A   1      42.814  30.139  33.073  1.00  0.00     0.037 A 
ATOM     67  C   UNL A   1      42.512  24.736  28.640  1.00  0.00     0.037 A 
ATOM     68  C   UNL A   1      43.909  29.213  33.152  1.00  0.00     0.049 A 
ATOM     69  C   UNL A   1      43.699  24.953  29.539  1.00  0.00     0.074 A 
ATOM     70  C   UNL A   1      44.993  29.244  34.010  1.00  0.00     0.029 A 
ATOM     71  N   UNL A   1      44.077  28.109  32.331  1.00  0.00    -0.354 N 
ATOM     72  N   UNL A   1      43.897  25.892  30.431  1.00  0.00    -0.248 NA
ATOM     73  C   UNL A   1      44.809  23.994  29.428  1.00  0.00     0.031 C 
ATOM     74  C   UNL A   1      45.869  28.225  33.637  1.00  0.00     0.029 A 
ATOM     75  C   UNL A   1      45.273  27.482  32.631  1.00  0.00     0.049 A 
ATOM     76  H   UNL A   1      43.440  27.816  31.638  1.00  0.00     0.167 HD
ATOM     77  C   UNL A   1      45.124  25.612  31.017  1.00  0.00     0.074 A 
ATOM     78  C   UNL A   1      45.628  24.415  30.381  1.00  0.00     0.031 C 
ATOM     79  C   UNL A   1      45.763  26.281  32.005  1.00  0.00     0.037 A 
BRANCH  66  80
ATOM     80  C   UNL A   1      42.835  31.343  33.969  1.00  0.00     0.064 A 
ATOM     81  C   UNL A   1      42.298  31.315  35.265  1.00  0.00     0.173 A 
ATOM     82  C   UNL A   1      43.436  32.534  33.533  1.00  0.00     0.173 A 
ATOM     83  F   UNL A   1      41.718  30.200  35.733  1.00  0.00    -0.203 F 
ATOM     84  C   UNL A   1      42.311  32.451  36.067  1.00  0.00     0.198 A 
ATOM     85  C   UNL A   1      43.498  33.649  34.360  1.00  0.00     0.198 A 
ATOM     86  F   UNL A   1      43.980  32.612  32.308  1.00  0.00    -0.203 F 
ATOM     87  F   UNL A   1      41.716  32.425  37.268  1.00  0.00    -0.200 F 
ATOM     88  C   UNL A   1      42.918  33.614  35.619  1.00  0.00     0.200 A 
ATOM     89  F   UNL A   1      44.116  34.760  33.936  1.00  0.00    -0.200 F 
ATOM     90  F   UNL A   1      42.939  34.703  36.397  1.00  0.00    -0.200 F 
ENDBRANCH  66  80
BRANCH  67  91
ATOM     91  C   UNL A   1      42.485  23.599  27.682  1.00  0.00     0.064 A 
ATOM     92  C   UNL A   1      41.906  22.370  28.029  1.00  0.00     0.173 A 
ATOM     93  C   UNL A   1      43.074  23.704  26.412  1.00  0.00     0.173 A 
ATOM     94  F   UNL A   1      41.340  22.213  29.235  1.00  0.00    -0.203 F 
ATOM     95  C   UNL A   1      41.958  21.280  27.164  1.00  0.00     0.198 A 
ATOM     96  C   UNL A   1      43.079  22.629  25.528  1.00  0.00     0.198 A 
ATOM     97  F   UNL A   1      43.638  24.858  26.024  1.00  0.00    -0.203 F 
ATOM     98  F   UNL A   1      41.474  20.093  27.557  1.00  0.00    -0.200 F 
ATOM     99  C   UNL A   1      42.538  21.412  25.911  1.00  0.00     0.200 A 
ATOM    100  F   UNL A   1      43.615  22.771  24.308  1.00  0.00    -0.200 F 
ATOM    101  F   UNL A   1      42.585  20.363  25.079  1.00  0.00    -0.200 F 
ENDBRANCH  67  91
BRANCH  79 102
ATOM    102  C   UNL A   1      47.048  25.710  32.534  1.00  0.00     0.064 A 
ATOM    103  C   UNL A   1      48.300  26.072  32.022  1.00  0.00     0.173 A 
ATOM    104  C   UNL A   1      47.016  24.847  33.642  1.00  0.00     0.173 A 
ATOM    105  F   UNL A   1      48.388  26.894  30.965  1.00  0.00    -0.203 F 
ATOM    106  C   UNL A   1      49.473  25.570  32.582  1.00  0.00     0.198 A 
ATOM    107  C   UNL A   1      48.189  24.391  34.233  1.00  0.00     0.198 A 
ATOM    108  F   UNL A   1      45.844  24.478  34.181  1.00  0.00    -0.203 F 
ATOM    109  F   UNL A   1      50.658  25.885  32.042  1.00  0.00    -0.200 F 
ATOM    110  C   UNL A   1      49.417  24.744  33.694  1.00  0.00     0.200 A 
ATOM    111  F   UNL A   1      48.131  23.623  35.329  1.00  0.00    -0.200 F 
ATOM    112  F   UNL A   1      50.547  24.287  34.250  1.00  0.00    -0.200 F 
ENDBRANCH  79 102
ENDBRANCH  53  54
ENDBRANCH  45  48
ENDBRANCH  43  44
ENDBRANCH  42  43
ENDBRANCH  41  42
ENDBRANCH  40  41
ENDBRANCH   1  40
TORSDOF 19
ENDMDL
MODEL 2
REMARK VINA RESULT:      -8.0      3.842      9.446
REMARK SMILES COc1ccccc1C(=O)N/C(=C/c1ccc2c(c1)OCO2)C(=O)Nc1ccc(C(=O)NCCCCCCNC(=O)c2ccc(-c3c4nc(c(-c5c(F)c(F)c(F)c(F)c5F)c5ccc([nH]5)c(-c5c(F)c(F)c(F)c(F)c5F)c5nc(c(-c6c(F)c(F)c(F)c(F)c6F)c6ccc3[nH]6)C=C5)C=C4)cc2)cc1
REMARK SMILES IDX 34 1 33 2 32 3 30 4 31 5 29 7 26 8 27 9 106 10 28 11 105 12
REMARK SMILES IDX 25 13 23 14 24 15 12 17 13 18 11 19 9 20 10 21 8 23 3 24
REMARK SMILES IDX 4 25 5 26 7 27 6 28 2 29 1 30 14 31 15 32 19 33 16 34 18 35
REMARK SMILES IDX 17 36 20 37 22 38 21 39 35 40 36 41 37 42 38 43 39 44 40 45
REMARK SMILES IDX 41 47 42 48 43 49 104 50 44 51 103 52 45 53 46 54 47 55
REMARK SMILES IDX 97 56 48 57 102 58 96 59 98 60 49 61 101 62 95 63 94 64
REMARK SMILES IDX 50 66 82 67 62 68 81 69 63 70 66 71 80 72 99 73 64 74 65 75
REMARK SMILES IDX 79 77 100 78 67 79 51 80 52 81 60 82 53 83 54 84 58 85 61 86
REMARK SMILES IDX 55 87 56 88 59 89 57 90 83 91 84 92 92 93 85 94 86 95 90 96
REMARK SMILES IDX 93 97 87 98 88 99 91 100 89 101 68 102 69 103 77 104 70 105
REMARK SMILES IDX 71 106 75 107 78 108 72 109 73 110 76 111 74 112
REMARK H PARENT 32 6 25 16 11 22 39 46 98 65 66 76
REMARK Flexibility Score: inf
ROOT
ATOM      1  C   UNL A   1      51.622  26.360  27.573  1.00  0.00     0.021 C 
ENDROOT
BRANCH   1   2
ATOM      2  C   UNL A   1      52.027  26.496  29.047  1.00  0.00     0.116 C 
BRANCH   2   3
ATOM      3  N   UNL A   1      51.847  27.862  29.477  1.00  0.00    -0.352 N 
ATOM      4  C   UNL A   1      50.798  28.478  30.106  1.00  0.00     0.251 C 
ATOM      5  O   UNL A   1      50.922  29.648  30.458  1.00  0.00    -0.269 OA
ATOM      6  H   UNL A   1      52.609  28.454  29.286  1.00  0.00     0.163 HD
BRANCH   4   7
ATOM      7  C   UNL A   1      49.515  27.779  30.380  1.00  0.00     0.039 A 
ATOM      8  C   UNL A   1      46.249  26.151  31.038  1.00  0.00     0.041 A 
ATOM      9  C   UNL A   1      46.438  26.783  29.198  1.00  0.00     0.027 A 
ATOM     10  C   UNL A   1      47.568  26.047  32.502  1.00  0.00     0.027 A 
ATOM     11  C   UNL A   1      48.323  27.737  28.807  1.00  0.00     0.016 A 
ATOM     12  C   UNL A   1      49.308  26.940  32.151  1.00  0.00     0.016 A 
BRANCH   8  13
ATOM     13  N   UNL A   1      44.929  26.621  31.382  1.00  0.00    -0.321 N 
ATOM     14  C   UNL A   1      44.204  25.762  32.122  1.00  0.00     0.272 C 
ATOM     15  O   UNL A   1      44.044  24.705  31.517  1.00  0.00    -0.267 OA
ATOM     16  H   UNL A   1      44.585  27.500  31.098  1.00  0.00     0.170 HD
BRANCH  14  17
ATOM     17  C   UNL A   1      44.006  25.946  33.663  1.00  0.00     0.108 C 
ATOM     18  C   UNL A   1      44.226  24.886  34.496  1.00  0.00     0.040 C 
BRANCH  17  19
ATOM     19  N   UNL A   1      43.423  27.080  34.282  1.00  0.00    -0.317 N 
ATOM     20  C   UNL A   1      43.611  28.461  34.381  1.00  0.00     0.259 C 
ATOM     21  O   UNL A   1      42.878  29.091  35.148  1.00  0.00    -0.269 OA
ATOM     22  H   UNL A   1      42.637  26.809  34.808  1.00  0.00     0.170 HD
BRANCH  20  23
ATOM     23  C   UNL A   1      44.670  29.197  33.680  1.00  0.00     0.082 A 
ATOM     24  C   UNL A   1      44.333  29.983  32.620  1.00  0.00     0.131 A 
ATOM     25  C   UNL A   1      45.218  30.044  31.539  1.00  0.00     0.047 A 
ATOM     26  C   UNL A   1      46.564  29.806  31.746  1.00  0.00     0.004 A 
ATOM     27  C   UNL A   1      46.031  29.160  34.006  1.00  0.00     0.018 A 
ATOM     28  C   UNL A   1      46.983  29.542  33.044  1.00  0.00     0.001 A 
BRANCH  24  29
ATOM     29  O   UNL A   1      43.507  31.081  32.772  1.00  0.00    -0.496 OA
ATOM     30  C   UNL A   1      43.889  32.281  33.454  1.00  0.00     0.278 C 
ENDBRANCH  24  29
ENDBRANCH  20  23
ENDBRANCH  17  19
BRANCH  18  31
ATOM     31  C   UNL A   1      44.975  23.658  34.147  1.00  0.00    -0.019 A 
ATOM     32  C   UNL A   1      46.460  23.532  34.518  1.00  0.00     0.012 A 
ATOM     33  C   UNL A   1      44.348  22.512  34.097  1.00  0.00     0.058 A 
ATOM     34  C   UNL A   1      47.966  22.544  35.343  1.00  0.00     0.051 A 
ATOM     35  C   UNL A   1      45.396  21.806  34.621  1.00  0.00     0.166 A 
ATOM     36  C   UNL A   1      47.310  21.638  35.389  1.00  0.00     0.165 A 
ATOM     37  O   UNL A   1      44.767  20.108  34.943  1.00  0.00    -0.454 OA
ATOM     38  O   UNL A   1      47.588  20.064  35.998  1.00  0.00    -0.454 OA
ATOM     39  C   UNL A   1      46.060  19.171  35.807  1.00  0.00     0.468 C 
ENDBRANCH  18  31
ENDBRANCH  14  17
ENDBRANCH   8  13
ENDBRANCH   4   7
ENDBRANCH   2   3
ENDBRANCH   1   2
BRANCH   1  40
ATOM     40  C   UNL A   1      52.653  25.575  26.768  1.00  0.00     0.002 C 
BRANCH  40  41
ATOM     41  C   UNL A   1      52.496  25.787  25.261  1.00  0.00     0.002 C 
BRANCH  41  42
ATOM     42  C   UNL A   1      53.024  27.146  24.801  1.00  0.00     0.021 C 
BRANCH  42  43
ATOM     43  C   UNL A   1      51.908  28.023  24.262  1.00  0.00     0.116 C 
BRANCH  43  44
ATOM     44  N   UNL A   1      51.584  27.641  22.893  1.00  0.00    -0.352 N 
ATOM     45  C   UNL A   1      50.425  27.093  22.419  1.00  0.00     0.251 C 
ATOM     46  H   UNL A   1      52.290  27.797  22.225  1.00  0.00     0.163 HD
ATOM     47  O   UNL A   1      50.392  26.502  21.347  1.00  0.00    -0.269 OA
BRANCH  45  48
ATOM     48  C   UNL A   1      49.216  27.235  23.243  1.00  0.00     0.039 A 
ATOM     49  C   UNL A   1      49.245  26.845  24.579  1.00  0.00     0.014 A 
ATOM     50  C   UNL A   1      48.074  27.816  22.684  1.00  0.00     0.014 A 
ATOM     51  C   UNL A   1      48.128  27.084  25.374  1.00  0.00     0.010 A 
ATOM     52  C   UNL A   1      47.018  28.167  23.504  1.00  0.00     0.010 A 
ATOM     53  C   UNL A   1      47.026  27.784  24.853  1.00  0.00    -0.014 A 
BRANCH  53  54
ATOM     54  C   UNL A   1      45.850  28.114  25.686  1.00  0.00     0.031 A 
ATOM     55  C   UNL A   1      45.757  29.463  26.336  1.00  0.00     0.074 A 
ATOM     56  C   UNL A   1      44.903  27.184  25.911  1.00  0.00     0.049 A 
ATOM     57  N   UNL A   1      44.860  29.910  27.175  1.00  0.00    -0.248 NA
ATOM     58  C   UNL A   1      46.824  30.428  26.023  1.00  0.00     0.031 C 
ATOM     59  C   UNL A   1      44.896  25.835  25.346  1.00  0.00     0.029 A 
ATOM     60  N   UNL A   1      43.769  27.228  26.684  1.00  0.00    -0.354 N 
ATOM     61  C   UNL A   1      45.256  31.200  27.491  1.00  0.00     0.074 A 
ATOM     62  C   UNL A   1      46.508  31.443  26.810  1.00  0.00     0.031 C 
ATOM     63  C   UNL A   1      43.796  25.191  25.766  1.00  0.00     0.029 A 
ATOM     64  C   UNL A   1      43.058  26.054  26.684  1.00  0.00     0.049 A 
ATOM     65  H   UNL A   1      43.493  28.027  27.190  1.00  0.00     0.167 HD
ATOM     66  C   UNL A   1      44.617  32.106  28.266  1.00  0.00     0.037 A 
ATOM     67  C   UNL A   1      41.954  25.699  27.369  1.00  0.00     0.037 A 
ATOM     68  C   UNL A   1      43.381  31.850  28.950  1.00  0.00     0.049 A 
ATOM     69  C   UNL A   1      41.315  26.697  28.298  1.00  0.00     0.074 A 
ATOM     70  C   UNL A   1      42.644  32.717  29.735  1.00  0.00     0.029 A 
ATOM     71  N   UNL A   1      42.712  30.635  28.955  1.00  0.00    -0.354 N 
ATOM     72  N   UNL A   1      41.673  27.930  28.556  1.00  0.00    -0.248 NA
ATOM     73  C   UNL A   1      40.119  26.258  29.032  1.00  0.00     0.031 C 
ATOM     74  C   UNL A   1      41.592  31.998  30.303  1.00  0.00     0.029 A 
ATOM     75  C   UNL A   1      41.598  30.719  29.772  1.00  0.00     0.049 A 
ATOM     76  H   UNL A   1      42.989  29.833  28.453  1.00  0.00     0.167 HD
ATOM     77  C   UNL A   1      40.726  28.427  29.441  1.00  0.00     0.074 A 
ATOM     78  C   UNL A   1      39.775  27.363  29.677  1.00  0.00     0.031 C 
ATOM     79  C   UNL A   1      40.647  29.661  29.992  1.00  0.00     0.037 A 
BRANCH  66  80
ATOM     80  C   UNL A   1      45.264  33.447  28.446  1.00  0.00     0.064 A 
ATOM     81  C   UNL A   1      46.230  33.679  29.437  1.00  0.00     0.173 A 
ATOM     82  C   UNL A   1      44.935  34.509  27.590  1.00  0.00     0.173 A 
ATOM     83  F   UNL A   1      46.586  32.697  30.279  1.00  0.00    -0.203 F 
ATOM     84  C   UNL A   1      46.799  34.939  29.598  1.00  0.00     0.198 A 
ATOM     85  C   UNL A   1      45.549  35.750  27.717  1.00  0.00     0.198 A 
ATOM     86  F   UNL A   1      44.029  34.339  26.614  1.00  0.00    -0.203 F 
ATOM     87  F   UNL A   1      47.657  35.159  30.605  1.00  0.00    -0.200 F 
ATOM     88  C   UNL A   1      46.466  35.970  28.734  1.00  0.00     0.200 A 
ATOM     89  F   UNL A   1      45.250  36.733  26.859  1.00  0.00    -0.200 F 
ATOM     90  F   UNL A   1      47.023  37.178  28.884  1.00  0.00    -0.200 F 
ENDBRANCH  66  80
BRANCH  67  91
ATOM     91  C   UNL A   1      41.388  24.332  27.219  1.00  0.00     0.064 A 
ATOM     92  C   UNL A   1      40.187  24.114  26.530  1.00  0.00     0.173 A 
ATOM     93  C   UNL A   1      42.018  23.218  27.798  1.00  0.00     0.173 A 
ATOM     94  F   UNL A   1      39.540  25.146  25.969  1.00  0.00    -0.203 F 
ATOM     95  C   UNL A   1      39.614  22.846  26.466  1.00  0.00     0.198 A 
ATOM     96  C   UNL A   1      41.471  21.943  27.687  1.00  0.00     0.198 A 
ATOM     97  F   UNL A   1      43.172  23.367  28.464  1.00  0.00    -0.203 F 
ATOM     98  F   UNL A   1      38.422  22.683  25.876  1.00  0.00    -0.200 F 
ATOM     99  C   UNL A   1      40.260  21.761  27.038  1.00  0.00     0.200 A 
ATOM    100  F   UNL A   1      42.113  20.894  28.217  1.00  0.00    -0.200 F 
ATOM    101  F   UNL A   1      39.710  20.541  26.972  1.00  0.00    -0.200 F 
ENDBRANCH  67  91
BRANCH  79 102
ATOM    102  C   UNL A   1      39.456  29.980  30.850  1.00  0.00     0.064 A 
ATOM    103  C   UNL A   1      39.478  29.858  32.245  1.00  0.00     0.173 A 
ATOM    104  C   UNL A   1      38.297  30.509  30.256  1.00  0.00     0.173 A 
ATOM    105  F   UNL A   1      40.560  29.361  32.864  1.00  0.00    -0.203 F 
ATOM    106  C   UNL A   1      38.375  30.226  33.012  1.00  0.00     0.198 A 
ATOM    107  C   UNL A   1      37.219  30.926  31.028  1.00  0.00     0.198 A 
ATOM    108  F   UNL A   1      38.227  30.660  28.924  1.00  0.00    -0.203 F 
ATOM    109  F   UNL A   1      38.397  30.048  34.340  1.00  0.00    -0.200 F 
ATOM    110  C   UNL A   1      37.255  30.773  32.405  1.00  0.00     0.200 A 
ATOM    111  F   UNL A   1      36.154  31.488  30.441  1.00  0.00    -0.200 F 
ATOM    112  F   UNL A   1      36.207  31.154  33.148  1.00  0.00    -0.200 F 
ENDBRANCH  79 102
ENDBRANCH  53  54
ENDBRANCH  45  48
ENDBRANCH  43  44
ENDBRANCH  42  43
ENDBRANCH  41  42
ENDBRANCH  40  41
ENDBRANCH   1  40
TORSDOF 19
ENDMDL
MODEL 3
REMARK VINA RESULT:      -7.8      5.533      8.941
REMARK SMILES COc1ccccc1C(=O)N/C(=C/c1ccc2c(c1)OCO2)C(=O)Nc1ccc(C(=O)NCCCCCCNC(=O)c2ccc(-c3c4nc(c(-c5c(F)c(F)c(F)c(F)c5F)c5ccc([nH]5)c(-c5c(F)c(F)c(F)c(F)c5F)c5nc(c(-c6c(F)c(F)c(F)c(F)c6F)c6ccc3[nH]6)C=C5)C=C4)cc2)cc1
REMARK SMILES IDX 34 1 33 2 32 3 30 4 31 5 29 7 26 8 27 9 106 10 28 11 105 12
REMARK SMILES IDX 25 13 23 14 24 15 12 17 13 18 11 19 9 20 10 21 8 23 3 24
REMARK SMILES IDX 4 25 5 26 7 27 6 28 2 29 1 30 14 31 15 32 19 33 16 34 18 35
REMARK SMILES IDX 17 36 20 37 22 38 21 39 35 40 36 41 37 42 38 43 39 44 40 45
REMARK SMILES IDX 41 47 42 48 43 49 104 50 44 51 103 52 45 53 46 54 47 55
REMARK SMILES IDX 97 56 48 57 102 58 96 59 98 60 49 61 101 62 95 63 94 64
REMARK SMILES IDX 50 66 82 67 62 68 81 69 63 70 66 71 80 72 99 73 64 74 65 75
REMARK SMILES IDX 79 77 100 78 67 79 51 80 52 81 60 82 53 83 54 84 58 85 61 86
REMARK SMILES IDX 55 87 56 88 59 89 57 90 83 91 84 92 92 93 85 94 86 95 90 96
REMARK SMILES IDX 93 97 87 98 88 99 91 100 89 101 68 102 69 103 77 104 70 105
REMARK SMILES IDX 71 106 75 107 78 108 72 109 73 110 76 111 74 112
REMARK H PARENT 32 6 25 16 11 22 39 46 98 65 66 76
REMARK Flexibility Score: inf
ROOT
ATOM      1  C   UNL A   1      34.847  32.909  32.189  1.00  0.00     0.021 C 
ENDROOT
BRANCH   1   2
ATOM      2  C   UNL A   1      36.162  32.248  32.625  1.00  0.00     0.116 C 
BRANCH   2   3
ATOM      3  N   UNL A   1      37.257  33.168  32.429  1.00  0.00    -0.352 N 
ATOM      4  C   UNL A   1      38.210  33.632  33.296  1.00  0.00     0.251 C 
ATOM      5  O   UNL A   1      39.108  34.347  32.861  1.00  0.00    -0.269 OA
ATOM      6  H   UNL A   1      37.333  33.522  31.515  1.00  0.00     0.163 HD
BRANCH   4   7
ATOM      7  C   UNL A   1      38.197  33.297  34.744  1.00  0.00     0.039 A 
ATOM      8  C   UNL A   1      38.043  32.405  38.340  1.00  0.00     0.041 A 
ATOM      9  C   UNL A   1      38.009  30.849  37.158  1.00  0.00     0.027 A 
ATOM     10  C   UNL A   1      38.358  34.312  37.943  1.00  0.00     0.027 A 
ATOM     11  C   UNL A   1      38.089  31.353  35.071  1.00  0.00     0.016 A 
ATOM     12  C   UNL A   1      38.419  34.786  36.014  1.00  0.00     0.016 A 
BRANCH   8  13
ATOM     13  N   UNL A   1      36.980  32.100  39.268  1.00  0.00    -0.321 N 
ATOM     14  C   UNL A   1      37.358  32.065  40.559  1.00  0.00     0.272 C 
ATOM     15  O   UNL A   1      38.219  31.205  40.729  1.00  0.00    -0.267 OA
ATOM     16  H   UNL A   1      36.053  31.931  38.980  1.00  0.00     0.170 HD
BRANCH  14  17
ATOM     17  C   UNL A   1      37.060  33.238  41.551  1.00  0.00     0.108 C 
ATOM     18  C   UNL A   1      36.168  33.043  42.567  1.00  0.00     0.040 C 
BRANCH  17  19
ATOM     19  N   UNL A   1      37.492  34.577  41.383  1.00  0.00    -0.317 N 
ATOM     20  C   UNL A   1      38.673  35.322  41.324  1.00  0.00     0.259 C 
ATOM     21  O   UNL A   1      38.579  36.551  41.255  1.00  0.00    -0.269 OA
ATOM     22  H   UNL A   1      36.714  35.170  41.274  1.00  0.00     0.170 HD
BRANCH  20  23
ATOM     23  C   UNL A   1      40.016  34.738  41.407  1.00  0.00     0.082 A 
ATOM     24  C   UNL A   1      40.457  34.270  42.608  1.00  0.00     0.131 A 
ATOM     25  C   UNL A   1      41.807  34.445  42.927  1.00  0.00     0.047 A 
ATOM     26  C   UNL A   1      42.739  34.552  41.911  1.00  0.00     0.004 A 
ATOM     27  C   UNL A   1      40.913  34.621  40.339  1.00  0.00     0.018 A 
ATOM     28  C   UNL A   1      42.284  34.451  40.603  1.00  0.00     0.001 A 
BRANCH  24  29
ATOM     29  O   UNL A   1      39.830  33.214  43.243  1.00  0.00    -0.496 OA
ATOM     30  C   UNL A   1      40.445  31.941  43.471  1.00  0.00     0.278 C 
ENDBRANCH  24  29
ENDBRANCH  20  23
ENDBRANCH  17  19
BRANCH  18  31
ATOM     31  C   UNL A   1      35.700  31.729  43.062  1.00  0.00    -0.019 A 
ATOM     32  C   UNL A   1      36.653  30.821  43.852  1.00  0.00     0.012 A 
ATOM     33  C   UNL A   1      34.441  31.571  43.378  1.00  0.00     0.058 A 
ATOM     34  C   UNL A   1      37.074  29.703  45.432  1.00  0.00     0.051 A 
ATOM     35  C   UNL A   1      34.712  30.758  44.444  1.00  0.00     0.166 A 
ATOM     36  C   UNL A   1      35.989  29.733  45.708  1.00  0.00     0.165 A 
ATOM     37  O   UNL A   1      33.118  30.517  45.330  1.00  0.00    -0.454 OA
ATOM     38  O   UNL A   1      35.136  29.069  47.033  1.00  0.00    -0.454 OA
ATOM     39  C   UNL A   1      33.444  29.593  46.858  1.00  0.00     0.468 C 
ENDBRANCH  18  31
ENDBRANCH  14  17
ENDBRANCH   8  13
ENDBRANCH   4   7
ENDBRANCH   2   3
ENDBRANCH   1   2
BRANCH   1  40
ATOM     40  C   UNL A   1      35.085  34.241  31.483  1.00  0.00     0.002 C 
BRANCH  40  41
ATOM     41  C   UNL A   1      34.747  34.175  29.992  1.00  0.00     0.002 C 
BRANCH  41  42
ATOM     42  C   UNL A   1      34.417  32.755  29.528  1.00  0.00     0.021 C 
BRANCH  42  43
ATOM     43  C   UNL A   1      34.619  32.600  28.031  1.00  0.00     0.116 C 
BRANCH  43  44
ATOM     44  N   UNL A   1      33.987  31.373  27.562  1.00  0.00    -0.352 N 
ATOM     45  C   UNL A   1      34.563  30.149  27.358  1.00  0.00     0.251 C 
ATOM     46  H   UNL A   1      33.025  31.432  27.366  1.00  0.00     0.163 HD
ATOM     47  O   UNL A   1      34.031  29.306  26.647  1.00  0.00    -0.269 OA
BRANCH  45  48
ATOM     48  C   UNL A   1      35.846  29.880  28.023  1.00  0.00     0.039 A 
ATOM     49  C   UNL A   1      35.856  29.376  29.321  1.00  0.00     0.014 A 
ATOM     50  C   UNL A   1      37.035  30.081  27.316  1.00  0.00     0.014 A 
ATOM     51  C   UNL A   1      37.073  29.027  29.897  1.00  0.00     0.010 A 
ATOM     52  C   UNL A   1      38.226  29.615  27.842  1.00  0.00     0.010 A 
ATOM     53  C   UNL A   1      38.259  29.104  29.147  1.00  0.00    -0.014 A 
BRANCH  53  54
ATOM     54  C   UNL A   1      39.561  28.680  29.705  1.00  0.00     0.031 A 
ATOM     55  C   UNL A   1      40.206  29.496  30.784  1.00  0.00     0.074 A 
ATOM     56  C   UNL A   1      40.191  27.604  29.197  1.00  0.00     0.049 A 
ATOM     57  N   UNL A   1      41.383  29.347  31.335  1.00  0.00    -0.248 NA
ATOM     58  C   UNL A   1      39.442  30.647  31.297  1.00  0.00     0.031 C 
ATOM     59  C   UNL A   1      39.669  26.744  28.135  1.00  0.00     0.029 A 
ATOM     60  N   UNL A   1      41.414  27.057  29.498  1.00  0.00    -0.354 N 
ATOM     61  C   UNL A   1      41.499  30.381  32.251  1.00  0.00     0.074 A 
ATOM     62  C   UNL A   1      40.307  31.191  32.136  1.00  0.00     0.031 C 
ATOM     63  C   UNL A   1      40.550  25.760  27.897  1.00  0.00     0.029 A 
ATOM     64  C   UNL A   1      41.728  25.960  28.735  1.00  0.00     0.049 A 
ATOM     65  H   UNL A   1      42.008  27.417  30.196  1.00  0.00     0.167 HD
ATOM     66  C   UNL A   1      42.505  30.618  33.122  1.00  0.00     0.037 A 
ATOM     67  C   UNL A   1      42.850  25.216  28.691  1.00  0.00     0.037 A 
ATOM     68  C   UNL A   1      43.692  29.815  33.219  1.00  0.00     0.049 A 
ATOM     69  C   UNL A   1      43.994  25.559  29.608  1.00  0.00     0.074 A 
ATOM     70  C   UNL A   1      44.754  29.962  34.092  1.00  0.00     0.029 A 
ATOM     71  N   UNL A   1      43.990  28.736  32.401  1.00  0.00    -0.354 N 
ATOM     72  N   UNL A   1      44.076  26.513  30.502  1.00  0.00    -0.248 NA
ATOM     73  C   UNL A   1      45.201  24.725  29.514  1.00  0.00     0.031 C 
ATOM     74  C   UNL A   1      45.740  29.044  33.733  1.00  0.00     0.029 A 
ATOM     75  C   UNL A   1      45.242  28.241  32.720  1.00  0.00     0.049 A 
ATOM     76  H   UNL A   1      43.398  28.376  31.699  1.00  0.00     0.167 HD
ATOM     77  C   UNL A   1      45.318  26.366  31.105  1.00  0.00     0.074 A 
ATOM     78  C   UNL A   1      45.957  25.231  30.478  1.00  0.00     0.031 C 
ATOM     79  C   UNL A   1      45.867  27.100  32.102  1.00  0.00     0.037 A 
BRANCH  66  80
ATOM     80  C   UNL A   1      42.384  31.817  34.017  1.00  0.00     0.064 A 
ATOM     81  C   UNL A   1      41.851  31.728  35.312  1.00  0.00     0.173 A 
ATOM     82  C   UNL A   1      42.842  33.070  33.581  1.00  0.00     0.173 A 
ATOM     83  F   UNL A   1      41.405  30.553  35.780  1.00  0.00    -0.203 F 
ATOM     84  C   UNL A   1      41.730  32.859  36.113  1.00  0.00     0.198 A 
ATOM     85  C   UNL A   1      42.772  34.186  34.407  1.00  0.00     0.198 A 
ATOM     86  F   UNL A   1      43.375  33.210  32.357  1.00  0.00    -0.203 F 
ATOM     87  F   UNL A   1      41.140  32.764  37.313  1.00  0.00    -0.200 F 
ATOM     88  C   UNL A   1      42.198  34.084  35.665  1.00  0.00     0.200 A 
ATOM     89  F   UNL A   1      43.257  35.360  33.983  1.00  0.00    -0.200 F 
ATOM     90  F   UNL A   1      42.090  35.169  36.442  1.00  0.00    -0.200 F 
ENDBRANCH  66  80
BRANCH  67  91
ATOM     91  C   UNL A   1      42.959  24.082  27.735  1.00  0.00     0.064 A 
ATOM     92  C   UNL A   1      43.427  24.278  26.427  1.00  0.00     0.173 A 
ATOM     93  C   UNL A   1      42.560  22.786  28.096  1.00  0.00     0.173 A 
ATOM     94  F   UNL A   1      43.810  25.500  26.029  1.00  0.00    -0.203 F 
ATOM     95  C   UNL A   1      43.446  23.233  25.507  1.00  0.00     0.198 A 
ATOM     96  C   UNL A   1      42.631  21.731  27.190  1.00  0.00     0.198 A 
ATOM     97  F   UNL A   1      42.110  22.540  29.335  1.00  0.00    -0.203 F 
ATOM     98  F   UNL A   1      43.815  23.468  24.240  1.00  0.00    -0.200 F 
ATOM     99  C   UNL A   1      43.056  21.959  25.891  1.00  0.00     0.200 A 
ATOM    100  F   UNL A   1      42.278  20.498  27.575  1.00  0.00    -0.200 F 
ATOM    101  F   UNL A   1      43.078  20.955  25.005  1.00  0.00    -0.200 F 
ENDBRANCH  67  91
BRANCH  79 102
ATOM    102  C   UNL A   1      47.197  26.670  32.650  1.00  0.00     0.064 A 
ATOM    103  C   UNL A   1      47.322  25.676  33.629  1.00  0.00     0.173 A 
ATOM    104  C   UNL A   1      48.377  27.209  32.109  1.00  0.00     0.173 A 
ATOM    105  F   UNL A   1      46.228  25.126  34.179  1.00  0.00    -0.203 F 
ATOM    106  C   UNL A   1      48.577  25.257  34.066  1.00  0.00     0.198 A 
ATOM    107  C   UNL A   1      49.627  26.750  32.507  1.00  0.00     0.198 A 
ATOM    108  F   UNL A   1      48.315  28.154  31.158  1.00  0.00    -0.203 F 
ATOM    109  F   UNL A   1      48.673  24.345  35.043  1.00  0.00    -0.200 F 
ATOM    110  C   UNL A   1      49.726  25.782  33.494  1.00  0.00     0.200 A 
ATOM    111  F   UNL A   1      50.733  27.234  31.926  1.00  0.00    -0.200 F 
ATOM    112  F   UNL A   1      50.931  25.356  33.895  1.00  0.00    -0.200 F 
ENDBRANCH  79 102
ENDBRANCH  53  54
ENDBRANCH  45  48
ENDBRANCH  43  44
ENDBRANCH  42  43
ENDBRANCH  41  42
ENDBRANCH  40  41
ENDBRANCH   1  40
TORSDOF 19
ENDMDL
