MODEL 1
REMARK VINA RESULT:     -11.9      0.000      0.000
REMARK SMILES CC[NH2+][C@]1(C(=O)NCCCCCCNC(=O)c2ccc(-c3c4nc(c(-c5c(F)c(F)c(F)c(F)c5F)c5ccc([nH]5)c(-c5c(F)c(F)c(F)c(F)c5F)c5nc(c(-c6c(F)c(F)c(F)c(F)c6F)c6ccc3[nH]6)C=C5)C=C4)cc2)CC[C@@H](Sc2ccccc2C)C1
REMARK SMILES IDX 10 1 9 2 8 3 7 4 5 5 6 6 4 8 80 9 91 10 81 11 82 12 3 13
REMARK SMILES IDX 2 16 1 17 83 18 84 19 85 20 89 21 86 22 88 23 90 24 87 25
REMARK SMILES IDX 11 26 12 27 13 28 14 29 15 30 16 32 17 33 18 34 79 35 19 36
REMARK SMILES IDX 78 37 20 38 21 39 22 40 72 41 23 42 77 43 71 44 73 45 24 46
REMARK SMILES IDX 76 47 70 48 69 49 25 51 57 52 37 53 56 54 38 55 41 56 55 57
REMARK SMILES IDX 74 58 39 59 40 60 54 62 75 63 42 64 26 65 27 66 35 67 28 68
REMARK SMILES IDX 29 69 33 70 36 71 30 72 31 73 34 74 32 75 58 76 59 77 67 78
REMARK SMILES IDX 60 79 61 80 65 81 68 82 62 83 63 84 66 85 64 86 43 87 44 88
REMARK SMILES IDX 52 89 45 90 46 91 50 92 53 93 47 94 48 95 51 96 49 97
REMARK H PARENT 7 7 3 14 3 15 14 31 73 50 41 61
REMARK Flexibility Score: inf
ROOT
ATOM      1  C   UNL A   1      33.126  30.260  26.156  1.00  0.00     0.002 C 
ENDROOT
BRANCH   1   2
ATOM      2  C   UNL A   1      33.611  29.312  27.253  1.00  0.00     0.021 C 
BRANCH   2   3
ATOM      3  C   UNL A   1      33.565  27.833  26.895  1.00  0.00     0.116 C 
BRANCH   3   4
ATOM      4  N   UNL A   1      32.230  27.283  26.964  1.00  0.00    -0.351 N 
ATOM      5  C   UNL A   1      31.409  26.709  26.041  1.00  0.00     0.281 C 
ATOM      6  O   UNL A   1      30.353  26.253  26.502  1.00  0.00    -0.268 OA
ATOM      7  H   UNL A   1      31.831  27.334  27.863  1.00  0.00     0.163 HD
BRANCH   5   8
ATOM      8  C   UNL A   1      31.674  26.732  24.486  1.00  0.00     0.176 C 
ATOM      9  C   UNL A   1      33.152  26.788  24.075  1.00  0.00     0.080 C 
ATOM     10  C   UNL A   1      31.218  25.355  23.924  1.00  0.00     0.094 C 
ATOM     11  C   UNL A   1      33.309  25.986  22.797  1.00  0.00     0.022 C 
ATOM     12  C   UNL A   1      32.251  24.901  22.886  1.00  0.00     0.058 C 
BRANCH   8  13
ATOM     13  N   UNL A   1      30.816  27.822  23.955  1.00  0.00    -0.334 N 
ATOM     14  H   UNL A   1      30.480  28.357  24.755  1.00  0.00     0.347 HD
ATOM     15  H   UNL A   1      31.421  28.319  23.302  1.00  0.00     0.347 HD
BRANCH  13  16
ATOM     16  C   UNL A   1      29.653  27.465  23.160  1.00  0.00     0.257 C 
ATOM     17  C   UNL A   1      28.784  28.696  22.932  1.00  0.00     0.071 C 
ENDBRANCH  13  16
ENDBRANCH   8  13
BRANCH  12  18
ATOM     18  S   UNL A   1      32.881  23.184  23.121  1.00  0.00    -0.122 SA
BRANCH  18  19
ATOM     19  C   UNL A   1      34.459  23.364  23.957  1.00  0.00     0.010 A 
ATOM     20  C   UNL A   1      35.612  23.100  23.195  1.00  0.00     0.015 A 
ATOM     21  C   UNL A   1      34.596  23.554  25.345  1.00  0.00    -0.038 A 
ATOM     22  C   UNL A   1      36.880  23.064  23.783  1.00  0.00     0.001 A 
ATOM     23  C   UNL A   1      35.888  23.557  25.914  1.00  0.00     0.004 A 
ATOM     24  C   UNL A   1      33.447  23.735  26.297  1.00  0.00     0.045 C 
ATOM     25  C   UNL A   1      37.018  23.303  25.143  1.00  0.00     0.000 A 
ENDBRANCH  18  19
ENDBRANCH  12  18
ENDBRANCH   5   8
ENDBRANCH   3   4
ENDBRANCH   2   3
ENDBRANCH   1   2
BRANCH   1  26
ATOM     26  C   UNL A   1      31.673  30.731  26.281  1.00  0.00     0.002 C 
BRANCH  26  27
ATOM     27  C   UNL A   1      31.481  32.196  26.680  1.00  0.00     0.021 C 
BRANCH  27  28
ATOM     28  C   UNL A   1      32.678  32.842  27.371  1.00  0.00     0.116 C 
BRANCH  28  29
ATOM     29  N   UNL A   1      32.437  34.237  27.698  1.00  0.00    -0.352 N 
ATOM     30  C   UNL A   1      33.025  35.031  28.651  1.00  0.00     0.251 C 
ATOM     31  H   UNL A   1      31.748  34.682  27.152  1.00  0.00     0.163 HD
ATOM     32  O   UNL A   1      32.555  36.131  28.913  1.00  0.00    -0.269 OA
BRANCH  30  33
ATOM     33  C   UNL A   1      34.216  34.547  29.383  1.00  0.00     0.039 A 
ATOM     34  C   UNL A   1      34.042  33.994  30.654  1.00  0.00     0.014 A 
ATOM     35  C   UNL A   1      35.493  34.640  28.824  1.00  0.00     0.014 A 
ATOM     36  C   UNL A   1      35.141  33.466  31.333  1.00  0.00     0.010 A 
ATOM     37  C   UNL A   1      36.575  34.049  29.470  1.00  0.00     0.010 A 
ATOM     38  C   UNL A   1      36.408  33.448  30.727  1.00  0.00    -0.014 A 
BRANCH  38  39
ATOM     39  C   UNL A   1      37.553  32.759  31.373  1.00  0.00     0.031 A 
ATOM     40  C   UNL A   1      38.197  31.567  30.726  1.00  0.00     0.074 A 
ATOM     41  C   UNL A   1      37.960  33.165  32.592  1.00  0.00     0.049 A 
ATOM     42  N   UNL A   1      39.161  30.802  31.174  1.00  0.00    -0.248 NA
ATOM     43  C   UNL A   1      37.669  31.164  29.414  1.00  0.00     0.031 C 
ATOM     44  C   UNL A   1      37.373  34.271  33.350  1.00  0.00     0.029 A 
ATOM     45  N   UNL A   1      38.945  32.683  33.418  1.00  0.00    -0.354 N 
ATOM     46  C   UNL A   1      39.345  29.822  30.207  1.00  0.00     0.074 A 
ATOM     47  C   UNL A   1      38.360  30.060  29.174  1.00  0.00     0.031 C 
ATOM     48  C   UNL A   1      38.014  34.392  34.521  1.00  0.00     0.029 A 
ATOM     49  C   UNL A   1      39.027  33.345  34.619  1.00  0.00     0.049 A 
ATOM     50  H   UNL A   1      39.536  31.935  33.173  1.00  0.00     0.167 HD
ATOM     51  C   UNL A   1      40.264  28.826  30.181  1.00  0.00     0.037 A 
ATOM     52  C   UNL A   1      39.813  33.122  35.689  1.00  0.00     0.037 A 
ATOM     53  C   UNL A   1      41.247  28.606  31.211  1.00  0.00     0.049 A 
ATOM     54  C   UNL A   1      40.819  32.007  35.640  1.00  0.00     0.074 A 
ATOM     55  C   UNL A   1      42.277  27.682  31.235  1.00  0.00     0.029 A 
ATOM     56  N   UNL A   1      41.311  29.305  32.408  1.00  0.00    -0.354 N 
ATOM     57  N   UNL A   1      41.052  31.146  34.679  1.00  0.00    -0.248 NA
ATOM     58  C   UNL A   1      41.676  31.834  36.820  1.00  0.00     0.031 C 
ATOM     59  C   UNL A   1      42.919  27.774  32.475  1.00  0.00     0.029 A 
ATOM     60  C   UNL A   1      42.332  28.801  33.199  1.00  0.00     0.049 A 
ATOM     61  H   UNL A   1      40.718  30.049  32.659  1.00  0.00     0.167 HD
ATOM     62  C   UNL A   1      42.085  30.338  35.131  1.00  0.00     0.074 A 
ATOM     63  C   UNL A   1      42.453  30.827  36.444  1.00  0.00     0.031 C 
ATOM     64  C   UNL A   1      42.676  29.284  34.513  1.00  0.00     0.037 A 
BRANCH  51  65
ATOM     65  C   UNL A   1      40.233  27.884  29.010  1.00  0.00     0.064 A 
ATOM     66  C   UNL A   1      39.514  26.680  29.044  1.00  0.00     0.173 A 
ATOM     67  C   UNL A   1      40.915  28.205  27.825  1.00  0.00     0.173 A 
ATOM     68  F   UNL A   1      38.850  26.319  30.152  1.00  0.00    -0.203 F 
ATOM     69  C   UNL A   1      39.513  25.813  27.952  1.00  0.00     0.198 A 
ATOM     70  C   UNL A   1      40.882  27.352  26.724  1.00  0.00     0.198 A 
ATOM     71  F   UNL A   1      41.611  29.347  27.732  1.00  0.00    -0.203 F 
ATOM     72  F   UNL A   1      38.870  24.640  28.032  1.00  0.00    -0.200 F 
ATOM     73  C   UNL A   1      40.192  26.153  26.792  1.00  0.00     0.200 A 
ATOM     74  F   UNL A   1      41.525  27.692  25.598  1.00  0.00    -0.200 F 
ATOM     75  F   UNL A   1      40.187  25.320  25.743  1.00  0.00    -0.200 F 
ENDBRANCH  51  65
BRANCH  52  76
ATOM     76  C   UNL A   1      39.667  33.981  36.893  1.00  0.00     0.064 A 
ATOM     77  C   UNL A   1      40.302  35.227  36.977  1.00  0.00     0.173 A 
ATOM     78  C   UNL A   1      38.863  33.584  37.973  1.00  0.00     0.173 A 
ATOM     79  F   UNL A   1      41.096  35.641  35.979  1.00  0.00    -0.203 F 
ATOM     80  C   UNL A   1      40.146  36.040  38.098  1.00  0.00     0.198 A 
ATOM     81  C   UNL A   1      38.682  34.410  39.078  1.00  0.00     0.198 A 
ATOM     82  F   UNL A   1      38.227  32.403  37.938  1.00  0.00    -0.203 F 
ATOM     83  F   UNL A   1      40.791  37.212  38.168  1.00  0.00    -0.200 F 
ATOM     84  C   UNL A   1      39.328  35.635  39.143  1.00  0.00     0.200 A 
ATOM     85  F   UNL A   1      37.875  34.024  40.076  1.00  0.00    -0.200 F 
ATOM     86  F   UNL A   1      39.164  36.425  40.213  1.00  0.00    -0.200 F 
ENDBRANCH  52  76
BRANCH  64  87
ATOM     87  C   UNL A   1      43.784  28.588  35.251  1.00  0.00     0.064 A 
ATOM     88  C   UNL A   1      43.545  27.448  36.033  1.00  0.00     0.173 A 
ATOM     89  C   UNL A   1      45.109  29.041  35.141  1.00  0.00     0.173 A 
ATOM     90  F   UNL A   1      42.295  26.983  36.184  1.00  0.00    -0.203 F 
ATOM     91  C   UNL A   1      44.585  26.802  36.696  1.00  0.00     0.198 A 
ATOM     92  C   UNL A   1      46.151  28.372  35.778  1.00  0.00     0.198 A 
ATOM     93  F   UNL A   1      45.395  30.123  34.403  1.00  0.00    -0.203 F 
ATOM     94  F   UNL A   1      44.325  25.744  37.477  1.00  0.00    -0.200 F 
ATOM     95  C   UNL A   1      45.888  27.259  36.561  1.00  0.00     0.200 A 
ATOM     96  F   UNL A   1      47.411  28.806  35.633  1.00  0.00    -0.200 F 
ATOM     97  F   UNL A   1      46.888  26.629  37.192  1.00  0.00    -0.200 F 
ENDBRANCH  64  87
ENDBRANCH  38  39
ENDBRANCH  30  33
ENDBRANCH  28  29
ENDBRANCH  27  28
ENDBRANCH  26  27
ENDBRANCH   1  26
TORSDOF 17
ENDMDL
MODEL 2
REMARK VINA RESULT:     -11.8      5.847     11.103
REMARK SMILES CC[NH2+][C@]1(C(=O)NCCCCCCNC(=O)c2ccc(-c3c4nc(c(-c5c(F)c(F)c(F)c(F)c5F)c5ccc([nH]5)c(-c5c(F)c(F)c(F)c(F)c5F)c5nc(c(-c6c(F)c(F)c(F)c(F)c6F)c6ccc3[nH]6)C=C5)C=C4)cc2)CC[C@@H](Sc2ccccc2C)C1
REMARK SMILES IDX 10 1 9 2 8 3 7 4 5 5 6 6 4 8 80 9 91 10 81 11 82 12 3 13
REMARK SMILES IDX 2 16 1 17 83 18 84 19 85 20 89 21 86 22 88 23 90 24 87 25
REMARK SMILES IDX 11 26 12 27 13 28 14 29 15 30 16 32 17 33 18 34 79 35 19 36
REMARK SMILES IDX 78 37 20 38 21 39 22 40 72 41 23 42 77 43 71 44 73 45 24 46
REMARK SMILES IDX 76 47 70 48 69 49 25 51 57 52 37 53 56 54 38 55 41 56 55 57
REMARK SMILES IDX 74 58 39 59 40 60 54 62 75 63 42 64 26 65 27 66 35 67 28 68
REMARK SMILES IDX 29 69 33 70 36 71 30 72 31 73 34 74 32 75 58 76 59 77 67 78
REMARK SMILES IDX 60 79 61 80 65 81 68 82 62 83 63 84 66 85 64 86 43 87 44 88
REMARK SMILES IDX 52 89 45 90 46 91 50 92 53 93 47 94 48 95 51 96 49 97
REMARK H PARENT 7 7 3 14 3 15 14 31 73 50 41 61
REMARK Flexibility Score: inf
ROOT
ATOM      1  C   UNL A   1      37.678  22.372  25.235  1.00  0.00     0.002 C 
ENDROOT
BRANCH   1   2
ATOM      2  C   UNL A   1      37.023  23.600  24.601  1.00  0.00     0.021 C 
BRANCH   2   3
ATOM      3  C   UNL A   1      35.501  23.615  24.648  1.00  0.00     0.116 C 
BRANCH   3   4
ATOM      4  N   UNL A   1      34.900  23.462  23.343  1.00  0.00    -0.351 N 
ATOM      5  C   UNL A   1      33.610  23.397  22.912  1.00  0.00     0.281 C 
ATOM      6  O   UNL A   1      33.478  23.366  21.680  1.00  0.00    -0.268 OA
ATOM      7  H   UNL A   1      35.559  23.388  22.614  1.00  0.00     0.163 HD
BRANCH   5   8
ATOM      8  C   UNL A   1      32.366  23.225  23.868  1.00  0.00     0.176 C 
ATOM      9  C   UNL A   1      32.578  23.706  25.310  1.00  0.00     0.080 C 
ATOM     10  C   UNL A   1      31.257  24.185  23.350  1.00  0.00     0.094 C 
ATOM     11  C   UNL A   1      31.264  24.279  25.806  1.00  0.00     0.022 C 
ATOM     12  C   UNL A   1      30.591  24.840  24.566  1.00  0.00     0.058 C 
BRANCH   8  13
ATOM     13  N   UNL A   1      31.943  21.810  23.716  1.00  0.00    -0.334 N 
ATOM     14  H   UNL A   1      30.939  21.813  23.538  1.00  0.00     0.347 HD
ATOM     15  H   UNL A   1      32.534  21.453  22.965  1.00  0.00     0.347 HD
BRANCH  13  16
ATOM     16  C   UNL A   1      32.180  20.892  24.819  1.00  0.00     0.257 C 
ATOM     17  C   UNL A   1      33.514  20.180  24.622  1.00  0.00     0.071 C 
ENDBRANCH  13  16
ENDBRANCH   8  13
BRANCH  12  18
ATOM     18  S   UNL A   1      30.465  26.677  24.483  1.00  0.00    -0.122 SA
BRANCH  18  19
ATOM     19  C   UNL A   1      31.771  27.294  25.549  1.00  0.00     0.010 A 
ATOM     20  C   UNL A   1      31.374  27.837  26.785  1.00  0.00     0.015 A 
ATOM     21  C   UNL A   1      33.111  27.444  25.146  1.00  0.00    -0.038 A 
ATOM     22  C   UNL A   1      32.289  28.478  27.626  1.00  0.00     0.001 A 
ATOM     23  C   UNL A   1      34.030  28.056  26.025  1.00  0.00     0.004 A 
ATOM     24  C   UNL A   1      33.651  27.014  23.810  1.00  0.00     0.045 C 
ATOM     25  C   UNL A   1      33.621  28.579  27.248  1.00  0.00     0.000 A 
ENDBRANCH  18  19
ENDBRANCH  12  18
ENDBRANCH   5   8
ENDBRANCH   3   4
ENDBRANCH   2   3
ENDBRANCH   1   2
BRANCH   1  26
ATOM     26  C   UNL A   1      37.282  21.022  24.628  1.00  0.00     0.002 C 
BRANCH  26  27
ATOM     27  C   UNL A   1      38.174  19.836  25.003  1.00  0.00     0.021 C 
BRANCH  27  28
ATOM     28  C   UNL A   1      39.293  20.154  25.990  1.00  0.00     0.116 C 
BRANCH  28  29
ATOM     29  N   UNL A   1      40.311  19.117  26.019  1.00  0.00    -0.352 N 
ATOM     30  C   UNL A   1      41.676  19.229  26.119  1.00  0.00     0.251 C 
ATOM     31  H   UNL A   1      39.971  18.195  25.959  1.00  0.00     0.163 HD
ATOM     32  O   UNL A   1      42.390  18.252  25.930  1.00  0.00    -0.269 OA
BRANCH  30  33
ATOM     33  C   UNL A   1      42.289  20.538  26.432  1.00  0.00     0.039 A 
ATOM     34  C   UNL A   1      42.727  21.342  25.377  1.00  0.00     0.014 A 
ATOM     35  C   UNL A   1      42.436  20.969  27.753  1.00  0.00     0.014 A 
ATOM     36  C   UNL A   1      43.243  22.611  25.643  1.00  0.00     0.010 A 
ATOM     37  C   UNL A   1      42.883  22.261  28.013  1.00  0.00     0.010 A 
ATOM     38  C   UNL A   1      43.283  23.098  26.960  1.00  0.00    -0.014 A 
BRANCH  38  39
ATOM     39  C   UNL A   1      43.690  24.497  27.244  1.00  0.00     0.031 A 
ATOM     40  C   UNL A   1      42.682  25.514  27.693  1.00  0.00     0.074 A 
ATOM     41  C   UNL A   1      44.965  24.868  27.015  1.00  0.00     0.049 A 
ATOM     42  N   UNL A   1      42.842  26.793  27.923  1.00  0.00    -0.248 NA
ATOM     43  C   UNL A   1      41.303  25.037  27.882  1.00  0.00     0.031 C 
ATOM     44  C   UNL A   1      46.022  23.985  26.519  1.00  0.00     0.029 A 
ATOM     45  N   UNL A   1      45.584  26.086  27.147  1.00  0.00    -0.354 N 
ATOM     46  C   UNL A   1      41.587  27.275  28.270  1.00  0.00     0.074 A 
ATOM     47  C   UNL A   1      40.667  26.162  28.171  1.00  0.00     0.031 C 
ATOM     48  C   UNL A   1      47.160  24.685  26.400  1.00  0.00     0.029 A 
ATOM     49  C   UNL A   1      46.904  26.074  26.767  1.00  0.00     0.049 A 
ATOM     50  H   UNL A   1      45.127  26.890  27.482  1.00  0.00     0.167 HD
ATOM     51  C   UNL A   1      41.241  28.529  28.651  1.00  0.00     0.037 A 
ATOM     52  C   UNL A   1      47.804  27.074  26.699  1.00  0.00     0.037 A 
ATOM     53  C   UNL A   1      42.168  29.626  28.757  1.00  0.00     0.049 A 
ATOM     54  C   UNL A   1      47.395  28.458  27.119  1.00  0.00     0.074 A 
ATOM     55  C   UNL A   1      41.936  30.910  29.218  1.00  0.00     0.029 A 
ATOM     56  N   UNL A   1      43.502  29.576  28.377  1.00  0.00    -0.354 N 
ATOM     57  N   UNL A   1      46.228  28.883  27.539  1.00  0.00    -0.248 NA
ATOM     58  C   UNL A   1      48.427  29.501  27.060  1.00  0.00     0.031 C 
ATOM     59  C   UNL A   1      43.108  31.656  29.051  1.00  0.00     0.029 A 
ATOM     60  C   UNL A   1      44.093  30.819  28.548  1.00  0.00     0.049 A 
ATOM     61  H   UNL A   1      43.962  28.775  28.035  1.00  0.00     0.167 HD
ATOM     62  C   UNL A   1      46.387  30.235  27.805  1.00  0.00     0.074 A 
ATOM     63  C   UNL A   1      47.771  30.556  27.523  1.00  0.00     0.031 C 
ATOM     64  C   UNL A   1      45.467  31.132  28.244  1.00  0.00     0.037 A 
BRANCH  51  65
ATOM     65  C   UNL A   1      39.793  28.786  28.960  1.00  0.00     0.064 A 
ATOM     66  C   UNL A   1      39.270  28.629  30.253  1.00  0.00     0.173 A 
ATOM     67  C   UNL A   1      38.920  29.223  27.952  1.00  0.00     0.173 A 
ATOM     68  F   UNL A   1      40.057  28.207  31.254  1.00  0.00    -0.203 F 
ATOM     69  C   UNL A   1      37.920  28.857  30.515  1.00  0.00     0.198 A 
ATOM     70  C   UNL A   1      37.579  29.484  28.225  1.00  0.00     0.198 A 
ATOM     71  F   UNL A   1      39.366  29.400  26.699  1.00  0.00    -0.203 F 
ATOM     72  F   UNL A   1      37.432  28.638  31.744  1.00  0.00    -0.200 F 
ATOM     73  C   UNL A   1      37.078  29.290  29.502  1.00  0.00     0.200 A 
ATOM     74  F   UNL A   1      36.771  29.919  27.248  1.00  0.00    -0.200 F 
ATOM     75  F   UNL A   1      35.782  29.512  29.756  1.00  0.00    -0.200 F 
ENDBRANCH  51  65
BRANCH  52  76
ATOM     76  C   UNL A   1      49.177  26.788  26.209  1.00  0.00     0.064 A 
ATOM     77  C   UNL A   1      50.167  26.298  27.070  1.00  0.00     0.173 A 
ATOM     78  C   UNL A   1      49.517  26.969  24.859  1.00  0.00     0.173 A 
ATOM     79  F   UNL A   1      49.896  26.126  28.372  1.00  0.00    -0.203 F 
ATOM     80  C   UNL A   1      51.449  26.009  26.604  1.00  0.00     0.198 A 
ATOM     81  C   UNL A   1      50.788  26.651  24.388  1.00  0.00     0.198 A 
ATOM     82  F   UNL A   1      48.603  27.428  23.992  1.00  0.00    -0.203 F 
ATOM     83  F   UNL A   1      52.387  25.575  27.455  1.00  0.00    -0.200 F 
ATOM     84  C   UNL A   1      51.754  26.176  25.261  1.00  0.00     0.200 A 
ATOM     85  F   UNL A   1      51.072  26.795  23.086  1.00  0.00    -0.200 F 
ATOM     86  F   UNL A   1      52.982  25.882  24.810  1.00  0.00    -0.200 F 
ENDBRANCH  52  76
BRANCH  64  87
ATOM     87  C   UNL A   1      45.929  32.546  28.447  1.00  0.00     0.064 A 
ATOM     88  C   UNL A   1      46.465  32.978  29.670  1.00  0.00     0.173 A 
ATOM     89  C   UNL A   1      45.874  33.473  27.393  1.00  0.00     0.173 A 
ATOM     90  F   UNL A   1      46.525  32.136  30.714  1.00  0.00    -0.203 F 
ATOM     91  C   UNL A   1      46.906  34.287  29.837  1.00  0.00     0.198 A 
ATOM     92  C   UNL A   1      46.349  34.772  27.554  1.00  0.00     0.198 A 
ATOM     93  F   UNL A   1      45.376  33.112  26.201  1.00  0.00    -0.203 F 
ATOM     94  F   UNL A   1      47.368  34.690  31.030  1.00  0.00    -0.200 F 
ATOM     95  C   UNL A   1      46.856  35.181  28.777  1.00  0.00     0.200 A 
ATOM     96  F   UNL A   1      46.313  35.628  26.524  1.00  0.00    -0.200 F 
ATOM     97  F   UNL A   1      47.291  36.438  28.938  1.00  0.00    -0.200 F 
ENDBRANCH  64  87
ENDBRANCH  38  39
ENDBRANCH  30  33
ENDBRANCH  28  29
ENDBRANCH  27  28
ENDBRANCH  26  27
ENDBRANCH   1  26
TORSDOF 17
ENDMDL
MODEL 3
REMARK VINA RESULT:     -11.7      0.677      1.878
REMARK SMILES CC[NH2+][C@]1(C(=O)NCCCCCCNC(=O)c2ccc(-c3c4nc(c(-c5c(F)c(F)c(F)c(F)c5F)c5ccc([nH]5)c(-c5c(F)c(F)c(F)c(F)c5F)c5nc(c(-c6c(F)c(F)c(F)c(F)c6F)c6ccc3[nH]6)C=C5)C=C4)cc2)CC[C@@H](Sc2ccccc2C)C1
REMARK SMILES IDX 10 1 9 2 8 3 7 4 5 5 6 6 4 8 80 9 91 10 81 11 82 12 3 13
REMARK SMILES IDX 2 16 1 17 83 18 84 19 85 20 89 21 86 22 88 23 90 24 87 25
REMARK SMILES IDX 11 26 12 27 13 28 14 29 15 30 16 32 17 33 18 34 79 35 19 36
REMARK SMILES IDX 78 37 20 38 21 39 22 40 72 41 23 42 77 43 71 44 73 45 24 46
REMARK SMILES IDX 76 47 70 48 69 49 25 51 57 52 37 53 56 54 38 55 41 56 55 57
REMARK SMILES IDX 74 58 39 59 40 60 54 62 75 63 42 64 26 65 27 66 35 67 28 68
REMARK SMILES IDX 29 69 33 70 36 71 30 72 31 73 34 74 32 75 58 76 59 77 67 78
REMARK SMILES IDX 60 79 61 80 65 81 68 82 62 83 63 84 66 85 64 86 43 87 44 88
REMARK SMILES IDX 52 89 45 90 46 91 50 92 53 93 47 94 48 95 51 96 49 97
REMARK H PARENT 7 7 3 14 3 15 14 31 73 50 41 61
REMARK Flexibility Score: inf
ROOT
ATOM      1  C   UNL A   1      32.505  29.805  26.888  1.00  0.00     0.002 C 
ENDROOT
BRANCH   1   2
ATOM      2  C   UNL A   1      31.751  28.575  27.392  1.00  0.00     0.021 C 
BRANCH   2   3
ATOM      3  C   UNL A   1      32.351  27.237  26.982  1.00  0.00     0.116 C 
BRANCH   3   4
ATOM      4  N   UNL A   1      31.391  26.157  27.025  1.00  0.00    -0.351 N 
ATOM      5  C   UNL A   1      30.872  25.333  26.074  1.00  0.00     0.281 C 
ATOM      6  O   UNL A   1      30.134  24.439  26.512  1.00  0.00    -0.268 OA
ATOM      7  H   UNL A   1      31.038  25.982  27.928  1.00  0.00     0.163 HD
BRANCH   5   8
ATOM      8  C   UNL A   1      31.051  25.551  24.521  1.00  0.00     0.176 C 
ATOM      9  C   UNL A   1      32.482  25.870  24.066  1.00  0.00     0.080 C 
ATOM     10  C   UNL A   1      30.773  24.184  23.833  1.00  0.00     0.094 C 
ATOM     11  C   UNL A   1      32.689  25.233  22.705  1.00  0.00     0.022 C 
ATOM     12  C   UNL A   1      31.807  23.997  22.716  1.00  0.00     0.058 C 
BRANCH   8  13
ATOM     13  N   UNL A   1      30.016  26.546  24.140  1.00  0.00    -0.334 N 
ATOM     14  H   UNL A   1      29.572  26.207  23.287  1.00  0.00     0.347 HD
ATOM     15  H   UNL A   1      29.419  26.612  24.964  1.00  0.00     0.347 HD
BRANCH  13  16
ATOM     16  C   UNL A   1      30.430  27.917  23.891  1.00  0.00     0.257 C 
ATOM     17  C   UNL A   1      29.587  28.517  22.771  1.00  0.00     0.071 C 
ENDBRANCH  13  16
ENDBRANCH   8  13
BRANCH  12  18
ATOM     18  S   UNL A   1      32.693  22.380  22.744  1.00  0.00    -0.122 SA
BRANCH  18  19
ATOM     19  C   UNL A   1      33.488  22.298  24.351  1.00  0.00     0.010 A 
ATOM     20  C   UNL A   1      32.674  21.945  25.442  1.00  0.00     0.015 A 
ATOM     21  C   UNL A   1      34.798  22.749  24.604  1.00  0.00    -0.038 A 
ATOM     22  C   UNL A   1      33.154  21.995  26.755  1.00  0.00     0.001 A 
ATOM     23  C   UNL A   1      35.280  22.752  25.931  1.00  0.00     0.004 A 
ATOM     24  C   UNL A   1      35.741  23.260  23.551  1.00  0.00     0.045 C 
ATOM     25  C   UNL A   1      34.462  22.390  26.998  1.00  0.00     0.000 A 
ENDBRANCH  18  19
ENDBRANCH  12  18
ENDBRANCH   5   8
ENDBRANCH   3   4
ENDBRANCH   2   3
ENDBRANCH   1   2
BRANCH   1  26
ATOM     26  C   UNL A   1      31.683  30.789  26.048  1.00  0.00     0.002 C 
BRANCH  26  27
ATOM     27  C   UNL A   1      31.401  32.145  26.698  1.00  0.00     0.021 C 
BRANCH  27  28
ATOM     28  C   UNL A   1      32.604  32.806  27.364  1.00  0.00     0.116 C 
BRANCH  28  29
ATOM     29  N   UNL A   1      32.365  34.208  27.663  1.00  0.00    -0.352 N 
ATOM     30  C   UNL A   1      32.956  35.021  28.599  1.00  0.00     0.251 C 
ATOM     31  H   UNL A   1      31.674  34.642  27.110  1.00  0.00     0.163 HD
ATOM     32  O   UNL A   1      32.488  36.126  28.839  1.00  0.00    -0.269 OA
BRANCH  30  33
ATOM     33  C   UNL A   1      34.148  34.551  29.337  1.00  0.00     0.039 A 
ATOM     34  C   UNL A   1      33.983  34.059  30.633  1.00  0.00     0.014 A 
ATOM     35  C   UNL A   1      35.420  34.598  28.758  1.00  0.00     0.014 A 
ATOM     36  C   UNL A   1      35.082  33.544  31.322  1.00  0.00     0.010 A 
ATOM     37  C   UNL A   1      36.501  34.019  29.417  1.00  0.00     0.010 A 
ATOM     38  C   UNL A   1      36.341  33.478  30.702  1.00  0.00    -0.014 A 
BRANCH  38  39
ATOM     39  C   UNL A   1      37.483  32.800  31.364  1.00  0.00     0.031 A 
ATOM     40  C   UNL A   1      38.146  31.614  30.727  1.00  0.00     0.074 A 
ATOM     41  C   UNL A   1      37.869  33.211  32.589  1.00  0.00     0.049 A 
ATOM     42  N   UNL A   1      39.111  30.858  31.189  1.00  0.00    -0.248 NA
ATOM     43  C   UNL A   1      37.640  31.205  29.409  1.00  0.00     0.031 C 
ATOM     44  C   UNL A   1      37.261  34.312  33.337  1.00  0.00     0.029 A 
ATOM     45  N   UNL A   1      38.847  32.739  33.428  1.00  0.00    -0.354 N 
ATOM     46  C   UNL A   1      39.318  29.879  30.226  1.00  0.00     0.074 A 
ATOM     47  C   UNL A   1      38.345  30.107  29.179  1.00  0.00     0.031 C 
ATOM     48  C   UNL A   1      37.885  34.440  34.517  1.00  0.00     0.029 A 
ATOM     49  C   UNL A   1      38.906  33.403  34.629  1.00  0.00     0.049 A 
ATOM     50  H   UNL A   1      39.449  31.996  33.192  1.00  0.00     0.167 HD
ATOM     51  C   UNL A   1      40.246  28.892  30.214  1.00  0.00     0.037 A 
ATOM     52  C   UNL A   1      39.680  33.188  35.711  1.00  0.00     0.037 A 
ATOM     53  C   UNL A   1      41.217  28.682  31.257  1.00  0.00     0.049 A 
ATOM     54  C   UNL A   1      40.697  32.082  35.676  1.00  0.00     0.074 A 
ATOM     55  C   UNL A   1      42.255  27.767  31.296  1.00  0.00     0.029 A 
ATOM     56  N   UNL A   1      41.258  29.382  32.454  1.00  0.00    -0.354 N 
ATOM     57  N   UNL A   1      40.951  31.222  34.719  1.00  0.00    -0.248 NA
ATOM     58  C   UNL A   1      41.538  31.918  36.868  1.00  0.00     0.031 C 
ATOM     59  C   UNL A   1      42.879  27.866  32.545  1.00  0.00     0.029 A 
ATOM     60  C   UNL A   1      42.273  28.888  33.260  1.00  0.00     0.049 A 
ATOM     61  H   UNL A   1      40.654  30.121  32.696  1.00  0.00     0.167 HD
ATOM     62  C   UNL A   1      41.985  30.425  35.187  1.00  0.00     0.074 A 
ATOM     63  C   UNL A   1      42.330  30.919  36.504  1.00  0.00     0.031 C 
ATOM     64  C   UNL A   1      42.594  29.376  34.578  1.00  0.00     0.037 A 
BRANCH  51  65
ATOM     65  C   UNL A   1      40.241  27.948  29.043  1.00  0.00     0.064 A 
ATOM     66  C   UNL A   1      40.953  28.222  27.865  1.00  0.00     0.173 A 
ATOM     67  C   UNL A   1      39.533  26.738  29.112  1.00  0.00     0.173 A 
ATOM     68  F   UNL A   1      41.641  29.367  27.742  1.00  0.00    -0.203 F 
ATOM     69  C   UNL A   1      40.921  27.341  26.785  1.00  0.00     0.198 A 
ATOM     70  C   UNL A   1      39.532  25.844  28.044  1.00  0.00     0.198 A 
ATOM     71  F   UNL A   1      38.842  26.419  30.217  1.00  0.00    -0.203 F 
ATOM     72  F   UNL A   1      41.557  27.655  25.649  1.00  0.00    -0.200 F 
ATOM     73  C   UNL A   1      40.216  26.151  26.879  1.00  0.00     0.200 A 
ATOM     74  F   UNL A   1      38.864  24.686  28.143  1.00  0.00    -0.200 F 
ATOM     75  F   UNL A   1      40.189  25.304  25.841  1.00  0.00    -0.200 F 
ENDBRANCH  51  65
BRANCH  52  76
ATOM     76  C   UNL A   1      39.510  34.046  36.911  1.00  0.00     0.064 A 
ATOM     77  C   UNL A   1      38.767  33.609  38.016  1.00  0.00     0.173 A 
ATOM     78  C   UNL A   1      40.113  35.311  36.990  1.00  0.00     0.173 A 
ATOM     79  F   UNL A   1      38.156  32.416  37.981  1.00  0.00    -0.203 F 
ATOM     80  C   UNL A   1      38.627  34.407  39.150  1.00  0.00     0.198 A 
ATOM     81  C   UNL A   1      39.999  36.093  38.135  1.00  0.00     0.198 A 
ATOM     82  F   UNL A   1      40.841  35.772  35.962  1.00  0.00    -0.203 F 
ATOM     83  F   UNL A   1      37.883  33.979  40.179  1.00  0.00    -0.200 F 
ATOM     84  C   UNL A   1      39.252  35.644  39.213  1.00  0.00     0.200 A 
ATOM     85  F   UNL A   1      40.620  37.279  38.199  1.00  0.00    -0.200 F 
ATOM     86  F   UNL A   1      39.130  36.403  40.310  1.00  0.00    -0.200 F 
ENDBRANCH  52  76
BRANCH  64  87
ATOM     87  C   UNL A   1      43.698  28.691  35.332  1.00  0.00     0.064 A 
ATOM     88  C   UNL A   1      43.435  27.670  36.257  1.00  0.00     0.173 A 
ATOM     89  C   UNL A   1      45.040  29.029  35.095  1.00  0.00     0.173 A 
ATOM     90  F   UNL A   1      42.168  27.319  36.532  1.00  0.00    -0.203 F 
ATOM     91  C   UNL A   1      44.469  27.031  36.934  1.00  0.00     0.198 A 
ATOM     92  C   UNL A   1      46.074  28.364  35.749  1.00  0.00     0.198 A 
ATOM     93  F   UNL A   1      45.350  29.994  34.216  1.00  0.00    -0.203 F 
ATOM     94  F   UNL A   1      44.190  26.093  37.851  1.00  0.00    -0.200 F 
ATOM     95  C   UNL A   1      45.788  27.372  36.673  1.00  0.00     0.200 A 
ATOM     96  F   UNL A   1      47.348  28.685  35.483  1.00  0.00    -0.200 F 
ATOM     97  F   UNL A   1      46.783  26.747  37.319  1.00  0.00    -0.200 F 
ENDBRANCH  64  87
ENDBRANCH  38  39
ENDBRANCH  30  33
ENDBRANCH  28  29
ENDBRANCH  27  28
ENDBRANCH  26  27
ENDBRANCH   1  26
TORSDOF 17
ENDMDL
