MODEL 1
REMARK VINA RESULT:     -11.6      0.000      0.000
REMARK SMILES CCC[C@@H]1SC[C@H](C(=O)NCCCCCCNC(=O)c2ccc(-c3c4nc(c(-c5c(F)c(F)c(F)c(F)c5F)c5ccc([nH]5)c(-c5c(F)c(F)c(F)c(F)c5F)c5nc(c(-c6c(F)c(F)c(F)c(F)c6F)c6ccc3[nH]6)C=C5)C=C4)cc2)N1C(=O)C[NH+]1CCC([NH3+])CC1
REMARK SMILES IDX 12 1 11 2 10 3 8 4 9 5 7 7 4 8 5 9 83 10 6 11 3 12 2 13 1 14
REMARK SMILES IDX 84 15 85 16 86 17 87 18 88 19 93 20 89 22 92 23 90 24 91 25
REMARK SMILES IDX 13 29 14 30 15 31 16 32 17 33 18 34 19 36 20 37 21 38 82 39
REMARK SMILES IDX 22 40 81 41 23 42 24 43 25 44 75 45 26 46 80 47 74 48 76 49
REMARK SMILES IDX 27 50 79 51 73 52 72 53 28 55 60 56 40 57 59 58 41 59 44 60
REMARK SMILES IDX 58 61 77 62 42 63 43 64 57 66 78 67 45 68 29 69 30 70 38 71
REMARK SMILES IDX 31 72 32 73 36 74 39 75 33 76 34 77 37 78 35 79 61 80 62 81
REMARK SMILES IDX 70 82 63 83 64 84 68 85 71 86 65 87 66 88 69 89 67 90 46 91
REMARK SMILES IDX 47 92 55 93 48 94 49 95 53 96 56 97 50 98 51 99 54 100
REMARK SMILES IDX 52 101
REMARK H PARENT 10 6 87 21 91 26 91 27 91 28 17 35 76 54 44 65
REMARK Flexibility Score: inf
ROOT
ATOM      1  C   UNL A   1      32.450  28.507  27.269  1.00  0.00     0.021 C 
ENDROOT
BRANCH   1   2
ATOM      2  C   UNL A   1      31.415  27.858  26.347  1.00  0.00     0.116 C 
BRANCH   2   3
ATOM      3  N   UNL A   1      31.000  26.547  26.815  1.00  0.00    -0.354 N 
ATOM      4  C   UNL A   1      30.694  25.406  26.119  1.00  0.00     0.243 C 
ATOM      5  O   UNL A   1      30.262  24.447  26.764  1.00  0.00    -0.273 OA
ATOM      6  H   UNL A   1      30.927  26.465  27.793  1.00  0.00     0.163 HD
BRANCH   4   7
ATOM      7  C   UNL A   1      30.925  25.357  24.587  1.00  0.00     0.185 C 
ATOM      8  C   UNL A   1      32.313  25.874  22.639  1.00  0.00     0.144 C 
ATOM      9  S   UNL A   1      30.873  26.984  22.438  1.00  0.00    -0.134 SA
ATOM     10  N   UNL A   1      32.292  25.498  24.044  1.00  0.00    -0.313 N 
ATOM     11  C   UNL A   1      30.031  26.419  23.932  1.00  0.00     0.107 C 
BRANCH   8  12
ATOM     12  C   UNL A   1      33.596  26.543  22.121  1.00  0.00     0.036 C 
BRANCH  12  13
ATOM     13  C   UNL A   1      33.574  28.073  22.288  1.00  0.00    -0.000 C 
ATOM     14  C   UNL A   1      34.045  28.568  23.645  1.00  0.00     0.004 C 
ENDBRANCH  12  13
ENDBRANCH   8  12
BRANCH  10  15
ATOM     15  C   UNL A   1      33.327  24.917  24.730  1.00  0.00     0.279 C 
ATOM     16  O   UNL A   1      33.977  25.618  25.517  1.00  0.00    -0.268 OA
BRANCH  15  17
ATOM     17  C   UNL A   1      33.748  23.442  24.599  1.00  0.00     0.363 C 
BRANCH  17  18
ATOM     18  N   UNL A   1      33.332  22.483  25.640  1.00  0.00    -0.327 N 
ATOM     19  C   UNL A   1      32.081  21.804  25.232  1.00  0.00     0.268 C 
ATOM     20  C   UNL A   1      34.344  21.504  26.056  1.00  0.00     0.268 C 
ATOM     21  H   UNL A   1      33.179  23.051  26.473  1.00  0.00     0.348 HD
ATOM     22  C   UNL A   1      32.269  20.639  24.248  1.00  0.00     0.126 C 
ATOM     23  C   UNL A   1      34.574  20.323  25.122  1.00  0.00     0.126 C 
ATOM     24  C   UNL A   1      33.255  19.622  24.822  1.00  0.00     0.192 C 
BRANCH  24  25
ATOM     25  N   UNL A   1      33.489  18.501  23.915  1.00  0.00    -0.355 N 
ATOM     26  H   UNL A   1      32.825  17.754  24.119  1.00  0.00     0.344 HD
ATOM     27  H   UNL A   1      34.440  18.155  24.040  1.00  0.00     0.344 HD
ATOM     28  H   UNL A   1      33.366  18.812  22.951  1.00  0.00     0.344 HD
ENDBRANCH  24  25
ENDBRANCH  17  18
ENDBRANCH  15  17
ENDBRANCH  10  15
ENDBRANCH   4   7
ENDBRANCH   2   3
ENDBRANCH   1   2
BRANCH   1  29
ATOM     29  C   UNL A   1      32.745  29.977  26.974  1.00  0.00     0.002 C 
BRANCH  29  30
ATOM     30  C   UNL A   1      31.633  30.708  26.223  1.00  0.00     0.002 C 
BRANCH  30  31
ATOM     31  C   UNL A   1      31.432  32.167  26.638  1.00  0.00     0.021 C 
BRANCH  31  32
ATOM     32  C   UNL A   1      32.637  32.815  27.314  1.00  0.00     0.116 C 
BRANCH  32  33
ATOM     33  N   UNL A   1      32.404  34.213  27.634  1.00  0.00    -0.352 N 
ATOM     34  C   UNL A   1      32.982  34.988  28.610  1.00  0.00     0.251 C 
ATOM     35  H   UNL A   1      31.735  34.669  27.072  1.00  0.00     0.163 HD
ATOM     36  O   UNL A   1      32.531  36.093  28.880  1.00  0.00    -0.269 OA
BRANCH  34  37
ATOM     37  C   UNL A   1      34.146  34.462  29.354  1.00  0.00     0.039 A 
ATOM     38  C   UNL A   1      33.933  33.842  30.585  1.00  0.00     0.014 A 
ATOM     39  C   UNL A   1      35.435  34.563  28.824  1.00  0.00     0.014 A 
ATOM     40  C   UNL A   1      35.007  33.251  31.252  1.00  0.00     0.010 A 
ATOM     41  C   UNL A   1      36.493  33.915  29.456  1.00  0.00     0.010 A 
ATOM     42  C   UNL A   1      36.286  33.242  30.670  1.00  0.00    -0.014 A 
BRANCH  42  43
ATOM     43  C   UNL A   1      37.407  32.495  31.298  1.00  0.00     0.031 A 
ATOM     44  C   UNL A   1      37.911  32.877  32.659  1.00  0.00     0.074 A 
ATOM     45  C   UNL A   1      38.013  31.512  30.602  1.00  0.00     0.049 A 
ATOM     46  N   UNL A   1      38.917  32.382  33.337  1.00  0.00    -0.248 NA
ATOM     47  C   UNL A   1      37.211  33.977  33.341  1.00  0.00     0.031 C 
ATOM     48  C   UNL A   1      37.641  31.078  29.254  1.00  0.00     0.029 A 
ATOM     49  N   UNL A   1      39.075  30.706  30.928  1.00  0.00    -0.354 N 
ATOM     50  C   UNL A   1      38.975  33.114  34.516  1.00  0.00     0.074 A 
ATOM     51  C   UNL A   1      37.935  34.118  34.443  1.00  0.00     0.031 C 
ATOM     52  C   UNL A   1      38.443  30.071  28.879  1.00  0.00     0.029 A 
ATOM     53  C   UNL A   1      39.415  29.816  29.937  1.00  0.00     0.049 A 
ATOM     54  H   UNL A   1      39.548  30.760  31.790  1.00  0.00     0.167 HD
ATOM     55  C   UNL A   1      39.809  32.947  35.570  1.00  0.00     0.037 A 
ATOM     56  C   UNL A   1      40.408  28.908  29.883  1.00  0.00     0.037 A 
ATOM     57  C   UNL A   1      40.827  31.931  35.646  1.00  0.00     0.049 A 
ATOM     58  C   UNL A   1      41.338  28.768  31.058  1.00  0.00     0.074 A 
ATOM     59  C   UNL A   1      41.668  31.633  36.704  1.00  0.00     0.029 A 
ATOM     60  N   UNL A   1      41.149  31.055  34.620  1.00  0.00    -0.354 N 
ATOM     61  N   UNL A   1      41.329  29.408  32.201  1.00  0.00    -0.248 NA
ATOM     62  C   UNL A   1      42.418  27.778  30.932  1.00  0.00     0.031 C 
ATOM     63  C   UNL A   1      42.542  30.619  36.295  1.00  0.00     0.029 A 
ATOM     64  C   UNL A   1      42.206  30.244  35.005  1.00  0.00     0.049 A 
ATOM     65  H   UNL A   1      40.694  31.014  33.748  1.00  0.00     0.167 HD
ATOM     66  C   UNL A   1      42.383  28.885  32.939  1.00  0.00     0.074 A 
ATOM     67  C   UNL A   1      42.996  27.858  32.123  1.00  0.00     0.031 C 
ATOM     68  C   UNL A   1      42.807  29.227  34.181  1.00  0.00     0.037 A 
BRANCH  55  69
ATOM     69  C   UNL A   1      39.665  33.887  36.733  1.00  0.00     0.064 A 
ATOM     70  C   UNL A   1      38.898  33.555  37.860  1.00  0.00     0.173 A 
ATOM     71  C   UNL A   1      40.351  35.111  36.744  1.00  0.00     0.173 A 
ATOM     72  F   UNL A   1      38.215  32.401  37.896  1.00  0.00    -0.203 F 
ATOM     73  C   UNL A   1      38.806  34.424  38.945  1.00  0.00     0.198 A 
ATOM     74  C   UNL A   1      40.282  35.962  37.844  1.00  0.00     0.198 A 
ATOM     75  F   UNL A   1      41.103  35.475  35.695  1.00  0.00    -0.203 F 
ATOM     76  F   UNL A   1      38.033  34.104  39.992  1.00  0.00    -0.200 F 
ATOM     77  C   UNL A   1      39.505  35.622  38.940  1.00  0.00     0.200 A 
ATOM     78  F   UNL A   1      40.970  37.113  37.844  1.00  0.00    -0.200 F 
ATOM     79  F   UNL A   1      39.424  36.450  39.990  1.00  0.00    -0.200 F 
ENDBRANCH  55  69
BRANCH  56  80
ATOM     80  C   UNL A   1      40.571  28.051  28.679  1.00  0.00     0.064 A 
ATOM     81  C   UNL A   1      41.354  28.474  27.595  1.00  0.00     0.173 A 
ATOM     82  C   UNL A   1      39.937  26.804  28.576  1.00  0.00     0.173 A 
ATOM     83  F   UNL A   1      41.963  29.668  27.637  1.00  0.00    -0.203 F 
ATOM     84  C   UNL A   1      41.476  27.695  26.446  1.00  0.00     0.198 A 
ATOM     85  C   UNL A   1      40.086  26.011  27.440  1.00  0.00     0.198 A 
ATOM     86  F   UNL A   1      39.178  26.349  29.585  1.00  0.00    -0.203 F 
ATOM     87  F   UNL A   1      42.187  28.148  25.405  1.00  0.00    -0.200 F 
ATOM     88  C   UNL A   1      40.847  26.462  26.372  1.00  0.00     0.200 A 
ATOM     89  F   UNL A   1      39.489  24.813  27.378  1.00  0.00    -0.200 F 
ATOM     90  F   UNL A   1      40.965  25.712  25.267  1.00  0.00    -0.200 F 
ENDBRANCH  56  80
BRANCH  68  91
ATOM     91  C   UNL A   1      43.978  28.472  34.740  1.00  0.00     0.064 A 
ATOM     92  C   UNL A   1      43.809  27.265  35.436  1.00  0.00     0.173 A 
ATOM     93  C   UNL A   1      45.287  28.938  34.545  1.00  0.00     0.173 A 
ATOM     94  F   UNL A   1      42.578  26.784  35.664  1.00  0.00    -0.203 F 
ATOM     95  C   UNL A   1      44.906  26.568  35.937  1.00  0.00     0.198 A 
ATOM     96  C   UNL A   1      46.383  28.221  35.017  1.00  0.00     0.198 A 
ATOM     97  F   UNL A   1      45.504  30.083  33.880  1.00  0.00    -0.203 F 
ATOM     98  F   UNL A   1      44.716  25.444  36.642  1.00  0.00    -0.200 F 
ATOM     99  C   UNL A   1      46.191  27.041  35.719  1.00  0.00     0.200 A 
ATOM    100  F   UNL A   1      47.624  28.672  34.793  1.00  0.00    -0.200 F 
ATOM    101  F   UNL A   1      47.245  26.363  36.194  1.00  0.00    -0.200 F 
ENDBRANCH  68  91
ENDBRANCH  42  43
ENDBRANCH  34  37
ENDBRANCH  32  33
ENDBRANCH  31  32
ENDBRANCH  30  31
ENDBRANCH  29  30
ENDBRANCH   1  29
TORSDOF 19
ENDMDL
MODEL 2
REMARK VINA RESULT:     -11.5      0.888      7.246
REMARK SMILES CCC[C@@H]1SC[C@H](C(=O)NCCCCCCNC(=O)c2ccc(-c3c4nc(c(-c5c(F)c(F)c(F)c(F)c5F)c5ccc([nH]5)c(-c5c(F)c(F)c(F)c(F)c5F)c5nc(c(-c6c(F)c(F)c(F)c(F)c6F)c6ccc3[nH]6)C=C5)C=C4)cc2)N1C(=O)C[NH+]1CCC([NH3+])CC1
REMARK SMILES IDX 12 1 11 2 10 3 8 4 9 5 7 7 4 8 5 9 83 10 6 11 3 12 2 13 1 14
REMARK SMILES IDX 84 15 85 16 86 17 87 18 88 19 93 20 89 22 92 23 90 24 91 25
REMARK SMILES IDX 13 29 14 30 15 31 16 32 17 33 18 34 19 36 20 37 21 38 82 39
REMARK SMILES IDX 22 40 81 41 23 42 24 43 25 44 75 45 26 46 80 47 74 48 76 49
REMARK SMILES IDX 27 50 79 51 73 52 72 53 28 55 60 56 40 57 59 58 41 59 44 60
REMARK SMILES IDX 58 61 77 62 42 63 43 64 57 66 78 67 45 68 29 69 30 70 38 71
REMARK SMILES IDX 31 72 32 73 36 74 39 75 33 76 34 77 37 78 35 79 61 80 62 81
REMARK SMILES IDX 70 82 63 83 64 84 68 85 71 86 65 87 66 88 69 89 67 90 46 91
REMARK SMILES IDX 47 92 55 93 48 94 49 95 53 96 56 97 50 98 51 99 54 100
REMARK SMILES IDX 52 101
REMARK H PARENT 10 6 87 21 91 26 91 27 91 28 17 35 76 54 44 65
REMARK Flexibility Score: inf
ROOT
ATOM      1  C   UNL A   1      32.726  28.272  27.233  1.00  0.00     0.021 C 
ENDROOT
BRANCH   1   2
ATOM      2  C   UNL A   1      31.437  27.692  26.646  1.00  0.00     0.116 C 
BRANCH   2   3
ATOM      3  N   UNL A   1      31.255  26.291  26.980  1.00  0.00    -0.354 N 
ATOM      4  C   UNL A   1      30.981  25.210  26.183  1.00  0.00     0.243 C 
ATOM      5  O   UNL A   1      30.768  24.132  26.743  1.00  0.00    -0.273 OA
ATOM      6  H   UNL A   1      31.343  26.084  27.939  1.00  0.00     0.163 HD
BRANCH   4   7
ATOM      7  C   UNL A   1      30.977  25.376  24.642  1.00  0.00     0.185 C 
ATOM      8  C   UNL A   1      31.969  26.319  22.613  1.00  0.00     0.144 C 
ATOM      9  S   UNL A   1      30.382  27.217  22.764  1.00  0.00    -0.134 SA
ATOM     10  N   UNL A   1      32.214  25.783  23.943  1.00  0.00    -0.313 N 
ATOM     11  C   UNL A   1      29.862  26.362  24.267  1.00  0.00     0.107 C 
BRANCH   8  12
ATOM     12  C   UNL A   1      33.058  27.228  22.023  1.00  0.00     0.036 C 
BRANCH  12  13
ATOM     13  C   UNL A   1      33.057  28.634  22.648  1.00  0.00    -0.000 C 
ATOM     14  C   UNL A   1      34.272  28.945  23.507  1.00  0.00     0.004 C 
ENDBRANCH  12  13
ENDBRANCH   8  12
BRANCH  10  15
ATOM     15  C   UNL A   1      33.409  25.286  24.395  1.00  0.00     0.279 C 
ATOM     16  O   UNL A   1      34.074  25.978  25.177  1.00  0.00    -0.268 OA
BRANCH  15  17
ATOM     17  C   UNL A   1      33.996  23.918  24.004  1.00  0.00     0.363 C 
BRANCH  17  18
ATOM     18  N   UNL A   1      34.219  22.907  25.055  1.00  0.00    -0.327 N 
ATOM     19  C   UNL A   1      34.867  21.709  24.476  1.00  0.00     0.268 C 
ATOM     20  C   UNL A   1      34.943  23.366  26.247  1.00  0.00     0.268 C 
ATOM     21  H   UNL A   1      33.287  22.682  25.402  1.00  0.00     0.348 HD
ATOM     22  C   UNL A   1      36.386  21.826  24.282  1.00  0.00     0.126 C 
ATOM     23  C   UNL A   1      36.455  23.500  26.117  1.00  0.00     0.126 C 
ATOM     24  C   UNL A   1      37.058  22.198  25.603  1.00  0.00     0.192 C 
BRANCH  24  25
ATOM     25  N   UNL A   1      38.505  22.346  25.469  1.00  0.00    -0.355 N 
ATOM     26  H   UNL A   1      38.714  22.906  24.643  1.00  0.00     0.344 HD
ATOM     27  H   UNL A   1      38.933  21.425  25.373  1.00  0.00     0.344 HD
ATOM     28  H   UNL A   1      38.878  22.808  26.298  1.00  0.00     0.344 HD
ENDBRANCH  24  25
ENDBRANCH  17  18
ENDBRANCH  15  17
ENDBRANCH  10  15
ENDBRANCH   4   7
ENDBRANCH   2   3
ENDBRANCH   1   2
BRANCH   1  29
ATOM     29  C   UNL A   1      32.825  29.796  27.195  1.00  0.00     0.002 C 
BRANCH  29  30
ATOM     30  C   UNL A   1      31.781  30.476  26.311  1.00  0.00     0.002 C 
BRANCH  30  31
ATOM     31  C   UNL A   1      31.537  31.954  26.629  1.00  0.00     0.021 C 
BRANCH  31  32
ATOM     32  C   UNL A   1      32.683  32.652  27.354  1.00  0.00     0.116 C 
BRANCH  32  33
ATOM     33  N   UNL A   1      32.407  34.059  27.595  1.00  0.00    -0.352 N 
ATOM     34  C   UNL A   1      32.966  34.907  28.519  1.00  0.00     0.251 C 
ATOM     35  H   UNL A   1      31.720  34.459  27.013  1.00  0.00     0.163 HD
ATOM     36  O   UNL A   1      32.481  36.011  28.728  1.00  0.00    -0.269 OA
BRANCH  34  37
ATOM     37  C   UNL A   1      34.151  34.463  29.283  1.00  0.00     0.039 A 
ATOM     38  C   UNL A   1      33.967  33.922  30.556  1.00  0.00     0.014 A 
ATOM     39  C   UNL A   1      35.431  34.561  28.732  1.00  0.00     0.014 A 
ATOM     40  C   UNL A   1      35.064  33.405  31.247  1.00  0.00     0.010 A 
ATOM     41  C   UNL A   1      36.512  33.985  29.393  1.00  0.00     0.010 A 
ATOM     42  C   UNL A   1      36.336  33.390  30.652  1.00  0.00    -0.014 A 
BRANCH  42  43
ATOM     43  C   UNL A   1      37.483  32.716  31.314  1.00  0.00     0.031 A 
ATOM     44  C   UNL A   1      38.176  31.561  30.652  1.00  0.00     0.074 A 
ATOM     45  C   UNL A   1      37.851  33.109  32.550  1.00  0.00     0.049 A 
ATOM     46  N   UNL A   1      39.151  30.812  31.105  1.00  0.00    -0.248 NA
ATOM     47  C   UNL A   1      37.697  31.178  29.315  1.00  0.00     0.031 C 
ATOM     48  C   UNL A   1      37.227  34.191  33.314  1.00  0.00     0.029 A 
ATOM     49  N   UNL A   1      38.834  32.639  33.385  1.00  0.00    -0.354 N 
ATOM     50  C   UNL A   1      39.394  29.868  30.116  1.00  0.00     0.074 A 
ATOM     51  C   UNL A   1      38.434  30.106  29.059  1.00  0.00     0.031 C 
ATOM     52  C   UNL A   1      37.856  34.317  34.492  1.00  0.00     0.029 A 
ATOM     53  C   UNL A   1      38.897  33.300  34.588  1.00  0.00     0.049 A 
ATOM     54  H   UNL A   1      39.437  31.898  33.145  1.00  0.00     0.167 HD
ATOM     55  C   UNL A   1      40.344  28.904  30.087  1.00  0.00     0.037 A 
ATOM     56  C   UNL A   1      39.695  33.098  35.654  1.00  0.00     0.037 A 
ATOM     57  C   UNL A   1      41.310  28.686  31.132  1.00  0.00     0.049 A 
ATOM     58  C   UNL A   1      40.720  31.998  35.605  1.00  0.00     0.074 A 
ATOM     59  C   UNL A   1      42.361  27.786  31.159  1.00  0.00     0.029 A 
ATOM     60  N   UNL A   1      41.337  29.368  32.340  1.00  0.00    -0.354 N 
ATOM     61  N   UNL A   1      40.996  31.167  34.629  1.00  0.00    -0.248 NA
ATOM     62  C   UNL A   1      41.546  31.808  36.806  1.00  0.00     0.031 C 
ATOM     63  C   UNL A   1      42.985  27.880  32.408  1.00  0.00     0.029 A 
ATOM     64  C   UNL A   1      42.361  28.879  33.137  1.00  0.00     0.049 A 
ATOM     65  H   UNL A   1      40.721  30.093  32.593  1.00  0.00     0.167 HD
ATOM     66  C   UNL A   1      42.039  30.373  35.088  1.00  0.00     0.074 A 
ATOM     67  C   UNL A   1      42.362  30.837  36.422  1.00  0.00     0.031 C 
ATOM     68  C   UNL A   1      42.670  29.349  34.463  1.00  0.00     0.037 A 
BRANCH  55  69
ATOM     69  C   UNL A   1      40.389  28.000  28.888  1.00  0.00     0.064 A 
ATOM     70  C   UNL A   1      39.671  26.795  28.844  1.00  0.00     0.173 A 
ATOM     71  C   UNL A   1      41.116  28.372  27.746  1.00  0.00     0.173 A 
ATOM     72  F   UNL A   1      38.968  26.389  29.912  1.00  0.00    -0.203 F 
ATOM     73  C   UNL A   1      39.695  25.987  27.710  1.00  0.00     0.198 A 
ATOM     74  C   UNL A   1      41.112  27.577  26.603  1.00  0.00     0.198 A 
ATOM     75  F   UNL A   1      41.816  29.515  27.732  1.00  0.00    -0.203 F 
ATOM     76  F   UNL A   1      39.035  24.821  27.706  1.00  0.00    -0.200 F 
ATOM     77  C   UNL A   1      40.408  26.383  26.588  1.00  0.00     0.200 A 
ATOM     78  F   UNL A   1      41.790  27.968  25.515  1.00  0.00    -0.200 F 
ATOM     79  F   UNL A   1      40.420  25.610  25.493  1.00  0.00    -0.200 F 
ENDBRANCH  55  69
BRANCH  56  80
ATOM     80  C   UNL A   1      39.565  33.961  36.859  1.00  0.00     0.064 A 
ATOM     81  C   UNL A   1      38.780  33.560  37.950  1.00  0.00     0.173 A 
ATOM     82  C   UNL A   1      40.202  35.208  36.939  1.00  0.00     0.173 A 
ATOM     83  F   UNL A   1      38.132  32.386  37.912  1.00  0.00    -0.203 F 
ATOM     84  C   UNL A   1      38.619  34.383  39.063  1.00  0.00     0.198 A 
ATOM     85  C   UNL A   1      40.067  36.015  38.067  1.00  0.00     0.198 A 
ATOM     86  F   UNL A   1      40.967  35.638  35.925  1.00  0.00    -0.203 F 
ATOM     87  F   UNL A   1      37.820  33.998  40.067  1.00  0.00    -0.200 F 
ATOM     88  C   UNL A   1      39.267  35.607  39.123  1.00  0.00     0.200 A 
ATOM     89  F   UNL A   1      40.708  37.191  38.127  1.00  0.00    -0.200 F 
ATOM     90  F   UNL A   1      39.113  36.398  40.194  1.00  0.00    -0.200 F 
ENDBRANCH  56  80
BRANCH  68  91
ATOM     91  C   UNL A   1      43.786  28.673  35.205  1.00  0.00     0.064 A 
ATOM     92  C   UNL A   1      43.554  27.554  36.019  1.00  0.00     0.173 A 
ATOM     93  C   UNL A   1      45.108  29.123  35.071  1.00  0.00     0.173 A 
ATOM     94  F   UNL A   1      42.307  27.093  36.195  1.00  0.00    -0.203 F 
ATOM     95  C   UNL A   1      44.602  26.927  36.691  1.00  0.00     0.198 A 
ATOM     96  C   UNL A   1      46.157  28.473  35.716  1.00  0.00     0.198 A 
ATOM     97  F   UNL A   1      45.385  30.185  34.299  1.00  0.00    -0.203 F 
ATOM     98  F   UNL A   1      44.349  25.891  37.502  1.00  0.00    -0.200 F 
ATOM     99  C   UNL A   1      45.903  27.382  36.531  1.00  0.00     0.200 A 
ATOM    100  F   UNL A   1      47.414  28.905  35.548  1.00  0.00    -0.200 F 
ATOM    101  F   UNL A   1      46.910  26.771  37.170  1.00  0.00    -0.200 F 
ENDBRANCH  68  91
ENDBRANCH  42  43
ENDBRANCH  34  37
ENDBRANCH  32  33
ENDBRANCH  31  32
ENDBRANCH  30  31
ENDBRANCH  29  30
ENDBRANCH   1  29
TORSDOF 19
ENDMDL
MODEL 3
REMARK VINA RESULT:     -11.3      1.231      7.814
REMARK SMILES CCC[C@@H]1SC[C@H](C(=O)NCCCCCCNC(=O)c2ccc(-c3c4nc(c(-c5c(F)c(F)c(F)c(F)c5F)c5ccc([nH]5)c(-c5c(F)c(F)c(F)c(F)c5F)c5nc(c(-c6c(F)c(F)c(F)c(F)c6F)c6ccc3[nH]6)C=C5)C=C4)cc2)N1C(=O)C[NH+]1CCC([NH3+])CC1
REMARK SMILES IDX 12 1 11 2 10 3 8 4 9 5 7 7 4 8 5 9 83 10 6 11 3 12 2 13 1 14
REMARK SMILES IDX 84 15 85 16 86 17 87 18 88 19 93 20 89 22 92 23 90 24 91 25
REMARK SMILES IDX 13 29 14 30 15 31 16 32 17 33 18 34 19 36 20 37 21 38 82 39
REMARK SMILES IDX 22 40 81 41 23 42 24 43 25 44 75 45 26 46 80 47 74 48 76 49
REMARK SMILES IDX 27 50 79 51 73 52 72 53 28 55 60 56 40 57 59 58 41 59 44 60
REMARK SMILES IDX 58 61 77 62 42 63 43 64 57 66 78 67 45 68 29 69 30 70 38 71
REMARK SMILES IDX 31 72 32 73 36 74 39 75 33 76 34 77 37 78 35 79 61 80 62 81
REMARK SMILES IDX 70 82 63 83 64 84 68 85 71 86 65 87 66 88 69 89 67 90 46 91
REMARK SMILES IDX 47 92 55 93 48 94 49 95 53 96 56 97 50 98 51 99 54 100
REMARK SMILES IDX 52 101
REMARK H PARENT 10 6 87 21 91 26 91 27 91 28 17 35 76 54 44 65
REMARK Flexibility Score: inf
ROOT
ATOM      1  C   UNL A   1      32.004  28.224  27.614  1.00  0.00     0.021 C 
ENDROOT
BRANCH   1   2
ATOM      2  C   UNL A   1      32.265  27.126  26.582  1.00  0.00     0.116 C 
BRANCH   2   3
ATOM      3  N   UNL A   1      31.206  26.133  26.546  1.00  0.00    -0.354 N 
ATOM      4  C   UNL A   1      31.263  24.769  26.420  1.00  0.00     0.243 C 
ATOM      5  O   UNL A   1      30.194  24.164  26.312  1.00  0.00    -0.273 OA
ATOM      6  H   UNL A   1      30.296  26.501  26.628  1.00  0.00     0.163 HD
BRANCH   4   7
ATOM      7  C   UNL A   1      32.639  24.054  26.445  1.00  0.00     0.185 C 
ATOM      8  C   UNL A   1      34.205  22.446  25.471  1.00  0.00     0.144 C 
ATOM      9  S   UNL A   1      33.707  21.652  27.043  1.00  0.00    -0.134 SA
ATOM     10  N   UNL A   1      33.166  23.431  25.213  1.00  0.00    -0.313 N 
ATOM     11  C   UNL A   1      32.608  22.991  27.552  1.00  0.00     0.107 C 
BRANCH   8  12
ATOM     12  C   UNL A   1      34.445  21.392  24.379  1.00  0.00     0.036 C 
BRANCH  12  13
ATOM     13  C   UNL A   1      33.550  20.152  24.546  1.00  0.00    -0.000 C 
ATOM     14  C   UNL A   1      34.298  18.828  24.552  1.00  0.00     0.004 C 
ENDBRANCH  12  13
ENDBRANCH   8  12
BRANCH  10  15
ATOM     15  C   UNL A   1      32.948  24.067  24.019  1.00  0.00     0.279 C 
ATOM     16  O   UNL A   1      32.380  23.440  23.114  1.00  0.00    -0.268 OA
BRANCH  15  17
ATOM     17  C   UNL A   1      33.358  25.518  23.710  1.00  0.00     0.363 C 
BRANCH  17  18
ATOM     18  N   UNL A   1      32.994  26.102  22.405  1.00  0.00    -0.327 N 
ATOM     19  C   UNL A   1      31.523  26.118  22.249  1.00  0.00     0.268 C 
ATOM     20  C   UNL A   1      33.563  27.423  22.110  1.00  0.00     0.268 C 
ATOM     21  H   UNL A   1      33.424  25.487  21.715  1.00  0.00     0.348 HD
ATOM     22  C   UNL A   1      30.810  27.281  22.956  1.00  0.00     0.126 C 
ATOM     23  C   UNL A   1      32.897  28.618  22.781  1.00  0.00     0.126 C 
ATOM     24  C   UNL A   1      31.399  28.614  22.498  1.00  0.00     0.192 C 
BRANCH  24  25
ATOM     25  N   UNL A   1      30.771  29.756  23.160  1.00  0.00    -0.355 N 
ATOM     26  H   UNL A   1      30.223  30.283  22.480  1.00  0.00     0.344 HD
ATOM     27  H   UNL A   1      31.493  30.358  23.556  1.00  0.00     0.344 HD
ATOM     28  H   UNL A   1      30.160  29.424  23.905  1.00  0.00     0.344 HD
ENDBRANCH  24  25
ENDBRANCH  17  18
ENDBRANCH  15  17
ENDBRANCH  10  15
ENDBRANCH   4   7
ENDBRANCH   2   3
ENDBRANCH   1   2
BRANCH   1  29
ATOM     29  C   UNL A   1      32.638  29.578  27.293  1.00  0.00     0.002 C 
BRANCH  29  30
ATOM     30  C   UNL A   1      31.883  30.398  26.249  1.00  0.00     0.002 C 
BRANCH  30  31
ATOM     31  C   UNL A   1      31.585  31.841  26.661  1.00  0.00     0.021 C 
BRANCH  31  32
ATOM     32  C   UNL A   1      32.731  32.557  27.371  1.00  0.00     0.116 C 
BRANCH  32  33
ATOM     33  N   UNL A   1      32.442  33.961  27.605  1.00  0.00    -0.352 N 
ATOM     34  C   UNL A   1      32.990  34.817  28.529  1.00  0.00     0.251 C 
ATOM     35  H   UNL A   1      31.756  34.355  27.019  1.00  0.00     0.163 HD
ATOM     36  O   UNL A   1      32.496  35.918  28.733  1.00  0.00    -0.269 OA
BRANCH  34  37
ATOM     37  C   UNL A   1      34.175  34.385  29.300  1.00  0.00     0.039 A 
ATOM     38  C   UNL A   1      33.985  33.777  30.541  1.00  0.00     0.014 A 
ATOM     39  C   UNL A   1      35.463  34.561  28.786  1.00  0.00     0.014 A 
ATOM     40  C   UNL A   1      35.086  33.272  31.235  1.00  0.00     0.010 A 
ATOM     41  C   UNL A   1      36.551  33.997  29.445  1.00  0.00     0.010 A 
ATOM     42  C   UNL A   1      36.371  33.336  30.670  1.00  0.00    -0.014 A 
BRANCH  42  43
ATOM     43  C   UNL A   1      37.529  32.678  31.329  1.00  0.00     0.031 A 
ATOM     44  C   UNL A   1      38.239  31.536  30.661  1.00  0.00     0.074 A 
ATOM     45  C   UNL A   1      37.894  33.071  32.565  1.00  0.00     0.049 A 
ATOM     46  N   UNL A   1      39.226  30.800  31.109  1.00  0.00    -0.248 NA
ATOM     47  C   UNL A   1      37.764  31.151  29.323  1.00  0.00     0.031 C 
ATOM     48  C   UNL A   1      37.253  34.140  33.335  1.00  0.00     0.029 A 
ATOM     49  N   UNL A   1      38.885  32.613  33.397  1.00  0.00    -0.354 N 
ATOM     50  C   UNL A   1      39.482  29.864  30.116  1.00  0.00     0.074 A 
ATOM     51  C   UNL A   1      38.517  30.091  29.062  1.00  0.00     0.031 C 
ATOM     52  C   UNL A   1      37.882  34.272  34.512  1.00  0.00     0.029 A 
ATOM     53  C   UNL A   1      38.939  33.271  34.603  1.00  0.00     0.049 A 
ATOM     54  H   UNL A   1      39.499  31.883  33.153  1.00  0.00     0.167 HD
ATOM     55  C   UNL A   1      40.448  28.915  30.082  1.00  0.00     0.037 A 
ATOM     56  C   UNL A   1      39.742  33.077  35.667  1.00  0.00     0.037 A 
ATOM     57  C   UNL A   1      41.419  28.709  31.125  1.00  0.00     0.049 A 
ATOM     58  C   UNL A   1      40.784  31.993  35.611  1.00  0.00     0.074 A 
ATOM     59  C   UNL A   1      42.484  27.825  31.147  1.00  0.00     0.029 A 
ATOM     60  N   UNL A   1      41.437  29.387  32.335  1.00  0.00    -0.354 N 
ATOM     61  N   UNL A   1      41.072  31.171  34.632  1.00  0.00    -0.248 NA
ATOM     62  C   UNL A   1      41.615  31.811  36.811  1.00  0.00     0.031 C 
ATOM     63  C   UNL A   1      43.108  27.923  32.395  1.00  0.00     0.029 A 
ATOM     64  C   UNL A   1      42.470  28.910  33.129  1.00  0.00     0.049 A 
ATOM     65  H   UNL A   1      40.810  30.100  32.592  1.00  0.00     0.167 HD
ATOM     66  C   UNL A   1      42.127  30.392  35.086  1.00  0.00     0.074 A 
ATOM     67  C   UNL A   1      42.445  30.855  36.421  1.00  0.00     0.031 C 
ATOM     68  C   UNL A   1      42.774  29.380  34.457  1.00  0.00     0.037 A 
BRANCH  55  69
ATOM     69  C   UNL A   1      40.505  28.017  28.880  1.00  0.00     0.064 A 
ATOM     70  C   UNL A   1      39.784  26.814  28.821  1.00  0.00     0.173 A 
ATOM     71  C   UNL A   1      41.246  28.392  27.748  1.00  0.00     0.173 A 
ATOM     72  F   UNL A   1      39.068  26.404  29.878  1.00  0.00    -0.203 F 
ATOM     73  C   UNL A   1      39.821  26.011  27.684  1.00  0.00     0.198 A 
ATOM     74  C   UNL A   1      41.255  27.603  26.601  1.00  0.00     0.198 A 
ATOM     75  F   UNL A   1      41.950  29.534  27.748  1.00  0.00    -0.203 F 
ATOM     76  F   UNL A   1      39.158  24.847  27.666  1.00  0.00    -0.200 F 
ATOM     77  C   UNL A   1      40.548  26.411  26.572  1.00  0.00     0.200 A 
ATOM     78  F   UNL A   1      41.946  27.997  25.523  1.00  0.00    -0.200 F 
ATOM     79  F   UNL A   1      40.571  25.643  25.474  1.00  0.00    -0.200 F 
ENDBRANCH  55  69
BRANCH  56  80
ATOM     80  C   UNL A   1      39.600  33.933  36.875  1.00  0.00     0.064 A 
ATOM     81  C   UNL A   1      38.812  33.522  37.959  1.00  0.00     0.173 A 
ATOM     82  C   UNL A   1      40.230  35.183  36.965  1.00  0.00     0.173 A 
ATOM     83  F   UNL A   1      38.172  32.345  37.913  1.00  0.00    -0.203 F 
ATOM     84  C   UNL A   1      38.640  34.338  39.076  1.00  0.00     0.198 A 
ATOM     85  C   UNL A   1      40.084  35.984  38.096  1.00  0.00     0.198 A 
ATOM     86  F   UNL A   1      40.998  35.623  35.956  1.00  0.00    -0.203 F 
ATOM     87  F   UNL A   1      37.839  33.944  40.074  1.00  0.00    -0.200 F 
ATOM     88  C   UNL A   1      39.281  35.566  39.146  1.00  0.00     0.200 A 
ATOM     89  F   UNL A   1      40.718  37.163  38.165  1.00  0.00    -0.200 F 
ATOM     90  F   UNL A   1      39.117  36.350  40.220  1.00  0.00    -0.200 F 
ENDBRANCH  56  80
BRANCH  68  91
ATOM     91  C   UNL A   1      43.901  28.718  35.194  1.00  0.00     0.064 A 
ATOM     92  C   UNL A   1      45.217  29.199  35.110  1.00  0.00     0.173 A 
ATOM     93  C   UNL A   1      43.658  27.615  36.027  1.00  0.00     0.173 A 
ATOM     94  F   UNL A   1      45.505  30.240  34.315  1.00  0.00    -0.203 F 
ATOM     95  C   UNL A   1      46.250  28.583  35.811  1.00  0.00     0.198 A 
ATOM     96  C   UNL A   1      44.688  27.023  36.753  1.00  0.00     0.198 A 
ATOM     97  F   UNL A   1      42.418  27.119  36.148  1.00  0.00    -0.203 F 
ATOM     98  F   UNL A   1      47.507  29.029  35.675  1.00  0.00    -0.200 F 
ATOM     99  C   UNL A   1      45.984  27.502  36.639  1.00  0.00     0.200 A 
ATOM    100  F   UNL A   1      44.427  25.989  37.563  1.00  0.00    -0.200 F 
ATOM    101  F   UNL A   1      46.979  26.918  37.320  1.00  0.00    -0.200 F 
ENDBRANCH  68  91
ENDBRANCH  42  43
ENDBRANCH  34  37
ENDBRANCH  32  33
ENDBRANCH  31  32
ENDBRANCH  30  31
ENDBRANCH  29  30
ENDBRANCH   1  29
TORSDOF 19
ENDMDL
