MODEL 1
REMARK VINA RESULT:     -11.7      0.000      0.000
REMARK SMILES O=C(/C=C/N[C@@H](Cc1c[nH]c2ccccc12)C(=O)NCCCCCCNC(=O)c1ccc(-c2c3nc(c(-c4c(F)c(F)c(F)c(F)c4F)c4ccc([nH]4)c(-c4c(F)c(F)c(F)c(F)c4F)c4nc(c(-c5c(F)c(F)c(F)c(F)c5F)c5ccc2[nH]5)C=C4)C=C3)cc1)c1ccccc1
REMARK SMILES IDX 21 1 20 2 19 3 17 4 18 5 6 7 5 8 4 10 3 11 2 12 1 13 92 14
REMARK SMILES IDX 93 15 97 16 94 17 96 18 95 19 7 20 8 21 9 22 16 23 10 24
REMARK SMILES IDX 11 25 15 26 12 28 14 29 13 30 22 31 23 32 24 33 25 34 26 35
REMARK SMILES IDX 27 36 28 38 29 39 30 40 91 41 31 42 90 43 32 44 33 45 34 46
REMARK SMILES IDX 84 47 35 48 89 49 83 50 85 51 36 52 88 53 82 54 81 55 37 57
REMARK SMILES IDX 69 58 49 59 68 60 50 61 53 62 67 63 86 64 51 65 52 66 66 68
REMARK SMILES IDX 87 69 54 70 38 71 39 72 47 73 40 74 41 75 45 76 48 77 42 78
REMARK SMILES IDX 43 79 46 80 44 81 70 82 71 83 79 84 72 85 73 86 77 87 80 88
REMARK SMILES IDX 74 89 75 90 78 91 76 92 55 93 56 94 64 95 57 96 58 97 62 98
REMARK SMILES IDX 65 99 59 100 60 101 63 102 61 103
REMARK H PARENT 19 6 5 9 10 27 26 37 85 56 53 67
REMARK Flexibility Score: inf
ROOT
ATOM      1  C   UNL A   1      30.919  28.021  23.386  1.00  0.00     0.021 C 
ENDROOT
BRANCH   1   2
ATOM      2  C   UNL A   1      30.692  26.762  22.561  1.00  0.00     0.116 C 
BRANCH   2   3
ATOM      3  N   UNL A   1      31.669  26.561  21.515  1.00  0.00    -0.354 N 
ATOM      4  C   UNL A   1      32.614  25.585  21.375  1.00  0.00     0.242 C 
ATOM      5  O   UNL A   1      33.122  25.471  20.251  1.00  0.00    -0.273 OA
ATOM      6  H   UNL A   1      31.650  27.230  20.793  1.00  0.00     0.163 HD
BRANCH   4   7
ATOM      7  C   UNL A   1      33.057  24.637  22.519  1.00  0.00     0.173 C 
BRANCH   7   8
ATOM      8  N   UNL A   1      33.028  23.213  22.140  1.00  0.00    -0.379 N 
ATOM      9  H   UNL A   1      33.467  22.964  21.296  1.00  0.00     0.160 HD
BRANCH   8  10
ATOM     10  C   UNL A   1      32.440  22.205  22.864  1.00  0.00     0.082 C 
ATOM     11  C   UNL A   1      33.051  21.392  23.733  1.00  0.00     0.070 C 
BRANCH  11  12
ATOM     12  C   UNL A   1      32.409  20.338  24.568  1.00  0.00     0.187 C 
ATOM     13  O   UNL A   1      31.491  20.642  25.325  1.00  0.00    -0.289 OA
BRANCH  12  14
ATOM     14  C   UNL A   1      32.801  18.920  24.429  1.00  0.00     0.022 A 
ATOM     15  C   UNL A   1      33.247  18.394  23.212  1.00  0.00     0.012 A 
ATOM     16  C   UNL A   1      32.732  18.106  25.564  1.00  0.00     0.012 A 
ATOM     17  C   UNL A   1      33.557  17.036  23.119  1.00  0.00     0.001 A 
ATOM     18  C   UNL A   1      33.049  16.752  25.468  1.00  0.00     0.001 A 
ATOM     19  C   UNL A   1      33.449  16.216  24.243  1.00  0.00     0.000 A 
ENDBRANCH  12  14
ENDBRANCH  11  12
ENDBRANCH   8  10
ENDBRANCH   7   8
BRANCH   7  20
ATOM     20  C   UNL A   1      34.339  25.056  23.257  1.00  0.00     0.072 C 
BRANCH  20  21
ATOM     21  C   UNL A   1      34.744  24.248  24.452  1.00  0.00    -0.020 A 
ATOM     22  C   UNL A   1      36.011  23.750  24.700  1.00  0.00     0.087 A 
ATOM     23  C   UNL A   1      33.934  23.882  25.577  1.00  0.00     0.003 A 
ATOM     24  N   UNL A   1      35.972  23.021  25.857  1.00  0.00    -0.361 N 
ATOM     25  C   UNL A   1      34.710  23.066  26.402  1.00  0.00     0.046 A 
ATOM     26  C   UNL A   1      32.608  24.160  25.967  1.00  0.00     0.010 A 
ATOM     27  H   UNL A   1      36.736  22.535  26.243  1.00  0.00     0.166 HD
ATOM     28  C   UNL A   1      34.210  22.462  27.561  1.00  0.00     0.026 A 
ATOM     29  C   UNL A   1      32.105  23.599  27.149  1.00  0.00     0.001 A 
ATOM     30  C   UNL A   1      32.891  22.748  27.923  1.00  0.00     0.002 A 
ENDBRANCH  20  21
ENDBRANCH   7  20
ENDBRANCH   4   7
ENDBRANCH   2   3
ENDBRANCH   1   2
BRANCH   1  31
ATOM     31  C   UNL A   1      31.703  27.793  24.683  1.00  0.00     0.002 C 
BRANCH  31  32
ATOM     32  C   UNL A   1      33.141  28.332  24.705  1.00  0.00     0.002 C 
BRANCH  32  33
ATOM     33  C   UNL A   1      34.033  27.810  25.835  1.00  0.00     0.021 C 
BRANCH  33  34
ATOM     34  C   UNL A   1      33.602  28.216  27.238  1.00  0.00     0.116 C 
BRANCH  34  35
ATOM     35  N   UNL A   1      33.506  29.657  27.392  1.00  0.00    -0.352 N 
ATOM     36  C   UNL A   1      34.407  30.547  27.919  1.00  0.00     0.251 C 
ATOM     37  H   UNL A   1      32.666  30.056  27.069  1.00  0.00     0.163 HD
ATOM     38  O   UNL A   1      34.075  31.709  28.118  1.00  0.00    -0.269 OA
BRANCH  36  39
ATOM     39  C   UNL A   1      35.773  30.102  28.268  1.00  0.00     0.039 A 
ATOM     40  C   UNL A   1      36.772  30.187  27.294  1.00  0.00     0.014 A 
ATOM     41  C   UNL A   1      36.068  29.582  29.532  1.00  0.00     0.014 A 
ATOM     42  C   UNL A   1      38.076  29.799  27.604  1.00  0.00     0.010 A 
ATOM     43  C   UNL A   1      37.384  29.271  29.864  1.00  0.00     0.010 A 
ATOM     44  C   UNL A   1      38.400  29.367  28.901  1.00  0.00    -0.014 A 
BRANCH  44  45
ATOM     45  C   UNL A   1      39.796  29.012  29.259  1.00  0.00     0.031 A 
ATOM     46  C   UNL A   1      40.627  29.948  30.093  1.00  0.00     0.074 A 
ATOM     47  C   UNL A   1      40.329  27.866  28.793  1.00  0.00     0.049 A 
ATOM     48  N   UNL A   1      41.873  29.829  30.477  1.00  0.00    -0.248 NA
ATOM     49  C   UNL A   1      39.982  31.194  30.534  1.00  0.00     0.031 C 
ATOM     50  C   UNL A   1      39.637  26.902  27.935  1.00  0.00     0.029 A 
ATOM     51  N   UNL A   1      41.575  27.321  28.968  1.00  0.00    -0.354 N 
ATOM     52  C   UNL A   1      42.161  30.985  31.192  1.00  0.00     0.074 A 
ATOM     53  C   UNL A   1      40.981  31.819  31.141  1.00  0.00     0.031 C 
ATOM     54  C   UNL A   1      40.459  25.871  27.682  1.00  0.00     0.029 A 
ATOM     55  C   UNL A   1      41.746  26.120  28.322  1.00  0.00     0.049 A 
ATOM     56  H   UNL A   1      42.280  27.749  29.506  1.00  0.00     0.167 HD
ATOM     57  C   UNL A   1      43.299  31.308  31.852  1.00  0.00     0.037 A 
ATOM     58  C   UNL A   1      42.824  25.315  28.250  1.00  0.00     0.037 A 
ATOM     59  C   UNL A   1      44.463  30.464  31.916  1.00  0.00     0.049 A 
ATOM     60  C   UNL A   1      44.079  25.706  28.983  1.00  0.00     0.074 A 
ATOM     61  C   UNL A   1      45.644  30.674  32.606  1.00  0.00     0.029 A 
ATOM     62  N   UNL A   1      44.596  29.250  31.257  1.00  0.00    -0.354 N 
ATOM     63  N   UNL A   1      44.313  26.764  29.720  1.00  0.00    -0.248 NA
ATOM     64  C   UNL A   1      45.218  24.783  28.882  1.00  0.00     0.031 C 
ATOM     65  C   UNL A   1      46.513  29.618  32.319  1.00  0.00     0.029 A 
ATOM     66  C   UNL A   1      45.851  28.715  31.503  1.00  0.00     0.049 A 
ATOM     67  H   UNL A   1      43.903  28.831  30.698  1.00  0.00     0.167 HD
ATOM     68  C   UNL A   1      45.611  26.622  30.194  1.00  0.00     0.074 A 
ATOM     69  C   UNL A   1      46.106  25.362  29.677  1.00  0.00     0.031 C 
ATOM     70  C   UNL A   1      46.327  27.457  30.985  1.00  0.00     0.037 A 
BRANCH  57  71
ATOM     71  C   UNL A   1      43.341  32.633  32.561  1.00  0.00     0.064 A 
ATOM     72  C   UNL A   1      43.009  32.754  33.919  1.00  0.00     0.173 A 
ATOM     73  C   UNL A   1      43.765  33.787  31.885  1.00  0.00     0.173 A 
ATOM     74  F   UNL A   1      42.588  31.684  34.610  1.00  0.00    -0.203 F 
ATOM     75  C   UNL A   1      43.070  33.986  34.566  1.00  0.00     0.198 A 
ATOM     76  C   UNL A   1      43.858  35.011  32.544  1.00  0.00     0.198 A 
ATOM     77  F   UNL A   1      44.102  33.728  30.588  1.00  0.00    -0.203 F 
ATOM     78  F   UNL A   1      42.699  34.086  35.849  1.00  0.00    -0.200 F 
ATOM     79  C   UNL A   1      43.503  35.112  33.881  1.00  0.00     0.200 A 
ATOM     80  F   UNL A   1      44.292  36.094  31.885  1.00  0.00    -0.200 F 
ATOM     81  F   UNL A   1      43.573  36.294  34.507  1.00  0.00    -0.200 F 
ENDBRANCH  57  71
BRANCH  58  82
ATOM     82  C   UNL A   1      42.759  24.052  27.469  1.00  0.00     0.064 A 
ATOM     83  C   UNL A   1      42.348  22.852  28.067  1.00  0.00     0.173 A 
ATOM     84  C   UNL A   1      43.119  24.012  26.113  1.00  0.00     0.173 A 
ATOM     85  F   UNL A   1      42.011  22.832  29.365  1.00  0.00    -0.203 F 
ATOM     86  C   UNL A   1      42.326  21.658  27.348  1.00  0.00     0.198 A 
ATOM     87  C   UNL A   1      43.065  22.825  25.387  1.00  0.00     0.198 A 
ATOM     88  F   UNL A   1      43.512  25.133  25.490  1.00  0.00    -0.203 F 
ATOM     89  F   UNL A   1      41.982  20.517  27.960  1.00  0.00    -0.200 F 
ATOM     90  C   UNL A   1      42.679  21.647  26.007  1.00  0.00     0.200 A 
ATOM     91  F   UNL A   1      43.390  22.822  24.087  1.00  0.00    -0.200 F 
ATOM     92  F   UNL A   1      42.656  20.499  25.316  1.00  0.00    -0.200 F 
ENDBRANCH  58  82
BRANCH  70  93
ATOM     93  C   UNL A   1      47.711  27.018  31.374  1.00  0.00     0.064 A 
ATOM     94  C   UNL A   1      47.939  26.174  32.471  1.00  0.00     0.173 A 
ATOM     95  C   UNL A   1      48.821  27.422  30.616  1.00  0.00     0.173 A 
ATOM     96  F   UNL A   1      46.914  25.770  33.237  1.00  0.00    -0.203 F 
ATOM     97  C   UNL A   1      49.229  25.779  32.814  1.00  0.00     0.198 A 
ATOM     98  C   UNL A   1      50.105  26.995  30.940  1.00  0.00     0.198 A 
ATOM     99  F   UNL A   1      48.658  28.222  29.551  1.00  0.00    -0.203 F 
ATOM    100  F   UNL A   1      49.429  25.020  33.901  1.00  0.00    -0.200 F 
ATOM    101  C   UNL A   1      50.310  26.182  32.044  1.00  0.00     0.200 A 
ATOM    102  F   UNL A   1      51.146  27.372  30.184  1.00  0.00    -0.200 F 
ATOM    103  F   UNL A   1      51.550  25.796  32.372  1.00  0.00    -0.200 F 
ENDBRANCH  70  93
ENDBRANCH  44  45
ENDBRANCH  36  39
ENDBRANCH  34  35
ENDBRANCH  33  34
ENDBRANCH  32  33
ENDBRANCH  31  32
ENDBRANCH   1  31
TORSDOF 19
ENDMDL
MODEL 2
REMARK VINA RESULT:     -11.7      3.902      6.156
REMARK SMILES O=C(/C=C/N[C@@H](Cc1c[nH]c2ccccc12)C(=O)NCCCCCCNC(=O)c1ccc(-c2c3nc(c(-c4c(F)c(F)c(F)c(F)c4F)c4ccc([nH]4)c(-c4c(F)c(F)c(F)c(F)c4F)c4nc(c(-c5c(F)c(F)c(F)c(F)c5F)c5ccc2[nH]5)C=C4)C=C3)cc1)c1ccccc1
REMARK SMILES IDX 21 1 20 2 19 3 17 4 18 5 6 7 5 8 4 10 3 11 2 12 1 13 92 14
REMARK SMILES IDX 93 15 97 16 94 17 96 18 95 19 7 20 8 21 9 22 16 23 10 24
REMARK SMILES IDX 11 25 15 26 12 28 14 29 13 30 22 31 23 32 24 33 25 34 26 35
REMARK SMILES IDX 27 36 28 38 29 39 30 40 91 41 31 42 90 43 32 44 33 45 34 46
REMARK SMILES IDX 84 47 35 48 89 49 83 50 85 51 36 52 88 53 82 54 81 55 37 57
REMARK SMILES IDX 69 58 49 59 68 60 50 61 53 62 67 63 86 64 51 65 52 66 66 68
REMARK SMILES IDX 87 69 54 70 38 71 39 72 47 73 40 74 41 75 45 76 48 77 42 78
REMARK SMILES IDX 43 79 46 80 44 81 70 82 71 83 79 84 72 85 73 86 77 87 80 88
REMARK SMILES IDX 74 89 75 90 78 91 76 92 55 93 56 94 64 95 57 96 58 97 62 98
REMARK SMILES IDX 65 99 59 100 60 101 63 102 61 103
REMARK H PARENT 19 6 5 9 10 27 26 37 85 56 53 67
REMARK Flexibility Score: inf
ROOT
ATOM      1  C   UNL A   1      34.878  31.291  27.800  1.00  0.00     0.021 C 
ENDROOT
BRANCH   1   2
ATOM      2  C   UNL A   1      33.882  30.179  27.505  1.00  0.00     0.116 C 
BRANCH   2   3
ATOM      3  N   UNL A   1      32.866  30.541  26.542  1.00  0.00    -0.354 N 
ATOM      4  C   UNL A   1      32.149  29.752  25.688  1.00  0.00     0.242 C 
ATOM      5  O   UNL A   1      31.141  30.266  25.183  1.00  0.00    -0.273 OA
ATOM      6  H   UNL A   1      32.660  31.502  26.495  1.00  0.00     0.163 HD
BRANCH   4   7
ATOM      7  C   UNL A   1      32.522  28.288  25.341  1.00  0.00     0.173 C 
BRANCH   7   8
ATOM      8  N   UNL A   1      31.360  27.383  25.306  1.00  0.00    -0.379 N 
ATOM      9  H   UNL A   1      30.654  27.583  24.650  1.00  0.00     0.160 HD
BRANCH   8  10
ATOM     10  C   UNL A   1      31.177  26.285  26.111  1.00  0.00     0.082 C 
ATOM     11  C   UNL A   1      30.857  25.050  25.707  1.00  0.00     0.070 C 
BRANCH  11  12
ATOM     12  C   UNL A   1      30.719  23.841  26.567  1.00  0.00     0.187 C 
ATOM     13  O   UNL A   1      29.720  23.709  27.269  1.00  0.00    -0.289 OA
BRANCH  12  14
ATOM     14  C   UNL A   1      31.723  22.758  26.516  1.00  0.00     0.022 A 
ATOM     15  C   UNL A   1      32.798  22.707  27.409  1.00  0.00     0.012 A 
ATOM     16  C   UNL A   1      31.563  21.761  25.549  1.00  0.00     0.012 A 
ATOM     17  C   UNL A   1      33.748  21.691  27.287  1.00  0.00     0.001 A 
ATOM     18  C   UNL A   1      32.512  20.745  25.435  1.00  0.00     0.001 A 
ATOM     19  C   UNL A   1      33.609  20.718  26.296  1.00  0.00     0.000 A 
ENDBRANCH  12  14
ENDBRANCH  11  12
ENDBRANCH   8  10
ENDBRANCH   7   8
BRANCH   7  20
ATOM     20  C   UNL A   1      33.474  28.120  24.144  1.00  0.00     0.072 C 
BRANCH  20  21
ATOM     21  C   UNL A   1      33.286  26.914  23.276  1.00  0.00    -0.020 A 
ATOM     22  C   UNL A   1      32.615  26.885  22.067  1.00  0.00     0.087 A 
ATOM     23  C   UNL A   1      33.797  25.592  23.491  1.00  0.00     0.003 A 
ATOM     24  N   UNL A   1      32.609  25.597  21.604  1.00  0.00    -0.361 N 
ATOM     25  C   UNL A   1      33.305  24.782  22.466  1.00  0.00     0.046 A 
ATOM     26  C   UNL A   1      34.624  25.003  24.470  1.00  0.00     0.010 A 
ATOM     27  H   UNL A   1      32.171  25.297  20.775  1.00  0.00     0.166 HD
ATOM     28  C   UNL A   1      33.544  23.404  22.404  1.00  0.00     0.026 A 
ATOM     29  C   UNL A   1      34.911  23.634  24.397  1.00  0.00     0.001 A 
ATOM     30  C   UNL A   1      34.362  22.845  23.389  1.00  0.00     0.002 A 
ENDBRANCH  20  21
ENDBRANCH   7  20
ENDBRANCH   4   7
ENDBRANCH   2   3
ENDBRANCH   1   2
BRANCH   1  31
ATOM     31  C   UNL A   1      34.494  32.183  28.987  1.00  0.00     0.002 C 
BRANCH  31  32
ATOM     32  C   UNL A   1      34.612  33.697  28.758  1.00  0.00     0.002 C 
BRANCH  32  33
ATOM     33  C   UNL A   1      33.304  34.489  28.835  1.00  0.00     0.021 C 
BRANCH  33  34
ATOM     34  C   UNL A   1      33.429  35.889  29.422  1.00  0.00     0.116 C 
BRANCH  34  35
ATOM     35  N   UNL A   1      32.554  36.089  30.564  1.00  0.00    -0.352 N 
ATOM     36  C   UNL A   1      32.667  35.625  31.850  1.00  0.00     0.251 C 
ATOM     37  H   UNL A   1      31.759  36.642  30.389  1.00  0.00     0.163 HD
ATOM     38  O   UNL A   1      31.736  35.761  32.634  1.00  0.00    -0.269 OA
BRANCH  36  39
ATOM     39  C   UNL A   1      33.902  34.940  32.286  1.00  0.00     0.039 A 
ATOM     40  C   UNL A   1      33.814  33.612  32.711  1.00  0.00     0.014 A 
ATOM     41  C   UNL A   1      35.135  35.600  32.300  1.00  0.00     0.014 A 
ATOM     42  C   UNL A   1      34.968  32.932  33.103  1.00  0.00     0.010 A 
ATOM     43  C   UNL A   1      36.295  34.897  32.615  1.00  0.00     0.010 A 
ATOM     44  C   UNL A   1      36.223  33.559  33.029  1.00  0.00    -0.014 A 
BRANCH  44  45
ATOM     45  C   UNL A   1      37.463  32.826  33.383  1.00  0.00     0.031 A 
ATOM     46  C   UNL A   1      38.184  33.131  34.667  1.00  0.00     0.074 A 
ATOM     47  C   UNL A   1      37.964  31.916  32.526  1.00  0.00     0.049 A 
ATOM     48  N   UNL A   1      39.299  32.623  35.132  1.00  0.00    -0.248 NA
ATOM     49  C   UNL A   1      37.591  34.161  35.533  1.00  0.00     0.031 C 
ATOM     50  C   UNL A   1      37.381  31.568  31.228  1.00  0.00     0.029 A 
ATOM     51  N   UNL A   1      39.080  31.122  32.611  1.00  0.00    -0.354 N 
ATOM     52  C   UNL A   1      39.541  33.278  36.332  1.00  0.00     0.074 A 
ATOM     53  C   UNL A   1      38.493  34.260  36.499  1.00  0.00     0.031 C 
ATOM     54  C   UNL A   1      38.127  30.613  30.652  1.00  0.00     0.029 A 
ATOM     55  C   UNL A   1      39.263  30.311  31.517  1.00  0.00     0.049 A 
ATOM     56  H   UNL A   1      39.691  31.132  33.383  1.00  0.00     0.167 HD
ATOM     57  C   UNL A   1      40.535  33.061  37.226  1.00  0.00     0.037 A 
ATOM     58  C   UNL A   1      40.241  29.426  31.241  1.00  0.00     0.037 A 
ATOM     59  C   UNL A   1      41.565  32.068  37.065  1.00  0.00     0.049 A 
ATOM     60  C   UNL A   1      41.340  29.216  32.248  1.00  0.00     0.074 A 
ATOM     61  C   UNL A   1      42.583  31.730  37.939  1.00  0.00     0.029 A 
ATOM     62  N   UNL A   1      41.713  31.257  35.948  1.00  0.00    -0.354 N 
ATOM     63  N   UNL A   1      41.516  29.785  33.415  1.00  0.00    -0.248 NA
ATOM     64  C   UNL A   1      42.373  28.229  31.902  1.00  0.00     0.031 C 
ATOM     65  C   UNL A   1      43.380  30.757  37.329  1.00  0.00     0.029 A 
ATOM     66  C   UNL A   1      42.822  30.440  36.101  1.00  0.00     0.049 A 
ATOM     67  H   UNL A   1      41.118  31.262  35.163  1.00  0.00     0.167 HD
ATOM     68  C   UNL A   1      42.658  29.207  33.955  1.00  0.00     0.074 A 
ATOM     69  C   UNL A   1      43.121  28.227  32.995  1.00  0.00     0.031 C 
ATOM     70  C   UNL A   1      43.267  29.465  35.138  1.00  0.00     0.037 A 
BRANCH  57  71
ATOM     71  C   UNL A   1      40.559  33.913  38.465  1.00  0.00     0.064 A 
ATOM     72  C   UNL A   1      41.295  35.106  38.526  1.00  0.00     0.173 A 
ATOM     73  C   UNL A   1      39.796  33.556  39.588  1.00  0.00     0.173 A 
ATOM     74  F   UNL A   1      42.049  35.489  37.485  1.00  0.00    -0.203 F 
ATOM     75  C   UNL A   1      41.292  35.893  39.675  1.00  0.00     0.198 A 
ATOM     76  C   UNL A   1      39.768  34.363  40.722  1.00  0.00     0.198 A 
ATOM     77  F   UNL A   1      39.068  32.429  39.582  1.00  0.00    -0.203 F 
ATOM     78  F   UNL A   1      42.043  37.002  39.728  1.00  0.00    -0.200 F 
ATOM     79  C   UNL A   1      40.522  35.526  40.769  1.00  0.00     0.200 A 
ATOM     80  F   UNL A   1      39.011  34.015  41.772  1.00  0.00    -0.200 F 
ATOM     81  F   UNL A   1      40.510  36.291  41.869  1.00  0.00    -0.200 F 
ENDBRANCH  57  71
BRANCH  58  82
ATOM     82  C   UNL A   1      40.218  28.664  29.965  1.00  0.00     0.064 A 
ATOM     83  C   UNL A   1      40.831  29.170  28.810  1.00  0.00     0.173 A 
ATOM     84  C   UNL A   1      39.575  27.422  29.868  1.00  0.00     0.173 A 
ATOM     85  F   UNL A   1      41.444  30.362  28.845  1.00  0.00    -0.203 F 
ATOM     86  C   UNL A   1      40.775  28.478  27.602  1.00  0.00     0.198 A 
ATOM     87  C   UNL A   1      39.548  26.714  28.668  1.00  0.00     0.198 A 
ATOM     88  F   UNL A   1      38.980  26.887  30.945  1.00  0.00    -0.203 F 
ATOM     89  F   UNL A   1      41.321  29.012  26.501  1.00  0.00    -0.200 F 
ATOM     90  C   UNL A   1      40.139  27.248  27.533  1.00  0.00     0.200 A 
ATOM     91  F   UNL A   1      38.948  25.518  28.611  1.00  0.00    -0.200 F 
ATOM     92  F   UNL A   1      40.088  26.582  26.372  1.00  0.00    -0.200 F 
ENDBRANCH  58  82
BRANCH  70  93
ATOM     93  C   UNL A   1      44.480  28.646  35.480  1.00  0.00     0.064 A 
ATOM     94  C   UNL A   1      44.382  27.431  36.173  1.00  0.00     0.173 A 
ATOM     95  C   UNL A   1      45.756  29.070  35.076  1.00  0.00     0.173 A 
ATOM     96  F   UNL A   1      43.187  26.988  36.594  1.00  0.00    -0.203 F 
ATOM     97  C   UNL A   1      45.519  26.688  36.480  1.00  0.00     0.198 A 
ATOM     98  C   UNL A   1      46.886  28.307  35.352  1.00  0.00     0.198 A 
ATOM     99  F   UNL A   1      45.906  30.220  34.402  1.00  0.00    -0.203 F 
ATOM    100  F   UNL A   1      45.407  25.560  37.194  1.00  0.00    -0.200 F 
ATOM    101  C   UNL A   1      46.768  27.121  36.062  1.00  0.00     0.200 A 
ATOM    102  F   UNL A   1      48.091  28.718  34.932  1.00  0.00    -0.200 F 
ATOM    103  F   UNL A   1      47.860  26.401  36.352  1.00  0.00    -0.200 F 
ENDBRANCH  70  93
ENDBRANCH  44  45
ENDBRANCH  36  39
ENDBRANCH  34  35
ENDBRANCH  33  34
ENDBRANCH  32  33
ENDBRANCH  31  32
ENDBRANCH   1  31
TORSDOF 19
ENDMDL
MODEL 3
REMARK VINA RESULT:     -11.6      1.366      2.230
REMARK SMILES O=C(/C=C/N[C@@H](Cc1c[nH]c2ccccc12)C(=O)NCCCCCCNC(=O)c1ccc(-c2c3nc(c(-c4c(F)c(F)c(F)c(F)c4F)c4ccc([nH]4)c(-c4c(F)c(F)c(F)c(F)c4F)c4nc(c(-c5c(F)c(F)c(F)c(F)c5F)c5ccc2[nH]5)C=C4)C=C3)cc1)c1ccccc1
REMARK SMILES IDX 21 1 20 2 19 3 17 4 18 5 6 7 5 8 4 10 3 11 2 12 1 13 92 14
REMARK SMILES IDX 93 15 97 16 94 17 96 18 95 19 7 20 8 21 9 22 16 23 10 24
REMARK SMILES IDX 11 25 15 26 12 28 14 29 13 30 22 31 23 32 24 33 25 34 26 35
REMARK SMILES IDX 27 36 28 38 29 39 30 40 91 41 31 42 90 43 32 44 33 45 34 46
REMARK SMILES IDX 84 47 35 48 89 49 83 50 85 51 36 52 88 53 82 54 81 55 37 57
REMARK SMILES IDX 69 58 49 59 68 60 50 61 53 62 67 63 86 64 51 65 52 66 66 68
REMARK SMILES IDX 87 69 54 70 38 71 39 72 47 73 40 74 41 75 45 76 48 77 42 78
REMARK SMILES IDX 43 79 46 80 44 81 70 82 71 83 79 84 72 85 73 86 77 87 80 88
REMARK SMILES IDX 74 89 75 90 78 91 76 92 55 93 56 94 64 95 57 96 58 97 62 98
REMARK SMILES IDX 65 99 59 100 60 101 63 102 61 103
REMARK H PARENT 19 6 5 9 10 27 26 37 85 56 53 67
REMARK Flexibility Score: inf
ROOT
ATOM      1  C   UNL A   1      30.888  28.337  23.079  1.00  0.00     0.021 C 
ENDROOT
BRANCH   1   2
ATOM      2  C   UNL A   1      30.667  26.991  22.403  1.00  0.00     0.116 C 
BRANCH   2   3
ATOM      3  N   UNL A   1      31.679  26.650  21.429  1.00  0.00    -0.354 N 
ATOM      4  C   UNL A   1      32.581  25.625  21.427  1.00  0.00     0.242 C 
ATOM      5  O   UNL A   1      33.133  25.383  20.344  1.00  0.00    -0.273 OA
ATOM      6  H   UNL A   1      31.724  27.248  20.648  1.00  0.00     0.163 HD
BRANCH   4   7
ATOM      7  C   UNL A   1      32.927  24.772  22.674  1.00  0.00     0.173 C 
BRANCH   7   8
ATOM      8  N   UNL A   1      33.030  23.330  22.384  1.00  0.00    -0.379 N 
ATOM      9  H   UNL A   1      33.583  23.065  21.614  1.00  0.00     0.160 HD
BRANCH   8  10
ATOM     10  C   UNL A   1      32.420  22.326  23.095  1.00  0.00     0.082 C 
ATOM     11  C   UNL A   1      33.032  21.334  23.751  1.00  0.00     0.070 C 
BRANCH  11  12
ATOM     12  C   UNL A   1      32.380  20.278  24.576  1.00  0.00     0.187 C 
ATOM     13  O   UNL A   1      31.435  20.575  25.302  1.00  0.00    -0.289 OA
BRANCH  12  14
ATOM     14  C   UNL A   1      32.797  18.865  24.462  1.00  0.00     0.022 A 
ATOM     15  C   UNL A   1      33.211  18.314  23.245  1.00  0.00     0.012 A 
ATOM     16  C   UNL A   1      32.785  18.082  25.621  1.00  0.00     0.012 A 
ATOM     17  C   UNL A   1      33.546  16.960  23.179  1.00  0.00     0.001 A 
ATOM     18  C   UNL A   1      33.127  16.732  25.551  1.00  0.00     0.001 A 
ATOM     19  C   UNL A   1      33.495  16.170  24.328  1.00  0.00     0.000 A 
ENDBRANCH  12  14
ENDBRANCH  11  12
ENDBRANCH   8  10
ENDBRANCH   7   8
BRANCH   7  20
ATOM     20  C   UNL A   1      34.077  25.312  23.540  1.00  0.00     0.072 C 
BRANCH  20  21
ATOM     21  C   UNL A   1      34.572  24.442  24.654  1.00  0.00    -0.020 A 
ATOM     22  C   UNL A   1      35.880  24.031  24.839  1.00  0.00     0.087 A 
ATOM     23  C   UNL A   1      33.819  23.915  25.754  1.00  0.00     0.003 A 
ATOM     24  N   UNL A   1      35.925  23.205  25.929  1.00  0.00    -0.361 N 
ATOM     25  C   UNL A   1      34.677  23.098  26.494  1.00  0.00     0.046 A 
ATOM     26  C   UNL A   1      32.483  24.048  26.187  1.00  0.00     0.010 A 
ATOM     27  H   UNL A   1      36.735  22.753  26.260  1.00  0.00     0.166 HD
ATOM     28  C   UNL A   1      34.253  22.358  27.604  1.00  0.00     0.026 A 
ATOM     29  C   UNL A   1      32.054  23.349  27.322  1.00  0.00     0.001 A 
ATOM     30  C   UNL A   1      32.923  22.503  28.008  1.00  0.00     0.002 A 
ENDBRANCH  20  21
ENDBRANCH   7  20
ENDBRANCH   4   7
ENDBRANCH   2   3
ENDBRANCH   1   2
BRANCH   1  31
ATOM     31  C   UNL A   1      32.042  28.355  24.087  1.00  0.00     0.002 C 
BRANCH  31  32
ATOM     32  C   UNL A   1      31.747  27.735  25.461  1.00  0.00     0.002 C 
BRANCH  32  33
ATOM     33  C   UNL A   1      32.914  27.722  26.452  1.00  0.00     0.021 C 
BRANCH  33  34
ATOM     34  C   UNL A   1      34.071  28.649  26.101  1.00  0.00     0.116 C 
BRANCH  34  35
ATOM     35  N   UNL A   1      33.844  30.010  26.554  1.00  0.00    -0.352 N 
ATOM     36  C   UNL A   1      34.515  30.746  27.497  1.00  0.00     0.251 C 
ATOM     37  H   UNL A   1      33.095  30.476  26.117  1.00  0.00     0.163 HD
ATOM     38  O   UNL A   1      34.068  31.826  27.864  1.00  0.00    -0.269 OA
BRANCH  36  39
ATOM     39  C   UNL A   1      35.766  30.228  28.091  1.00  0.00     0.039 A 
ATOM     40  C   UNL A   1      36.952  30.350  27.361  1.00  0.00     0.014 A 
ATOM     41  C   UNL A   1      35.775  29.606  29.344  1.00  0.00     0.014 A 
ATOM     42  C   UNL A   1      38.152  29.894  27.908  1.00  0.00     0.010 A 
ATOM     43  C   UNL A   1      36.984  29.225  29.920  1.00  0.00     0.010 A 
ATOM     44  C   UNL A   1      38.183  29.357  29.206  1.00  0.00    -0.014 A 
BRANCH  44  45
ATOM     45  C   UNL A   1      39.463  28.927  29.821  1.00  0.00     0.031 A 
ATOM     46  C   UNL A   1      40.019  29.664  31.008  1.00  0.00     0.074 A 
ATOM     47  C   UNL A   1      40.147  27.900  29.281  1.00  0.00     0.049 A 
ATOM     48  N   UNL A   1      41.138  29.461  31.659  1.00  0.00    -0.248 NA
ATOM     49  C   UNL A   1      39.228  30.794  31.518  1.00  0.00     0.031 C 
ATOM     50  C   UNL A   1      39.734  27.139  28.100  1.00  0.00     0.029 A 
ATOM     51  N   UNL A   1      41.337  27.323  29.647  1.00  0.00    -0.354 N 
ATOM     52  C   UNL A   1      41.186  30.441  32.642  1.00  0.00     0.074 A 
ATOM     53  C   UNL A   1      40.017  31.274  32.468  1.00  0.00     0.031 C 
ATOM     54  C   UNL A   1      40.640  26.179  27.856  1.00  0.00     0.029 A 
ATOM     55  C   UNL A   1      41.717  26.282  28.835  1.00  0.00     0.049 A 
ATOM     56  H   UNL A   1      41.868  27.626  30.420  1.00  0.00     0.167 HD
ATOM     57  C   UNL A   1      42.111  30.613  33.617  1.00  0.00     0.037 A 
ATOM     58  C   UNL A   1      42.816  25.503  28.873  1.00  0.00     0.037 A 
ATOM     59  C   UNL A   1      43.262  29.768  33.797  1.00  0.00     0.049 A 
ATOM     60  C   UNL A   1      43.833  25.727  29.959  1.00  0.00     0.074 A 
ATOM     61  C   UNL A   1      44.227  29.823  34.788  1.00  0.00     0.029 A 
ATOM     62  N   UNL A   1      43.610  28.717  32.961  1.00  0.00    -0.354 N 
ATOM     63  N   UNL A   1      43.829  26.607  30.930  1.00  0.00    -0.248 NA
ATOM     64  C   UNL A   1      45.003  24.838  29.961  1.00  0.00     0.031 C 
ATOM     65  C   UNL A   1      45.188  28.845  34.520  1.00  0.00     0.029 A 
ATOM     66  C   UNL A   1      44.790  28.135  33.399  1.00  0.00     0.049 A 
ATOM     67  H   UNL A   1      43.095  28.427  32.173  1.00  0.00     0.167 HD
ATOM     68  C   UNL A   1      44.976  26.362  31.674  1.00  0.00     0.074 A 
ATOM     69  C   UNL A   1      45.641  25.235  31.053  1.00  0.00     0.031 C 
ATOM     70  C   UNL A   1      45.436  27.010  32.772  1.00  0.00     0.037 A 
BRANCH  57  71
ATOM     71  C   UNL A   1      41.916  31.761  34.568  1.00  0.00     0.064 A 
ATOM     72  C   UNL A   1      42.492  33.019  34.335  1.00  0.00     0.173 A 
ATOM     73  C   UNL A   1      41.104  31.613  35.703  1.00  0.00     0.173 A 
ATOM     74  F   UNL A   1      43.285  33.213  33.271  1.00  0.00    -0.203 F 
ATOM     75  C   UNL A   1      42.287  34.077  35.218  1.00  0.00     0.198 A 
ATOM     76  C   UNL A   1      40.873  32.683  36.565  1.00  0.00     0.198 A 
ATOM     77  F   UNL A   1      40.523  30.434  35.972  1.00  0.00    -0.203 F 
ATOM     78  F   UNL A   1      42.889  35.254  35.000  1.00  0.00    -0.200 F 
ATOM     79  C   UNL A   1      41.471  33.911  36.327  1.00  0.00     0.200 A 
ATOM     80  F   UNL A   1      40.072  32.524  37.627  1.00  0.00    -0.200 F 
ATOM     81  F   UNL A   1      41.265  34.933  37.168  1.00  0.00    -0.200 F 
ENDBRANCH  57  71
BRANCH  58  82
ATOM     82  C   UNL A   1      43.004  24.431  27.860  1.00  0.00     0.064 A 
ATOM     83  C   UNL A   1      43.567  24.711  26.607  1.00  0.00     0.173 A 
ATOM     84  C   UNL A   1      42.613  23.108  28.116  1.00  0.00     0.173 A 
ATOM     85  F   UNL A   1      43.940  25.964  26.306  1.00  0.00    -0.203 F 
ATOM     86  C   UNL A   1      43.706  23.718  25.640  1.00  0.00     0.198 A 
ATOM     87  C   UNL A   1      42.784  22.108  27.161  1.00  0.00     0.198 A 
ATOM     88  F   UNL A   1      42.076  22.783  29.301  1.00  0.00    -0.203 F 
ATOM     89  F   UNL A   1      44.197  24.026  24.432  1.00  0.00    -0.200 F 
ATOM     90  C   UNL A   1      43.320  22.415  25.920  1.00  0.00     0.200 A 
ATOM     91  F   UNL A   1      42.425  20.848  27.442  1.00  0.00    -0.200 F 
ATOM     92  F   UNL A   1      43.456  21.460  24.991  1.00  0.00    -0.200 F 
ENDBRANCH  58  82
BRANCH  70  93
ATOM     93  C   UNL A   1      46.701  26.492  33.397  1.00  0.00     0.064 A 
ATOM     94  C   UNL A   1      46.686  25.486  34.375  1.00  0.00     0.173 A 
ATOM     95  C   UNL A   1      47.948  26.987  32.986  1.00  0.00     0.173 A 
ATOM     96  F   UNL A   1      45.519  24.988  34.814  1.00  0.00    -0.203 F 
ATOM     97  C   UNL A   1      47.869  25.020  34.941  1.00  0.00     0.198 A 
ATOM     98  C   UNL A   1      49.130  26.493  33.527  1.00  0.00     0.198 A 
ATOM     99  F   UNL A   1      48.020  27.943  32.047  1.00  0.00    -0.203 F 
ATOM    100  F   UNL A   1      47.827  24.100  35.915  1.00  0.00    -0.200 F 
ATOM    101  C   UNL A   1      49.090  25.517  34.511  1.00  0.00     0.200 A 
ATOM    102  F   UNL A   1      50.310  26.963  33.098  1.00  0.00    -0.200 F 
ATOM    103  F   UNL A   1      50.228  25.063  35.052  1.00  0.00    -0.200 F 
ENDBRANCH  70  93
ENDBRANCH  44  45
ENDBRANCH  36  39
ENDBRANCH  34  35
ENDBRANCH  33  34
ENDBRANCH  32  33
ENDBRANCH  31  32
ENDBRANCH   1  31
TORSDOF 19
ENDMDL
