MODEL 1
REMARK VINA RESULT:     -12.1      0.000      0.000
REMARK SMILES Cc1cc(NC(=O)CCC(=O)NCCCCCCNC(=O)c2ccc(-c3c4nc(c(-c5c(F)c(F)c(F)c(F)c5F)c5ccc([nH]5)c(-c5c(F)c(F)c(F)c(F)c5F)c5nc(c(-c6c(F)c(F)c(F)c(F)c6F)c6ccc3[nH]6)C=C5)C=C4)cc2)ccc1S(=O)(=O)[O-]
REMARK SMILES IDX 14 1 13 2 12 3 10 4 11 5 9 7 8 8 6 9 5 10 7 12 4 13 1 14
REMARK SMILES IDX 2 15 3 16 87 17 86 18 85 19 88 20 89 21 90 22 91 23 15 24
REMARK SMILES IDX 16 25 17 26 18 27 19 28 20 29 21 31 22 32 23 33 84 34 24 35
REMARK SMILES IDX 83 36 25 37 26 38 27 39 77 40 28 41 82 42 76 43 78 44 29 45
REMARK SMILES IDX 81 46 75 47 74 48 30 50 62 51 42 52 61 53 43 54 46 55 60 56
REMARK SMILES IDX 79 57 44 58 45 59 59 61 80 62 47 63 31 64 32 65 40 66 33 67
REMARK SMILES IDX 34 68 38 69 41 70 35 71 36 72 39 73 37 74 63 75 64 76 72 77
REMARK SMILES IDX 65 78 66 79 70 80 73 81 67 82 68 83 71 84 69 85 48 86 49 87
REMARK SMILES IDX 57 88 50 89 51 90 55 91 58 92 52 93 53 94 56 95 54 96
REMARK H PARENT 12 6 5 11 19 30 78 49 46 60
REMARK Flexibility Score: inf
ROOT
ATOM      1  C   UNL A   1      31.167  30.195  24.709  1.00  0.00     0.021 C 
ENDROOT
BRANCH   1   2
ATOM      2  C   UNL A   1      30.149  31.234  25.176  1.00  0.00     0.116 C 
BRANCH   2   3
ATOM      3  N   UNL A   1      29.755  32.151  24.124  1.00  0.00    -0.356 N 
ATOM      4  C   UNL A   1      28.627  32.167  23.364  1.00  0.00     0.220 C 
ATOM      5  O   UNL A   1      28.424  33.128  22.621  1.00  0.00    -0.275 OA
ATOM      6  H   UNL A   1      30.401  32.870  23.933  1.00  0.00     0.163 HD
BRANCH   4   7
ATOM      7  C   UNL A   1      27.634  31.032  23.449  1.00  0.00     0.110 C 
BRANCH   7   8
ATOM      8  C   UNL A   1      28.026  29.729  22.765  1.00  0.00     0.110 C 
BRANCH   8   9
ATOM      9  C   UNL A   1      27.329  28.468  23.230  1.00  0.00     0.224 C 
ATOM     10  N   UNL A   1      27.974  27.316  23.572  1.00  0.00    -0.326 N 
ATOM     11  H   UNL A   1      27.369  26.563  23.764  1.00  0.00     0.169 HD
ATOM     12  O   UNL A   1      26.100  28.483  23.380  1.00  0.00    -0.275 OA
BRANCH  10  13
ATOM     13  C   UNL A   1      29.333  26.998  23.703  1.00  0.00     0.041 A 
ATOM     14  C   UNL A   1      31.599  24.976  25.949  1.00  0.00     0.046 C 
ATOM     15  C   UNL A   1      31.201  25.825  24.776  1.00  0.00    -0.032 A 
ATOM     16  C   UNL A   1      29.882  26.328  24.791  1.00  0.00     0.030 A 
ATOM     17  C   UNL A   1      31.976  26.052  23.631  1.00  0.00     0.057 A 
ATOM     18  C   UNL A   1      31.469  26.842  22.584  1.00  0.00     0.021 A 
ATOM     19  C   UNL A   1      30.163  27.329  22.631  1.00  0.00     0.027 A 
BRANCH  17  20
ATOM     20  S   UNL A   1      33.597  25.381  23.332  1.00  0.00     0.124 S 
ATOM     21  O   UNL A   1      33.976  25.751  21.984  1.00  0.00    -0.237 OA
ATOM     22  O   UNL A   1      34.422  25.744  24.464  1.00  0.00    -0.237 OA
ATOM     23  O   UNL A   1      33.519  23.777  23.379  1.00  0.00    -0.744 OA
ENDBRANCH  17  20
ENDBRANCH  10  13
ENDBRANCH   8   9
ENDBRANCH   7   8
ENDBRANCH   4   7
ENDBRANCH   2   3
ENDBRANCH   1   2
BRANCH   1  24
ATOM     24  C   UNL A   1      31.849  29.381  25.813  1.00  0.00     0.002 C 
BRANCH  24  25
ATOM     25  C   UNL A   1      33.344  29.105  25.622  1.00  0.00     0.002 C 
BRANCH  25  26
ATOM     26  C   UNL A   1      34.096  28.626  26.861  1.00  0.00     0.021 C 
BRANCH  26  27
ATOM     27  C   UNL A   1      34.873  29.708  27.595  1.00  0.00     0.116 C 
BRANCH  27  28
ATOM     28  N   UNL A   1      34.216  31.003  27.580  1.00  0.00    -0.352 N 
ATOM     29  C   UNL A   1      34.379  32.092  28.411  1.00  0.00     0.251 C 
ATOM     30  H   UNL A   1      33.550  31.122  26.865  1.00  0.00     0.163 HD
ATOM     31  O   UNL A   1      33.556  33.002  28.376  1.00  0.00    -0.269 OA
BRANCH  29  32
ATOM     32  C   UNL A   1      35.640  32.272  29.176  1.00  0.00     0.039 A 
ATOM     33  C   UNL A   1      36.678  32.942  28.508  1.00  0.00     0.014 A 
ATOM     34  C   UNL A   1      35.912  31.558  30.337  1.00  0.00     0.014 A 
ATOM     35  C   UNL A   1      37.998  32.641  28.817  1.00  0.00     0.010 A 
ATOM     36  C   UNL A   1      37.208  31.168  30.576  1.00  0.00     0.010 A 
ATOM     37  C   UNL A   1      38.234  31.647  29.758  1.00  0.00    -0.014 A 
BRANCH  37  38
ATOM     38  C   UNL A   1      39.504  30.967  29.915  1.00  0.00     0.031 A 
ATOM     39  C   UNL A   1      39.654  29.601  29.397  1.00  0.00     0.074 A 
ATOM     40  C   UNL A   1      40.555  31.686  30.366  1.00  0.00     0.049 A 
ATOM     41  N   UNL A   1      40.599  28.793  29.729  1.00  0.00    -0.248 NA
ATOM     42  C   UNL A   1      38.688  29.011  28.480  1.00  0.00     0.031 C 
ATOM     43  C   UNL A   1      41.971  31.349  30.284  1.00  0.00     0.029 A 
ATOM     44  N   UNL A   1      40.516  32.836  31.173  1.00  0.00    -0.354 N 
ATOM     45  C   UNL A   1      40.551  27.719  28.866  1.00  0.00     0.074 A 
ATOM     46  C   UNL A   1      39.283  27.851  28.191  1.00  0.00     0.031 C 
ATOM     47  C   UNL A   1      42.638  32.055  31.213  1.00  0.00     0.029 A 
ATOM     48  C   UNL A   1      41.641  32.737  32.022  1.00  0.00     0.049 A 
ATOM     49  H   UNL A   1      39.846  33.557  31.152  1.00  0.00     0.167 HD
ATOM     50  C   UNL A   1      41.672  26.951  28.733  1.00  0.00     0.037 A 
ATOM     51  C   UNL A   1      41.480  32.554  33.367  1.00  0.00     0.037 A 
ATOM     52  C   UNL A   1      42.671  27.346  29.732  1.00  0.00     0.049 A 
ATOM     53  C   UNL A   1      42.057  31.249  33.867  1.00  0.00     0.074 A 
ATOM     54  C   UNL A   1      43.799  28.148  29.665  1.00  0.00     0.029 A 
ATOM     55  N   UNL A   1      42.382  27.191  31.087  1.00  0.00    -0.354 N 
ATOM     56  N   UNL A   1      42.282  30.215  33.103  1.00  0.00    -0.248 NA
ATOM     57  C   UNL A   1      42.419  31.005  35.260  1.00  0.00     0.031 C 
ATOM     58  C   UNL A   1      44.133  28.547  30.985  1.00  0.00     0.029 A 
ATOM     59  C   UNL A   1      43.233  27.960  31.857  1.00  0.00     0.049 A 
ATOM     60  H   UNL A   1      41.669  26.613  31.445  1.00  0.00     0.167 HD
ATOM     61  C   UNL A   1      42.799  29.194  33.855  1.00  0.00     0.074 A 
ATOM     62  C   UNL A   1      42.874  29.741  35.198  1.00  0.00     0.031 C 
ATOM     63  C   UNL A   1      43.117  27.981  33.310  1.00  0.00     0.037 A 
BRANCH  50  64
ATOM     64  C   UNL A   1      41.999  26.080  27.528  1.00  0.00     0.064 A 
ATOM     65  C   UNL A   1      41.371  24.823  27.369  1.00  0.00     0.173 A 
ATOM     66  C   UNL A   1      42.972  26.359  26.547  1.00  0.00     0.173 A 
ATOM     67  F   UNL A   1      40.348  24.448  28.148  1.00  0.00    -0.203 F 
ATOM     68  C   UNL A   1      41.765  23.894  26.399  1.00  0.00     0.198 A 
ATOM     69  C   UNL A   1      43.390  25.419  25.598  1.00  0.00     0.198 A 
ATOM     70  F   UNL A   1      43.524  27.565  26.418  1.00  0.00    -0.203 F 
ATOM     71  F   UNL A   1      41.143  22.709  26.320  1.00  0.00    -0.200 F 
ATOM     72  C   UNL A   1      42.798  24.180  25.533  1.00  0.00     0.200 A 
ATOM     73  F   UNL A   1      44.376  25.735  24.745  1.00  0.00    -0.200 F 
ATOM     74  F   UNL A   1      43.200  23.281  24.624  1.00  0.00    -0.200 F 
ENDBRANCH  50  64
BRANCH  51  75
ATOM     75  C   UNL A   1      40.253  33.217  33.892  1.00  0.00     0.064 A 
ATOM     76  C   UNL A   1      39.106  32.420  34.087  1.00  0.00     0.173 A 
ATOM     77  C   UNL A   1      40.310  34.441  34.569  1.00  0.00     0.173 A 
ATOM     78  F   UNL A   1      39.001  31.236  33.461  1.00  0.00    -0.203 F 
ATOM     79  C   UNL A   1      38.130  32.767  35.018  1.00  0.00     0.198 A 
ATOM     80  C   UNL A   1      39.318  34.794  35.490  1.00  0.00     0.198 A 
ATOM     81  F   UNL A   1      41.377  35.239  34.439  1.00  0.00    -0.203 F 
ATOM     82  F   UNL A   1      37.118  31.924  35.271  1.00  0.00    -0.200 F 
ATOM     83  C   UNL A   1      38.253  33.939  35.742  1.00  0.00     0.200 A 
ATOM     84  F   UNL A   1      39.446  35.920  36.207  1.00  0.00    -0.200 F 
ATOM     85  F   UNL A   1      37.369  34.229  36.708  1.00  0.00    -0.200 F 
ENDBRANCH  51  75
BRANCH  63  86
ATOM     86  C   UNL A   1      43.437  26.722  34.078  1.00  0.00     0.064 A 
ATOM     87  C   UNL A   1      42.478  25.950  34.754  1.00  0.00     0.173 A 
ATOM     88  C   UNL A   1      44.736  26.158  34.014  1.00  0.00     0.173 A 
ATOM     89  F   UNL A   1      41.188  26.313  34.787  1.00  0.00    -0.203 F 
ATOM     90  C   UNL A   1      42.803  24.739  35.370  1.00  0.00     0.198 A 
ATOM     91  C   UNL A   1      45.041  24.918  34.573  1.00  0.00     0.198 A 
ATOM     92  F   UNL A   1      45.741  26.779  33.380  1.00  0.00    -0.203 F 
ATOM     93  F   UNL A   1      41.860  24.063  36.040  1.00  0.00    -0.200 F 
ATOM     94  C   UNL A   1      44.079  24.216  35.267  1.00  0.00     0.200 A 
ATOM     95  F   UNL A   1      46.267  24.401  34.413  1.00  0.00    -0.200 F 
ATOM     96  F   UNL A   1      44.372  23.029  35.813  1.00  0.00    -0.200 F 
ENDBRANCH  63  86
ENDBRANCH  37  38
ENDBRANCH  29  32
ENDBRANCH  27  28
ENDBRANCH  26  27
ENDBRANCH  25  26
ENDBRANCH  24  25
ENDBRANCH   1  24
TORSDOF 17
ENDMDL
MODEL 2
REMARK VINA RESULT:     -12.1      3.742      9.544
REMARK SMILES Cc1cc(NC(=O)CCC(=O)NCCCCCCNC(=O)c2ccc(-c3c4nc(c(-c5c(F)c(F)c(F)c(F)c5F)c5ccc([nH]5)c(-c5c(F)c(F)c(F)c(F)c5F)c5nc(c(-c6c(F)c(F)c(F)c(F)c6F)c6ccc3[nH]6)C=C5)C=C4)cc2)ccc1S(=O)(=O)[O-]
REMARK SMILES IDX 14 1 13 2 12 3 10 4 11 5 9 7 8 8 6 9 5 10 7 12 4 13 1 14
REMARK SMILES IDX 2 15 3 16 87 17 86 18 85 19 88 20 89 21 90 22 91 23 15 24
REMARK SMILES IDX 16 25 17 26 18 27 19 28 20 29 21 31 22 32 23 33 84 34 24 35
REMARK SMILES IDX 83 36 25 37 26 38 27 39 77 40 28 41 82 42 76 43 78 44 29 45
REMARK SMILES IDX 81 46 75 47 74 48 30 50 62 51 42 52 61 53 43 54 46 55 60 56
REMARK SMILES IDX 79 57 44 58 45 59 59 61 80 62 47 63 31 64 32 65 40 66 33 67
REMARK SMILES IDX 34 68 38 69 41 70 35 71 36 72 39 73 37 74 63 75 64 76 72 77
REMARK SMILES IDX 65 78 66 79 70 80 73 81 67 82 68 83 71 84 69 85 48 86 49 87
REMARK SMILES IDX 57 88 50 89 51 90 55 91 58 92 52 93 53 94 56 95 54 96
REMARK H PARENT 12 6 5 11 19 30 78 49 46 60
REMARK Flexibility Score: inf
ROOT
ATOM      1  C   UNL A   1      35.431  23.694  23.937  1.00  0.00     0.021 C 
ENDROOT
BRANCH   1   2
ATOM      2  C   UNL A   1      33.962  23.286  24.050  1.00  0.00     0.116 C 
BRANCH   2   3
ATOM      3  N   UNL A   1      33.785  21.857  24.221  1.00  0.00    -0.356 N 
ATOM      4  C   UNL A   1      32.963  21.180  25.069  1.00  0.00     0.220 C 
ATOM      5  O   UNL A   1      32.861  19.959  24.949  1.00  0.00    -0.275 OA
ATOM      6  H   UNL A   1      34.342  21.293  23.637  1.00  0.00     0.163 HD
BRANCH   4   7
ATOM      7  C   UNL A   1      32.175  21.922  26.123  1.00  0.00     0.110 C 
BRANCH   7   8
ATOM      8  C   UNL A   1      30.699  22.161  25.831  1.00  0.00     0.110 C 
BRANCH   8   9
ATOM      9  C   UNL A   1      29.925  22.999  26.825  1.00  0.00     0.224 C 
ATOM     10  N   UNL A   1      29.973  24.361  26.882  1.00  0.00    -0.326 N 
ATOM     11  H   UNL A   1      29.482  24.745  27.645  1.00  0.00     0.169 HD
ATOM     12  O   UNL A   1      29.141  22.437  27.602  1.00  0.00    -0.275 OA
BRANCH  10  13
ATOM     13  C   UNL A   1      30.586  25.319  26.063  1.00  0.00     0.041 A 
ATOM     14  C   UNL A   1      29.646  27.883  23.454  1.00  0.00     0.046 C 
ATOM     15  C   UNL A   1      30.526  27.128  24.408  1.00  0.00    -0.032 A 
ATOM     16  C   UNL A   1      29.940  26.015  25.047  1.00  0.00     0.030 A 
ATOM     17  C   UNL A   1      31.817  27.506  24.802  1.00  0.00     0.057 A 
ATOM     18  C   UNL A   1      32.523  26.727  25.735  1.00  0.00     0.021 A 
ATOM     19  C   UNL A   1      31.917  25.628  26.344  1.00  0.00     0.027 A 
BRANCH  17  20
ATOM     20  S   UNL A   1      32.681  28.959  24.249  1.00  0.00     0.124 S 
ATOM     21  O   UNL A   1      32.654  28.954  22.801  1.00  0.00    -0.237 OA
ATOM     22  O   UNL A   1      32.154  30.079  24.999  1.00  0.00    -0.237 OA
ATOM     23  O   UNL A   1      34.222  28.857  24.694  1.00  0.00    -0.744 OA
ENDBRANCH  17  20
ENDBRANCH  10  13
ENDBRANCH   8   9
ENDBRANCH   7   8
ENDBRANCH   4   7
ENDBRANCH   2   3
ENDBRANCH   1   2
BRANCH   1  24
ATOM     24  C   UNL A   1      36.375  23.091  24.981  1.00  0.00     0.002 C 
BRANCH  24  25
ATOM     25  C   UNL A   1      37.243  21.920  24.508  1.00  0.00     0.002 C 
BRANCH  25  26
ATOM     26  C   UNL A   1      38.457  21.599  25.376  1.00  0.00     0.021 C 
BRANCH  26  27
ATOM     27  C   UNL A   1      38.723  22.593  26.496  1.00  0.00     0.116 C 
BRANCH  27  28
ATOM     28  N   UNL A   1      40.134  22.860  26.709  1.00  0.00    -0.352 N 
ATOM     29  C   UNL A   1      40.818  24.058  26.730  1.00  0.00     0.251 C 
ATOM     30  H   UNL A   1      40.689  22.063  26.864  1.00  0.00     0.163 HD
ATOM     31  O   UNL A   1      42.045  24.049  26.686  1.00  0.00    -0.269 OA
BRANCH  29  32
ATOM     32  C   UNL A   1      40.103  25.328  27.020  1.00  0.00     0.039 A 
ATOM     33  C   UNL A   1      40.513  26.451  26.281  1.00  0.00     0.014 A 
ATOM     34  C   UNL A   1      39.320  25.496  28.155  1.00  0.00     0.014 A 
ATOM     35  C   UNL A   1      40.407  27.716  26.841  1.00  0.00     0.010 A 
ATOM     36  C   UNL A   1      39.311  26.726  28.767  1.00  0.00     0.010 A 
ATOM     37  C   UNL A   1      39.931  27.811  28.143  1.00  0.00    -0.014 A 
BRANCH  37  38
ATOM     38  C   UNL A   1      40.108  28.978  28.986  1.00  0.00     0.031 A 
ATOM     39  C   UNL A   1      39.043  29.987  29.042  1.00  0.00     0.074 A 
ATOM     40  C   UNL A   1      41.163  28.995  29.827  1.00  0.00     0.049 A 
ATOM     41  N   UNL A   1      39.193  31.182  29.497  1.00  0.00    -0.248 NA
ATOM     42  C   UNL A   1      37.706  29.732  28.525  1.00  0.00     0.031 C 
ATOM     43  C   UNL A   1      41.368  29.854  30.989  1.00  0.00     0.029 A 
ATOM     44  N   UNL A   1      42.384  28.315  29.677  1.00  0.00    -0.354 N 
ATOM     45  C   UNL A   1      37.938  31.741  29.618  1.00  0.00     0.074 A 
ATOM     46  C   UNL A   1      37.069  30.845  28.897  1.00  0.00     0.031 C 
ATOM     47  C   UNL A   1      42.680  29.888  31.274  1.00  0.00     0.029 A 
ATOM     48  C   UNL A   1      43.366  29.186  30.202  1.00  0.00     0.049 A 
ATOM     49  H   UNL A   1      42.526  27.423  29.287  1.00  0.00     0.167 HD
ATOM     50  C   UNL A   1      37.790  32.811  30.453  1.00  0.00     0.037 A 
ATOM     51  C   UNL A   1      44.300  29.751  29.381  1.00  0.00     0.037 A 
ATOM     52  C   UNL A   1      39.104  33.273  30.915  1.00  0.00     0.049 A 
ATOM     53  C   UNL A   1      44.217  31.260  29.328  1.00  0.00     0.074 A 
ATOM     54  C   UNL A   1      39.810  33.068  32.089  1.00  0.00     0.029 A 
ATOM     55  N   UNL A   1      40.021  33.763  29.987  1.00  0.00    -0.354 N 
ATOM     56  N   UNL A   1      43.148  31.939  29.643  1.00  0.00    -0.248 NA
ATOM     57  C   UNL A   1      45.323  32.118  28.913  1.00  0.00     0.031 C 
ATOM     58  C   UNL A   1      41.177  33.355  31.835  1.00  0.00     0.029 A 
ATOM     59  C   UNL A   1      41.297  33.768  30.519  1.00  0.00     0.049 A 
ATOM     60  H   UNL A   1      39.792  34.064  29.078  1.00  0.00     0.167 HD
ATOM     61  C   UNL A   1      43.392  33.277  29.485  1.00  0.00     0.074 A 
ATOM     62  C   UNL A   1      44.771  33.338  29.035  1.00  0.00     0.031 C 
ATOM     63  C   UNL A   1      42.436  34.222  29.732  1.00  0.00     0.037 A 
BRANCH  50  64
ATOM     64  C   UNL A   1      36.482  33.241  31.103  1.00  0.00     0.064 A 
ATOM     65  C   UNL A   1      35.527  33.974  30.361  1.00  0.00     0.173 A 
ATOM     66  C   UNL A   1      36.133  33.057  32.456  1.00  0.00     0.173 A 
ATOM     67  F   UNL A   1      35.651  34.146  29.039  1.00  0.00    -0.203 F 
ATOM     68  C   UNL A   1      34.401  34.565  30.946  1.00  0.00     0.198 A 
ATOM     69  C   UNL A   1      35.025  33.674  33.049  1.00  0.00     0.198 A 
ATOM     70  F   UNL A   1      36.806  32.230  33.257  1.00  0.00    -0.203 F 
ATOM     71  F   UNL A   1      33.550  35.270  30.187  1.00  0.00    -0.200 F 
ATOM     72  C   UNL A   1      34.167  34.441  32.298  1.00  0.00     0.200 A 
ATOM     73  F   UNL A   1      34.801  33.510  34.362  1.00  0.00    -0.200 F 
ATOM     74  F   UNL A   1      33.107  35.032  32.867  1.00  0.00    -0.200 F 
ENDBRANCH  50  64
BRANCH  51  75
ATOM     75  C   UNL A   1      44.677  28.863  28.244  1.00  0.00     0.064 A 
ATOM     76  C   UNL A   1      45.439  27.713  28.533  1.00  0.00     0.173 A 
ATOM     77  C   UNL A   1      43.983  28.888  27.029  1.00  0.00     0.173 A 
ATOM     78  F   UNL A   1      46.125  27.637  29.685  1.00  0.00    -0.203 F 
ATOM     79  C   UNL A   1      45.399  26.589  27.710  1.00  0.00     0.198 A 
ATOM     80  C   UNL A   1      43.960  27.765  26.197  1.00  0.00     0.198 A 
ATOM     81  F   UNL A   1      43.229  29.945  26.701  1.00  0.00    -0.203 F 
ATOM     82  F   UNL A   1      46.034  25.468  28.079  1.00  0.00    -0.200 F 
ATOM     83  C   UNL A   1      44.634  26.606  26.558  1.00  0.00     0.200 A 
ATOM     84  F   UNL A   1      43.203  27.771  25.091  1.00  0.00    -0.200 F 
ATOM     85  F   UNL A   1      44.513  25.496  25.815  1.00  0.00    -0.200 F 
ENDBRANCH  51  75
BRANCH  63  86
ATOM     86  C   UNL A   1      42.511  35.679  29.344  1.00  0.00     0.064 A 
ATOM     87  C   UNL A   1      43.298  36.630  30.016  1.00  0.00     0.173 A 
ATOM     88  C   UNL A   1      41.899  36.132  28.149  1.00  0.00     0.173 A 
ATOM     89  F   UNL A   1      44.023  36.299  31.093  1.00  0.00    -0.203 F 
ATOM     90  C   UNL A   1      43.413  37.946  29.562  1.00  0.00     0.198 A 
ATOM     91  C   UNL A   1      42.071  37.427  27.665  1.00  0.00     0.198 A 
ATOM     92  F   UNL A   1      41.140  35.321  27.398  1.00  0.00    -0.203 F 
ATOM     93  F   UNL A   1      44.141  38.827  30.264  1.00  0.00    -0.200 F 
ATOM     94  C   UNL A   1      42.814  38.341  28.381  1.00  0.00     0.200 A 
ATOM     95  F   UNL A   1      41.529  37.775  26.488  1.00  0.00    -0.200 F 
ATOM     96  F   UNL A   1      42.973  39.589  27.922  1.00  0.00    -0.200 F 
ENDBRANCH  63  86
ENDBRANCH  37  38
ENDBRANCH  29  32
ENDBRANCH  27  28
ENDBRANCH  26  27
ENDBRANCH  25  26
ENDBRANCH  24  25
ENDBRANCH   1  24
TORSDOF 17
ENDMDL
MODEL 3
REMARK VINA RESULT:     -12.0      1.824      2.513
REMARK SMILES Cc1cc(NC(=O)CCC(=O)NCCCCCCNC(=O)c2ccc(-c3c4nc(c(-c5c(F)c(F)c(F)c(F)c5F)c5ccc([nH]5)c(-c5c(F)c(F)c(F)c(F)c5F)c5nc(c(-c6c(F)c(F)c(F)c(F)c6F)c6ccc3[nH]6)C=C5)C=C4)cc2)ccc1S(=O)(=O)[O-]
REMARK SMILES IDX 14 1 13 2 12 3 10 4 11 5 9 7 8 8 6 9 5 10 7 12 4 13 1 14
REMARK SMILES IDX 2 15 3 16 87 17 86 18 85 19 88 20 89 21 90 22 91 23 15 24
REMARK SMILES IDX 16 25 17 26 18 27 19 28 20 29 21 31 22 32 23 33 84 34 24 35
REMARK SMILES IDX 83 36 25 37 26 38 27 39 77 40 28 41 82 42 76 43 78 44 29 45
REMARK SMILES IDX 81 46 75 47 74 48 30 50 62 51 42 52 61 53 43 54 46 55 60 56
REMARK SMILES IDX 79 57 44 58 45 59 59 61 80 62 47 63 31 64 32 65 40 66 33 67
REMARK SMILES IDX 34 68 38 69 41 70 35 71 36 72 39 73 37 74 63 75 64 76 72 77
REMARK SMILES IDX 65 78 66 79 70 80 73 81 67 82 68 83 71 84 69 85 48 86 49 87
REMARK SMILES IDX 57 88 50 89 51 90 55 91 58 92 52 93 53 94 56 95 54 96
REMARK H PARENT 12 6 5 11 19 30 78 49 46 60
REMARK Flexibility Score: inf
ROOT
ATOM      1  C   UNL A   1      33.471  28.621  24.280  1.00  0.00     0.021 C 
ENDROOT
BRANCH   1   2
ATOM      2  C   UNL A   1      33.157  28.746  22.790  1.00  0.00     0.116 C 
BRANCH   2   3
ATOM      3  N   UNL A   1      33.516  27.561  22.035  1.00  0.00    -0.356 N 
ATOM      4  C   UNL A   1      32.737  26.522  21.629  1.00  0.00     0.220 C 
ATOM      5  O   UNL A   1      33.217  25.682  20.867  1.00  0.00    -0.275 OA
ATOM      6  H   UNL A   1      34.465  27.499  21.779  1.00  0.00     0.163 HD
BRANCH   4   7
ATOM      7  C   UNL A   1      31.303  26.417  22.091  1.00  0.00     0.110 C 
BRANCH   7   8
ATOM      8  C   UNL A   1      30.955  25.223  22.971  1.00  0.00     0.110 C 
BRANCH   8   9
ATOM      9  C   UNL A   1      30.604  25.509  24.416  1.00  0.00     0.224 C 
ATOM     10  N   UNL A   1      31.334  25.077  25.483  1.00  0.00    -0.326 N 
ATOM     11  H   UNL A   1      30.919  25.271  26.355  1.00  0.00     0.169 HD
ATOM     12  O   UNL A   1      29.633  26.237  24.664  1.00  0.00    -0.275 OA
BRANCH  10  13
ATOM     13  C   UNL A   1      32.563  24.409  25.578  1.00  0.00     0.041 A 
ATOM     14  C   UNL A   1      33.987  20.945  25.094  1.00  0.00     0.046 C 
ATOM     15  C   UNL A   1      33.985  22.423  25.354  1.00  0.00    -0.032 A 
ATOM     16  C   UNL A   1      32.718  23.030  25.487  1.00  0.00     0.030 A 
ATOM     17  C   UNL A   1      35.113  23.255  25.351  1.00  0.00     0.057 A 
ATOM     18  C   UNL A   1      34.969  24.636  25.574  1.00  0.00     0.021 A 
ATOM     19  C   UNL A   1      33.702  25.204  25.708  1.00  0.00     0.027 A 
BRANCH  17  20
ATOM     20  S   UNL A   1      36.784  22.728  25.041  1.00  0.00     0.124 S 
ATOM     21  O   UNL A   1      37.654  23.845  25.346  1.00  0.00    -0.237 OA
ATOM     22  O   UNL A   1      36.954  21.450  25.699  1.00  0.00    -0.237 OA
ATOM     23  O   UNL A   1      36.953  22.409  23.475  1.00  0.00    -0.744 OA
ENDBRANCH  17  20
ENDBRANCH  10  13
ENDBRANCH   8   9
ENDBRANCH   7   8
ENDBRANCH   4   7
ENDBRANCH   2   3
ENDBRANCH   1   2
BRANCH   1  24
ATOM     24  C   UNL A   1      32.274  28.736  25.229  1.00  0.00     0.002 C 
BRANCH  24  25
ATOM     25  C   UNL A   1      32.597  29.119  26.676  1.00  0.00     0.002 C 
BRANCH  25  26
ATOM     26  C   UNL A   1      33.978  28.709  27.182  1.00  0.00     0.021 C 
BRANCH  26  27
ATOM     27  C   UNL A   1      34.913  29.866  27.496  1.00  0.00     0.116 C 
BRANCH  27  28
ATOM     28  N   UNL A   1      34.244  31.155  27.537  1.00  0.00    -0.352 N 
ATOM     29  C   UNL A   1      34.391  32.205  28.420  1.00  0.00     0.251 C 
ATOM     30  H   UNL A   1      33.584  31.303  26.822  1.00  0.00     0.163 HD
ATOM     31  O   UNL A   1      33.560  33.108  28.420  1.00  0.00    -0.269 OA
BRANCH  29  32
ATOM     32  C   UNL A   1      35.644  32.359  29.205  1.00  0.00     0.039 A 
ATOM     33  C   UNL A   1      36.692  33.043  28.567  1.00  0.00     0.014 A 
ATOM     34  C   UNL A   1      35.899  31.612  30.348  1.00  0.00     0.014 A 
ATOM     35  C   UNL A   1      38.006  32.728  28.883  1.00  0.00     0.010 A 
ATOM     36  C   UNL A   1      37.190  31.210  30.591  1.00  0.00     0.010 A 
ATOM     37  C   UNL A   1      38.228  31.708  29.799  1.00  0.00    -0.014 A 
BRANCH  37  38
ATOM     38  C   UNL A   1      39.494  31.018  29.953  1.00  0.00     0.031 A 
ATOM     39  C   UNL A   1      39.635  29.655  29.426  1.00  0.00     0.074 A 
ATOM     40  C   UNL A   1      40.549  31.727  30.408  1.00  0.00     0.049 A 
ATOM     41  N   UNL A   1      40.575  28.839  29.753  1.00  0.00    -0.248 NA
ATOM     42  C   UNL A   1      38.665  29.076  28.506  1.00  0.00     0.031 C 
ATOM     43  C   UNL A   1      41.963  31.382  30.324  1.00  0.00     0.029 A 
ATOM     44  N   UNL A   1      40.518  32.873  31.221  1.00  0.00    -0.354 N 
ATOM     45  C   UNL A   1      40.519  27.770  28.884  1.00  0.00     0.074 A 
ATOM     46  C   UNL A   1      39.253  27.914  28.211  1.00  0.00     0.031 C 
ATOM     47  C   UNL A   1      42.634  32.078  31.257  1.00  0.00     0.029 A 
ATOM     48  C   UNL A   1      41.642  32.762  32.070  1.00  0.00     0.049 A 
ATOM     49  H   UNL A   1      39.853  33.599  31.204  1.00  0.00     0.167 HD
ATOM     50  C   UNL A   1      41.635  26.996  28.747  1.00  0.00     0.037 A 
ATOM     51  C   UNL A   1      41.480  32.572  33.413  1.00  0.00     0.037 A 
ATOM     52  C   UNL A   1      42.637  27.378  29.749  1.00  0.00     0.049 A 
ATOM     53  C   UNL A   1      42.048  31.261  33.906  1.00  0.00     0.074 A 
ATOM     54  C   UNL A   1      43.770  28.173  29.685  1.00  0.00     0.029 A 
ATOM     55  N   UNL A   1      42.347  27.217  31.102  1.00  0.00    -0.354 N 
ATOM     56  N   UNL A   1      42.266  30.230  33.136  1.00  0.00    -0.248 NA
ATOM     57  C   UNL A   1      42.409  31.006  35.297  1.00  0.00     0.031 C 
ATOM     58  C   UNL A   1      44.107  28.562  31.008  1.00  0.00     0.029 A 
ATOM     59  C   UNL A   1      43.202  27.976  31.877  1.00  0.00     0.049 A 
ATOM     60  H   UNL A   1      41.630  26.641  31.457  1.00  0.00     0.167 HD
ATOM     61  C   UNL A   1      42.777  29.201  33.882  1.00  0.00     0.074 A 
ATOM     62  C   UNL A   1      42.855  29.740  35.228  1.00  0.00     0.031 C 
ATOM     63  C   UNL A   1      43.087  27.990  33.330  1.00  0.00     0.037 A 
BRANCH  50  64
ATOM     64  C   UNL A   1      41.957  26.129  27.537  1.00  0.00     0.064 A 
ATOM     65  C   UNL A   1      41.307  24.886  27.361  1.00  0.00     0.173 A 
ATOM     66  C   UNL A   1      42.943  26.399  26.567  1.00  0.00     0.173 A 
ATOM     67  F   UNL A   1      40.272  24.522  28.129  1.00  0.00    -0.203 F 
ATOM     68  C   UNL A   1      41.693  23.958  26.386  1.00  0.00     0.198 A 
ATOM     69  C   UNL A   1      43.352  25.460  25.613  1.00  0.00     0.198 A 
ATOM     70  F   UNL A   1      43.518  27.597  26.453  1.00  0.00    -0.203 F 
ATOM     71  F   UNL A   1      41.050  22.785  26.292  1.00  0.00    -0.200 F 
ATOM     72  C   UNL A   1      42.738  24.233  25.531  1.00  0.00     0.200 A 
ATOM     73  F   UNL A   1      44.351  25.766  24.770  1.00  0.00    -0.200 F 
ATOM     74  F   UNL A   1      43.131  23.335  24.618  1.00  0.00    -0.200 F 
ENDBRANCH  50  64
BRANCH  51  75
ATOM     75  C   UNL A   1      40.257  33.240  33.943  1.00  0.00     0.064 A 
ATOM     76  C   UNL A   1      39.104  32.450  34.129  1.00  0.00     0.173 A 
ATOM     77  C   UNL A   1      40.322  34.458  34.630  1.00  0.00     0.173 A 
ATOM     78  F   UNL A   1      38.990  31.273  33.493  1.00  0.00    -0.203 F 
ATOM     79  C   UNL A   1      38.129  32.797  35.062  1.00  0.00     0.198 A 
ATOM     80  C   UNL A   1      39.331  34.810  35.553  1.00  0.00     0.198 A 
ATOM     81  F   UNL A   1      41.396  35.249  34.508  1.00  0.00    -0.203 F 
ATOM     82  F   UNL A   1      37.110  31.960  35.306  1.00  0.00    -0.200 F 
ATOM     83  C   UNL A   1      38.259  33.962  35.795  1.00  0.00     0.200 A 
ATOM     84  F   UNL A   1      39.467  35.929  36.279  1.00  0.00    -0.200 F 
ATOM     85  F   UNL A   1      37.376  34.250  36.762  1.00  0.00    -0.200 F 
ENDBRANCH  51  75
BRANCH  63  86
ATOM     86  C   UNL A   1      43.399  26.724  34.091  1.00  0.00     0.064 A 
ATOM     87  C   UNL A   1      42.433  25.951  34.757  1.00  0.00     0.173 A 
ATOM     88  C   UNL A   1      44.695  26.154  34.028  1.00  0.00     0.173 A 
ATOM     89  F   UNL A   1      41.145  26.319  34.787  1.00  0.00    -0.203 F 
ATOM     90  C   UNL A   1      42.752  24.735  35.366  1.00  0.00     0.198 A 
ATOM     91  C   UNL A   1      44.993  24.910  34.579  1.00  0.00     0.198 A 
ATOM     92  F   UNL A   1      45.705  26.776  33.402  1.00  0.00    -0.203 F 
ATOM     93  F   UNL A   1      41.802  24.057  36.028  1.00  0.00    -0.200 F 
ATOM     94  C   UNL A   1      44.025  24.207  35.265  1.00  0.00     0.200 A 
ATOM     95  F   UNL A   1      46.218  24.389  34.421  1.00  0.00    -0.200 F 
ATOM     96  F   UNL A   1      44.312  23.015  35.803  1.00  0.00    -0.200 F 
ENDBRANCH  63  86
ENDBRANCH  37  38
ENDBRANCH  29  32
ENDBRANCH  27  28
ENDBRANCH  26  27
ENDBRANCH  25  26
ENDBRANCH  24  25
ENDBRANCH   1  24
TORSDOF 17
ENDMDL
