MODEL 1
REMARK VINA RESULT:     -12.3      0.000      0.000
REMARK SMILES CC(=O)Nc1nc(C[N@@H+]2CCO[C@@H](CC(=O)NCCCCCCNC(=O)c3ccc(-c4c5nc(c(-c6c(F)c(F)c(F)c(F)c6F)c6ccc([nH]6)c(-c6c(F)c(F)c(F)c(F)c6F)c6nc(c(-c7c(F)c(F)c(F)c(F)c7F)c7ccc4[nH]7)C=C6)C=C5)cc3)C2)cs1
REMARK SMILES IDX 19 1 18 2 17 3 15 4 16 5 14 7 13 8 9 9 10 10 90 11 11 13
REMARK SMILES IDX 12 14 8 15 7 16 5 17 6 18 92 19 91 20 4 21 1 22 2 23 3 24
REMARK SMILES IDX 20 26 21 27 22 28 23 29 24 30 25 31 26 33 27 34 28 35 89 36
REMARK SMILES IDX 29 37 88 38 30 39 31 40 32 41 82 42 33 43 87 44 81 45 83 46
REMARK SMILES IDX 34 47 86 48 80 49 79 50 35 52 67 53 47 54 66 55 48 56 51 57
REMARK SMILES IDX 65 58 84 59 49 60 50 61 64 63 85 64 52 65 36 66 37 67 45 68
REMARK SMILES IDX 38 69 39 70 43 71 46 72 40 73 41 74 44 75 42 76 68 77 69 78
REMARK SMILES IDX 77 79 70 80 71 81 75 82 78 83 72 84 73 85 76 86 74 87 53 88
REMARK SMILES IDX 54 89 62 90 55 91 56 92 60 93 63 94 57 95 58 96 61 97 59 98
REMARK H PARENT 17 6 9 12 4 25 24 32 83 51 51 62
REMARK Flexibility Score: inf
ROOT
ATOM      1  C   UNL A   1      32.838  28.577  26.888  1.00  0.00     0.021 C 
ENDROOT
BRANCH   1   2
ATOM      2  C   UNL A   1      31.471  27.885  26.897  1.00  0.00     0.116 C 
BRANCH   2   3
ATOM      3  N   UNL A   1      31.039  27.581  25.542  1.00  0.00    -0.356 N 
ATOM      4  C   UNL A   1      30.604  26.406  24.999  1.00  0.00     0.222 C 
ATOM      5  O   UNL A   1      30.392  26.361  23.788  1.00  0.00    -0.275 OA
ATOM      6  H   UNL A   1      31.064  28.341  24.918  1.00  0.00     0.163 HD
BRANCH   4   7
ATOM      7  C   UNL A   1      30.388  25.192  25.873  1.00  0.00     0.138 C 
BRANCH   7   8
ATOM      8  C   UNL A   1      31.621  24.290  25.984  1.00  0.00     0.182 C 
ATOM      9  N   UNL A   1      32.725  22.233  24.916  1.00  0.00    -0.326 N 
ATOM     10  C   UNL A   1      33.909  23.075  24.742  1.00  0.00     0.291 C 
ATOM     11  C   UNL A   1      31.508  23.023  25.110  1.00  0.00     0.295 C 
ATOM     12  H   UNL A   1      32.627  21.769  24.013  1.00  0.00     0.348 HD
ATOM     13  C   UNL A   1      33.958  24.335  25.622  1.00  0.00     0.222 C 
ATOM     14  O   UNL A   1      32.743  25.084  25.547  1.00  0.00    -0.366 OA
BRANCH   9  15
ATOM     15  C   UNL A   1      32.852  21.041  25.759  1.00  0.00     0.320 C 
BRANCH  15  16
ATOM     16  C   UNL A   1      32.643  19.754  25.025  1.00  0.00     0.108 A 
ATOM     17  C   UNL A   1      32.494  17.558  24.916  1.00  0.00     0.189 A 
ATOM     18  N   UNL A   1      32.531  18.568  25.746  1.00  0.00    -0.219 NA
ATOM     19  S   UNL A   1      32.562  17.931  23.255  1.00  0.00    -0.105 S 
ATOM     20  C   UNL A   1      32.518  19.596  23.655  1.00  0.00     0.098 A 
BRANCH  17  21
ATOM     21  N   UNL A   1      32.406  16.226  25.186  1.00  0.00    -0.302 N 
ATOM     22  C   UNL A   1      34.860  15.896  25.340  1.00  0.00     0.114 C 
ATOM     23  C   UNL A   1      33.453  15.362  25.267  1.00  0.00     0.223 C 
ATOM     24  O   UNL A   1      33.230  14.153  25.372  1.00  0.00    -0.275 OA
ATOM     25  H   UNL A   1      31.506  15.857  25.334  1.00  0.00     0.172 HD
ENDBRANCH  17  21
ENDBRANCH  15  16
ENDBRANCH   9  15
ENDBRANCH   7   8
ENDBRANCH   4   7
ENDBRANCH   2   3
ENDBRANCH   1   2
BRANCH   1  26
ATOM     26  C   UNL A   1      32.778  30.091  27.076  1.00  0.00     0.002 C 
BRANCH  26  27
ATOM     27  C   UNL A   1      31.518  30.755  26.517  1.00  0.00     0.002 C 
BRANCH  27  28
ATOM     28  C   UNL A   1      31.427  32.270  26.723  1.00  0.00     0.021 C 
BRANCH  28  29
ATOM     29  C   UNL A   1      32.720  32.937  27.187  1.00  0.00     0.116 C 
BRANCH  29  30
ATOM     30  N   UNL A   1      32.496  34.301  27.636  1.00  0.00    -0.352 N 
ATOM     31  C   UNL A   1      33.042  34.972  28.700  1.00  0.00     0.251 C 
ATOM     32  H   UNL A   1      31.857  34.821  27.096  1.00  0.00     0.163 HD
ATOM     33  O   UNL A   1      32.570  36.042  29.069  1.00  0.00    -0.269 OA
BRANCH  31  34
ATOM     34  C   UNL A   1      34.204  34.400  29.414  1.00  0.00     0.039 A 
ATOM     35  C   UNL A   1      33.990  33.695  30.601  1.00  0.00     0.014 A 
ATOM     36  C   UNL A   1      35.501  34.583  28.928  1.00  0.00     0.014 A 
ATOM     37  C   UNL A   1      35.073  33.129  31.273  1.00  0.00     0.010 A 
ATOM     38  C   UNL A   1      36.573  33.962  29.562  1.00  0.00     0.010 A 
ATOM     39  C   UNL A   1      36.370  33.235  30.745  1.00  0.00    -0.014 A 
BRANCH  39  40
ATOM     40  C   UNL A   1      37.529  32.599  31.421  1.00  0.00     0.031 A 
ATOM     41  C   UNL A   1      38.259  31.465  30.758  1.00  0.00     0.074 A 
ATOM     42  C   UNL A   1      37.882  33.001  32.656  1.00  0.00     0.049 A 
ATOM     43  N   UNL A   1      39.248  30.737  31.213  1.00  0.00    -0.248 NA
ATOM     44  C   UNL A   1      37.800  31.079  29.415  1.00  0.00     0.031 C 
ATOM     45  C   UNL A   1      37.222  34.060  33.420  1.00  0.00     0.029 A 
ATOM     46  N   UNL A   1      38.877  32.559  33.490  1.00  0.00    -0.354 N 
ATOM     47  C   UNL A   1      39.517  29.802  30.222  1.00  0.00     0.074 A 
ATOM     48  C   UNL A   1      38.554  30.020  29.165  1.00  0.00     0.031 C 
ATOM     49  C   UNL A   1      37.841  34.200  34.603  1.00  0.00     0.029 A 
ATOM     50  C   UNL A   1      38.918  33.217  34.696  1.00  0.00     0.049 A 
ATOM     51  H   UNL A   1      39.502  31.837  33.250  1.00  0.00     0.167 HD
ATOM     52  C   UNL A   1      40.492  28.863  30.188  1.00  0.00     0.037 A 
ATOM     53  C   UNL A   1      39.728  33.043  35.757  1.00  0.00     0.037 A 
ATOM     54  C   UNL A   1      41.463  28.668  31.234  1.00  0.00     0.049 A 
ATOM     55  C   UNL A   1      40.801  31.991  35.695  1.00  0.00     0.074 A 
ATOM     56  C   UNL A   1      42.529  27.786  31.267  1.00  0.00     0.029 A 
ATOM     57  N   UNL A   1      41.483  29.366  32.432  1.00  0.00    -0.354 N 
ATOM     58  N   UNL A   1      41.090  31.158  34.726  1.00  0.00    -0.248 NA
ATOM     59  C   UNL A   1      41.666  31.860  36.876  1.00  0.00     0.031 C 
ATOM     60  C   UNL A   1      43.167  27.919  32.506  1.00  0.00     0.029 A 
ATOM     61  C   UNL A   1      42.530  28.918  33.223  1.00  0.00     0.049 A 
ATOM     62  H   UNL A   1      40.848  30.075  32.684  1.00  0.00     0.167 HD
ATOM     63  C   UNL A   1      42.182  30.424  35.165  1.00  0.00     0.074 A 
ATOM     64  C   UNL A   1      42.515  30.919  36.484  1.00  0.00     0.031 C 
ATOM     65  C   UNL A   1      42.850  29.428  34.532  1.00  0.00     0.037 A 
BRANCH  52  66
ATOM     66  C   UNL A   1      40.558  27.975  28.980  1.00  0.00     0.064 A 
ATOM     67  C   UNL A   1      39.811  26.790  28.895  1.00  0.00     0.173 A 
ATOM     68  C   UNL A   1      41.356  28.326  27.880  1.00  0.00     0.173 A 
ATOM     69  F   UNL A   1      39.041  26.403  29.923  1.00  0.00    -0.203 F 
ATOM     70  C   UNL A   1      39.885  25.975  27.769  1.00  0.00     0.198 A 
ATOM     71  C   UNL A   1      41.403  27.523  26.743  1.00  0.00     0.198 A 
ATOM     72  F   UNL A   1      42.086  29.451  27.905  1.00  0.00    -0.203 F 
ATOM     73  F   UNL A   1      39.203  24.821  27.733  1.00  0.00    -0.200 F 
ATOM     74  C   UNL A   1      40.675  26.345  26.691  1.00  0.00     0.200 A 
ATOM     75  F   UNL A   1      42.157  27.889  25.697  1.00  0.00    -0.200 F 
ATOM     76  F   UNL A   1      40.742  25.561  25.607  1.00  0.00    -0.200 F 
ENDBRANCH  52  66
BRANCH  53  77
ATOM     77  C   UNL A   1      39.572  33.906  36.956  1.00  0.00     0.064 A 
ATOM     78  C   UNL A   1      38.826  33.472  38.061  1.00  0.00     0.173 A 
ATOM     79  C   UNL A   1      40.163  35.175  37.026  1.00  0.00     0.173 A 
ATOM     80  F   UNL A   1      38.225  32.274  38.032  1.00  0.00    -0.203 F 
ATOM     81  C   UNL A   1      38.663  34.281  39.183  1.00  0.00     0.198 A 
ATOM     82  C   UNL A   1      40.023  35.973  38.159  1.00  0.00     0.198 A 
ATOM     83  F   UNL A   1      40.891  35.635  35.997  1.00  0.00    -0.203 F 
ATOM     84  F   UNL A   1      37.910  33.859  40.207  1.00  0.00    -0.200 F 
ATOM     85  C   UNL A   1      39.266  35.529  39.233  1.00  0.00     0.200 A 
ATOM     86  F   UNL A   1      40.619  37.172  38.210  1.00  0.00    -0.200 F 
ATOM     87  F   UNL A   1      39.114  36.305  40.315  1.00  0.00    -0.200 F 
ENDBRANCH  53  77
BRANCH  65  88
ATOM     88  C   UNL A   1      44.028  28.828  35.245  1.00  0.00     0.064 A 
ATOM     89  C   UNL A   1      45.330  29.305  35.043  1.00  0.00     0.173 A 
ATOM     90  C   UNL A   1      43.843  27.790  36.171  1.00  0.00     0.173 A 
ATOM     91  F   UNL A   1      45.561  30.286  34.156  1.00  0.00    -0.203 F 
ATOM     92  C   UNL A   1      46.410  28.748  35.724  1.00  0.00     0.198 A 
ATOM     93  C   UNL A   1      44.921  27.256  36.872  1.00  0.00     0.198 A 
ATOM     94  F   UNL A   1      42.616  27.302  36.405  1.00  0.00    -0.203 F 
ATOM     95  F   UNL A   1      47.652  29.188  35.481  1.00  0.00    -0.200 F 
ATOM     96  C   UNL A   1      46.203  27.731  36.643  1.00  0.00     0.200 A 
ATOM     97  F   UNL A   1      44.717  26.282  37.770  1.00  0.00    -0.200 F 
ATOM     98  F   UNL A   1      47.241  27.201  37.304  1.00  0.00    -0.200 F 
ENDBRANCH  65  88
ENDBRANCH  39  40
ENDBRANCH  31  34
ENDBRANCH  29  30
ENDBRANCH  28  29
ENDBRANCH  27  28
ENDBRANCH  26  27
ENDBRANCH   1  26
TORSDOF 17
ENDMDL
MODEL 2
REMARK VINA RESULT:     -12.1      0.717      1.761
REMARK SMILES CC(=O)Nc1nc(C[N@@H+]2CCO[C@@H](CC(=O)NCCCCCCNC(=O)c3ccc(-c4c5nc(c(-c6c(F)c(F)c(F)c(F)c6F)c6ccc([nH]6)c(-c6c(F)c(F)c(F)c(F)c6F)c6nc(c(-c7c(F)c(F)c(F)c(F)c7F)c7ccc4[nH]7)C=C6)C=C5)cc3)C2)cs1
REMARK SMILES IDX 19 1 18 2 17 3 15 4 16 5 14 7 13 8 9 9 10 10 90 11 11 13
REMARK SMILES IDX 12 14 8 15 7 16 5 17 6 18 92 19 91 20 4 21 1 22 2 23 3 24
REMARK SMILES IDX 20 26 21 27 22 28 23 29 24 30 25 31 26 33 27 34 28 35 89 36
REMARK SMILES IDX 29 37 88 38 30 39 31 40 32 41 82 42 33 43 87 44 81 45 83 46
REMARK SMILES IDX 34 47 86 48 80 49 79 50 35 52 67 53 47 54 66 55 48 56 51 57
REMARK SMILES IDX 65 58 84 59 49 60 50 61 64 63 85 64 52 65 36 66 37 67 45 68
REMARK SMILES IDX 38 69 39 70 43 71 46 72 40 73 41 74 44 75 42 76 68 77 69 78
REMARK SMILES IDX 77 79 70 80 71 81 75 82 78 83 72 84 73 85 76 86 74 87 53 88
REMARK SMILES IDX 54 89 62 90 55 91 56 92 60 93 63 94 57 95 58 96 61 97 59 98
REMARK H PARENT 17 6 9 12 4 25 24 32 83 51 51 62
REMARK Flexibility Score: inf
ROOT
ATOM      1  C   UNL A   1      33.308  28.968  26.582  1.00  0.00     0.021 C 
ENDROOT
BRANCH   1   2
ATOM      2  C   UNL A   1      32.844  27.512  26.477  1.00  0.00     0.116 C 
BRANCH   2   3
ATOM      3  N   UNL A   1      32.230  27.259  25.183  1.00  0.00    -0.356 N 
ATOM      4  C   UNL A   1      32.700  26.569  24.104  1.00  0.00     0.222 C 
ATOM      5  O   UNL A   1      32.040  26.580  23.065  1.00  0.00    -0.275 OA
ATOM      6  H   UNL A   1      31.332  27.647  25.067  1.00  0.00     0.163 HD
BRANCH   4   7
ATOM      7  C   UNL A   1      34.004  25.810  24.189  1.00  0.00     0.138 C 
BRANCH   7   8
ATOM      8  C   UNL A   1      33.905  24.508  24.988  1.00  0.00     0.182 C 
ATOM      9  N   UNL A   1      33.877  21.956  24.704  1.00  0.00    -0.326 N 
ATOM     10  C   UNL A   1      34.989  21.932  25.654  1.00  0.00     0.291 C 
ATOM     11  C   UNL A   1      33.706  23.272  24.085  1.00  0.00     0.295 C 
ATOM     12  H   UNL A   1      34.182  21.326  23.963  1.00  0.00     0.348 HD
ATOM     13  C   UNL A   1      35.151  23.197  26.513  1.00  0.00     0.222 C 
ATOM     14  O   UNL A   1      35.144  24.385  25.717  1.00  0.00    -0.366 OA
BRANCH   9  15
ATOM     15  C   UNL A   1      32.642  21.265  25.080  1.00  0.00     0.320 C 
BRANCH  15  16
ATOM     16  C   UNL A   1      32.503  19.900  24.482  1.00  0.00     0.108 A 
ATOM     17  C   UNL A   1      32.449  17.700  24.600  1.00  0.00     0.189 A 
ATOM     18  N   UNL A   1      32.425  18.792  25.321  1.00  0.00    -0.219 NA
ATOM     19  S   UNL A   1      32.540  17.902  22.911  1.00  0.00    -0.105 S 
ATOM     20  C   UNL A   1      32.417  19.596  23.134  1.00  0.00     0.098 A 
BRANCH  17  21
ATOM     21  N   UNL A   1      32.411  16.401  25.006  1.00  0.00    -0.302 N 
ATOM     22  C   UNL A   1      34.877  16.158  25.115  1.00  0.00     0.114 C 
ATOM     23  C   UNL A   1      33.487  15.580  25.142  1.00  0.00     0.223 C 
ATOM     24  O   UNL A   1      33.304  14.383  25.376  1.00  0.00    -0.275 OA
ATOM     25  H   UNL A   1      31.528  16.024  25.220  1.00  0.00     0.172 HD
ENDBRANCH  17  21
ENDBRANCH  15  16
ENDBRANCH   9  15
ENDBRANCH   7   8
ENDBRANCH   4   7
ENDBRANCH   2   3
ENDBRANCH   1   2
BRANCH   1  26
ATOM     26  C   UNL A   1      32.296  29.905  27.238  1.00  0.00     0.002 C 
BRANCH  26  27
ATOM     27  C   UNL A   1      31.441  30.711  26.257  1.00  0.00     0.002 C 
BRANCH  27  28
ATOM     28  C   UNL A   1      31.402  32.221  26.506  1.00  0.00     0.021 C 
BRANCH  28  29
ATOM     29  C   UNL A   1      32.635  32.792  27.205  1.00  0.00     0.116 C 
BRANCH  29  30
ATOM     30  N   UNL A   1      32.430  34.169  27.625  1.00  0.00    -0.352 N 
ATOM     31  C   UNL A   1      33.003  34.860  28.662  1.00  0.00     0.251 C 
ATOM     32  H   UNL A   1      31.786  34.682  27.085  1.00  0.00     0.163 HD
ATOM     33  O   UNL A   1      32.546  35.942  29.015  1.00  0.00    -0.269 OA
BRANCH  31  34
ATOM     34  C   UNL A   1      34.173  34.294  29.367  1.00  0.00     0.039 A 
ATOM     35  C   UNL A   1      33.967  33.542  30.526  1.00  0.00     0.014 A 
ATOM     36  C   UNL A   1      35.469  34.530  28.901  1.00  0.00     0.014 A 
ATOM     37  C   UNL A   1      35.060  32.981  31.189  1.00  0.00     0.010 A 
ATOM     38  C   UNL A   1      36.552  33.916  29.524  1.00  0.00     0.010 A 
ATOM     39  C   UNL A   1      36.358  33.141  30.678  1.00  0.00    -0.014 A 
BRANCH  39  40
ATOM     40  C   UNL A   1      37.528  32.513  31.342  1.00  0.00     0.031 A 
ATOM     41  C   UNL A   1      38.270  31.396  30.665  1.00  0.00     0.074 A 
ATOM     42  C   UNL A   1      37.881  32.908  32.580  1.00  0.00     0.049 A 
ATOM     43  N   UNL A   1      39.270  30.676  31.109  1.00  0.00    -0.248 NA
ATOM     44  C   UNL A   1      37.811  31.018  29.320  1.00  0.00     0.031 C 
ATOM     45  C   UNL A   1      37.210  33.950  33.358  1.00  0.00     0.029 A 
ATOM     46  N   UNL A   1      38.885  32.469  33.407  1.00  0.00    -0.354 N 
ATOM     47  C   UNL A   1      39.547  29.755  30.107  1.00  0.00     0.074 A 
ATOM     48  C   UNL A   1      38.578  29.971  29.056  1.00  0.00     0.031 C 
ATOM     49  C   UNL A   1      37.832  34.085  34.540  1.00  0.00     0.029 A 
ATOM     50  C   UNL A   1      38.922  33.116  34.618  1.00  0.00     0.049 A 
ATOM     51  H   UNL A   1      39.518  31.759  33.156  1.00  0.00     0.167 HD
ATOM     52  C   UNL A   1      40.534  28.830  30.060  1.00  0.00     0.037 A 
ATOM     53  C   UNL A   1      39.738  32.941  35.675  1.00  0.00     0.037 A 
ATOM     54  C   UNL A   1      41.512  28.636  31.099  1.00  0.00     0.049 A 
ATOM     55  C   UNL A   1      40.825  31.903  35.598  1.00  0.00     0.074 A 
ATOM     56  C   UNL A   1      42.590  27.768  31.119  1.00  0.00     0.029 A 
ATOM     57  N   UNL A   1      41.528  29.322  32.305  1.00  0.00    -0.354 N 
ATOM     58  N   UNL A   1      41.120  31.084  34.618  1.00  0.00    -0.248 NA
ATOM     59  C   UNL A   1      41.697  31.771  36.774  1.00  0.00     0.031 C 
ATOM     60  C   UNL A   1      43.231  27.896  32.357  1.00  0.00     0.029 A 
ATOM     61  C   UNL A   1      42.583  28.880  33.087  1.00  0.00     0.049 A 
ATOM     62  H   UNL A   1      40.885  30.020  32.566  1.00  0.00     0.167 HD
ATOM     63  C   UNL A   1      42.224  30.360  35.046  1.00  0.00     0.074 A 
ATOM     64  C   UNL A   1      42.556  30.846  36.369  1.00  0.00     0.031 C 
ATOM     65  C   UNL A   1      42.902  29.379  34.400  1.00  0.00     0.037 A 
BRANCH  52  66
ATOM     66  C   UNL A   1      40.607  27.955  28.842  1.00  0.00     0.064 A 
ATOM     67  C   UNL A   1      39.897  26.747  28.759  1.00  0.00     0.173 A 
ATOM     68  C   UNL A   1      41.372  28.342  27.731  1.00  0.00     0.173 A 
ATOM     69  F   UNL A   1      39.159  26.326  29.797  1.00  0.00    -0.203 F 
ATOM     70  C   UNL A   1      39.977  25.945  27.624  1.00  0.00     0.198 A 
ATOM     71  C   UNL A   1      41.424  27.551  26.586  1.00  0.00     0.198 A 
ATOM     72  F   UNL A   1      42.066  29.490  27.754  1.00  0.00    -0.203 F 
ATOM     73  F   UNL A   1      39.332  24.770  27.589  1.00  0.00    -0.200 F 
ATOM     74  C   UNL A   1      40.734  26.350  26.536  1.00  0.00     0.200 A 
ATOM     75  F   UNL A   1      42.148  27.951  25.530  1.00  0.00    -0.200 F 
ATOM     76  F   UNL A   1      40.807  25.579  25.443  1.00  0.00    -0.200 F 
ENDBRANCH  52  66
BRANCH  53  77
ATOM     77  C   UNL A   1      39.576  33.789  36.883  1.00  0.00     0.064 A 
ATOM     78  C   UNL A   1      40.247  35.014  36.997  1.00  0.00     0.173 A 
ATOM     79  C   UNL A   1      38.750  33.396  37.946  1.00  0.00     0.173 A 
ATOM     80  F   UNL A   1      41.064  35.422  36.015  1.00  0.00    -0.203 F 
ATOM     81  C   UNL A   1      40.112  35.808  38.134  1.00  0.00     0.198 A 
ATOM     82  C   UNL A   1      38.593  34.203  39.071  1.00  0.00     0.198 A 
ATOM     83  F   UNL A   1      38.082  32.235  37.885  1.00  0.00    -0.203 F 
ATOM     84  F   UNL A   1      40.798  36.953  38.234  1.00  0.00    -0.200 F 
ATOM     85  C   UNL A   1      39.280  35.404  39.168  1.00  0.00     0.200 A 
ATOM     86  F   UNL A   1      37.777  33.817  40.062  1.00  0.00    -0.200 F 
ATOM     87  F   UNL A   1      39.146  36.169  40.259  1.00  0.00    -0.200 F 
ENDBRANCH  53  77
BRANCH  65  88
ATOM     88  C   UNL A   1      44.090  28.788  35.102  1.00  0.00     0.064 A 
ATOM     89  C   UNL A   1      43.972  27.655  35.920  1.00  0.00     0.173 A 
ATOM     90  C   UNL A   1      45.368  29.340  34.923  1.00  0.00     0.173 A 
ATOM     91  F   UNL A   1      42.769  27.099  36.136  1.00  0.00    -0.203 F 
ATOM     92  C   UNL A   1      45.087  27.109  36.552  1.00  0.00     0.198 A 
ATOM     93  C   UNL A   1      46.484  28.774  35.532  1.00  0.00     0.198 A 
ATOM     94  F   UNL A   1      45.534  30.420  34.146  1.00  0.00    -0.203 F 
ATOM     95  F   UNL A   1      44.945  26.054  37.365  1.00  0.00    -0.200 F 
ATOM     96  C   UNL A   1      46.342  27.664  36.351  1.00  0.00     0.200 A 
ATOM     97  F   UNL A   1      47.698  29.304  35.326  1.00  0.00    -0.200 F 
ATOM     98  F   UNL A   1      47.415  27.134  36.953  1.00  0.00    -0.200 F 
ENDBRANCH  65  88
ENDBRANCH  39  40
ENDBRANCH  31  34
ENDBRANCH  29  30
ENDBRANCH  28  29
ENDBRANCH  27  28
ENDBRANCH  26  27
ENDBRANCH   1  26
TORSDOF 17
ENDMDL
MODEL 3
REMARK VINA RESULT:     -11.8      1.868      7.767
REMARK SMILES CC(=O)Nc1nc(C[N@@H+]2CCO[C@@H](CC(=O)NCCCCCCNC(=O)c3ccc(-c4c5nc(c(-c6c(F)c(F)c(F)c(F)c6F)c6ccc([nH]6)c(-c6c(F)c(F)c(F)c(F)c6F)c6nc(c(-c7c(F)c(F)c(F)c(F)c7F)c7ccc4[nH]7)C=C6)C=C5)cc3)C2)cs1
REMARK SMILES IDX 19 1 18 2 17 3 15 4 16 5 14 7 13 8 9 9 10 10 90 11 11 13
REMARK SMILES IDX 12 14 8 15 7 16 5 17 6 18 92 19 91 20 4 21 1 22 2 23 3 24
REMARK SMILES IDX 20 26 21 27 22 28 23 29 24 30 25 31 26 33 27 34 28 35 89 36
REMARK SMILES IDX 29 37 88 38 30 39 31 40 32 41 82 42 33 43 87 44 81 45 83 46
REMARK SMILES IDX 34 47 86 48 80 49 79 50 35 52 67 53 47 54 66 55 48 56 51 57
REMARK SMILES IDX 65 58 84 59 49 60 50 61 64 63 85 64 52 65 36 66 37 67 45 68
REMARK SMILES IDX 38 69 39 70 43 71 46 72 40 73 41 74 44 75 42 76 68 77 69 78
REMARK SMILES IDX 77 79 70 80 71 81 75 82 78 83 72 84 73 85 76 86 74 87 53 88
REMARK SMILES IDX 54 89 62 90 55 91 56 92 60 93 63 94 57 95 58 96 61 97 59 98
REMARK H PARENT 17 6 9 12 4 25 24 32 83 51 51 62
REMARK Flexibility Score: inf
ROOT
ATOM      1  C   UNL A   1      34.698  31.234  28.016  1.00  0.00     0.021 C 
ENDROOT
BRANCH   1   2
ATOM      2  C   UNL A   1      33.477  30.789  27.204  1.00  0.00     0.116 C 
BRANCH   2   3
ATOM      3  N   UNL A   1      32.850  29.627  27.812  1.00  0.00    -0.356 N 
ATOM      4  C   UNL A   1      32.059  28.662  27.259  1.00  0.00     0.222 C 
ATOM      5  O   UNL A   1      31.547  27.824  28.000  1.00  0.00    -0.275 OA
ATOM      6  H   UNL A   1      33.022  29.518  28.775  1.00  0.00     0.163 HD
BRANCH   4   7
ATOM      7  C   UNL A   1      31.822  28.628  25.766  1.00  0.00     0.138 C 
BRANCH   7   8
ATOM      8  C   UNL A   1      32.856  27.798  25.000  1.00  0.00     0.182 C 
ATOM      9  N   UNL A   1      33.455  25.377  24.387  1.00  0.00    -0.326 N 
ATOM     10  C   UNL A   1      33.440  25.825  22.995  1.00  0.00     0.291 C 
ATOM     11  C   UNL A   1      32.715  26.284  25.268  1.00  0.00     0.295 C 
ATOM     12  H   UNL A   1      32.927  24.505  24.363  1.00  0.00     0.348 HD
ATOM     13  C   UNL A   1      33.562  27.344  22.788  1.00  0.00     0.222 C 
ATOM     14  O   UNL A   1      32.634  28.067  23.600  1.00  0.00    -0.366 OA
BRANCH   9  15
ATOM     15  C   UNL A   1      34.713  24.854  24.924  1.00  0.00     0.320 C 
BRANCH  15  16
ATOM     16  C   UNL A   1      34.585  23.509  25.568  1.00  0.00     0.108 A 
ATOM     17  C   UNL A   1      34.614  21.306  25.537  1.00  0.00     0.189 A 
ATOM     18  N   UNL A   1      34.929  22.371  24.844  1.00  0.00    -0.219 NA
ATOM     19  S   UNL A   1      33.925  21.569  27.071  1.00  0.00    -0.105 S 
ATOM     20  C   UNL A   1      34.170  23.252  26.863  1.00  0.00     0.098 A 
BRANCH  17  21
ATOM     21  N   UNL A   1      34.758  19.993  25.206  1.00  0.00    -0.302 N 
ATOM     22  C   UNL A   1      32.595  19.856  24.001  1.00  0.00     0.114 C 
ATOM     23  C   UNL A   1      33.814  19.216  24.611  1.00  0.00     0.223 C 
ATOM     24  O   UNL A   1      34.015  18.004  24.498  1.00  0.00    -0.275 OA
ATOM     25  H   UNL A   1      35.620  19.569  25.419  1.00  0.00     0.172 HD
ENDBRANCH  17  21
ENDBRANCH  15  16
ENDBRANCH   9  15
ENDBRANCH   7   8
ENDBRANCH   4   7
ENDBRANCH   2   3
ENDBRANCH   1   2
BRANCH   1  26
ATOM     26  C   UNL A   1      34.417  32.356  29.013  1.00  0.00     0.002 C 
BRANCH  26  27
ATOM     27  C   UNL A   1      34.462  33.765  28.418  1.00  0.00     0.002 C 
BRANCH  27  28
ATOM     28  C   UNL A   1      33.209  34.616  28.647  1.00  0.00     0.021 C 
BRANCH  28  29
ATOM     29  C   UNL A   1      33.454  35.950  29.350  1.00  0.00     0.116 C 
BRANCH  29  30
ATOM     30  N   UNL A   1      32.564  36.136  30.484  1.00  0.00    -0.352 N 
ATOM     31  C   UNL A   1      32.619  35.582  31.738  1.00  0.00     0.251 C 
ATOM     32  H   UNL A   1      31.811  36.752  30.330  1.00  0.00     0.163 HD
ATOM     33  O   UNL A   1      31.661  35.669  32.498  1.00  0.00    -0.269 OA
BRANCH  31  34
ATOM     34  C   UNL A   1      33.837  34.868  32.175  1.00  0.00     0.039 A 
ATOM     35  C   UNL A   1      33.728  33.545  32.609  1.00  0.00     0.014 A 
ATOM     36  C   UNL A   1      35.078  35.511  32.182  1.00  0.00     0.014 A 
ATOM     37  C   UNL A   1      34.872  32.850  33.003  1.00  0.00     0.010 A 
ATOM     38  C   UNL A   1      36.227  34.797  32.510  1.00  0.00     0.010 A 
ATOM     39  C   UNL A   1      36.134  33.461  32.930  1.00  0.00    -0.014 A 
BRANCH  39  40
ATOM     40  C   UNL A   1      37.368  32.723  33.298  1.00  0.00     0.031 A 
ATOM     41  C   UNL A   1      38.077  33.036  34.586  1.00  0.00     0.074 A 
ATOM     42  C   UNL A   1      37.882  31.818  32.445  1.00  0.00     0.049 A 
ATOM     43  N   UNL A   1      39.202  32.551  35.051  1.00  0.00    -0.248 NA
ATOM     44  C   UNL A   1      37.456  34.047  35.454  1.00  0.00     0.031 C 
ATOM     45  C   UNL A   1      37.310  31.462  31.146  1.00  0.00     0.029 A 
ATOM     46  N   UNL A   1      39.010  31.041  32.536  1.00  0.00    -0.354 N 
ATOM     47  C   UNL A   1      39.427  33.208  36.254  1.00  0.00     0.074 A 
ATOM     48  C   UNL A   1      38.352  34.162  36.422  1.00  0.00     0.031 C 
ATOM     49  C   UNL A   1      38.078  30.522  30.570  1.00  0.00     0.029 A 
ATOM     50  C   UNL A   1      39.214  30.237  31.442  1.00  0.00     0.049 A 
ATOM     51  H   UNL A   1      39.616  31.059  33.312  1.00  0.00     0.167 HD
ATOM     52  C   UNL A   1      40.426  33.016  37.148  1.00  0.00     0.037 A 
ATOM     53  C   UNL A   1      40.210  29.372  31.170  1.00  0.00     0.037 A 
ATOM     54  C   UNL A   1      41.479  32.047  36.988  1.00  0.00     0.049 A 
ATOM     55  C   UNL A   1      41.310  29.180  32.178  1.00  0.00     0.074 A 
ATOM     56  C   UNL A   1      42.503  31.732  37.864  1.00  0.00     0.029 A 
ATOM     57  N   UNL A   1      41.643  31.238  35.873  1.00  0.00    -0.354 N 
ATOM     58  N   UNL A   1      41.476  29.757  33.342  1.00  0.00    -0.248 NA
ATOM     59  C   UNL A   1      42.359  28.209  31.834  1.00  0.00     0.031 C 
ATOM     60  C   UNL A   1      43.313  30.764  37.260  1.00  0.00     0.029 A 
ATOM     61  C   UNL A   1      42.766  30.440  36.029  1.00  0.00     0.049 A 
ATOM     62  H   UNL A   1      41.050  31.231  35.087  1.00  0.00     0.167 HD
ATOM     63  C   UNL A   1      42.629  29.203  33.882  1.00  0.00     0.074 A 
ATOM     64  C   UNL A   1      43.114  28.232  32.923  1.00  0.00     0.031 C 
ATOM     65  C   UNL A   1      43.231  29.475  35.066  1.00  0.00     0.037 A 
BRANCH  52  66
ATOM     66  C   UNL A   1      40.427  33.871  38.382  1.00  0.00     0.064 A 
ATOM     67  C   UNL A   1      41.140  35.079  38.440  1.00  0.00     0.173 A 
ATOM     68  C   UNL A   1      39.683  33.495  39.510  1.00  0.00     0.173 A 
ATOM     69  F   UNL A   1      41.877  35.479  37.393  1.00  0.00    -0.203 F 
ATOM     70  C   UNL A   1      41.134  35.860  39.593  1.00  0.00     0.198 A 
ATOM     71  C   UNL A   1      39.655  34.295  40.650  1.00  0.00     0.198 A 
ATOM     72  F   UNL A   1      38.977  32.354  39.507  1.00  0.00    -0.203 F 
ATOM     73  F   UNL A   1      41.866  36.982  39.643  1.00  0.00    -0.200 F 
ATOM     74  C   UNL A   1      40.386  35.472  40.694  1.00  0.00     0.200 A 
ATOM     75  F   UNL A   1      38.921  33.924  41.709  1.00  0.00    -0.200 F 
ATOM     76  F   UNL A   1      40.378  36.227  41.801  1.00  0.00    -0.200 F 
ENDBRANCH  52  66
BRANCH  53  77
ATOM     77  C   UNL A   1      40.195  28.602  29.900  1.00  0.00     0.064 A 
ATOM     78  C   UNL A   1      40.811  29.107  28.746  1.00  0.00     0.173 A 
ATOM     79  C   UNL A   1      39.569  27.350  29.810  1.00  0.00     0.173 A 
ATOM     80  F   UNL A   1      41.403  30.309  28.777  1.00  0.00    -0.203 F 
ATOM     81  C   UNL A   1      40.787  28.398  27.547  1.00  0.00     0.198 A 
ATOM     82  C   UNL A   1      39.570  26.629  28.619  1.00  0.00     0.198 A 
ATOM     83  F   UNL A   1      38.970  26.821  30.887  1.00  0.00    -0.203 F 
ATOM     84  F   UNL A   1      41.346  28.923  26.450  1.00  0.00    -0.200 F 
ATOM     85  C   UNL A   1      40.172  27.156  27.486  1.00  0.00     0.200 A 
ATOM     86  F   UNL A   1      38.987  25.423  28.568  1.00  0.00    -0.200 F 
ATOM     87  F   UNL A   1      40.154  26.472  26.335  1.00  0.00    -0.200 F 
ENDBRANCH  53  77
BRANCH  65  88
ATOM     88  C   UNL A   1      44.465  28.689  35.405  1.00  0.00     0.064 A 
ATOM     89  C   UNL A   1      44.395  27.468  36.090  1.00  0.00     0.173 A 
ATOM     90  C   UNL A   1      45.730  29.148  35.005  1.00  0.00     0.173 A 
ATOM     91  F   UNL A   1      43.210  26.995  36.508  1.00  0.00    -0.203 F 
ATOM     92  C   UNL A   1      45.547  26.745  36.384  1.00  0.00     0.198 A 
ATOM     93  C   UNL A   1      46.878  28.407  35.274  1.00  0.00     0.198 A 
ATOM     94  F   UNL A   1      45.851  30.307  34.342  1.00  0.00    -0.203 F 
ATOM     95  F   UNL A   1      45.462  25.603  37.079  1.00  0.00    -0.200 F 
ATOM     96  C   UNL A   1      46.786  27.210  35.968  1.00  0.00     0.200 A 
ATOM     97  F   UNL A   1      48.072  28.852  34.860  1.00  0.00    -0.200 F 
ATOM     98  F   UNL A   1      47.895  26.509  36.244  1.00  0.00    -0.200 F 
ENDBRANCH  65  88
ENDBRANCH  39  40
ENDBRANCH  31  34
ENDBRANCH  29  30
ENDBRANCH  28  29
ENDBRANCH  27  28
ENDBRANCH  26  27
ENDBRANCH   1  26
TORSDOF 17
ENDMDL
