MODEL 1
REMARK VINA RESULT:      -8.7      0.000      0.000
REMARK SMILES CCOc1cccc(OCC)c1-c1ccc([C@@H](C)C(=O)NCCCCCCNC(=O)c2ccc(-c3c4nc(c(-c5c(F)c(F)c(F)c(F)c5F)c5ccc([nH]5)c(-c5c(F)c(F)c(F)c(F)c5F)c5nc(c(-c6c(F)c(F)c(F)c(F)c6F)c6ccc3[nH]6)C=C5)C=C4)cc2)cc1F
REMARK SMILES IDX 23 1 22 2 21 3 19 4 20 5 17 7 18 8 16 9 13 10 14 11 95 12
REMARK SMILES IDX 15 13 94 14 96 15 12 16 4 17 5 18 6 19 8 20 7 21 3 22 2 23
REMARK SMILES IDX 1 24 9 25 10 26 11 27 24 28 25 29 26 30 27 31 28 32 29 33
REMARK SMILES IDX 30 35 31 36 32 37 93 38 33 39 92 40 34 41 35 42 36 43 86 44
REMARK SMILES IDX 37 45 91 46 85 47 87 48 38 49 90 50 84 51 83 52 39 54 71 55
REMARK SMILES IDX 51 56 70 57 52 58 55 59 69 60 88 61 53 62 54 63 68 65 89 66
REMARK SMILES IDX 56 67 40 68 41 69 49 70 42 71 43 72 47 73 50 74 44 75 45 76
REMARK SMILES IDX 48 77 46 78 72 79 73 80 81 81 74 82 75 83 79 84 82 85 76 86
REMARK SMILES IDX 77 87 80 88 78 89 57 90 58 91 66 92 59 93 60 94 64 95 67 96
REMARK SMILES IDX 61 97 62 98 65 99 63 100
REMARK H PARENT 21 6 28 34 87 53 55 64
REMARK Flexibility Score: inf
ROOT
ATOM      1  C   UNL A   1      34.940  32.333  32.038  1.00  0.00     0.021 C 
ENDROOT
BRANCH   1   2
ATOM      2  C   UNL A   1      36.231  32.210  32.871  1.00  0.00     0.116 C 
BRANCH   2   3
ATOM      3  N   UNL A   1      36.650  30.823  33.003  1.00  0.00    -0.356 N 
ATOM      4  C   UNL A   1      37.781  30.199  33.436  1.00  0.00     0.227 C 
ATOM      5  O   UNL A   1      37.784  28.966  33.298  1.00  0.00    -0.274 OA
ATOM      6  H   UNL A   1      35.956  30.189  32.711  1.00  0.00     0.163 HD
BRANCH   4   7
ATOM      7  C   UNL A   1      39.015  30.887  34.065  1.00  0.00     0.105 C 
ATOM      8  C   UNL A   1      39.396  32.217  33.425  1.00  0.00     0.023 C 
BRANCH   7   9
ATOM      9  C   UNL A   1      40.201  29.962  34.279  1.00  0.00    -0.033 A 
ATOM     10  C   UNL A   1      42.306  28.075  34.591  1.00  0.00     0.025 A 
ATOM     11  C   UNL A   1      41.697  28.291  33.359  1.00  0.00     0.012 A 
ATOM     12  C   UNL A   1      41.830  28.816  35.681  1.00  0.00     0.131 A 
ATOM     13  C   UNL A   1      40.757  29.291  33.200  1.00  0.00     0.005 A 
ATOM     14  C   UNL A   1      40.768  29.725  35.539  1.00  0.00     0.044 A 
ATOM     15  F   UNL A   1      42.366  28.647  36.899  1.00  0.00    -0.206 F 
BRANCH  10  16
ATOM     16  C   UNL A   1      43.329  27.027  34.658  1.00  0.00     0.069 A 
ATOM     17  C   UNL A   1      44.686  27.441  34.565  1.00  0.00     0.130 A 
ATOM     18  C   UNL A   1      45.750  26.563  34.776  1.00  0.00     0.047 A 
ATOM     19  C   UNL A   1      45.487  25.242  35.107  1.00  0.00     0.008 A 
ATOM     20  C   UNL A   1      43.074  25.672  34.978  1.00  0.00     0.130 A 
ATOM     21  C   UNL A   1      44.166  24.807  35.191  1.00  0.00     0.047 A 
BRANCH  17  22
ATOM     22  O   UNL A   1      44.975  28.732  34.185  1.00  0.00    -0.493 OA
BRANCH  22  23
ATOM     23  C   UNL A   1      45.820  29.422  35.111  1.00  0.00     0.226 C 
ATOM     24  C   UNL A   1      45.046  30.585  35.715  1.00  0.00     0.049 C 
ENDBRANCH  22  23
ENDBRANCH  17  22
BRANCH  20  25
ATOM     25  O   UNL A   1      41.905  24.976  35.129  1.00  0.00    -0.493 OA
BRANCH  25  26
ATOM     26  C   UNL A   1      41.412  24.452  36.353  1.00  0.00     0.226 C 
ATOM     27  C   UNL A   1      40.907  25.580  37.245  1.00  0.00     0.049 C 
ENDBRANCH  25  26
ENDBRANCH  20  25
ENDBRANCH  10  16
ENDBRANCH   7   9
ENDBRANCH   4   7
ENDBRANCH   2   3
ENDBRANCH   1   2
BRANCH   1  28
ATOM     28  C   UNL A   1      34.516  33.760  31.696  1.00  0.00     0.002 C 
BRANCH  28  29
ATOM     29  C   UNL A   1      34.511  34.087  30.200  1.00  0.00     0.002 C 
BRANCH  29  30
ATOM     30  C   UNL A   1      35.600  33.403  29.366  1.00  0.00     0.021 C 
BRANCH  30  31
ATOM     31  C   UNL A   1      35.174  32.981  27.962  1.00  0.00     0.116 C 
BRANCH  31  32
ATOM     32  N   UNL A   1      34.318  31.804  27.983  1.00  0.00    -0.352 N 
ATOM     33  C   UNL A   1      34.652  30.479  27.980  1.00  0.00     0.251 C 
ATOM     34  H   UNL A   1      33.351  31.992  28.000  1.00  0.00     0.163 HD
ATOM     35  O   UNL A   1      33.786  29.625  27.751  1.00  0.00    -0.269 OA
BRANCH  33  36
ATOM     36  C   UNL A   1      36.039  30.049  28.247  1.00  0.00     0.039 A 
ATOM     37  C   UNL A   1      36.969  30.068  27.204  1.00  0.00     0.014 A 
ATOM     38  C   UNL A   1      36.414  29.588  29.513  1.00  0.00     0.014 A 
ATOM     39  C   UNL A   1      38.288  29.674  27.442  1.00  0.00     0.010 A 
ATOM     40  C   UNL A   1      37.744  29.265  29.766  1.00  0.00     0.010 A 
ATOM     41  C   UNL A   1      38.692  29.296  28.733  1.00  0.00    -0.014 A 
BRANCH  41  42
ATOM     42  C   UNL A   1      40.101  28.921  29.018  1.00  0.00     0.031 A 
ATOM     43  C   UNL A   1      41.019  29.893  29.704  1.00  0.00     0.074 A 
ATOM     44  C   UNL A   1      40.570  27.731  28.599  1.00  0.00     0.049 A 
ATOM     45  N   UNL A   1      42.296  29.779  29.975  1.00  0.00    -0.248 NA
ATOM     46  C   UNL A   1      40.432  31.177  30.114  1.00  0.00     0.031 C 
ATOM     47  C   UNL A   1      39.791  26.724  27.879  1.00  0.00     0.029 A 
ATOM     48  N   UNL A   1      41.819  27.172  28.705  1.00  0.00    -0.354 N 
ATOM     49  C   UNL A   1      42.662  30.975  30.576  1.00  0.00     0.074 A 
ATOM     50  C   UNL A   1      41.492  31.825  30.574  1.00  0.00     0.031 C 
ATOM     51  C   UNL A   1      40.574  25.666  27.618  1.00  0.00     0.029 A 
ATOM     52  C   UNL A   1      41.918  25.933  28.122  1.00  0.00     0.049 A 
ATOM     53  H   UNL A   1      42.572  27.618  29.157  1.00  0.00     0.167 HD
ATOM     54  C   UNL A   1      43.860  31.324  31.107  1.00  0.00     0.037 A 
ATOM     55  C   UNL A   1      42.976  25.110  27.999  1.00  0.00     0.037 A 
ATOM     56  C   UNL A   1      45.019  30.470  31.116  1.00  0.00     0.049 A 
ATOM     57  C   UNL A   1      44.297  25.519  28.590  1.00  0.00     0.074 A 
ATOM     58  C   UNL A   1      46.265  30.709  31.670  1.00  0.00     0.029 A 
ATOM     59  N   UNL A   1      45.075  29.209  30.538  1.00  0.00    -0.354 N 
ATOM     60  N   UNL A   1      44.616  26.625  29.215  1.00  0.00    -0.248 NA
ATOM     61  C   UNL A   1      45.403  24.558  28.467  1.00  0.00     0.031 C 
ATOM     62  C   UNL A   1      47.088  29.613  31.385  1.00  0.00     0.029 A 
ATOM     63  C   UNL A   1      46.340  28.666  30.704  1.00  0.00     0.049 A 
ATOM     64  H   UNL A   1      44.326  28.764  30.079  1.00  0.00     0.167 HD
ATOM     65  C   UNL A   1      45.948  26.487  29.581  1.00  0.00     0.074 A 
ATOM     66  C   UNL A   1      46.374  25.181  29.123  1.00  0.00     0.031 C 
ATOM     67  C   UNL A   1      46.747  27.365  30.240  1.00  0.00     0.037 A 
BRANCH  54  68
ATOM     68  C   UNL A   1      43.970  32.691  31.718  1.00  0.00     0.064 A 
ATOM     69  C   UNL A   1      43.500  32.958  33.015  1.00  0.00     0.173 A 
ATOM     70  C   UNL A   1      44.563  33.747  31.009  1.00  0.00     0.173 A 
ATOM     71  F   UNL A   1      42.915  31.987  33.733  1.00  0.00    -0.203 F 
ATOM     72  C   UNL A   1      43.581  34.237  33.559  1.00  0.00     0.198 A 
ATOM     73  C   UNL A   1      44.674  35.017  31.571  1.00  0.00     0.198 A 
ATOM     74  F   UNL A   1      45.037  33.548  29.770  1.00  0.00    -0.203 F 
ATOM     75  F   UNL A   1      43.067  34.480  34.773  1.00  0.00    -0.200 F 
ATOM     76  C   UNL A   1      44.172  35.264  32.840  1.00  0.00     0.200 A 
ATOM     77  F   UNL A   1      45.258  36.006  30.879  1.00  0.00    -0.200 F 
ATOM     78  F   UNL A   1      44.249  36.494  33.365  1.00  0.00    -0.200 F 
ENDBRANCH  54  68
BRANCH  55  79
ATOM     79  C   UNL A   1      42.815  23.806  27.305  1.00  0.00     0.064 A 
ATOM     80  C   UNL A   1      43.193  23.651  25.964  1.00  0.00     0.173 A 
ATOM     81  C   UNL A   1      42.302  22.684  27.972  1.00  0.00     0.173 A 
ATOM     82  F   UNL A   1      43.673  24.700  25.279  1.00  0.00    -0.203 F 
ATOM     83  C   UNL A   1      43.051  22.428  25.313  1.00  0.00     0.198 A 
ATOM     84  C   UNL A   1      42.186  21.454  27.328  1.00  0.00     0.198 A 
ATOM     85  F   UNL A   1      41.933  22.778  29.258  1.00  0.00    -0.203 F 
ATOM     86  F   UNL A   1      43.387  22.316  24.021  1.00  0.00    -0.200 F 
ATOM     87  C   UNL A   1      42.555  21.328  25.997  1.00  0.00     0.200 A 
ATOM     88  F   UNL A   1      41.723  20.391  27.999  1.00  0.00    -0.200 F 
ATOM     89  F   UNL A   1      42.430  20.148  25.374  1.00  0.00    -0.200 F 
ENDBRANCH  55  79
BRANCH  67  90
ATOM     90  C   UNL A   1      48.155  26.928  30.528  1.00  0.00     0.064 A 
ATOM     91  C   UNL A   1      49.240  27.387  29.766  1.00  0.00     0.173 A 
ATOM     92  C   UNL A   1      48.426  26.071  31.605  1.00  0.00     0.173 A 
ATOM     93  F   UNL A   1      49.034  28.197  28.717  1.00  0.00    -0.203 F 
ATOM     94  C   UNL A   1      50.541  26.983  30.058  1.00  0.00     0.198 A 
ATOM     95  C   UNL A   1      49.729  25.694  31.912  1.00  0.00     0.198 A 
ATOM     96  F   UNL A   1      47.424  25.607  32.369  1.00  0.00    -0.203 F 
ATOM     97  F   UNL A   1      51.556  27.396  29.287  1.00  0.00    -0.200 F 
ATOM     98  C   UNL A   1      50.785  26.144  31.134  1.00  0.00     0.200 A 
ATOM     99  F   UNL A   1      49.965  24.894  32.962  1.00  0.00    -0.200 F 
ATOM    100  F   UNL A   1      52.037  25.763  31.418  1.00  0.00    -0.200 F 
ENDBRANCH  67  90
ENDBRANCH  41  42
ENDBRANCH  33  36
ENDBRANCH  31  32
ENDBRANCH  30  31
ENDBRANCH  29  30
ENDBRANCH  28  29
ENDBRANCH   1  28
TORSDOF 19
ENDMDL
MODEL 2
REMARK VINA RESULT:      -8.7      4.050      8.335
REMARK SMILES CCOc1cccc(OCC)c1-c1ccc([C@@H](C)C(=O)NCCCCCCNC(=O)c2ccc(-c3c4nc(c(-c5c(F)c(F)c(F)c(F)c5F)c5ccc([nH]5)c(-c5c(F)c(F)c(F)c(F)c5F)c5nc(c(-c6c(F)c(F)c(F)c(F)c6F)c6ccc3[nH]6)C=C5)C=C4)cc2)cc1F
REMARK SMILES IDX 23 1 22 2 21 3 19 4 20 5 17 7 18 8 16 9 13 10 14 11 95 12
REMARK SMILES IDX 15 13 94 14 96 15 12 16 4 17 5 18 6 19 8 20 7 21 3 22 2 23
REMARK SMILES IDX 1 24 9 25 10 26 11 27 24 28 25 29 26 30 27 31 28 32 29 33
REMARK SMILES IDX 30 35 31 36 32 37 93 38 33 39 92 40 34 41 35 42 36 43 86 44
REMARK SMILES IDX 37 45 91 46 85 47 87 48 38 49 90 50 84 51 83 52 39 54 71 55
REMARK SMILES IDX 51 56 70 57 52 58 55 59 69 60 88 61 53 62 54 63 68 65 89 66
REMARK SMILES IDX 56 67 40 68 41 69 49 70 42 71 43 72 47 73 50 74 44 75 45 76
REMARK SMILES IDX 48 77 46 78 72 79 73 80 81 81 74 82 75 83 79 84 82 85 76 86
REMARK SMILES IDX 77 87 80 88 78 89 57 90 58 91 66 92 59 93 60 94 64 95 67 96
REMARK SMILES IDX 61 97 62 98 65 99 63 100
REMARK H PARENT 21 6 28 34 87 53 55 64
REMARK Flexibility Score: inf
ROOT
ATOM      1  C   UNL A   1      39.785  27.884  28.362  1.00  0.00     0.021 C 
ENDROOT
BRANCH   1   2
ATOM      2  C   UNL A   1      40.977  28.792  28.001  1.00  0.00     0.116 C 
BRANCH   2   3
ATOM      3  N   UNL A   1      41.297  28.713  26.583  1.00  0.00    -0.356 N 
ATOM      4  C   UNL A   1      42.346  28.230  25.861  1.00  0.00     0.227 C 
ATOM      5  O   UNL A   1      42.285  28.443  24.641  1.00  0.00    -0.274 OA
ATOM      6  H   UNL A   1      40.591  29.097  26.015  1.00  0.00     0.163 HD
BRANCH   4   7
ATOM      7  C   UNL A   1      43.564  27.463  26.428  1.00  0.00     0.105 C 
ATOM      8  C   UNL A   1      44.906  27.873  25.833  1.00  0.00     0.023 C 
BRANCH   7   9
ATOM      9  C   UNL A   1      43.373  25.958  26.498  1.00  0.00    -0.033 A 
ATOM     10  C   UNL A   1      42.838  23.165  26.514  1.00  0.00     0.025 A 
ATOM     11  C   UNL A   1      42.890  23.890  25.328  1.00  0.00     0.012 A 
ATOM     12  C   UNL A   1      43.045  23.869  27.708  1.00  0.00     0.131 A 
ATOM     13  C   UNL A   1      43.264  25.220  25.329  1.00  0.00     0.005 A 
ATOM     14  C   UNL A   1      43.277  25.255  27.707  1.00  0.00     0.044 A 
ATOM     15  F   UNL A   1      42.996  23.231  28.887  1.00  0.00    -0.206 F 
BRANCH  10  16
ATOM     16  C   UNL A   1      42.481  21.746  26.417  1.00  0.00     0.069 A 
ATOM     17  C   UNL A   1      41.154  21.387  26.780  1.00  0.00     0.130 A 
ATOM     18  C   UNL A   1      40.646  20.102  26.578  1.00  0.00     0.047 A 
ATOM     19  C   UNL A   1      41.449  19.139  25.987  1.00  0.00     0.008 A 
ATOM     20  C   UNL A   1      43.295  20.748  25.830  1.00  0.00     0.130 A 
ATOM     21  C   UNL A   1      42.758  19.461  25.633  1.00  0.00     0.047 A 
BRANCH  17  22
ATOM     22  O   UNL A   1      40.354  22.307  27.419  1.00  0.00    -0.493 OA
BRANCH  22  23
ATOM     23  C   UNL A   1      39.343  22.866  26.574  1.00  0.00     0.226 C 
ATOM     24  C   UNL A   1      39.295  24.372  26.790  1.00  0.00     0.049 C 
ENDBRANCH  22  23
ENDBRANCH  17  22
BRANCH  20  25
ATOM     25  O   UNL A   1      44.591  20.774  25.389  1.00  0.00    -0.493 OA
BRANCH  25  26
ATOM     26  C   UNL A   1      45.224  19.750  24.636  1.00  0.00     0.226 C 
ATOM     27  C   UNL A   1      46.415  19.190  25.404  1.00  0.00     0.049 C 
ENDBRANCH  25  26
ENDBRANCH  20  25
ENDBRANCH  10  16
ENDBRANCH   7   9
ENDBRANCH   4   7
ENDBRANCH   2   3
ENDBRANCH   1   2
BRANCH   1  28
ATOM     28  C   UNL A   1      38.523  28.614  28.819  1.00  0.00     0.002 C 
BRANCH  28  29
ATOM     29  C   UNL A   1      38.221  29.910  28.060  1.00  0.00     0.002 C 
BRANCH  29  30
ATOM     30  C   UNL A   1      36.832  29.996  27.418  1.00  0.00     0.021 C 
BRANCH  30  31
ATOM     31  C   UNL A   1      35.661  29.770  28.371  1.00  0.00     0.116 C 
BRANCH  31  32
ATOM     32  N   UNL A   1      34.983  31.014  28.706  1.00  0.00    -0.352 N 
ATOM     33  C   UNL A   1      35.113  31.813  29.807  1.00  0.00     0.251 C 
ATOM     34  H   UNL A   1      34.330  31.326  28.038  1.00  0.00     0.163 HD
ATOM     35  O   UNL A   1      34.277  32.696  30.031  1.00  0.00    -0.269 OA
BRANCH  33  36
ATOM     36  C   UNL A   1      36.243  31.634  30.740  1.00  0.00     0.039 A 
ATOM     37  C   UNL A   1      36.129  30.703  31.777  1.00  0.00     0.014 A 
ATOM     38  C   UNL A   1      37.400  32.411  30.620  1.00  0.00     0.014 A 
ATOM     39  C   UNL A   1      37.194  30.515  32.662  1.00  0.00     0.010 A 
ATOM     40  C   UNL A   1      38.486  32.172  31.457  1.00  0.00     0.010 A 
ATOM     41  C   UNL A   1      38.392  31.228  32.491  1.00  0.00    -0.014 A 
BRANCH  41  42
ATOM     42  C   UNL A   1      39.553  31.007  33.391  1.00  0.00     0.031 A 
ATOM     43  C   UNL A   1      39.697  31.811  34.652  1.00  0.00     0.074 A 
ATOM     44  C   UNL A   1      40.510  30.130  33.037  1.00  0.00     0.049 A 
ATOM     45  N   UNL A   1      40.672  31.816  35.527  1.00  0.00    -0.248 NA
ATOM     46  C   UNL A   1      38.615  32.760  34.956  1.00  0.00     0.031 C 
ATOM     47  C   UNL A   1      40.509  29.328  31.814  1.00  0.00     0.029 A 
ATOM     48  N   UNL A   1      41.679  29.777  33.666  1.00  0.00    -0.354 N 
ATOM     49  C   UNL A   1      40.324  32.768  36.475  1.00  0.00     0.074 A 
ATOM     50  C   UNL A   1      39.082  33.367  36.036  1.00  0.00     0.031 C 
ATOM     51  C   UNL A   1      41.614  28.567  31.786  1.00  0.00     0.029 A 
ATOM     52  C   UNL A   1      42.419  28.853  32.970  1.00  0.00     0.049 A 
ATOM     53  H   UNL A   1      41.959  30.151  34.533  1.00  0.00     0.167 HD
ATOM     54  C   UNL A   1      40.968  33.096  37.621  1.00  0.00     0.037 A 
ATOM     55  C   UNL A   1      43.616  28.305  33.253  1.00  0.00     0.037 A 
ATOM     56  C   UNL A   1      42.199  32.490  38.058  1.00  0.00     0.049 A 
ATOM     57  C   UNL A   1      44.317  28.687  34.527  1.00  0.00     0.074 A 
ATOM     58  C   UNL A   1      42.908  32.717  39.226  1.00  0.00     0.029 A 
ATOM     59  N   UNL A   1      42.908  31.537  37.339  1.00  0.00    -0.354 N 
ATOM     60  N   UNL A   1      43.947  29.541  35.449  1.00  0.00    -0.248 NA
ATOM     61  C   UNL A   1      45.597  28.021  34.804  1.00  0.00     0.031 C 
ATOM     62  C   UNL A   1      44.069  31.936  39.191  1.00  0.00     0.029 A 
ATOM     63  C   UNL A   1      44.057  31.181  38.029  1.00  0.00     0.049 A 
ATOM     64  H   UNL A   1      42.635  31.167  36.469  1.00  0.00     0.167 HD
ATOM     65  C   UNL A   1      44.932  29.499  36.427  1.00  0.00     0.074 A 
ATOM     66  C   UNL A   1      45.909  28.522  35.992  1.00  0.00     0.031 C 
ATOM     67  C   UNL A   1      45.019  30.206  37.582  1.00  0.00     0.037 A 
BRANCH  54  68
ATOM     68  C   UNL A   1      40.349  34.163  38.479  1.00  0.00     0.064 A 
ATOM     69  C   UNL A   1      40.699  35.516  38.338  1.00  0.00     0.173 A 
ATOM     70  C   UNL A   1      39.384  33.835  39.444  1.00  0.00     0.173 A 
ATOM     71  F   UNL A   1      41.623  35.884  37.438  1.00  0.00    -0.203 F 
ATOM     72  C   UNL A   1      40.139  36.491  39.160  1.00  0.00     0.198 A 
ATOM     73  C   UNL A   1      38.801  34.818  40.240  1.00  0.00     0.198 A 
ATOM     74  F   UNL A   1      39.005  32.559  39.616  1.00  0.00    -0.203 F 
ATOM     75  F   UNL A   1      40.538  37.766  39.049  1.00  0.00    -0.200 F 
ATOM     76  C   UNL A   1      39.187  36.144  40.105  1.00  0.00     0.200 A 
ATOM     77  F   UNL A   1      37.871  34.482  41.144  1.00  0.00    -0.200 F 
ATOM     78  F   UNL A   1      38.650  37.083  40.895  1.00  0.00    -0.200 F 
ENDBRANCH  54  68
BRANCH  55  79
ATOM     79  C   UNL A   1      44.211  27.319  32.314  1.00  0.00     0.064 A 
ATOM     80  C   UNL A   1      44.073  25.941  32.531  1.00  0.00     0.173 A 
ATOM     81  C   UNL A   1      44.908  27.732  31.169  1.00  0.00     0.173 A 
ATOM     82  F   UNL A   1      43.429  25.498  33.621  1.00  0.00    -0.203 F 
ATOM     83  C   UNL A   1      44.622  25.014  31.648  1.00  0.00     0.198 A 
ATOM     84  C   UNL A   1      45.432  26.804  30.271  1.00  0.00     0.198 A 
ATOM     85  F   UNL A   1      45.061  29.039  30.911  1.00  0.00    -0.203 F 
ATOM     86  F   UNL A   1      44.506  23.703  31.899  1.00  0.00    -0.200 F 
ATOM     87  C   UNL A   1      45.294  25.446  30.515  1.00  0.00     0.200 A 
ATOM     88  F   UNL A   1      46.066  27.226  29.169  1.00  0.00    -0.200 F 
ATOM     89  F   UNL A   1      45.812  24.554  29.659  1.00  0.00    -0.200 F 
ENDBRANCH  55  79
BRANCH  67  90
ATOM     90  C   UNL A   1      46.198  29.928  38.470  1.00  0.00     0.064 A 
ATOM     91  C   UNL A   1      46.182  28.891  39.414  1.00  0.00     0.173 A 
ATOM     92  C   UNL A   1      47.374  30.684  38.345  1.00  0.00     0.173 A 
ATOM     93  F   UNL A   1      45.077  28.149  39.582  1.00  0.00    -0.203 F 
ATOM     94  C   UNL A   1      47.290  28.639  40.219  1.00  0.00     0.198 A 
ATOM     95  C   UNL A   1      48.490  30.409  39.129  1.00  0.00     0.198 A 
ATOM     96  F   UNL A   1      47.444  31.684  37.453  1.00  0.00    -0.203 F 
ATOM     97  F   UNL A   1      47.234  27.675  41.147  1.00  0.00    -0.200 F 
ATOM     98  C   UNL A   1      48.445  29.392  40.070  1.00  0.00     0.200 A 
ATOM     99  F   UNL A   1      49.610  31.129  38.975  1.00  0.00    -0.200 F 
ATOM    100  F   UNL A   1      49.513  29.142  40.840  1.00  0.00    -0.200 F 
ENDBRANCH  67  90
ENDBRANCH  41  42
ENDBRANCH  33  36
ENDBRANCH  31  32
ENDBRANCH  30  31
ENDBRANCH  29  30
ENDBRANCH  28  29
ENDBRANCH   1  28
TORSDOF 19
ENDMDL
MODEL 3
REMARK VINA RESULT:      -8.4      3.762     10.578
REMARK SMILES CCOc1cccc(OCC)c1-c1ccc([C@@H](C)C(=O)NCCCCCCNC(=O)c2ccc(-c3c4nc(c(-c5c(F)c(F)c(F)c(F)c5F)c5ccc([nH]5)c(-c5c(F)c(F)c(F)c(F)c5F)c5nc(c(-c6c(F)c(F)c(F)c(F)c6F)c6ccc3[nH]6)C=C5)C=C4)cc2)cc1F
REMARK SMILES IDX 23 1 22 2 21 3 19 4 20 5 17 7 18 8 16 9 13 10 14 11 95 12
REMARK SMILES IDX 15 13 94 14 96 15 12 16 4 17 5 18 6 19 8 20 7 21 3 22 2 23
REMARK SMILES IDX 1 24 9 25 10 26 11 27 24 28 25 29 26 30 27 31 28 32 29 33
REMARK SMILES IDX 30 35 31 36 32 37 93 38 33 39 92 40 34 41 35 42 36 43 86 44
REMARK SMILES IDX 37 45 91 46 85 47 87 48 38 49 90 50 84 51 83 52 39 54 71 55
REMARK SMILES IDX 51 56 70 57 52 58 55 59 69 60 88 61 53 62 54 63 68 65 89 66
REMARK SMILES IDX 56 67 40 68 41 69 49 70 42 71 43 72 47 73 50 74 44 75 45 76
REMARK SMILES IDX 48 77 46 78 72 79 73 80 81 81 74 82 75 83 79 84 82 85 76 86
REMARK SMILES IDX 77 87 80 88 78 89 57 90 58 91 66 92 59 93 60 94 64 95 67 96
REMARK SMILES IDX 61 97 62 98 65 99 63 100
REMARK H PARENT 21 6 28 34 87 53 55 64
REMARK Flexibility Score: inf
ROOT
ATOM      1  C   UNL A   1      41.866  24.430  28.009  1.00  0.00     0.021 C 
ENDROOT
BRANCH   1   2
ATOM      2  C   UNL A   1      40.802  25.544  27.941  1.00  0.00     0.116 C 
BRANCH   2   3
ATOM      3  N   UNL A   1      40.916  26.458  29.067  1.00  0.00    -0.356 N 
ATOM      4  C   UNL A   1      40.398  27.683  29.366  1.00  0.00     0.227 C 
ATOM      5  O   UNL A   1      40.825  28.190  30.414  1.00  0.00    -0.274 OA
ATOM      6  H   UNL A   1      41.503  26.112  29.778  1.00  0.00     0.163 HD
BRANCH   4   7
ATOM      7  C   UNL A   1      39.357  28.458  28.526  1.00  0.00     0.105 C 
ATOM      8  C   UNL A   1      39.879  28.986  27.195  1.00  0.00     0.023 C 
BRANCH   7   9
ATOM      9  C   UNL A   1      38.568  29.491  29.314  1.00  0.00    -0.033 A 
ATOM     10  C   UNL A   1      36.922  31.372  30.670  1.00  0.00     0.025 A 
ATOM     11  C   UNL A   1      36.556  30.035  30.551  1.00  0.00     0.012 A 
ATOM     12  C   UNL A   1      38.132  31.762  30.079  1.00  0.00     0.131 A 
ATOM     13  C   UNL A   1      37.419  29.113  29.991  1.00  0.00     0.005 A 
ATOM     14  C   UNL A   1      38.933  30.843  29.380  1.00  0.00     0.044 A 
ATOM     15  F   UNL A   1      38.538  33.038  30.148  1.00  0.00    -0.206 F 
BRANCH  10  16
ATOM     16  C   UNL A   1      35.967  32.272  31.322  1.00  0.00     0.069 A 
ATOM     17  C   UNL A   1      35.977  32.305  32.744  1.00  0.00     0.130 A 
ATOM     18  C   UNL A   1      35.232  33.234  33.474  1.00  0.00     0.047 A 
ATOM     19  C   UNL A   1      34.468  34.173  32.800  1.00  0.00     0.008 A 
ATOM     20  C   UNL A   1      35.168  33.226  30.648  1.00  0.00     0.130 A 
ATOM     21  C   UNL A   1      34.430  34.155  31.407  1.00  0.00     0.047 A 
BRANCH  17  22
ATOM     22  O   UNL A   1      36.683  31.350  33.438  1.00  0.00    -0.493 OA
BRANCH  22  23
ATOM     23  C   UNL A   1      37.711  31.895  34.272  1.00  0.00     0.226 C 
ATOM     24  C   UNL A   1      39.066  31.459  33.735  1.00  0.00     0.049 C 
ENDBRANCH  22  23
ENDBRANCH  17  22
BRANCH  20  25
ATOM     25  O   UNL A   1      34.942  33.445  29.315  1.00  0.00    -0.493 OA
BRANCH  25  26
ATOM     26  C   UNL A   1      34.088  32.669  28.487  1.00  0.00     0.226 C 
ATOM     27  C   UNL A   1      34.900  31.635  27.716  1.00  0.00     0.049 C 
ENDBRANCH  25  26
ENDBRANCH  20  25
ENDBRANCH  10  16
ENDBRANCH   7   9
ENDBRANCH   4   7
ENDBRANCH   2   3
ENDBRANCH   1   2
BRANCH   1  28
ATOM     28  C   UNL A   1      43.272  24.891  28.389  1.00  0.00     0.002 C 
BRANCH  28  29
ATOM     29  C   UNL A   1      44.309  23.770  28.488  1.00  0.00     0.002 C 
BRANCH  29  30
ATOM     30  C   UNL A   1      45.290  23.665  27.315  1.00  0.00     0.021 C 
BRANCH  30  31
ATOM     31  C   UNL A   1      44.707  24.014  25.948  1.00  0.00     0.116 C 
BRANCH  31  32
ATOM     32  N   UNL A   1      45.689  24.653  25.084  1.00  0.00    -0.352 N 
ATOM     33  C   UNL A   1      46.079  25.962  25.022  1.00  0.00     0.251 C 
ATOM     34  H   UNL A   1      46.138  24.052  24.447  1.00  0.00     0.163 HD
ATOM     35  O   UNL A   1      46.744  26.361  24.058  1.00  0.00    -0.269 OA
BRANCH  33  36
ATOM     36  C   UNL A   1      45.715  26.910  26.093  1.00  0.00     0.039 A 
ATOM     37  C   UNL A   1      44.423  27.444  26.119  1.00  0.00     0.014 A 
ATOM     38  C   UNL A   1      46.656  27.306  27.048  1.00  0.00     0.014 A 
ATOM     39  C   UNL A   1      44.060  28.335  27.132  1.00  0.00     0.010 A 
ATOM     40  C   UNL A   1      46.273  28.137  28.097  1.00  0.00     0.010 A 
ATOM     41  C   UNL A   1      44.974  28.666  28.145  1.00  0.00    -0.014 A 
BRANCH  41  42
ATOM     42  C   UNL A   1      44.593  29.573  29.258  1.00  0.00     0.031 A 
ATOM     43  C   UNL A   1      44.231  29.010  30.603  1.00  0.00     0.074 A 
ATOM     44  C   UNL A   1      44.508  30.898  29.036  1.00  0.00     0.049 A 
ATOM     45  N   UNL A   1      43.804  29.630  31.675  1.00  0.00    -0.248 NA
ATOM     46  C   UNL A   1      44.335  27.551  30.757  1.00  0.00     0.031 C 
ATOM     47  C   UNL A   1      44.784  31.559  27.761  1.00  0.00     0.029 A 
ATOM     48  N   UNL A   1      44.149  31.925  29.874  1.00  0.00    -0.354 N 
ATOM     49  C   UNL A   1      43.582  28.639  32.621  1.00  0.00     0.074 A 
ATOM     50  C   UNL A   1      43.859  27.373  31.979  1.00  0.00     0.031 C 
ATOM     51  C   UNL A   1      44.598  32.881  27.902  1.00  0.00     0.029 A 
ATOM     52  C   UNL A   1      44.156  33.156  29.266  1.00  0.00     0.049 A 
ATOM     53  H   UNL A   1      43.911  31.792  30.819  1.00  0.00     0.167 HD
ATOM     54  C   UNL A   1      43.205  28.774  33.917  1.00  0.00     0.037 A 
ATOM     55  C   UNL A   1      43.834  34.370  29.752  1.00  0.00     0.037 A 
ATOM     56  C   UNL A   1      42.941  30.038  34.553  1.00  0.00     0.049 A 
ATOM     57  C   UNL A   1      43.414  34.497  31.190  1.00  0.00     0.074 A 
ATOM     58  C   UNL A   1      42.601  30.287  35.872  1.00  0.00     0.029 A 
ATOM     59  N   UNL A   1      42.984  31.269  33.912  1.00  0.00    -0.354 N 
ATOM     60  N   UNL A   1      43.270  33.560  32.095  1.00  0.00    -0.248 NA
ATOM     61  C   UNL A   1      43.121  35.852  31.677  1.00  0.00     0.031 C 
ATOM     62  C   UNL A   1      42.391  31.664  36.017  1.00  0.00     0.029 A 
ATOM     63  C   UNL A   1      42.655  32.279  34.803  1.00  0.00     0.049 A 
ATOM     64  H   UNL A   1      43.214  31.405  32.965  1.00  0.00     0.167 HD
ATOM     65  C   UNL A   1      42.895  34.211  33.263  1.00  0.00     0.074 A 
ATOM     66  C   UNL A   1      42.849  35.625  32.956  1.00  0.00     0.031 C 
ATOM     67  C   UNL A   1      42.614  33.683  34.481  1.00  0.00     0.037 A 
BRANCH  54  68
ATOM     68  C   UNL A   1      43.057  27.517  34.725  1.00  0.00     0.064 A 
ATOM     69  C   UNL A   1      41.842  26.814  34.777  1.00  0.00     0.173 A 
ATOM     70  C   UNL A   1      44.143  26.999  35.448  1.00  0.00     0.173 A 
ATOM     71  F   UNL A   1      40.770  27.271  34.113  1.00  0.00    -0.203 F 
ATOM     72  C   UNL A   1      41.710  25.666  35.555  1.00  0.00     0.198 A 
ATOM     73  C   UNL A   1      44.015  25.830  36.197  1.00  0.00     0.198 A 
ATOM     74  F   UNL A   1      45.329  27.624  35.428  1.00  0.00    -0.203 F 
ATOM     75  F   UNL A   1      40.522  25.050  35.638  1.00  0.00    -0.200 F 
ATOM     76  C   UNL A   1      42.796  25.172  36.259  1.00  0.00     0.200 A 
ATOM     77  F   UNL A   1      45.071  25.347  36.866  1.00  0.00    -0.200 F 
ATOM     78  F   UNL A   1      42.667  24.068  37.006  1.00  0.00    -0.200 F 
ENDBRANCH  54  68
BRANCH  55  79
ATOM     79  C   UNL A   1      43.922  35.561  28.869  1.00  0.00     0.064 A 
ATOM     80  C   UNL A   1      45.134  36.241  28.692  1.00  0.00     0.173 A 
ATOM     81  C   UNL A   1      42.802  36.030  28.165  1.00  0.00     0.173 A 
ATOM     82  F   UNL A   1      46.228  35.841  29.356  1.00  0.00    -0.203 F 
ATOM     83  C   UNL A   1      45.221  37.354  27.857  1.00  0.00     0.198 A 
ATOM     84  C   UNL A   1      42.896  37.125  27.308  1.00  0.00     0.198 A 
ATOM     85  F   UNL A   1      41.621  35.409  28.293  1.00  0.00    -0.203 F 
ATOM     86  F   UNL A   1      46.384  38.006  27.734  1.00  0.00    -0.200 F 
ATOM     87  C   UNL A   1      44.105  37.789  27.160  1.00  0.00     0.200 A 
ATOM     88  F   UNL A   1      41.819  37.531  26.624  1.00  0.00    -0.200 F 
ATOM     89  F   UNL A   1      44.191  38.851  26.347  1.00  0.00    -0.200 F 
ENDBRANCH  55  79
BRANCH  67  90
ATOM     90  C   UNL A   1      42.259  34.643  35.580  1.00  0.00     0.064 A 
ATOM     91  C   UNL A   1      43.241  35.241  36.383  1.00  0.00     0.173 A 
ATOM     92  C   UNL A   1      40.920  34.999  35.806  1.00  0.00     0.173 A 
ATOM     93  F   UNL A   1      44.533  34.924  36.217  1.00  0.00    -0.203 F 
ATOM     94  C   UNL A   1      42.894  36.141  37.388  1.00  0.00     0.198 A 
ATOM     95  C   UNL A   1      40.580  35.922  36.789  1.00  0.00     0.198 A 
ATOM     96  F   UNL A   1      39.942  34.460  35.061  1.00  0.00    -0.203 F 
ATOM     97  F   UNL A   1      43.844  36.663  38.173  1.00  0.00    -0.200 F 
ATOM     98  C   UNL A   1      41.565  36.486  37.584  1.00  0.00     0.200 A 
ATOM     99  F   UNL A   1      39.296  36.265  36.970  1.00  0.00    -0.200 F 
ATOM    100  F   UNL A   1      41.234  37.358  38.546  1.00  0.00    -0.200 F 
ENDBRANCH  67  90
ENDBRANCH  41  42
ENDBRANCH  33  36
ENDBRANCH  31  32
ENDBRANCH  30  31
ENDBRANCH  29  30
ENDBRANCH  28  29
ENDBRANCH   1  28
TORSDOF 19
ENDMDL
