MODEL 1
REMARK VINA RESULT:     -11.6      0.000      0.000
REMARK SMILES CCN(CC)C(=O)C[C@](C)(C(=O)NCCCCCCNC(=O)c1ccc(-c2c3nc(c(-c4c(F)c(F)c(F)c(F)c4F)c4ccc([nH]4)c(-c4c(F)c(F)c(F)c(F)c4F)c4nc(c(-c5c(F)c(F)c(F)c(F)c5F)c5ccc2[nH]5)C=C4)C=C3)cc1)c1ccccc1
REMARK SMILES IDX 16 1 15 2 14 3 13 4 11 5 12 6 9 8 10 9 8 10 6 11 3 12 7 13
REMARK SMILES IDX 2 14 1 15 4 16 5 17 86 18 87 19 91 20 88 21 90 22 89 23
REMARK SMILES IDX 17 24 18 25 19 26 20 27 21 28 22 30 23 31 24 32 85 33 25 34
REMARK SMILES IDX 84 35 26 36 27 37 28 38 78 39 29 40 83 41 77 42 79 43 30 44
REMARK SMILES IDX 82 45 76 46 75 47 31 49 63 50 43 51 62 52 44 53 47 54 61 55
REMARK SMILES IDX 80 56 45 57 46 58 60 60 81 61 48 62 32 63 33 64 41 65 34 66
REMARK SMILES IDX 35 67 39 68 42 69 36 70 37 71 40 72 38 73 64 74 65 75 73 76
REMARK SMILES IDX 66 77 67 78 71 79 74 80 68 81 69 82 72 83 70 84 49 85 50 86
REMARK SMILES IDX 58 87 51 88 52 89 56 90 59 91 53 92 54 93 57 94 55 95
REMARK H PARENT 13 7 20 29 79 48 47 59
REMARK Flexibility Score: inf
ROOT
ATOM      1  C   UNL A   1      32.521  29.801  27.162  1.00  0.00     0.002 C 
ENDROOT
BRANCH   1   2
ATOM      2  C   UNL A   1      31.916  28.469  27.627  1.00  0.00     0.021 C 
BRANCH   2   3
ATOM      3  C   UNL A   1      31.371  27.629  26.471  1.00  0.00     0.116 C 
BRANCH   3   4
ATOM      4  N   UNL A   1      32.470  27.150  25.656  1.00  0.00    -0.355 N 
ATOM      5  C   UNL A   1      32.563  26.179  24.703  1.00  0.00     0.230 C 
ATOM      6  O   UNL A   1      33.723  25.845  24.444  1.00  0.00    -0.274 OA
ATOM      7  H   UNL A   1      33.320  27.619  25.825  1.00  0.00     0.163 HD
BRANCH   5   8
ATOM      8  C   UNL A   1      31.302  25.573  23.995  1.00  0.00     0.080 C 
ATOM      9  C   UNL A   1      31.853  24.818  22.745  1.00  0.00     0.027 C 
BRANCH   8  10
ATOM     10  C   UNL A   1      30.655  24.560  24.999  1.00  0.00     0.121 C 
BRANCH  10  11
ATOM     11  C   UNL A   1      31.465  23.883  26.088  1.00  0.00     0.223 C 
ATOM     12  N   UNL A   1      32.271  22.772  25.866  1.00  0.00    -0.343 N 
ATOM     13  O   UNL A   1      31.316  24.340  27.231  1.00  0.00    -0.275 OA
BRANCH  12  14
ATOM     14  C   UNL A   1      33.181  22.397  26.966  1.00  0.00     0.116 C 
ATOM     15  C   UNL A   1      34.605  22.945  26.883  1.00  0.00     0.027 C 
ENDBRANCH  12  14
BRANCH  12  16
ATOM     16  C   UNL A   1      32.351  21.878  24.691  1.00  0.00     0.116 C 
ATOM     17  C   UNL A   1      32.168  20.380  24.854  1.00  0.00     0.027 C 
ENDBRANCH  12  16
ENDBRANCH  10  11
ENDBRANCH   8  10
BRANCH   8  18
ATOM     18  C   UNL A   1      30.306  26.677  23.527  1.00  0.00    -0.032 A 
ATOM     19  C   UNL A   1      28.941  26.688  23.877  1.00  0.00     0.005 A 
ATOM     20  C   UNL A   1      30.745  27.760  22.745  1.00  0.00     0.005 A 
ATOM     21  C   UNL A   1      28.089  27.736  23.499  1.00  0.00     0.000 A 
ATOM     22  C   UNL A   1      29.913  28.828  22.402  1.00  0.00     0.000 A 
ATOM     23  C   UNL A   1      28.581  28.820  22.783  1.00  0.00     0.000 A 
ENDBRANCH   8  18
ENDBRANCH   5   8
ENDBRANCH   3   4
ENDBRANCH   2   3
ENDBRANCH   1   2
BRANCH   1  24
ATOM     24  C   UNL A   1      31.611  30.624  26.242  1.00  0.00     0.002 C 
BRANCH  24  25
ATOM     25  C   UNL A   1      31.404  32.073  26.688  1.00  0.00     0.021 C 
BRANCH  25  26
ATOM     26  C   UNL A   1      32.655  32.730  27.256  1.00  0.00     0.116 C 
BRANCH  26  27
ATOM     27  N   UNL A   1      32.423  34.123  27.602  1.00  0.00    -0.352 N 
ATOM     28  C   UNL A   1      32.988  34.872  28.603  1.00  0.00     0.251 C 
ATOM     29  H   UNL A   1      31.768  34.594  27.038  1.00  0.00     0.163 HD
ATOM     30  O   UNL A   1      32.527  35.967  28.895  1.00  0.00    -0.269 OA
BRANCH  28  31
ATOM     31  C   UNL A   1      34.151  34.337  29.340  1.00  0.00     0.039 A 
ATOM     32  C   UNL A   1      33.931  33.614  30.514  1.00  0.00     0.014 A 
ATOM     33  C   UNL A   1      35.451  34.546  28.872  1.00  0.00     0.014 A 
ATOM     34  C   UNL A   1      35.016  33.055  31.192  1.00  0.00     0.010 A 
ATOM     35  C   UNL A   1      36.521  33.921  29.502  1.00  0.00     0.010 A 
ATOM     36  C   UNL A   1      36.315  33.175  30.672  1.00  0.00    -0.014 A 
BRANCH  36  37
ATOM     37  C   UNL A   1      37.475  32.540  31.347  1.00  0.00     0.031 A 
ATOM     38  C   UNL A   1      38.208  31.410  30.681  1.00  0.00     0.074 A 
ATOM     39  C   UNL A   1      37.830  32.942  32.583  1.00  0.00     0.049 A 
ATOM     40  N   UNL A   1      39.197  30.681  31.133  1.00  0.00    -0.248 NA
ATOM     41  C   UNL A   1      37.750  31.029  29.335  1.00  0.00     0.031 C 
ATOM     42  C   UNL A   1      37.171  33.999  33.350  1.00  0.00     0.029 A 
ATOM     43  N   UNL A   1      38.826  32.499  33.417  1.00  0.00    -0.354 N 
ATOM     44  C   UNL A   1      39.470  29.753  30.137  1.00  0.00     0.074 A 
ATOM     45  C   UNL A   1      38.504  29.969  29.082  1.00  0.00     0.031 C 
ATOM     46  C   UNL A   1      37.796  34.142  34.530  1.00  0.00     0.029 A 
ATOM     47  C   UNL A   1      38.869  33.156  34.622  1.00  0.00     0.049 A 
ATOM     48  H   UNL A   1      39.452  31.779  33.173  1.00  0.00     0.167 HD
ATOM     49  C   UNL A   1      40.453  28.823  30.094  1.00  0.00     0.037 A 
ATOM     50  C   UNL A   1      39.675  32.975  35.685  1.00  0.00     0.037 A 
ATOM     51  C   UNL A   1      41.421  28.623  31.141  1.00  0.00     0.049 A 
ATOM     52  C   UNL A   1      40.742  31.915  35.623  1.00  0.00     0.074 A 
ATOM     53  C   UNL A   1      42.487  27.742  31.173  1.00  0.00     0.029 A 
ATOM     54  N   UNL A   1      41.436  29.313  32.345  1.00  0.00    -0.354 N 
ATOM     55  N   UNL A   1      41.034  31.089  34.648  1.00  0.00    -0.248 NA
ATOM     56  C   UNL A   1      41.596  31.767  36.809  1.00  0.00     0.031 C 
ATOM     57  C   UNL A   1      43.111  27.857  32.420  1.00  0.00     0.029 A 
ATOM     58  C   UNL A   1      42.476  28.856  33.139  1.00  0.00     0.049 A 
ATOM     59  H   UNL A   1      40.801  30.021  32.599  1.00  0.00     0.167 HD
ATOM     60  C   UNL A   1      42.124  30.349  35.088  1.00  0.00     0.074 A 
ATOM     61  C   UNL A   1      42.450  30.835  36.413  1.00  0.00     0.031 C 
ATOM     62  C   UNL A   1      42.796  29.357  34.452  1.00  0.00     0.037 A 
BRANCH  49  63
ATOM     63  C   UNL A   1      40.529  27.947  28.876  1.00  0.00     0.064 A 
ATOM     64  C   UNL A   1      39.819  26.739  28.791  1.00  0.00     0.173 A 
ATOM     65  C   UNL A   1      41.295  28.334  27.767  1.00  0.00     0.173 A 
ATOM     66  F   UNL A   1      39.080  26.315  29.827  1.00  0.00    -0.203 F 
ATOM     67  C   UNL A   1      39.901  25.936  27.655  1.00  0.00     0.198 A 
ATOM     68  C   UNL A   1      41.346  27.547  26.618  1.00  0.00     0.198 A 
ATOM     69  F   UNL A   1      41.989  29.482  27.790  1.00  0.00    -0.203 F 
ATOM     70  F   UNL A   1      39.260  24.759  27.621  1.00  0.00    -0.200 F 
ATOM     71  C   UNL A   1      40.658  26.344  26.568  1.00  0.00     0.200 A 
ATOM     72  F   UNL A   1      42.065  27.951  25.562  1.00  0.00    -0.200 F 
ATOM     73  F   UNL A   1      40.729  25.576  25.472  1.00  0.00    -0.200 F 
ENDBRANCH  49  63
BRANCH  50  74
ATOM     74  C   UNL A   1      39.519  33.829  36.893  1.00  0.00     0.064 A 
ATOM     75  C   UNL A   1      38.739  33.406  37.979  1.00  0.00     0.173 A 
ATOM     76  C   UNL A   1      40.132  35.087  36.984  1.00  0.00     0.173 A 
ATOM     77  F   UNL A   1      38.116  32.219  37.932  1.00  0.00    -0.203 F 
ATOM     78  C   UNL A   1      38.558  34.218  39.097  1.00  0.00     0.198 A 
ATOM     79  C   UNL A   1      39.978  35.884  38.116  1.00  0.00     0.198 A 
ATOM     80  F   UNL A   1      40.895  35.538  35.977  1.00  0.00    -0.203 F 
ATOM     81  F   UNL A   1      37.763  33.810  40.096  1.00  0.00    -0.200 F 
ATOM     82  C   UNL A   1      39.182  35.453  39.167  1.00  0.00     0.200 A 
ATOM     83  F   UNL A   1      40.596  37.070  38.187  1.00  0.00    -0.200 F 
ATOM     84  F   UNL A   1      39.010  36.233  40.243  1.00  0.00    -0.200 F 
ENDBRANCH  50  74
BRANCH  62  85
ATOM     85  C   UNL A   1      43.980  28.761  35.157  1.00  0.00     0.064 A 
ATOM     86  C   UNL A   1      45.266  29.308  35.040  1.00  0.00     0.173 A 
ATOM     87  C   UNL A   1      43.816  27.647  35.997  1.00  0.00     0.173 A 
ATOM     88  F   UNL A   1      45.481  30.364  34.239  1.00  0.00    -0.203 F 
ATOM     89  C   UNL A   1      46.348  28.746  35.714  1.00  0.00     0.198 A 
ATOM     90  C   UNL A   1      44.893  27.110  36.696  1.00  0.00     0.198 A 
ATOM     91  F   UNL A   1      42.606  27.090  36.150  1.00  0.00    -0.203 F 
ATOM     92  F   UNL A   1      47.577  29.253  35.544  1.00  0.00    -0.200 F 
ATOM     93  C   UNL A   1      46.158  27.654  36.547  1.00  0.00     0.200 A 
ATOM     94  F   UNL A   1      44.703  26.066  37.515  1.00  0.00    -0.200 F 
ATOM     95  F   UNL A   1      47.199  27.121  37.202  1.00  0.00    -0.200 F 
ENDBRANCH  62  85
ENDBRANCH  36  37
ENDBRANCH  28  31
ENDBRANCH  26  27
ENDBRANCH  25  26
ENDBRANCH  24  25
ENDBRANCH   1  24
TORSDOF 18
ENDMDL
MODEL 2
REMARK VINA RESULT:     -11.6      5.426     11.142
REMARK SMILES CCN(CC)C(=O)C[C@](C)(C(=O)NCCCCCCNC(=O)c1ccc(-c2c3nc(c(-c4c(F)c(F)c(F)c(F)c4F)c4ccc([nH]4)c(-c4c(F)c(F)c(F)c(F)c4F)c4nc(c(-c5c(F)c(F)c(F)c(F)c5F)c5ccc2[nH]5)C=C4)C=C3)cc1)c1ccccc1
REMARK SMILES IDX 16 1 15 2 14 3 13 4 11 5 12 6 9 8 10 9 8 10 6 11 3 12 7 13
REMARK SMILES IDX 2 14 1 15 4 16 5 17 86 18 87 19 91 20 88 21 90 22 89 23
REMARK SMILES IDX 17 24 18 25 19 26 20 27 21 28 22 30 23 31 24 32 85 33 25 34
REMARK SMILES IDX 84 35 26 36 27 37 28 38 78 39 29 40 83 41 77 42 79 43 30 44
REMARK SMILES IDX 82 45 76 46 75 47 31 49 63 50 43 51 62 52 44 53 47 54 61 55
REMARK SMILES IDX 80 56 45 57 46 58 60 60 81 61 48 62 32 63 33 64 41 65 34 66
REMARK SMILES IDX 35 67 39 68 42 69 36 70 37 71 40 72 38 73 64 74 65 75 73 76
REMARK SMILES IDX 66 77 67 78 71 79 74 80 68 81 69 82 72 83 70 84 49 85 50 86
REMARK SMILES IDX 58 87 51 88 52 89 56 90 59 91 53 92 54 93 57 94 55 95
REMARK H PARENT 13 7 20 29 79 48 47 59
REMARK Flexibility Score: inf
ROOT
ATOM      1  C   UNL A   1      36.663  21.777  24.225  1.00  0.00     0.002 C 
ENDROOT
BRANCH   1   2
ATOM      2  C   UNL A   1      37.217  23.000  24.969  1.00  0.00     0.021 C 
BRANCH   2   3
ATOM      3  C   UNL A   1      36.118  23.888  25.553  1.00  0.00     0.116 C 
BRANCH   3   4
ATOM      4  N   UNL A   1      35.476  23.206  26.660  1.00  0.00    -0.355 N 
ATOM      5  C   UNL A   1      34.172  22.926  26.945  1.00  0.00     0.230 C 
ATOM      6  O   UNL A   1      33.978  22.603  28.121  1.00  0.00    -0.274 OA
ATOM      7  H   UNL A   1      36.108  22.881  27.342  1.00  0.00     0.163 HD
BRANCH   5   8
ATOM      8  C   UNL A   1      33.042  22.990  25.860  1.00  0.00     0.080 C 
ATOM      9  C   UNL A   1      31.719  23.220  26.655  1.00  0.00     0.027 C 
BRANCH   8  10
ATOM     10  C   UNL A   1      33.351  24.226  24.950  1.00  0.00     0.121 C 
BRANCH  10  11
ATOM     11  C   UNL A   1      32.814  25.609  25.265  1.00  0.00     0.223 C 
ATOM     12  N   UNL A   1      31.740  26.185  24.597  1.00  0.00    -0.343 N 
ATOM     13  O   UNL A   1      33.440  26.244  26.125  1.00  0.00    -0.275 OA
BRANCH  12  14
ATOM     14  C   UNL A   1      31.187  27.418  25.192  1.00  0.00     0.116 C 
ATOM     15  C   UNL A   1      31.106  28.636  24.274  1.00  0.00     0.027 C 
ENDBRANCH  12  14
BRANCH  12  16
ATOM     16  C   UNL A   1      31.061  25.765  23.351  1.00  0.00     0.116 C 
ATOM     17  C   UNL A   1      30.277  24.467  23.305  1.00  0.00     0.027 C 
ENDBRANCH  12  16
ENDBRANCH  10  11
ENDBRANCH   8  10
BRANCH   8  18
ATOM     18  C   UNL A   1      32.928  21.660  25.054  1.00  0.00    -0.032 A 
ATOM     19  C   UNL A   1      33.077  20.386  25.637  1.00  0.00     0.005 A 
ATOM     20  C   UNL A   1      32.624  21.673  23.682  1.00  0.00     0.005 A 
ATOM     21  C   UNL A   1      32.896  19.209  24.896  1.00  0.00     0.000 A 
ATOM     22  C   UNL A   1      32.399  20.506  22.948  1.00  0.00     0.000 A 
ATOM     23  C   UNL A   1      32.531  19.268  23.558  1.00  0.00     0.000 A 
ENDBRANCH   8  18
ENDBRANCH   5   8
ENDBRANCH   3   4
ENDBRANCH   2   3
ENDBRANCH   1   2
BRANCH   1  24
ATOM     24  C   UNL A   1      36.772  20.459  25.001  1.00  0.00     0.002 C 
BRANCH  24  25
ATOM     25  C   UNL A   1      38.096  19.718  24.809  1.00  0.00     0.021 C 
BRANCH  25  26
ATOM     26  C   UNL A   1      39.193  20.152  25.773  1.00  0.00     0.116 C 
BRANCH  26  27
ATOM     27  N   UNL A   1      40.196  19.114  25.949  1.00  0.00    -0.352 N 
ATOM     28  C   UNL A   1      41.551  19.241  26.128  1.00  0.00     0.251 C 
ATOM     29  H   UNL A   1      39.855  18.191  25.940  1.00  0.00     0.163 HD
ATOM     30  O   UNL A   1      42.283  18.264  26.046  1.00  0.00    -0.269 OA
BRANCH  28  31
ATOM     31  C   UNL A   1      42.123  20.576  26.401  1.00  0.00     0.039 A 
ATOM     32  C   UNL A   1      42.525  21.371  25.327  1.00  0.00     0.014 A 
ATOM     33  C   UNL A   1      42.259  21.038  27.713  1.00  0.00     0.014 A 
ATOM     34  C   UNL A   1      43.017  22.655  25.567  1.00  0.00     0.010 A 
ATOM     35  C   UNL A   1      42.671  22.346  27.945  1.00  0.00     0.010 A 
ATOM     36  C   UNL A   1      43.061  23.165  26.875  1.00  0.00    -0.014 A 
BRANCH  36  37
ATOM     37  C   UNL A   1      43.527  24.548  27.146  1.00  0.00     0.031 A 
ATOM     38  C   UNL A   1      42.565  25.577  27.670  1.00  0.00     0.074 A 
ATOM     39  C   UNL A   1      44.799  24.892  26.865  1.00  0.00     0.049 A 
ATOM     40  N   UNL A   1      42.758  26.851  27.904  1.00  0.00    -0.248 NA
ATOM     41  C   UNL A   1      41.193  25.121  27.943  1.00  0.00     0.031 C 
ATOM     42  C   UNL A   1      45.815  23.993  26.314  1.00  0.00     0.029 A 
ATOM     43  N   UNL A   1      45.451  26.092  26.992  1.00  0.00    -0.354 N 
ATOM     44  C   UNL A   1      41.536  27.346  28.338  1.00  0.00     0.074 A 
ATOM     45  C   UNL A   1      40.591  26.253  28.276  1.00  0.00     0.031 C 
ATOM     46  C   UNL A   1      46.968  24.667  26.177  1.00  0.00     0.029 A 
ATOM     47  C   UNL A   1      46.761  26.053  26.583  1.00  0.00     0.049 A 
ATOM     48  H   UNL A   1      45.021  26.905  27.344  1.00  0.00     0.167 HD
ATOM     49  C   UNL A   1      41.235  28.593  28.772  1.00  0.00     0.037 A 
ATOM     50  C   UNL A   1      47.688  27.029  26.532  1.00  0.00     0.037 A 
ATOM     51  C   UNL A   1      42.184  29.673  28.845  1.00  0.00     0.049 A 
ATOM     52  C   UNL A   1      47.320  28.414  26.995  1.00  0.00     0.074 A 
ATOM     53  C   UNL A   1      41.992  30.959  29.318  1.00  0.00     0.029 A 
ATOM     54  N   UNL A   1      43.505  29.593  28.428  1.00  0.00    -0.354 N 
ATOM     55  N   UNL A   1      46.179  28.853  27.467  1.00  0.00    -0.248 NA
ATOM     56  C   UNL A   1      48.372  29.436  26.923  1.00  0.00     0.031 C 
ATOM     57  C   UNL A   1      43.179  31.675  29.132  1.00  0.00     0.029 A 
ATOM     58  C   UNL A   1      44.131  30.817  28.605  1.00  0.00     0.049 A 
ATOM     59  H   UNL A   1      43.933  28.788  28.059  1.00  0.00     0.167 HD
ATOM     60  C   UNL A   1      46.385  30.191  27.780  1.00  0.00     0.074 A 
ATOM     61  C   UNL A   1      47.765  30.486  27.457  1.00  0.00     0.031 C 
ATOM     62  C   UNL A   1      45.510  31.093  28.290  1.00  0.00     0.037 A 
BRANCH  49  63
ATOM     63  C   UNL A   1      39.819  28.857  29.200  1.00  0.00     0.064 A 
ATOM     64  C   UNL A   1      38.846  29.308  28.293  1.00  0.00     0.173 A 
ATOM     65  C   UNL A   1      39.420  28.627  30.525  1.00  0.00     0.173 A 
ATOM     66  F   UNL A   1      39.176  29.555  27.017  1.00  0.00    -0.203 F 
ATOM     67  C   UNL A   1      37.538  29.550  28.706  1.00  0.00     0.198 A 
ATOM     68  C   UNL A   1      38.102  28.836  30.925  1.00  0.00     0.198 A 
ATOM     69  F   UNL A   1      40.306  28.191  31.432  1.00  0.00    -0.203 F 
ATOM     70  F   UNL A   1      36.642  30.034  27.834  1.00  0.00    -0.200 F 
ATOM     71  C   UNL A   1      37.165  29.307  30.018  1.00  0.00     0.200 A 
ATOM     72  F   UNL A   1      37.741  28.585  32.191  1.00  0.00    -0.200 F 
ATOM     73  F   UNL A   1      35.904  29.532  30.412  1.00  0.00    -0.200 F 
ENDBRANCH  49  63
BRANCH  50  74
ATOM     74  C   UNL A   1      49.060  26.730  26.042  1.00  0.00     0.064 A 
ATOM     75  C   UNL A   1      49.421  26.983  24.711  1.00  0.00     0.173 A 
ATOM     76  C   UNL A   1      50.034  26.175  26.886  1.00  0.00     0.173 A 
ATOM     77  F   UNL A   1      48.520  27.495  23.860  1.00  0.00    -0.203 F 
ATOM     78  C   UNL A   1      50.693  26.669  24.236  1.00  0.00     0.198 A 
ATOM     79  C   UNL A   1      51.314  25.892  26.419  1.00  0.00     0.198 A 
ATOM     80  F   UNL A   1      49.743  25.919  28.170  1.00  0.00    -0.203 F 
ATOM     81  F   UNL A   1      50.992  26.872  22.946  1.00  0.00    -0.200 F 
ATOM     82  C   UNL A   1      51.641  26.129  25.092  1.00  0.00     0.200 A 
ATOM     83  F   UNL A   1      52.233  25.386  27.253  1.00  0.00    -0.200 F 
ATOM     84  F   UNL A   1      52.864  25.829  24.636  1.00  0.00    -0.200 F 
ENDBRANCH  50  74
BRANCH  62  85
ATOM     85  C   UNL A   1      46.028  32.473  28.576  1.00  0.00     0.064 A 
ATOM     86  C   UNL A   1      46.603  32.809  29.811  1.00  0.00     0.173 A 
ATOM     87  C   UNL A   1      45.986  33.464  27.582  1.00  0.00     0.173 A 
ATOM     88  F   UNL A   1      46.654  31.903  30.800  1.00  0.00    -0.203 F 
ATOM     89  C   UNL A   1      47.088  34.093  30.050  1.00  0.00     0.198 A 
ATOM     90  C   UNL A   1      46.505  34.736  27.812  1.00  0.00     0.198 A 
ATOM     91  F   UNL A   1      45.455  33.194  26.381  1.00  0.00    -0.203 F 
ATOM     92  F   UNL A   1      47.584  34.406  31.255  1.00  0.00    -0.200 F 
ATOM     93  C   UNL A   1      47.047  35.051  29.048  1.00  0.00     0.200 A 
ATOM     94  F   UNL A   1      46.481  35.654  26.836  1.00  0.00    -0.200 F 
ATOM     95  F   UNL A   1      47.525  36.282  29.277  1.00  0.00    -0.200 F 
ENDBRANCH  62  85
ENDBRANCH  36  37
ENDBRANCH  28  31
ENDBRANCH  26  27
ENDBRANCH  25  26
ENDBRANCH  24  25
ENDBRANCH   1  24
TORSDOF 18
ENDMDL
MODEL 3
REMARK VINA RESULT:     -11.4      1.262      3.050
REMARK SMILES CCN(CC)C(=O)C[C@](C)(C(=O)NCCCCCCNC(=O)c1ccc(-c2c3nc(c(-c4c(F)c(F)c(F)c(F)c4F)c4ccc([nH]4)c(-c4c(F)c(F)c(F)c(F)c4F)c4nc(c(-c5c(F)c(F)c(F)c(F)c5F)c5ccc2[nH]5)C=C4)C=C3)cc1)c1ccccc1
REMARK SMILES IDX 16 1 15 2 14 3 13 4 11 5 12 6 9 8 10 9 8 10 6 11 3 12 7 13
REMARK SMILES IDX 2 14 1 15 4 16 5 17 86 18 87 19 91 20 88 21 90 22 89 23
REMARK SMILES IDX 17 24 18 25 19 26 20 27 21 28 22 30 23 31 24 32 85 33 25 34
REMARK SMILES IDX 84 35 26 36 27 37 28 38 78 39 29 40 83 41 77 42 79 43 30 44
REMARK SMILES IDX 82 45 76 46 75 47 31 49 63 50 43 51 62 52 44 53 47 54 61 55
REMARK SMILES IDX 80 56 45 57 46 58 60 60 81 61 48 62 32 63 33 64 41 65 34 66
REMARK SMILES IDX 35 67 39 68 42 69 36 70 37 71 40 72 38 73 64 74 65 75 73 76
REMARK SMILES IDX 66 77 67 78 71 79 74 80 68 81 69 82 72 83 70 84 49 85 50 86
REMARK SMILES IDX 58 87 51 88 52 89 56 90 59 91 53 92 54 93 57 94 55 95
REMARK H PARENT 13 7 20 29 79 48 47 59
REMARK Flexibility Score: inf
ROOT
ATOM      1  C   UNL A   1      32.253  29.869  27.220  1.00  0.00     0.002 C 
ENDROOT
BRANCH   1   2
ATOM      2  C   UNL A   1      33.781  29.752  27.134  1.00  0.00     0.021 C 
BRANCH   2   3
ATOM      3  C   UNL A   1      34.239  28.520  26.353  1.00  0.00     0.116 C 
BRANCH   3   4
ATOM      4  N   UNL A   1      34.026  28.734  24.935  1.00  0.00    -0.355 N 
ATOM      5  C   UNL A   1      33.615  27.913  23.926  1.00  0.00     0.230 C 
ATOM      6  O   UNL A   1      33.845  28.359  22.798  1.00  0.00    -0.274 OA
ATOM      7  H   UNL A   1      34.217  29.654  24.642  1.00  0.00     0.163 HD
BRANCH   5   8
ATOM      8  C   UNL A   1      32.896  26.545  24.194  1.00  0.00     0.080 C 
ATOM      9  C   UNL A   1      32.232  26.696  25.597  1.00  0.00     0.027 C 
BRANCH   8  10
ATOM     10  C   UNL A   1      31.800  26.381  23.088  1.00  0.00     0.121 C 
BRANCH  10  11
ATOM     11  C   UNL A   1      30.319  26.434  23.412  1.00  0.00     0.223 C 
ATOM     12  N   UNL A   1      29.578  27.610  23.418  1.00  0.00    -0.343 N 
ATOM     13  O   UNL A   1      29.804  25.358  23.746  1.00  0.00    -0.275 OA
BRANCH  12  14
ATOM     14  C   UNL A   1      28.112  27.455  23.501  1.00  0.00     0.116 C 
ATOM     15  C   UNL A   1      27.280  28.681  23.127  1.00  0.00     0.027 C 
ENDBRANCH  12  14
BRANCH  12  16
ATOM     16  C   UNL A   1      30.030  29.018  23.373  1.00  0.00     0.116 C 
ATOM     17  C   UNL A   1      30.486  29.635  22.065  1.00  0.00     0.027 C 
ENDBRANCH  12  16
ENDBRANCH  10  11
ENDBRANCH   8  10
BRANCH   8  18
ATOM     18  C   UNL A   1      33.900  25.353  24.230  1.00  0.00    -0.032 A 
ATOM     19  C   UNL A   1      34.705  25.051  25.346  1.00  0.00     0.005 A 
ATOM     20  C   UNL A   1      34.022  24.480  23.135  1.00  0.00     0.005 A 
ATOM     21  C   UNL A   1      35.544  23.927  25.370  1.00  0.00     0.000 A 
ATOM     22  C   UNL A   1      34.821  23.334  23.168  1.00  0.00     0.000 A 
ATOM     23  C   UNL A   1      35.583  23.054  24.292  1.00  0.00     0.000 A 
ENDBRANCH   8  18
ENDBRANCH   5   8
ENDBRANCH   3   4
ENDBRANCH   2   3
ENDBRANCH   1   2
BRANCH   1  24
ATOM     24  C   UNL A   1      31.631  30.823  26.193  1.00  0.00     0.002 C 
BRANCH  24  25
ATOM     25  C   UNL A   1      31.413  32.249  26.703  1.00  0.00     0.021 C 
BRANCH  25  26
ATOM     26  C   UNL A   1      32.669  32.905  27.261  1.00  0.00     0.116 C 
BRANCH  26  27
ATOM     27  N   UNL A   1      32.435  34.293  27.626  1.00  0.00    -0.352 N 
ATOM     28  C   UNL A   1      32.990  35.026  28.645  1.00  0.00     0.251 C 
ATOM     29  H   UNL A   1      31.788  34.775  27.062  1.00  0.00     0.163 HD
ATOM     30  O   UNL A   1      32.527  36.117  28.949  1.00  0.00    -0.269 OA
BRANCH  28  31
ATOM     31  C   UNL A   1      34.142  34.476  29.388  1.00  0.00     0.039 A 
ATOM     32  C   UNL A   1      33.917  33.845  30.612  1.00  0.00     0.014 A 
ATOM     33  C   UNL A   1      35.438  34.582  28.874  1.00  0.00     0.014 A 
ATOM     34  C   UNL A   1      34.989  33.273  31.299  1.00  0.00     0.010 A 
ATOM     35  C   UNL A   1      36.490  33.941  29.519  1.00  0.00     0.010 A 
ATOM     36  C   UNL A   1      36.278  33.287  30.741  1.00  0.00    -0.014 A 
BRANCH  36  37
ATOM     37  C   UNL A   1      37.421  32.634  31.428  1.00  0.00     0.031 A 
ATOM     38  C   UNL A   1      38.125  31.474  30.782  1.00  0.00     0.074 A 
ATOM     39  C   UNL A   1      37.785  33.048  32.657  1.00  0.00     0.049 A 
ATOM     40  N   UNL A   1      39.094  30.728  31.248  1.00  0.00    -0.248 NA
ATOM     41  C   UNL A   1      37.658  31.081  29.443  1.00  0.00     0.031 C 
ATOM     42  C   UNL A   1      37.153  34.136  33.405  1.00  0.00     0.029 A 
ATOM     43  N   UNL A   1      38.769  32.594  33.499  1.00  0.00    -0.354 N 
ATOM     44  C   UNL A   1      39.345  29.776  30.269  1.00  0.00     0.074 A 
ATOM     45  C   UNL A   1      38.385  29.998  29.209  1.00  0.00     0.031 C 
ATOM     46  C   UNL A   1      37.781  34.282  34.582  1.00  0.00     0.029 A 
ATOM     47  C   UNL A   1      38.828  33.271  34.693  1.00  0.00     0.049 A 
ATOM     48  H   UNL A   1      39.377  31.855  33.269  1.00  0.00     0.167 HD
ATOM     49  C   UNL A   1      40.303  28.821  30.244  1.00  0.00     0.037 A 
ATOM     50  C   UNL A   1      39.629  33.089  35.760  1.00  0.00     0.037 A 
ATOM     51  C   UNL A   1      41.265  28.615  31.295  1.00  0.00     0.049 A 
ATOM     52  C   UNL A   1      40.669  32.001  35.718  1.00  0.00     0.074 A 
ATOM     53  C   UNL A   1      42.309  27.707  31.343  1.00  0.00     0.029 A 
ATOM     54  N   UNL A   1      41.297  29.325  32.486  1.00  0.00    -0.354 N 
ATOM     55  N   UNL A   1      40.940  31.150  34.758  1.00  0.00    -0.248 NA
ATOM     56  C   UNL A   1      41.518  31.852  36.907  1.00  0.00     0.031 C 
ATOM     57  C   UNL A   1      42.935  27.827  32.588  1.00  0.00     0.029 A 
ATOM     58  C   UNL A   1      42.325  28.855  33.289  1.00  0.00     0.049 A 
ATOM     59  H   UNL A   1      40.680  30.053  32.727  1.00  0.00     0.167 HD
ATOM     60  C   UNL A   1      42.010  30.391  35.211  1.00  0.00     0.074 A 
ATOM     61  C   UNL A   1      42.347  30.891  36.528  1.00  0.00     0.031 C 
ATOM     62  C   UNL A   1      42.657  29.371  34.593  1.00  0.00     0.037 A 
BRANCH  49  63
ATOM     63  C   UNL A   1      40.358  27.921  29.041  1.00  0.00     0.064 A 
ATOM     64  C   UNL A   1      39.636  26.718  28.986  1.00  0.00     0.173 A 
ATOM     65  C   UNL A   1      41.115  28.281  27.916  1.00  0.00     0.173 A 
ATOM     66  F   UNL A   1      38.905  26.321  30.038  1.00  0.00    -0.203 F 
ATOM     67  C   UNL A   1      39.698  25.895  27.865  1.00  0.00     0.198 A 
ATOM     68  C   UNL A   1      41.145  27.472  26.782  1.00  0.00     0.198 A 
ATOM     69  F   UNL A   1      41.819  29.422  27.911  1.00  0.00    -0.203 F 
ATOM     70  F   UNL A   1      39.045  24.724  27.859  1.00  0.00    -0.200 F 
ATOM     71  C   UNL A   1      40.445  26.276  26.761  1.00  0.00     0.200 A 
ATOM     72  F   UNL A   1      41.856  27.850  25.711  1.00  0.00    -0.200 F 
ATOM     73  F   UNL A   1      40.498  25.486  25.679  1.00  0.00    -0.200 F 
ENDBRANCH  49  63
BRANCH  50  74
ATOM     74  C   UNL A   1      39.494  33.967  36.953  1.00  0.00     0.064 A 
ATOM     75  C   UNL A   1      40.118  35.222  36.999  1.00  0.00     0.173 A 
ATOM     76  C   UNL A   1      38.750  33.569  38.074  1.00  0.00     0.173 A 
ATOM     77  F   UNL A   1      40.856  35.640  35.960  1.00  0.00    -0.203 F 
ATOM     78  C   UNL A   1      40.026  36.032  38.129  1.00  0.00     0.198 A 
ATOM     79  C   UNL A   1      38.632  34.394  39.190  1.00  0.00     0.198 A 
ATOM     80  F   UNL A   1      38.127  32.381  38.080  1.00  0.00    -0.203 F 
ATOM     81  F   UNL A   1      40.678  37.202  38.165  1.00  0.00    -0.200 F 
ATOM     82  C   UNL A   1      39.279  35.620  39.221  1.00  0.00     0.200 A 
ATOM     83  F   UNL A   1      37.895  33.999  40.236  1.00  0.00    -0.200 F 
ATOM     84  F   UNL A   1      39.189  36.400  40.306  1.00  0.00    -0.200 F 
ENDBRANCH  50  74
BRANCH  62  85
ATOM     85  C   UNL A   1      43.825  28.757  35.310  1.00  0.00     0.064 A 
ATOM     86  C   UNL A   1      45.138  29.207  35.110  1.00  0.00     0.173 A 
ATOM     87  C   UNL A   1      43.620  27.728  36.244  1.00  0.00     0.173 A 
ATOM     88  F   UNL A   1      45.391  30.179  34.219  1.00  0.00    -0.203 F 
ATOM     89  C   UNL A   1      46.205  28.631  35.796  1.00  0.00     0.198 A 
ATOM     90  C   UNL A   1      44.685  27.179  36.953  1.00  0.00     0.198 A 
ATOM     91  F   UNL A   1      42.384  27.265  36.479  1.00  0.00    -0.203 F 
ATOM     92  F   UNL A   1      47.457  29.042  35.548  1.00  0.00    -0.200 F 
ATOM     93  C   UNL A   1      45.976  27.625  36.722  1.00  0.00     0.200 A 
ATOM     94  F   UNL A   1      44.458  26.220  37.861  1.00  0.00    -0.200 F 
ATOM     95  F   UNL A   1      47.004  27.079  37.388  1.00  0.00    -0.200 F 
ENDBRANCH  62  85
ENDBRANCH  36  37
ENDBRANCH  28  31
ENDBRANCH  26  27
ENDBRANCH  25  26
ENDBRANCH  24  25
ENDBRANCH   1  24
TORSDOF 18
ENDMDL
