MODEL 1
REMARK VINA RESULT:     -12.5      0.000      0.000
REMARK SMILES O=C(C[C@@H]1C[N@@H+]([C@@H]2CCOc3ccccc32)CCO1)NCCCCCCNC(=O)c1ccc(-c2c3nc(c(-c4c(F)c(F)c(F)c(F)c4F)c4ccc([nH]4)c(-c4c(F)c(F)c(F)c(F)c4F)c4nc(c(-c5c(F)c(F)c(F)c(F)c5F)c5ccc2[nH]5)C=C4)C=C3)cc1
REMARK SMILES IDX 23 1 22 2 21 3 20 4 1 5 2 6 3 8 4 9 5 10 19 11 6 12 18 13
REMARK SMILES IDX 17 14 7 16 8 17 16 18 9 19 11 20 15 21 10 22 12 23 14 24
REMARK SMILES IDX 13 25 24 26 25 27 26 28 27 29 28 30 29 32 30 33 31 34 92 35
REMARK SMILES IDX 32 36 91 37 33 38 34 39 35 40 85 41 36 42 90 43 84 44 86 45
REMARK SMILES IDX 37 46 89 47 83 48 82 49 38 51 70 52 50 53 69 54 51 55 54 56
REMARK SMILES IDX 68 57 87 58 52 59 53 60 67 62 88 63 55 64 39 65 40 66 48 67
REMARK SMILES IDX 41 68 42 69 46 70 49 71 43 72 44 73 47 74 45 75 71 76 72 77
REMARK SMILES IDX 80 78 73 79 74 80 78 81 81 82 75 83 76 84 79 85 77 86 56 87
REMARK SMILES IDX 57 88 65 89 58 90 59 91 63 92 66 93 60 94 61 95 64 96 62 97
REMARK H PARENT 20 7 6 15 27 31 86 50 54 61
REMARK Flexibility Score: inf
ROOT
ATOM      1  C   UNL A   1      31.792  29.428  27.164  1.00  0.00     0.002 C 
ENDROOT
BRANCH   1   2
ATOM      2  C   UNL A   1      32.832  28.330  26.887  1.00  0.00     0.021 C 
BRANCH   2   3
ATOM      3  C   UNL A   1      33.912  28.720  25.878  1.00  0.00     0.116 C 
BRANCH   3   4
ATOM      4  N   UNL A   1      33.899  27.814  24.758  1.00  0.00    -0.356 N 
ATOM      5  O   UNL A   1      33.530  29.328  23.071  1.00  0.00    -0.275 OA
ATOM      6  C   UNL A   1      33.659  28.170  23.457  1.00  0.00     0.222 C 
ATOM      7  H   UNL A   1      34.077  26.863  24.942  1.00  0.00     0.163 HD
BRANCH   6   8
ATOM      8  C   UNL A   1      33.468  26.976  22.541  1.00  0.00     0.138 C 
BRANCH   8   9
ATOM      9  C   UNL A   1      32.752  25.831  23.257  1.00  0.00     0.182 C 
ATOM     10  C   UNL A   1      33.277  24.467  22.781  1.00  0.00     0.295 C 
ATOM     11  O   UNL A   1      31.331  25.896  22.989  1.00  0.00    -0.366 OA
ATOM     12  N   UNL A   1      32.608  23.302  23.396  1.00  0.00    -0.324 N 
ATOM     13  C   UNL A   1      30.637  24.871  23.717  1.00  0.00     0.222 C 
ATOM     14  C   UNL A   1      31.148  23.465  23.359  1.00  0.00     0.291 C 
ATOM     15  H   UNL A   1      32.833  22.503  22.803  1.00  0.00     0.348 HD
BRANCH  12  16
ATOM     16  C   UNL A   1      33.174  22.805  24.670  1.00  0.00     0.222 C 
ATOM     17  C   UNL A   1      34.389  23.573  25.221  1.00  0.00     0.112 C 
ATOM     18  C   UNL A   1      33.414  21.304  24.641  1.00  0.00     0.051 A 
ATOM     19  C   UNL A   1      35.225  22.693  26.131  1.00  0.00     0.236 C 
ATOM     20  C   UNL A   1      34.669  20.775  24.955  1.00  0.00     0.128 A 
ATOM     21  C   UNL A   1      32.387  20.425  24.259  1.00  0.00     0.014 A 
ATOM     22  O   UNL A   1      35.701  21.548  25.416  1.00  0.00    -0.493 OA
ATOM     23  C   UNL A   1      34.929  19.416  24.787  1.00  0.00     0.047 A 
ATOM     24  C   UNL A   1      32.634  19.058  24.127  1.00  0.00     0.001 A 
ATOM     25  C   UNL A   1      33.911  18.557  24.372  1.00  0.00     0.004 A 
ENDBRANCH  12  16
ENDBRANCH   8   9
ENDBRANCH   6   8
ENDBRANCH   3   4
ENDBRANCH   2   3
ENDBRANCH   1   2
BRANCH   1  26
ATOM     26  C   UNL A   1      31.718  30.545  26.120  1.00  0.00     0.002 C 
BRANCH  26  27
ATOM     27  C   UNL A   1      31.447  31.941  26.682  1.00  0.00     0.021 C 
BRANCH  27  28
ATOM     28  C   UNL A   1      32.669  32.653  27.251  1.00  0.00     0.116 C 
BRANCH  28  29
ATOM     29  N   UNL A   1      32.407  34.046  27.577  1.00  0.00    -0.352 N 
ATOM     30  C   UNL A   1      32.988  34.840  28.533  1.00  0.00     0.251 C 
ATOM     31  H   UNL A   1      31.712  34.482  27.033  1.00  0.00     0.163 HD
ATOM     32  O   UNL A   1      32.528  35.954  28.776  1.00  0.00    -0.269 OA
BRANCH  30  33
ATOM     33  C   UNL A   1      34.152  34.345  29.300  1.00  0.00     0.039 A 
ATOM     34  C   UNL A   1      33.930  33.695  30.517  1.00  0.00     0.014 A 
ATOM     35  C   UNL A   1      35.456  34.514  28.825  1.00  0.00     0.014 A 
ATOM     36  C   UNL A   1      35.008  33.155  31.222  1.00  0.00     0.010 A 
ATOM     37  C   UNL A   1      36.521  33.908  29.488  1.00  0.00     0.010 A 
ATOM     38  C   UNL A   1      36.308  33.221  30.693  1.00  0.00    -0.014 A 
BRANCH  38  39
ATOM     39  C   UNL A   1      37.448  32.559  31.379  1.00  0.00     0.031 A 
ATOM     40  C   UNL A   1      38.156  31.398  30.738  1.00  0.00     0.074 A 
ATOM     41  C   UNL A   1      37.809  32.969  32.611  1.00  0.00     0.049 A 
ATOM     42  N   UNL A   1      39.142  30.671  31.202  1.00  0.00    -0.248 NA
ATOM     43  C   UNL A   1      37.677  30.984  29.411  1.00  0.00     0.031 C 
ATOM     44  C   UNL A   1      37.169  34.051  33.362  1.00  0.00     0.029 A 
ATOM     45  N   UNL A   1      38.797  32.522  33.453  1.00  0.00    -0.354 N 
ATOM     46  C   UNL A   1      39.393  29.711  30.231  1.00  0.00     0.074 A 
ATOM     47  C   UNL A   1      38.419  29.911  29.179  1.00  0.00     0.031 C 
ATOM     48  C   UNL A   1      37.797  34.202  34.538  1.00  0.00     0.029 A 
ATOM     49  C   UNL A   1      38.855  33.203  34.644  1.00  0.00     0.049 A 
ATOM     50  H   UNL A   1      39.406  31.782  33.223  1.00  0.00     0.167 HD
ATOM     51  C   UNL A   1      40.362  28.764  30.208  1.00  0.00     0.037 A 
ATOM     52  C   UNL A   1      39.666  33.035  35.707  1.00  0.00     0.037 A 
ATOM     53  C   UNL A   1      41.336  28.577  31.251  1.00  0.00     0.049 A 
ATOM     54  C   UNL A   1      40.721  31.963  35.665  1.00  0.00     0.074 A 
ATOM     55  C   UNL A   1      42.394  27.685  31.294  1.00  0.00     0.029 A 
ATOM     56  N   UNL A   1      41.366  29.287  32.443  1.00  0.00    -0.354 N 
ATOM     57  N   UNL A   1      41.000  31.112  34.708  1.00  0.00    -0.248 NA
ATOM     58  C   UNL A   1      41.580  31.834  36.850  1.00  0.00     0.031 C 
ATOM     59  C   UNL A   1      43.027  27.815  32.534  1.00  0.00     0.029 A 
ATOM     60  C   UNL A   1      42.405  28.831  33.240  1.00  0.00     0.049 A 
ATOM     61  H   UNL A   1      40.740  30.007  32.686  1.00  0.00     0.167 HD
ATOM     62  C   UNL A   1      42.079  30.367  35.160  1.00  0.00     0.074 A 
ATOM     63  C   UNL A   1      42.417  30.879  36.473  1.00  0.00     0.031 C 
ATOM     64  C   UNL A   1      42.732  29.350  34.546  1.00  0.00     0.037 A 
BRANCH  51  65
ATOM     65  C   UNL A   1      40.412  27.852  29.013  1.00  0.00     0.064 A 
ATOM     66  C   UNL A   1      41.212  28.142  27.897  1.00  0.00     0.173 A 
ATOM     67  C   UNL A   1      39.678  26.656  28.999  1.00  0.00     0.173 A 
ATOM     68  F   UNL A   1      41.929  29.277  27.855  1.00  0.00    -0.203 F 
ATOM     69  C   UNL A   1      41.246  27.289  26.797  1.00  0.00     0.198 A 
ATOM     70  C   UNL A   1      39.742  25.788  27.911  1.00  0.00     0.198 A 
ATOM     71  F   UNL A   1      38.904  26.324  30.042  1.00  0.00    -0.203 F 
ATOM     72  F   UNL A   1      41.974  27.615  25.719  1.00  0.00    -0.200 F 
ATOM     73  C   UNL A   1      40.517  26.109  26.808  1.00  0.00     0.200 A 
ATOM     74  F   UNL A   1      39.049  24.641  27.930  1.00  0.00    -0.200 F 
ATOM     75  F   UNL A   1      40.557  25.286  25.752  1.00  0.00    -0.200 F 
ENDBRANCH  51  65
BRANCH  52  76
ATOM     76  C   UNL A   1      39.526  33.922  36.892  1.00  0.00     0.064 A 
ATOM     77  C   UNL A   1      40.152  35.176  36.930  1.00  0.00     0.173 A 
ATOM     78  C   UNL A   1      38.768  33.538  38.008  1.00  0.00     0.173 A 
ATOM     79  F   UNL A   1      40.905  35.580  35.897  1.00  0.00    -0.203 F 
ATOM     80  C   UNL A   1      40.040  36.002  38.047  1.00  0.00     0.198 A 
ATOM     81  C   UNL A   1      38.631  34.379  39.110  1.00  0.00     0.198 A 
ATOM     82  F   UNL A   1      38.144  32.350  38.020  1.00  0.00    -0.203 F 
ATOM     83  F   UNL A   1      40.686  37.177  38.075  1.00  0.00    -0.200 F 
ATOM     84  C   UNL A   1      39.274  35.607  39.132  1.00  0.00     0.200 A 
ATOM     85  F   UNL A   1      37.876  33.999  40.149  1.00  0.00    -0.200 F 
ATOM     86  F   UNL A   1      39.160  36.405  40.202  1.00  0.00    -0.200 F 
ENDBRANCH  52  76
BRANCH  64  87
ATOM     87  C   UNL A   1      43.901  28.742  35.269  1.00  0.00     0.064 A 
ATOM     88  C   UNL A   1      45.213  29.188  35.055  1.00  0.00     0.173 A 
ATOM     89  C   UNL A   1      43.699  27.723  36.213  1.00  0.00     0.173 A 
ATOM     90  F   UNL A   1      45.463  30.149  34.153  1.00  0.00    -0.203 F 
ATOM     91  C   UNL A   1      46.284  28.615  35.738  1.00  0.00     0.198 A 
ATOM     92  C   UNL A   1      44.768  27.177  36.918  1.00  0.00     0.198 A 
ATOM     93  F   UNL A   1      42.464  27.265  36.460  1.00  0.00    -0.203 F 
ATOM     94  F   UNL A   1      47.535  29.019  35.477  1.00  0.00    -0.200 F 
ATOM     95  C   UNL A   1      46.060  27.616  36.674  1.00  0.00     0.200 A 
ATOM     96  F   UNL A   1      44.547  26.223  37.834  1.00  0.00    -0.200 F 
ATOM     97  F   UNL A   1      47.090  27.071  37.335  1.00  0.00    -0.200 F 
ENDBRANCH  64  87
ENDBRANCH  38  39
ENDBRANCH  30  33
ENDBRANCH  28  29
ENDBRANCH  27  28
ENDBRANCH  26  27
ENDBRANCH   1  26
TORSDOF 15
ENDMDL
MODEL 2
REMARK VINA RESULT:     -12.5      0.470      1.635
REMARK SMILES O=C(C[C@@H]1C[N@@H+]([C@@H]2CCOc3ccccc32)CCO1)NCCCCCCNC(=O)c1ccc(-c2c3nc(c(-c4c(F)c(F)c(F)c(F)c4F)c4ccc([nH]4)c(-c4c(F)c(F)c(F)c(F)c4F)c4nc(c(-c5c(F)c(F)c(F)c(F)c5F)c5ccc2[nH]5)C=C4)C=C3)cc1
REMARK SMILES IDX 23 1 22 2 21 3 20 4 1 5 2 6 3 8 4 9 5 10 19 11 6 12 18 13
REMARK SMILES IDX 17 14 7 16 8 17 16 18 9 19 11 20 15 21 10 22 12 23 14 24
REMARK SMILES IDX 13 25 24 26 25 27 26 28 27 29 28 30 29 32 30 33 31 34 92 35
REMARK SMILES IDX 32 36 91 37 33 38 34 39 35 40 85 41 36 42 90 43 84 44 86 45
REMARK SMILES IDX 37 46 89 47 83 48 82 49 38 51 70 52 50 53 69 54 51 55 54 56
REMARK SMILES IDX 68 57 87 58 52 59 53 60 67 62 88 63 55 64 39 65 40 66 48 67
REMARK SMILES IDX 41 68 42 69 46 70 49 71 43 72 44 73 47 74 45 75 71 76 72 77
REMARK SMILES IDX 80 78 73 79 74 80 78 81 81 82 75 83 76 84 79 85 77 86 56 87
REMARK SMILES IDX 57 88 65 89 58 90 59 91 63 92 66 93 60 94 61 95 64 96 62 97
REMARK H PARENT 20 7 6 15 27 31 86 50 54 61
REMARK Flexibility Score: inf
ROOT
ATOM      1  C   UNL A   1      32.440  29.832  27.111  1.00  0.00     0.002 C 
ENDROOT
BRANCH   1   2
ATOM      2  C   UNL A   1      33.075  28.574  26.495  1.00  0.00     0.021 C 
BRANCH   2   3
ATOM      3  C   UNL A   1      33.673  28.781  25.104  1.00  0.00     0.116 C 
BRANCH   3   4
ATOM      4  N   UNL A   1      33.724  27.530  24.391  1.00  0.00    -0.356 N 
ATOM      5  O   UNL A   1      33.873  28.339  22.247  1.00  0.00    -0.275 OA
ATOM      6  C   UNL A   1      33.766  27.398  23.028  1.00  0.00     0.222 C 
ATOM      7  H   UNL A   1      33.728  26.704  24.927  1.00  0.00     0.163 HD
BRANCH   6   8
ATOM      8  C   UNL A   1      33.566  25.968  22.564  1.00  0.00     0.138 C 
BRANCH   8   9
ATOM      9  C   UNL A   1      32.963  25.100  23.669  1.00  0.00     0.182 C 
ATOM     10  C   UNL A   1      32.896  23.626  23.241  1.00  0.00     0.295 C 
ATOM     11  O   UNL A   1      31.622  25.553  23.972  1.00  0.00    -0.366 OA
ATOM     12  N   UNL A   1      32.287  22.723  24.239  1.00  0.00    -0.324 N 
ATOM     13  C   UNL A   1      31.072  24.796  25.061  1.00  0.00     0.222 C 
ATOM     14  C   UNL A   1      31.032  23.289  24.751  1.00  0.00     0.291 C 
ATOM     15  H   UNL A   1      32.044  21.870  23.735  1.00  0.00     0.348 HD
BRANCH  12  16
ATOM     16  C   UNL A   1      33.197  22.137  25.249  1.00  0.00     0.222 C 
ATOM     17  C   UNL A   1      34.509  22.899  25.507  1.00  0.00     0.112 C 
ATOM     18  C   UNL A   1      33.435  20.655  25.013  1.00  0.00     0.051 A 
ATOM     19  C   UNL A   1      35.578  21.974  26.057  1.00  0.00     0.236 C 
ATOM     20  C   UNL A   1      34.733  20.147  24.909  1.00  0.00     0.128 A 
ATOM     21  C   UNL A   1      32.351  19.775  24.852  1.00  0.00     0.014 A 
ATOM     22  O   UNL A   1      35.844  20.915  25.133  1.00  0.00    -0.493 OA
ATOM     23  C   UNL A   1      34.950  18.819  24.547  1.00  0.00     0.047 A 
ATOM     24  C   UNL A   1      32.566  18.435  24.527  1.00  0.00     0.001 A 
ATOM     25  C   UNL A   1      33.866  17.963  24.355  1.00  0.00     0.004 A 
ENDBRANCH  12  16
ENDBRANCH   8   9
ENDBRANCH   6   8
ENDBRANCH   3   4
ENDBRANCH   2   3
ENDBRANCH   1   2
BRANCH   1  26
ATOM     26  C   UNL A   1      31.631  30.702  26.144  1.00  0.00     0.002 C 
BRANCH  26  27
ATOM     27  C   UNL A   1      31.393  32.139  26.610  1.00  0.00     0.021 C 
BRANCH  27  28
ATOM     28  C   UNL A   1      32.579  32.790  27.314  1.00  0.00     0.116 C 
BRANCH  28  29
ATOM     29  N   UNL A   1      32.340  34.187  27.640  1.00  0.00    -0.352 N 
ATOM     30  C   UNL A   1      32.953  34.978  28.580  1.00  0.00     0.251 C 
ATOM     31  H   UNL A   1      31.638  34.629  27.111  1.00  0.00     0.163 HD
ATOM     32  O   UNL A   1      32.511  36.098  28.830  1.00  0.00    -0.269 OA
BRANCH  30  33
ATOM     33  C   UNL A   1      34.129  34.472  29.321  1.00  0.00     0.039 A 
ATOM     34  C   UNL A   1      33.935  33.900  30.581  1.00  0.00     0.014 A 
ATOM     35  C   UNL A   1      35.415  34.555  28.781  1.00  0.00     0.014 A 
ATOM     36  C   UNL A   1      35.020  33.350  31.267  1.00  0.00     0.010 A 
ATOM     37  C   UNL A   1      36.482  33.938  29.430  1.00  0.00     0.010 A 
ATOM     38  C   UNL A   1      36.296  33.328  30.679  1.00  0.00    -0.014 A 
BRANCH  38  39
ATOM     39  C   UNL A   1      37.437  32.652  31.351  1.00  0.00     0.031 A 
ATOM     40  C   UNL A   1      38.134  31.495  30.692  1.00  0.00     0.074 A 
ATOM     41  C   UNL A   1      37.808  33.047  32.585  1.00  0.00     0.049 A 
ATOM     42  N   UNL A   1      39.119  30.757  31.141  1.00  0.00    -0.248 NA
ATOM     43  C   UNL A   1      37.645  31.098  29.363  1.00  0.00     0.031 C 
ATOM     44  C   UNL A   1      37.178  34.123  33.351  1.00  0.00     0.029 A 
ATOM     45  N   UNL A   1      38.799  32.584  33.415  1.00  0.00    -0.354 N 
ATOM     46  C   UNL A   1      39.359  29.806  30.158  1.00  0.00     0.074 A 
ATOM     47  C   UNL A   1      38.380  30.024  29.115  1.00  0.00     0.031 C 
ATOM     48  C   UNL A   1      37.814  34.257  34.525  1.00  0.00     0.029 A 
ATOM     49  C   UNL A   1      38.868  33.252  34.614  1.00  0.00     0.049 A 
ATOM     50  H   UNL A   1      39.402  31.844  33.173  1.00  0.00     0.167 HD
ATOM     51  C   UNL A   1      40.323  28.855  30.118  1.00  0.00     0.037 A 
ATOM     52  C   UNL A   1      39.684  33.068  35.669  1.00  0.00     0.037 A 
ATOM     53  C   UNL A   1      41.302  28.651  31.153  1.00  0.00     0.049 A 
ATOM     54  C   UNL A   1      40.733  31.991  35.608  1.00  0.00     0.074 A 
ATOM     55  C   UNL A   1      42.357  27.753  31.179  1.00  0.00     0.029 A 
ATOM     56  N   UNL A   1      41.344  29.348  32.353  1.00  0.00    -0.354 N 
ATOM     57  N   UNL A   1      41.002  31.149  34.640  1.00  0.00    -0.248 NA
ATOM     58  C   UNL A   1      41.599  31.844  36.787  1.00  0.00     0.031 C 
ATOM     59  C   UNL A   1      42.998  27.866  32.417  1.00  0.00     0.029 A 
ATOM     60  C   UNL A   1      42.385  28.878  33.138  1.00  0.00     0.049 A 
ATOM     61  H   UNL A   1      40.723  30.068  32.608  1.00  0.00     0.167 HD
ATOM     62  C   UNL A   1      42.080  30.393  35.077  1.00  0.00     0.074 A 
ATOM     63  C   UNL A   1      42.428  30.888  36.394  1.00  0.00     0.031 C 
ATOM     64  C   UNL A   1      42.723  29.380  34.447  1.00  0.00     0.037 A 
BRANCH  51  65
ATOM     65  C   UNL A   1      40.361  27.957  28.913  1.00  0.00     0.064 A 
ATOM     66  C   UNL A   1      41.109  28.284  27.772  1.00  0.00     0.173 A 
ATOM     67  C   UNL A   1      39.669  26.736  28.913  1.00  0.00     0.173 A 
ATOM     68  F   UNL A   1      41.784  29.444  27.716  1.00  0.00    -0.203 F 
ATOM     69  C   UNL A   1      41.132  27.443  26.663  1.00  0.00     0.198 A 
ATOM     70  C   UNL A   1      39.723  25.880  27.815  1.00  0.00     0.198 A 
ATOM     71  F   UNL A   1      38.945  26.367  29.980  1.00  0.00    -0.203 F 
ATOM     72  F   UNL A   1      41.808  27.804  25.563  1.00  0.00    -0.200 F 
ATOM     73  C   UNL A   1      40.445  26.238  26.688  1.00  0.00     0.200 A 
ATOM     74  F   UNL A   1      39.071  24.709  27.847  1.00  0.00    -0.200 F 
ATOM     75  F   UNL A   1      40.475  25.427  25.622  1.00  0.00    -0.200 F 
ENDBRANCH  51  65
BRANCH  52  76
ATOM     76  C   UNL A   1      39.557  33.942  36.865  1.00  0.00     0.064 A 
ATOM     77  C   UNL A   1      38.797  33.540  37.973  1.00  0.00     0.173 A 
ATOM     78  C   UNL A   1      40.187  35.194  36.926  1.00  0.00     0.173 A 
ATOM     79  F   UNL A   1      38.159  32.362  37.954  1.00  0.00    -0.203 F 
ATOM     80  C   UNL A   1      38.659  34.365  39.088  1.00  0.00     0.198 A 
ATOM     81  C   UNL A   1      40.073  36.004  38.055  1.00  0.00     0.198 A 
ATOM     82  F   UNL A   1      40.930  35.624  35.895  1.00  0.00    -0.203 F 
ATOM     83  F   UNL A   1      37.889  33.974  40.114  1.00  0.00    -0.200 F 
ATOM     84  C   UNL A   1      39.302  35.592  39.131  1.00  0.00     0.200 A 
ATOM     85  F   UNL A   1      40.710  37.180  38.098  1.00  0.00    -0.200 F 
ATOM     86  F   UNL A   1      39.174  36.380  40.206  1.00  0.00    -0.200 F 
ENDBRANCH  52  76
BRANCH  64  87
ATOM     87  C   UNL A   1      43.893  28.758  35.157  1.00  0.00     0.064 A 
ATOM     88  C   UNL A   1      43.739  27.656  36.010  1.00  0.00     0.173 A 
ATOM     89  C   UNL A   1      45.191  29.254  34.954  1.00  0.00     0.173 A 
ATOM     90  F   UNL A   1      42.519  27.152  36.250  1.00  0.00    -0.203 F 
ATOM     91  C   UNL A   1      44.837  27.091  36.656  1.00  0.00     0.198 A 
ATOM     92  C   UNL A   1      46.289  28.666  35.574  1.00  0.00     0.198 A 
ATOM     93  F   UNL A   1      45.395  30.303  34.143  1.00  0.00    -0.203 F 
ATOM     94  F   UNL A   1      44.658  26.073  37.509  1.00  0.00    -0.200 F 
ATOM     95  C   UNL A   1      46.111  27.591  36.432  1.00  0.00     0.200 A 
ATOM     96  F   UNL A   1      47.521  29.141  35.344  1.00  0.00    -0.200 F 
ATOM     97  F   UNL A   1      47.166  27.042  37.049  1.00  0.00    -0.200 F 
ENDBRANCH  64  87
ENDBRANCH  38  39
ENDBRANCH  30  33
ENDBRANCH  28  29
ENDBRANCH  27  28
ENDBRANCH  26  27
ENDBRANCH   1  26
TORSDOF 15
ENDMDL
MODEL 3
REMARK VINA RESULT:     -12.3      5.387     11.151
REMARK SMILES O=C(C[C@@H]1C[N@@H+]([C@@H]2CCOc3ccccc32)CCO1)NCCCCCCNC(=O)c1ccc(-c2c3nc(c(-c4c(F)c(F)c(F)c(F)c4F)c4ccc([nH]4)c(-c4c(F)c(F)c(F)c(F)c4F)c4nc(c(-c5c(F)c(F)c(F)c(F)c5F)c5ccc2[nH]5)C=C4)C=C3)cc1
REMARK SMILES IDX 23 1 22 2 21 3 20 4 1 5 2 6 3 8 4 9 5 10 19 11 6 12 18 13
REMARK SMILES IDX 17 14 7 16 8 17 16 18 9 19 11 20 15 21 10 22 12 23 14 24
REMARK SMILES IDX 13 25 24 26 25 27 26 28 27 29 28 30 29 32 30 33 31 34 92 35
REMARK SMILES IDX 32 36 91 37 33 38 34 39 35 40 85 41 36 42 90 43 84 44 86 45
REMARK SMILES IDX 37 46 89 47 83 48 82 49 38 51 70 52 50 53 69 54 51 55 54 56
REMARK SMILES IDX 68 57 87 58 52 59 53 60 67 62 88 63 55 64 39 65 40 66 48 67
REMARK SMILES IDX 41 68 42 69 46 70 49 71 43 72 44 73 47 74 45 75 71 76 72 77
REMARK SMILES IDX 80 78 73 79 74 80 78 81 81 82 75 83 76 84 79 85 77 86 56 87
REMARK SMILES IDX 57 88 65 89 58 90 59 91 63 92 66 93 60 94 61 95 64 96 62 97
REMARK H PARENT 20 7 6 15 27 31 86 50 54 61
REMARK Flexibility Score: inf
ROOT
ATOM      1  C   UNL A   1      36.522  21.849  25.752  1.00  0.00     0.002 C 
ENDROOT
BRANCH   1   2
ATOM      2  C   UNL A   1      35.051  21.448  25.948  1.00  0.00     0.021 C 
BRANCH   2   3
ATOM      3  C   UNL A   1      34.518  20.459  24.912  1.00  0.00     0.116 C 
BRANCH   3   4
ATOM      4  N   UNL A   1      33.334  20.985  24.283  1.00  0.00    -0.356 N 
ATOM      5  O   UNL A   1      34.309  22.578  22.947  1.00  0.00    -0.275 OA
ATOM      6  C   UNL A   1      33.308  22.030  23.396  1.00  0.00     0.222 C 
ATOM      7  H   UNL A   1      32.474  20.561  24.508  1.00  0.00     0.163 HD
BRANCH   6   8
ATOM      8  C   UNL A   1      31.902  22.515  23.093  1.00  0.00     0.138 C 
BRANCH   8   9
ATOM      9  C   UNL A   1      31.324  23.317  24.259  1.00  0.00     0.182 C 
ATOM     10  C   UNL A   1      32.217  24.520  24.599  1.00  0.00     0.295 C 
ATOM     11  O   UNL A   1      31.221  22.475  25.431  1.00  0.00    -0.366 OA
ATOM     12  N   UNL A   1      31.750  25.329  25.744  1.00  0.00    -0.324 N 
ATOM     13  C   UNL A   1      30.609  23.194  26.513  1.00  0.00     0.222 C 
ATOM     14  C   UNL A   1      31.398  24.463  26.878  1.00  0.00     0.291 C 
ATOM     15  H   UNL A   1      32.549  25.891  26.037  1.00  0.00     0.348 HD
BRANCH  12  16
ATOM     16  C   UNL A   1      30.801  26.424  25.443  1.00  0.00     0.222 C 
ATOM     17  C   UNL A   1      30.249  26.471  24.008  1.00  0.00     0.112 C 
ATOM     18  C   UNL A   1      31.328  27.776  25.896  1.00  0.00     0.051 A 
ATOM     19  C   UNL A   1      29.804  27.874  23.640  1.00  0.00     0.236 C 
ATOM     20  C   UNL A   1      31.403  28.850  25.004  1.00  0.00     0.128 A 
ATOM     21  C   UNL A   1      31.788  27.959  27.212  1.00  0.00     0.014 A 
ATOM     22  O   UNL A   1      30.903  28.786  23.731  1.00  0.00    -0.493 OA
ATOM     23  C   UNL A   1      32.020  30.042  25.377  1.00  0.00     0.047 A 
ATOM     24  C   UNL A   1      32.372  29.165  27.599  1.00  0.00     0.001 A 
ATOM     25  C   UNL A   1      32.505  30.200  26.675  1.00  0.00     0.004 A 
ENDBRANCH  12  16
ENDBRANCH   8   9
ENDBRANCH   6   8
ENDBRANCH   3   4
ENDBRANCH   2   3
ENDBRANCH   1   2
BRANCH   1  26
ATOM     26  C   UNL A   1      37.247  21.149  24.598  1.00  0.00     0.002 C 
BRANCH  26  27
ATOM     27  C   UNL A   1      38.086  19.935  25.001  1.00  0.00     0.021 C 
BRANCH  27  28
ATOM     28  C   UNL A   1      39.203  20.229  25.996  1.00  0.00     0.116 C 
BRANCH  28  29
ATOM     29  N   UNL A   1      40.220  19.189  26.021  1.00  0.00    -0.352 N 
ATOM     30  C   UNL A   1      41.583  19.308  26.127  1.00  0.00     0.251 C 
ATOM     31  H   UNL A   1      39.881  18.268  25.953  1.00  0.00     0.163 HD
ATOM     32  O   UNL A   1      42.304  18.324  25.970  1.00  0.00    -0.269 OA
BRANCH  30  33
ATOM     33  C   UNL A   1      42.193  20.628  26.398  1.00  0.00     0.039 A 
ATOM     34  C   UNL A   1      42.518  21.454  25.318  1.00  0.00     0.014 A 
ATOM     35  C   UNL A   1      42.442  21.056  27.705  1.00  0.00     0.014 A 
ATOM     36  C   UNL A   1      43.026  22.733  25.552  1.00  0.00     0.010 A 
ATOM     37  C   UNL A   1      42.876  22.358  27.939  1.00  0.00     0.010 A 
ATOM     38  C   UNL A   1      43.171  23.212  26.865  1.00  0.00    -0.014 A 
BRANCH  38  39
ATOM     39  C   UNL A   1      43.610  24.607  27.127  1.00  0.00     0.031 A 
ATOM     40  C   UNL A   1      42.634  25.635  27.625  1.00  0.00     0.074 A 
ATOM     41  C   UNL A   1      44.883  24.963  26.860  1.00  0.00     0.049 A 
ATOM     42  N   UNL A   1      42.823  26.907  27.871  1.00  0.00    -0.248 NA
ATOM     43  C   UNL A   1      41.254  25.179  27.854  1.00  0.00     0.031 C 
ATOM     44  C   UNL A   1      45.914  24.071  26.327  1.00  0.00     0.029 A 
ATOM     45  N   UNL A   1      45.525  26.169  26.994  1.00  0.00    -0.354 N 
ATOM     46  C   UNL A   1      41.590  27.404  28.272  1.00  0.00     0.074 A 
ATOM     47  C   UNL A   1      40.646  26.310  28.181  1.00  0.00     0.031 C 
ATOM     48  C   UNL A   1      47.064  24.752  26.205  1.00  0.00     0.029 A 
ATOM     49  C   UNL A   1      46.843  26.136  26.611  1.00  0.00     0.049 A 
ATOM     50  H   UNL A   1      45.081  26.981  27.332  1.00  0.00     0.167 HD
ATOM     51  C   UNL A   1      41.278  28.651  28.699  1.00  0.00     0.037 A 
ATOM     52  C   UNL A   1      47.769  27.115  26.583  1.00  0.00     0.037 A 
ATOM     53  C   UNL A   1      42.223  29.733  28.799  1.00  0.00     0.049 A 
ATOM     54  C   UNL A   1      47.392  28.496  27.044  1.00  0.00     0.074 A 
ATOM     55  C   UNL A   1      42.019  31.017  29.277  1.00  0.00     0.029 A 
ATOM     56  N   UNL A   1      43.552  29.662  28.404  1.00  0.00    -0.354 N 
ATOM     57  N   UNL A   1      46.242  28.934  27.495  1.00  0.00    -0.248 NA
ATOM     58  C   UNL A   1      48.446  29.519  26.997  1.00  0.00     0.031 C 
ATOM     59  C   UNL A   1      43.206  31.738  29.116  1.00  0.00     0.029 A 
ATOM     60  C   UNL A   1      44.170  30.888  28.599  1.00  0.00     0.049 A 
ATOM     61  H   UNL A   1      43.990  28.860  28.039  1.00  0.00     0.167 HD
ATOM     62  C   UNL A   1      46.439  30.271  27.812  1.00  0.00     0.074 A 
ATOM     63  C   UNL A   1      47.826  30.568  27.517  1.00  0.00     0.031 C 
ATOM     64  C   UNL A   1      45.552  31.172  28.302  1.00  0.00     0.037 A 
BRANCH  51  65
ATOM     65  C   UNL A   1      39.850  28.914  29.088  1.00  0.00     0.064 A 
ATOM     66  C   UNL A   1      38.897  29.346  28.152  1.00  0.00     0.173 A 
ATOM     67  C   UNL A   1      39.420  28.699  30.406  1.00  0.00     0.173 A 
ATOM     68  F   UNL A   1      39.256  29.575  26.879  1.00  0.00    -0.203 F 
ATOM     69  C   UNL A   1      37.579  29.588  28.529  1.00  0.00     0.198 A 
ATOM     70  C   UNL A   1      38.092  28.909  30.772  1.00  0.00     0.198 A 
ATOM     71  F   UNL A   1      40.286  28.278  31.341  1.00  0.00    -0.203 F 
ATOM     72  F   UNL A   1      36.700  30.054  27.630  1.00  0.00    -0.200 F 
ATOM     73  C   UNL A   1      37.175  29.362  29.837  1.00  0.00     0.200 A 
ATOM     74  F   UNL A   1      37.701  28.675  32.033  1.00  0.00    -0.200 F 
ATOM     75  F   UNL A   1      35.905  29.589  30.195  1.00  0.00    -0.200 F 
ENDBRANCH  51  65
BRANCH  52  76
ATOM     76  C   UNL A   1      49.151  26.814  26.123  1.00  0.00     0.064 A 
ATOM     77  C   UNL A   1      49.521  27.002  24.785  1.00  0.00     0.173 A 
ATOM     78  C   UNL A   1      50.127  26.331  27.008  1.00  0.00     0.173 A 
ATOM     79  F   UNL A   1      48.617  27.441  23.896  1.00  0.00    -0.203 F 
ATOM     80  C   UNL A   1      50.809  26.703  24.345  1.00  0.00     0.198 A 
ATOM     81  C   UNL A   1      51.423  26.063  26.573  1.00  0.00     0.198 A 
ATOM     82  F   UNL A   1      49.826  26.139  28.301  1.00  0.00    -0.203 F 
ATOM     83  F   UNL A   1      51.122  26.850  23.050  1.00  0.00    -0.200 F 
ATOM     84  C   UNL A   1      51.760  26.241  25.240  1.00  0.00     0.200 A 
ATOM     85  F   UNL A   1      52.343  25.633  27.446  1.00  0.00    -0.200 F 
ATOM     86  F   UNL A   1      53.001  25.961  24.818  1.00  0.00    -0.200 F 
ENDBRANCH  52  76
BRANCH  64  87
ATOM     87  C   UNL A   1      46.060  32.558  28.584  1.00  0.00     0.064 A 
ATOM     88  C   UNL A   1      45.992  33.579  27.625  1.00  0.00     0.173 A 
ATOM     89  C   UNL A   1      46.593  32.875  29.843  1.00  0.00     0.173 A 
ATOM     90  F   UNL A   1      45.506  33.325  26.400  1.00  0.00    -0.203 F 
ATOM     91  C   UNL A   1      46.465  34.858  27.906  1.00  0.00     0.198 A 
ATOM     92  C   UNL A   1      47.033  34.164  30.131  1.00  0.00     0.198 A 
ATOM     93  F   UNL A   1      46.676  31.938  30.799  1.00  0.00    -0.203 F 
ATOM     94  F   UNL A   1      46.440  35.803  26.955  1.00  0.00    -0.200 F 
ATOM     95  C   UNL A   1      46.978  35.152  29.160  1.00  0.00     0.200 A 
ATOM     96  F   UNL A   1      47.514  34.449  31.350  1.00  0.00    -0.200 F 
ATOM     97  F   UNL A   1      47.427  36.385  29.431  1.00  0.00    -0.200 F 
ENDBRANCH  64  87
ENDBRANCH  38  39
ENDBRANCH  30  33
ENDBRANCH  28  29
ENDBRANCH  27  28
ENDBRANCH  26  27
ENDBRANCH   1  26
TORSDOF 15
ENDMDL
