MODEL 1
REMARK VINA RESULT:     -12.1      0.000      0.000
REMARK SMILES C[C@@H](C(=O)NCc1ccc(F)cc1)n1cc(C(=O)NCCCCCCNC(=O)c2ccc(-c3c4nc(c(-c5c(F)c(F)c(F)c(F)c5F)c5ccc([nH]5)c(-c5c(F)c(F)c(F)c(F)c5F)c5nc(c(-c6c(F)c(F)c(F)c(F)c6F)c6ccc3[nH]6)C=C5)C=C4)cc2)cn1
REMARK SMILES IDX 21 1 20 2 19 3 17 4 18 5 16 7 14 8 15 9 93 10 92 11 2 12
REMARK SMILES IDX 1 13 3 14 4 15 5 16 6 18 7 19 8 20 13 21 9 22 12 23 10 24
REMARK SMILES IDX 11 25 22 26 23 27 24 28 25 29 26 30 27 31 28 33 29 34 30 35
REMARK SMILES IDX 91 36 31 37 90 38 32 39 33 40 34 41 84 42 35 43 89 44 83 45
REMARK SMILES IDX 85 46 36 47 88 48 82 49 81 50 37 52 69 53 49 54 68 55 50 56
REMARK SMILES IDX 53 57 67 58 86 59 51 60 52 61 66 63 87 64 54 65 38 66 39 67
REMARK SMILES IDX 47 68 40 69 41 70 45 71 48 72 42 73 43 74 46 75 44 76 70 77
REMARK SMILES IDX 71 78 79 79 72 80 73 81 77 82 80 83 74 84 75 85 78 86 76 87
REMARK SMILES IDX 55 88 56 89 64 90 57 91 58 92 62 93 65 94 59 95 60 96 63 97
REMARK SMILES IDX 61 98
REMARK H PARENT 19 6 5 17 26 32 85 51 53 62
REMARK Flexibility Score: inf
ROOT
ATOM      1  C   UNL A   1      33.373  31.755  27.148  1.00  0.00     0.021 C 
ENDROOT
BRANCH   1   2
ATOM      2  C   UNL A   1      33.360  30.281  26.748  1.00  0.00     0.116 C 
BRANCH   2   3
ATOM      3  N   UNL A   1      32.481  29.467  27.563  1.00  0.00    -0.352 N 
ATOM      4  C   UNL A   1      31.973  28.206  27.351  1.00  0.00     0.254 C 
ATOM      5  O   UNL A   1      31.166  27.770  28.170  1.00  0.00    -0.269 OA
ATOM      6  H   UNL A   1      32.202  29.884  28.410  1.00  0.00     0.163 HD
BRANCH   4   7
ATOM      7  C   UNL A   1      32.325  27.445  26.166  1.00  0.00     0.077 A 
ATOM      8  N   UNL A   1      32.304  26.378  24.243  1.00  0.00    -0.260 N 
ATOM      9  C   UNL A   1      31.860  27.515  24.865  1.00  0.00     0.123 A 
ATOM     10  N   UNL A   1      33.349  25.830  24.904  1.00  0.00    -0.180 NA
ATOM     11  C   UNL A   1      33.322  26.444  26.090  1.00  0.00     0.149 A 
BRANCH   8  12
ATOM     12  C   UNL A   1      31.800  25.753  23.009  1.00  0.00     0.193 C 
ATOM     13  C   UNL A   1      31.324  26.816  22.014  1.00  0.00     0.044 C 
BRANCH  12  14
ATOM     14  C   UNL A   1      32.853  24.865  22.324  1.00  0.00     0.244 C 
ATOM     15  O   UNL A   1      33.678  25.285  21.509  1.00  0.00    -0.273 OA
ATOM     16  N   UNL A   1      32.931  23.531  22.603  1.00  0.00    -0.350 N 
ATOM     17  H   UNL A   1      33.722  23.083  22.226  1.00  0.00     0.163 HD
BRANCH  16  18
ATOM     18  C   UNL A   1      32.053  22.658  23.360  1.00  0.00     0.151 C 
BRANCH  18  19
ATOM     19  C   UNL A   1      32.758  21.368  23.720  1.00  0.00    -0.029 A 
ATOM     20  C   UNL A   1      33.931  21.385  24.492  1.00  0.00     0.008 A 
ATOM     21  C   UNL A   1      32.251  20.127  23.292  1.00  0.00     0.008 A 
ATOM     22  C   UNL A   1      34.555  20.192  24.867  1.00  0.00     0.039 A 
ATOM     23  C   UNL A   1      32.880  18.936  23.662  1.00  0.00     0.039 A 
ATOM     24  C   UNL A   1      34.022  18.979  24.452  1.00  0.00     0.123 A 
ATOM     25  F   UNL A   1      34.615  17.836  24.818  1.00  0.00    -0.207 F 
ENDBRANCH  18  19
ENDBRANCH  16  18
ENDBRANCH  12  14
ENDBRANCH   8  12
ENDBRANCH   4   7
ENDBRANCH   2   3
ENDBRANCH   1   2
BRANCH   1  26
ATOM     26  C   UNL A   1      34.195  32.110  28.386  1.00  0.00     0.002 C 
BRANCH  26  27
ATOM     27  C   UNL A   1      34.506  33.597  28.601  1.00  0.00     0.002 C 
BRANCH  27  28
ATOM     28  C   UNL A   1      33.311  34.532  28.840  1.00  0.00     0.021 C 
BRANCH  28  29
ATOM     29  C   UNL A   1      33.636  35.786  29.638  1.00  0.00     0.116 C 
BRANCH  29  30
ATOM     30  N   UNL A   1      32.960  35.824  30.930  1.00  0.00    -0.352 N 
ATOM     31  C   UNL A   1      33.144  34.994  32.019  1.00  0.00     0.251 C 
ATOM     32  H   UNL A   1      32.286  36.532  31.041  1.00  0.00     0.163 HD
ATOM     33  O   UNL A   1      32.284  34.879  32.876  1.00  0.00    -0.269 OA
BRANCH  31  34
ATOM     34  C   UNL A   1      34.405  34.235  32.132  1.00  0.00     0.039 A 
ATOM     35  C   UNL A   1      34.406  32.840  32.043  1.00  0.00     0.014 A 
ATOM     36  C   UNL A   1      35.594  34.937  32.320  1.00  0.00     0.014 A 
ATOM     37  C   UNL A   1      35.624  32.166  32.062  1.00  0.00     0.010 A 
ATOM     38  C   UNL A   1      36.799  34.287  32.203  1.00  0.00     0.010 A 
ATOM     39  C   UNL A   1      36.820  32.899  32.114  1.00  0.00    -0.014 A 
BRANCH  39  40
ATOM     40  C   UNL A   1      38.101  32.227  31.898  1.00  0.00     0.031 A 
ATOM     41  C   UNL A   1      38.838  31.950  33.163  1.00  0.00     0.074 A 
ATOM     42  C   UNL A   1      38.474  31.703  30.708  1.00  0.00     0.049 A 
ATOM     43  N   UNL A   1      39.981  32.421  33.531  1.00  0.00    -0.248 NA
ATOM     44  C   UNL A   1      38.161  31.167  34.216  1.00  0.00     0.031 C 
ATOM     45  C   UNL A   1      37.662  31.626  29.487  1.00  0.00     0.029 A 
ATOM     46  N   UNL A   1      39.599  31.010  30.358  1.00  0.00    -0.354 N 
ATOM     47  C   UNL A   1      40.271  31.817  34.753  1.00  0.00     0.074 A 
ATOM     48  C   UNL A   1      39.048  31.222  35.213  1.00  0.00     0.031 C 
ATOM     49  C   UNL A   1      38.197  30.718  28.642  1.00  0.00     0.029 A 
ATOM     50  C   UNL A   1      39.474  30.286  29.174  1.00  0.00     0.049 A 
ATOM     51  H   UNL A   1      40.425  31.023  30.895  1.00  0.00     0.167 HD
ATOM     52  C   UNL A   1      41.565  31.595  35.113  1.00  0.00     0.037 A 
ATOM     53  C   UNL A   1      40.345  29.369  28.685  1.00  0.00     0.037 A 
ATOM     54  C   UNL A   1      42.455  32.352  34.273  1.00  0.00     0.049 A 
ATOM     55  C   UNL A   1      41.656  29.624  29.320  1.00  0.00     0.074 A 
ATOM     56  C   UNL A   1      42.836  33.668  34.145  1.00  0.00     0.029 A 
ATOM     57  N   UNL A   1      42.758  31.719  33.099  1.00  0.00    -0.354 N 
ATOM     58  N   UNL A   1      42.370  30.693  29.103  1.00  0.00    -0.248 NA
ATOM     59  C   UNL A   1      42.050  28.829  30.479  1.00  0.00     0.031 C 
ATOM     60  C   UNL A   1      43.244  33.832  32.787  1.00  0.00     0.029 A 
ATOM     61  C   UNL A   1      43.156  32.603  32.138  1.00  0.00     0.049 A 
ATOM     62  H   UNL A   1      42.697  30.745  32.964  1.00  0.00     0.167 HD
ATOM     63  C   UNL A   1      42.984  30.935  30.313  1.00  0.00     0.074 A 
ATOM     64  C   UNL A   1      42.910  29.678  31.045  1.00  0.00     0.031 C 
ATOM     65  C   UNL A   1      43.175  32.214  30.745  1.00  0.00     0.037 A 
BRANCH  52  66
ATOM     66  C   UNL A   1      42.067  30.355  35.829  1.00  0.00     0.064 A 
ATOM     67  C   UNL A   1      41.844  29.035  35.378  1.00  0.00     0.173 A 
ATOM     68  C   UNL A   1      43.074  30.491  36.812  1.00  0.00     0.173 A 
ATOM     69  F   UNL A   1      41.014  28.758  34.368  1.00  0.00    -0.203 F 
ATOM     70  C   UNL A   1      42.561  27.943  35.867  1.00  0.00     0.198 A 
ATOM     71  C   UNL A   1      43.826  29.400  37.261  1.00  0.00     0.198 A 
ATOM     72  F   UNL A   1      43.402  31.700  37.290  1.00  0.00    -0.203 F 
ATOM     73  F   UNL A   1      42.316  26.722  35.372  1.00  0.00    -0.200 F 
ATOM     74  C   UNL A   1      43.570  28.127  36.789  1.00  0.00     0.200 A 
ATOM     75  F   UNL A   1      44.846  29.597  38.109  1.00  0.00    -0.200 F 
ATOM     76  F   UNL A   1      44.319  27.088  37.180  1.00  0.00    -0.200 F 
ENDBRANCH  52  66
BRANCH  53  77
ATOM     77  C   UNL A   1      40.088  28.125  27.916  1.00  0.00     0.064 A 
ATOM     78  C   UNL A   1      39.413  27.031  28.491  1.00  0.00     0.173 A 
ATOM     79  C   UNL A   1      40.787  27.868  26.722  1.00  0.00     0.173 A 
ATOM     80  F   UNL A   1      38.754  27.162  29.650  1.00  0.00    -0.203 F 
ATOM     81  C   UNL A   1      39.491  25.749  27.943  1.00  0.00     0.198 A 
ATOM     82  C   UNL A   1      40.871  26.582  26.180  1.00  0.00     0.198 A 
ATOM     83  F   UNL A   1      41.473  28.849  26.116  1.00  0.00    -0.203 F 
ATOM     84  F   UNL A   1      38.901  24.722  28.571  1.00  0.00    -0.200 F 
ATOM     85  C   UNL A   1      40.241  25.520  26.804  1.00  0.00     0.200 A 
ATOM     86  F   UNL A   1      41.627  26.362  25.095  1.00  0.00    -0.200 F 
ATOM     87  F   UNL A   1      40.393  24.273  26.336  1.00  0.00    -0.200 F 
ENDBRANCH  53  77
BRANCH  65  88
ATOM     88  C   UNL A   1      43.268  33.292  29.714  1.00  0.00     0.064 A 
ATOM     89  C   UNL A   1      44.520  33.495  29.115  1.00  0.00     0.173 A 
ATOM     90  C   UNL A   1      42.228  34.165  29.359  1.00  0.00     0.173 A 
ATOM     91  F   UNL A   1      45.557  32.708  29.443  1.00  0.00    -0.203 F 
ATOM     92  C   UNL A   1      44.731  34.529  28.212  1.00  0.00     0.198 A 
ATOM     93  C   UNL A   1      42.431  35.176  28.419  1.00  0.00     0.198 A 
ATOM     94  F   UNL A   1      41.024  34.082  29.941  1.00  0.00    -0.203 F 
ATOM     95  F   UNL A   1      45.955  34.729  27.705  1.00  0.00    -0.200 F 
ATOM     96  C   UNL A   1      43.684  35.363  27.855  1.00  0.00     0.200 A 
ATOM     97  F   UNL A   1      41.421  35.989  28.077  1.00  0.00    -0.200 F 
ATOM     98  F   UNL A   1      43.890  36.359  26.983  1.00  0.00    -0.200 F 
ENDBRANCH  65  88
ENDBRANCH  39  40
ENDBRANCH  31  34
ENDBRANCH  29  30
ENDBRANCH  28  29
ENDBRANCH  27  28
ENDBRANCH  26  27
ENDBRANCH   1  26
TORSDOF 17
ENDMDL
MODEL 2
REMARK VINA RESULT:     -12.0      2.824      4.255
REMARK SMILES C[C@@H](C(=O)NCc1ccc(F)cc1)n1cc(C(=O)NCCCCCCNC(=O)c2ccc(-c3c4nc(c(-c5c(F)c(F)c(F)c(F)c5F)c5ccc([nH]5)c(-c5c(F)c(F)c(F)c(F)c5F)c5nc(c(-c6c(F)c(F)c(F)c(F)c6F)c6ccc3[nH]6)C=C5)C=C4)cc2)cn1
REMARK SMILES IDX 21 1 20 2 19 3 17 4 18 5 16 7 14 8 15 9 93 10 92 11 2 12
REMARK SMILES IDX 1 13 3 14 4 15 5 16 6 18 7 19 8 20 13 21 9 22 12 23 10 24
REMARK SMILES IDX 11 25 22 26 23 27 24 28 25 29 26 30 27 31 28 33 29 34 30 35
REMARK SMILES IDX 91 36 31 37 90 38 32 39 33 40 34 41 84 42 35 43 89 44 83 45
REMARK SMILES IDX 85 46 36 47 88 48 82 49 81 50 37 52 69 53 49 54 68 55 50 56
REMARK SMILES IDX 53 57 67 58 86 59 51 60 52 61 66 63 87 64 54 65 38 66 39 67
REMARK SMILES IDX 47 68 40 69 41 70 45 71 48 72 42 73 43 74 46 75 44 76 70 77
REMARK SMILES IDX 71 78 79 79 72 80 73 81 77 82 80 83 74 84 75 85 78 86 76 87
REMARK SMILES IDX 55 88 56 89 64 90 57 91 58 92 62 93 65 94 59 95 60 96 63 97
REMARK SMILES IDX 61 98
REMARK H PARENT 19 6 5 17 26 32 85 51 53 62
REMARK Flexibility Score: inf
ROOT
ATOM      1  C   UNL A   1      31.869  28.307  26.303  1.00  0.00     0.021 C 
ENDROOT
BRANCH   1   2
ATOM      2  C   UNL A   1      31.308  27.159  25.467  1.00  0.00     0.116 C 
BRANCH   2   3
ATOM      3  N   UNL A   1      30.729  27.586  24.209  1.00  0.00    -0.352 N 
ATOM      4  C   UNL A   1      30.982  27.179  22.920  1.00  0.00     0.254 C 
ATOM      5  O   UNL A   1      30.407  27.773  22.010  1.00  0.00    -0.269 OA
ATOM      6  H   UNL A   1      30.038  28.282  24.291  1.00  0.00     0.163 HD
BRANCH   4   7
ATOM      7  C   UNL A   1      31.947  26.131  22.640  1.00  0.00     0.077 A 
ATOM      8  N   UNL A   1      33.112  24.266  22.623  1.00  0.00    -0.260 N 
ATOM      9  C   UNL A   1      31.833  24.753  22.671  1.00  0.00     0.123 A 
ATOM     10  N   UNL A   1      33.973  25.187  22.135  1.00  0.00    -0.180 NA
ATOM     11  C   UNL A   1      33.277  26.326  22.199  1.00  0.00     0.149 A 
BRANCH   8  12
ATOM     12  C   UNL A   1      33.599  22.930  23.008  1.00  0.00     0.193 C 
ATOM     13  C   UNL A   1      35.109  22.956  23.268  1.00  0.00     0.044 C 
BRANCH  12  14
ATOM     14  C   UNL A   1      32.888  22.377  24.253  1.00  0.00     0.244 C 
ATOM     15  O   UNL A   1      32.834  22.972  25.332  1.00  0.00    -0.273 OA
ATOM     16  N   UNL A   1      32.254  21.168  24.217  1.00  0.00    -0.350 N 
ATOM     17  H   UNL A   1      31.712  20.971  25.014  1.00  0.00     0.163 HD
BRANCH  16  18
ATOM     18  C   UNL A   1      32.237  20.125  23.209  1.00  0.00     0.151 C 
BRANCH  18  19
ATOM     19  C   UNL A   1      32.689  18.805  23.795  1.00  0.00    -0.029 A 
ATOM     20  C   UNL A   1      32.529  18.537  25.164  1.00  0.00     0.008 A 
ATOM     21  C   UNL A   1      33.276  17.819  22.980  1.00  0.00     0.008 A 
ATOM     22  C   UNL A   1      32.900  17.299  25.696  1.00  0.00     0.039 A 
ATOM     23  C   UNL A   1      33.653  16.585  23.515  1.00  0.00     0.039 A 
ATOM     24  C   UNL A   1      33.454  16.334  24.867  1.00  0.00     0.123 A 
ATOM     25  F   UNL A   1      33.803  15.146  25.375  1.00  0.00    -0.207 F 
ENDBRANCH  18  19
ENDBRANCH  16  18
ENDBRANCH  12  14
ENDBRANCH   8  12
ENDBRANCH   4   7
ENDBRANCH   2   3
ENDBRANCH   1   2
BRANCH   1  26
ATOM     26  C   UNL A   1      33.279  28.109  26.859  1.00  0.00     0.002 C 
BRANCH  26  27
ATOM     27  C   UNL A   1      34.160  29.361  26.954  1.00  0.00     0.002 C 
BRANCH  27  28
ATOM     28  C   UNL A   1      33.489  30.650  27.451  1.00  0.00     0.021 C 
BRANCH  28  29
ATOM     29  C   UNL A   1      34.432  31.831  27.626  1.00  0.00     0.116 C 
BRANCH  29  30
ATOM     30  N   UNL A   1      34.403  32.382  28.977  1.00  0.00    -0.352 N 
ATOM     31  C   UNL A   1      35.140  31.992  30.078  1.00  0.00     0.251 C 
ATOM     32  H   UNL A   1      33.778  33.128  29.123  1.00  0.00     0.163 HD
ATOM     33  O   UNL A   1      34.768  32.257  31.210  1.00  0.00    -0.269 OA
BRANCH  31  34
ATOM     34  C   UNL A   1      36.392  31.239  29.869  1.00  0.00     0.039 A 
ATOM     35  C   UNL A   1      37.600  31.910  29.668  1.00  0.00     0.014 A 
ATOM     36  C   UNL A   1      36.345  29.846  29.883  1.00  0.00     0.014 A 
ATOM     37  C   UNL A   1      38.774  31.168  29.566  1.00  0.00     0.010 A 
ATOM     38  C   UNL A   1      37.512  29.122  29.918  1.00  0.00     0.010 A 
ATOM     39  C   UNL A   1      38.726  29.773  29.720  1.00  0.00    -0.014 A 
BRANCH  39  40
ATOM     40  C   UNL A   1      39.964  29.007  29.851  1.00  0.00     0.031 A 
ATOM     41  C   UNL A   1      40.372  28.788  31.267  1.00  0.00     0.074 A 
ATOM     42  C   UNL A   1      40.553  28.363  28.816  1.00  0.00     0.049 A 
ATOM     43  N   UNL A   1      41.437  29.215  31.857  1.00  0.00    -0.248 NA
ATOM     44  C   UNL A   1      39.414  28.139  32.184  1.00  0.00     0.031 C 
ATOM     45  C   UNL A   1      40.033  28.237  27.448  1.00  0.00     0.029 A 
ATOM     46  N   UNL A   1      41.668  27.574  28.782  1.00  0.00    -0.354 N 
ATOM     47  C   UNL A   1      41.394  28.697  33.149  1.00  0.00     0.074 A 
ATOM     48  C   UNL A   1      40.055  28.220  33.353  1.00  0.00     0.031 C 
ATOM     49  C   UNL A   1      40.671  27.231  26.811  1.00  0.00     0.029 A 
ATOM     50  C   UNL A   1      41.756  26.764  27.651  1.00  0.00     0.049 A 
ATOM     51  H   UNL A   1      42.350  27.579  29.492  1.00  0.00     0.167 HD
ATOM     52  C   UNL A   1      42.552  28.423  33.813  1.00  0.00     0.037 A 
ATOM     53  C   UNL A   1      42.638  25.757  27.437  1.00  0.00     0.037 A 
ATOM     54  C   UNL A   1      43.666  29.051  33.153  1.00  0.00     0.049 A 
ATOM     55  C   UNL A   1      43.789  25.980  28.340  1.00  0.00     0.074 A 
ATOM     56  C   UNL A   1      44.171  30.325  33.031  1.00  0.00     0.029 A 
ATOM     57  N   UNL A   1      44.174  28.306  32.125  1.00  0.00    -0.354 N 
ATOM     58  N   UNL A   1      44.616  26.980  28.224  1.00  0.00    -0.248 NA
ATOM     59  C   UNL A   1      43.846  25.260  29.609  1.00  0.00     0.031 C 
ATOM     60  C   UNL A   1      44.886  30.351  31.796  1.00  0.00     0.029 A 
ATOM     61  C   UNL A   1      44.849  29.080  31.226  1.00  0.00     0.049 A 
ATOM     62  H   UNL A   1      44.067  27.330  32.044  1.00  0.00     0.167 HD
ATOM     63  C   UNL A   1      44.959  27.283  29.525  1.00  0.00     0.074 A 
ATOM     64  C   UNL A   1      44.621  26.098  30.301  1.00  0.00     0.031 C 
ATOM     65  C   UNL A   1      45.150  28.578  29.904  1.00  0.00     0.037 A 
BRANCH  52  66
ATOM     66  C   UNL A   1      42.778  27.217  34.706  1.00  0.00     0.064 A 
ATOM     67  C   UNL A   1      43.135  25.937  34.231  1.00  0.00     0.173 A 
ATOM     68  C   UNL A   1      42.964  27.417  36.093  1.00  0.00     0.173 A 
ATOM     69  F   UNL A   1      43.132  25.633  32.928  1.00  0.00    -0.203 F 
ATOM     70  C   UNL A   1      43.634  24.938  35.066  1.00  0.00     0.198 A 
ATOM     71  C   UNL A   1      43.513  26.429  36.918  1.00  0.00     0.198 A 
ATOM     72  F   UNL A   1      42.696  28.605  36.654  1.00  0.00    -0.203 F 
ATOM     73  F   UNL A   1      43.979  23.754  34.541  1.00  0.00    -0.200 F 
ATOM     74  C   UNL A   1      43.847  25.191  36.405  1.00  0.00     0.200 A 
ATOM     75  F   UNL A   1      43.777  26.704  38.203  1.00  0.00    -0.200 F 
ATOM     76  F   UNL A   1      44.417  24.259  37.180  1.00  0.00    -0.200 F 
ENDBRANCH  52  66
BRANCH  53  77
ATOM     77  C   UNL A   1      42.462  24.473  26.713  1.00  0.00     0.064 A 
ATOM     78  C   UNL A   1      41.754  23.398  27.284  1.00  0.00     0.173 A 
ATOM     79  C   UNL A   1      43.263  24.169  25.597  1.00  0.00     0.173 A 
ATOM     80  F   UNL A   1      40.998  23.575  28.375  1.00  0.00    -0.203 F 
ATOM     81  C   UNL A   1      41.894  22.092  26.811  1.00  0.00     0.198 A 
ATOM     82  C   UNL A   1      43.408  22.858  25.129  1.00  0.00     0.198 A 
ATOM     83  F   UNL A   1      43.986  25.129  25.002  1.00  0.00    -0.203 F 
ATOM     84  F   UNL A   1      41.264  21.087  27.438  1.00  0.00    -0.200 F 
ATOM     85  C   UNL A   1      42.740  21.818  25.751  1.00  0.00     0.200 A 
ATOM     86  F   UNL A   1      44.256  22.598  24.124  1.00  0.00    -0.200 F 
ATOM     87  F   UNL A   1      42.946  20.553  25.361  1.00  0.00    -0.200 F 
ENDBRANCH  53  77
BRANCH  65  88
ATOM     88  C   UNL A   1      45.559  29.560  28.853  1.00  0.00     0.064 A 
ATOM     89  C   UNL A   1      44.542  30.323  28.263  1.00  0.00     0.173 A 
ATOM     90  C   UNL A   1      46.863  29.717  28.357  1.00  0.00     0.173 A 
ATOM     91  F   UNL A   1      43.273  30.187  28.679  1.00  0.00    -0.203 F 
ATOM     92  C   UNL A   1      44.808  31.197  27.216  1.00  0.00     0.198 A 
ATOM     93  C   UNL A   1      47.134  30.628  27.334  1.00  0.00     0.198 A 
ATOM     94  F   UNL A   1      47.876  28.972  28.818  1.00  0.00    -0.203 F 
ATOM     95  F   UNL A   1      43.801  31.866  26.637  1.00  0.00    -0.200 F 
ATOM     96  C   UNL A   1      46.105  31.358  26.759  1.00  0.00     0.200 A 
ATOM     97  F   UNL A   1      48.389  30.780  26.886  1.00  0.00    -0.200 F 
ATOM     98  F   UNL A   1      46.358  32.201  25.749  1.00  0.00    -0.200 F 
ENDBRANCH  65  88
ENDBRANCH  39  40
ENDBRANCH  31  34
ENDBRANCH  29  30
ENDBRANCH  28  29
ENDBRANCH  27  28
ENDBRANCH  26  27
ENDBRANCH   1  26
TORSDOF 17
ENDMDL
MODEL 3
REMARK VINA RESULT:     -12.0      4.094      9.801
REMARK SMILES C[C@@H](C(=O)NCc1ccc(F)cc1)n1cc(C(=O)NCCCCCCNC(=O)c2ccc(-c3c4nc(c(-c5c(F)c(F)c(F)c(F)c5F)c5ccc([nH]5)c(-c5c(F)c(F)c(F)c(F)c5F)c5nc(c(-c6c(F)c(F)c(F)c(F)c6F)c6ccc3[nH]6)C=C5)C=C4)cc2)cn1
REMARK SMILES IDX 21 1 20 2 19 3 17 4 18 5 16 7 14 8 15 9 93 10 92 11 2 12
REMARK SMILES IDX 1 13 3 14 4 15 5 16 6 18 7 19 8 20 13 21 9 22 12 23 10 24
REMARK SMILES IDX 11 25 22 26 23 27 24 28 25 29 26 30 27 31 28 33 29 34 30 35
REMARK SMILES IDX 91 36 31 37 90 38 32 39 33 40 34 41 84 42 35 43 89 44 83 45
REMARK SMILES IDX 85 46 36 47 88 48 82 49 81 50 37 52 69 53 49 54 68 55 50 56
REMARK SMILES IDX 53 57 67 58 86 59 51 60 52 61 66 63 87 64 54 65 38 66 39 67
REMARK SMILES IDX 47 68 40 69 41 70 45 71 48 72 42 73 43 74 46 75 44 76 70 77
REMARK SMILES IDX 71 78 79 79 72 80 73 81 77 82 80 83 74 84 75 85 78 86 76 87
REMARK SMILES IDX 55 88 56 89 64 90 57 91 58 92 62 93 65 94 59 95 60 96 63 97
REMARK SMILES IDX 61 98
REMARK H PARENT 19 6 5 17 26 32 85 51 53 62
REMARK Flexibility Score: inf
ROOT
ATOM      1  C   UNL A   1      39.373  23.308  26.490  1.00  0.00     0.021 C 
ENDROOT
BRANCH   1   2
ATOM      2  C   UNL A   1      37.906  23.584  26.167  1.00  0.00     0.116 C 
BRANCH   2   3
ATOM      3  N   UNL A   1      37.096  22.385  26.081  1.00  0.00    -0.352 N 
ATOM      4  C   UNL A   1      35.758  22.224  25.806  1.00  0.00     0.254 C 
ATOM      5  O   UNL A   1      35.292  21.088  25.883  1.00  0.00    -0.269 OA
ATOM      6  H   UNL A   1      37.585  21.546  26.245  1.00  0.00     0.163 HD
BRANCH   4   7
ATOM      7  C   UNL A   1      34.912  23.363  25.504  1.00  0.00     0.077 A 
ATOM      8  N   UNL A   1      34.086  25.251  24.735  1.00  0.00    -0.260 N 
ATOM      9  C   UNL A   1      34.803  24.144  24.367  1.00  0.00     0.123 A 
ATOM     10  N   UNL A   1      33.379  25.028  25.866  1.00  0.00    -0.180 NA
ATOM     11  C   UNL A   1      33.922  23.910  26.355  1.00  0.00     0.149 A 
BRANCH   8  12
ATOM     12  C   UNL A   1      34.005  26.557  24.059  1.00  0.00     0.193 C 
ATOM     13  C   UNL A   1      33.212  26.446  22.753  1.00  0.00     0.044 C 
BRANCH  12  14
ATOM     14  C   UNL A   1      33.363  27.640  24.941  1.00  0.00     0.244 C 
ATOM     15  O   UNL A   1      34.002  28.367  25.707  1.00  0.00    -0.273 OA
ATOM     16  N   UNL A   1      32.016  27.862  24.909  1.00  0.00    -0.350 N 
ATOM     17  H   UNL A   1      31.725  28.664  25.399  1.00  0.00     0.163 HD
BRANCH  16  18
ATOM     18  C   UNL A   1      30.939  27.121  24.279  1.00  0.00     0.151 C 
BRANCH  18  19
ATOM     19  C   UNL A   1      30.058  28.044  23.464  1.00  0.00    -0.029 A 
ATOM     20  C   UNL A   1      28.665  27.872  23.446  1.00  0.00     0.008 A 
ATOM     21  C   UNL A   1      30.617  29.094  22.713  1.00  0.00     0.008 A 
ATOM     22  C   UNL A   1      27.847  28.754  22.735  1.00  0.00     0.039 A 
ATOM     23  C   UNL A   1      29.799  29.970  21.996  1.00  0.00     0.039 A 
ATOM     24  C   UNL A   1      28.421  29.796  22.020  1.00  0.00     0.123 A 
ATOM     25  F   UNL A   1      27.637  30.646  21.344  1.00  0.00    -0.207 F 
ENDBRANCH  18  19
ENDBRANCH  16  18
ENDBRANCH  12  14
ENDBRANCH   8  12
ENDBRANCH   4   7
ENDBRANCH   2   3
ENDBRANCH   1   2
BRANCH   1  26
ATOM     26  C   UNL A   1      39.745  21.848  26.742  1.00  0.00     0.002 C 
BRANCH  26  27
ATOM     27  C   UNL A   1      40.901  21.592  27.716  1.00  0.00     0.002 C 
BRANCH  27  28
ATOM     28  C   UNL A   1      41.869  20.452  27.367  1.00  0.00     0.021 C 
BRANCH  28  29
ATOM     29  C   UNL A   1      41.887  20.060  25.897  1.00  0.00     0.116 C 
BRANCH  29  30
ATOM     30  N   UNL A   1      43.226  19.744  25.412  1.00  0.00    -0.352 N 
ATOM     31  C   UNL A   1      44.227  20.616  25.030  1.00  0.00     0.251 C 
ATOM     32  H   UNL A   1      43.445  18.787  25.350  1.00  0.00     0.163 HD
ATOM     33  O   UNL A   1      45.136  20.249  24.302  1.00  0.00    -0.269 OA
BRANCH  31  34
ATOM     34  C   UNL A   1      44.183  22.010  25.511  1.00  0.00     0.039 A 
ATOM     35  C   UNL A   1      43.283  22.925  24.958  1.00  0.00     0.014 A 
ATOM     36  C   UNL A   1      45.049  22.392  26.533  1.00  0.00     0.014 A 
ATOM     37  C   UNL A   1      43.206  24.205  25.501  1.00  0.00     0.010 A 
ATOM     38  C   UNL A   1      44.881  23.606  27.155  1.00  0.00     0.010 A 
ATOM     39  C   UNL A   1      43.990  24.531  26.620  1.00  0.00    -0.014 A 
BRANCH  39  40
ATOM     40  C   UNL A   1      43.752  25.779  27.342  1.00  0.00     0.031 A 
ATOM     41  C   UNL A   1      44.679  26.874  26.940  1.00  0.00     0.074 A 
ATOM     42  C   UNL A   1      42.665  25.994  28.118  1.00  0.00     0.049 A 
ATOM     43  N   UNL A   1      45.558  27.473  27.672  1.00  0.00    -0.248 NA
ATOM     44  C   UNL A   1      44.745  27.256  25.515  1.00  0.00     0.031 C 
ATOM     45  C   UNL A   1      41.520  25.092  28.298  1.00  0.00     0.029 A 
ATOM     46  N   UNL A   1      42.276  27.106  28.810  1.00  0.00    -0.354 N 
ATOM     47  C   UNL A   1      46.122  28.459  26.864  1.00  0.00     0.074 A 
ATOM     48  C   UNL A   1      45.736  28.151  25.516  1.00  0.00     0.031 C 
ATOM     49  C   UNL A   1      40.477  25.778  28.814  1.00  0.00     0.029 A 
ATOM     50  C   UNL A   1      40.928  27.110  29.167  1.00  0.00     0.049 A 
ATOM     51  H   UNL A   1      42.893  27.839  29.037  1.00  0.00     0.167 HD
ATOM     52  C   UNL A   1      46.590  29.610  27.420  1.00  0.00     0.037 A 
ATOM     53  C   UNL A   1      40.226  28.148  29.684  1.00  0.00     0.037 A 
ATOM     54  C   UNL A   1      46.718  29.461  28.846  1.00  0.00     0.049 A 
ATOM     55  C   UNL A   1      41.202  29.090  30.275  1.00  0.00     0.074 A 
ATOM     56  C   UNL A   1      47.577  28.827  29.714  1.00  0.00     0.029 A 
ATOM     57  N   UNL A   1      45.554  29.703  29.521  1.00  0.00    -0.354 N 
ATOM     58  N   UNL A   1      41.928  28.817  31.322  1.00  0.00    -0.248 NA
ATOM     59  C   UNL A   1      41.627  30.250  29.499  1.00  0.00     0.031 C 
ATOM     60  C   UNL A   1      46.822  28.565  30.897  1.00  0.00     0.029 A 
ATOM     61  C   UNL A   1      45.542  29.094  30.743  1.00  0.00     0.049 A 
ATOM     62  H   UNL A   1      44.814  30.251  29.169  1.00  0.00     0.167 HD
ATOM     63  C   UNL A   1      43.118  29.472  31.082  1.00  0.00     0.074 A 
ATOM     64  C   UNL A   1      42.813  30.473  30.070  1.00  0.00     0.031 C 
ATOM     65  C   UNL A   1      44.301  28.911  31.461  1.00  0.00     0.037 A 
BRANCH  52  66
ATOM     66  C   UNL A   1      46.442  30.992  26.811  1.00  0.00     0.064 A 
ATOM     67  C   UNL A   1      45.201  31.605  26.532  1.00  0.00     0.173 A 
ATOM     68  C   UNL A   1      47.556  31.862  26.807  1.00  0.00     0.173 A 
ATOM     69  F   UNL A   1      44.043  30.943  26.619  1.00  0.00    -0.203 F 
ATOM     70  C   UNL A   1      45.079  32.969  26.268  1.00  0.00     0.198 A 
ATOM     71  C   UNL A   1      47.422  33.238  26.592  1.00  0.00     0.198 A 
ATOM     72  F   UNL A   1      48.782  31.403  27.096  1.00  0.00    -0.203 F 
ATOM     73  F   UNL A   1      43.865  33.489  26.039  1.00  0.00    -0.200 F 
ATOM     74  C   UNL A   1      46.185  33.791  26.323  1.00  0.00     0.200 A 
ATOM     75  F   UNL A   1      48.492  34.039  26.711  1.00  0.00    -0.200 F 
ATOM     76  F   UNL A   1      46.045  35.114  26.165  1.00  0.00    -0.200 F 
ENDBRANCH  52  66
BRANCH  53  77
ATOM     77  C   UNL A   1      38.805  28.532  29.484  1.00  0.00     0.064 A 
ATOM     78  C   UNL A   1      38.339  29.004  28.243  1.00  0.00     0.173 A 
ATOM     79  C   UNL A   1      37.965  28.753  30.590  1.00  0.00     0.173 A 
ATOM     80  F   UNL A   1      39.084  28.880  27.136  1.00  0.00    -0.203 F 
ATOM     81  C   UNL A   1      37.142  29.713  28.128  1.00  0.00     0.198 A 
ATOM     82  C   UNL A   1      36.770  29.471  30.476  1.00  0.00     0.198 A 
ATOM     83  F   UNL A   1      38.339  28.352  31.814  1.00  0.00    -0.203 F 
ATOM     84  F   UNL A   1      36.778  30.216  26.939  1.00  0.00    -0.200 F 
ATOM     85  C   UNL A   1      36.371  29.969  29.248  1.00  0.00     0.200 A 
ATOM     86  F   UNL A   1      36.047  29.743  31.571  1.00  0.00    -0.200 F 
ATOM     87  F   UNL A   1      35.273  30.731  29.151  1.00  0.00    -0.200 F 
ENDBRANCH  53  77
BRANCH  65  88
ATOM     88  C   UNL A   1      44.282  27.943  32.600  1.00  0.00     0.064 A 
ATOM     89  C   UNL A   1      44.489  28.465  33.885  1.00  0.00     0.173 A 
ATOM     90  C   UNL A   1      44.154  26.550  32.477  1.00  0.00     0.173 A 
ATOM     91  F   UNL A   1      44.648  29.787  34.054  1.00  0.00    -0.203 F 
ATOM     92  C   UNL A   1      44.578  27.638  34.997  1.00  0.00     0.198 A 
ATOM     93  C   UNL A   1      44.201  25.725  33.601  1.00  0.00     0.198 A 
ATOM     94  F   UNL A   1      44.027  25.969  31.276  1.00  0.00    -0.203 F 
ATOM     95  F   UNL A   1      44.835  28.168  36.200  1.00  0.00    -0.200 F 
ATOM     96  C   UNL A   1      44.423  26.269  34.857  1.00  0.00     0.200 A 
ATOM     97  F   UNL A   1      44.058  24.398  33.467  1.00  0.00    -0.200 F 
ATOM     98  F   UNL A   1      44.509  25.473  35.931  1.00  0.00    -0.200 F 
ENDBRANCH  65  88
ENDBRANCH  39  40
ENDBRANCH  31  34
ENDBRANCH  29  30
ENDBRANCH  28  29
ENDBRANCH  27  28
ENDBRANCH  26  27
ENDBRANCH   1  26
TORSDOF 17
ENDMDL
