MODEL 1
REMARK VINA RESULT:     -12.4      0.000      0.000
REMARK SMILES Nc1c(Cl)ccc2c1C=C(C(=O)NCCCCCCNC(=O)c1ccc(-c3c4nc(c(-c5c(F)c(F)c(F)c(F)c5F)c5ccc([nH]5)c(-c5c(F)c(F)c(F)c(F)c5F)c5nc(c(-c6c(F)c(F)c(F)c(F)c6F)c6ccc3[nH]6)C=C5)C=C4)cc1)[C@@H](C(F)(F)F)O2
REMARK SMILES IDX 17 1 16 2 15 3 14 4 13 5 11 6 12 7 10 9 2 10 3 11 8 12 4 13
REMARK SMILES IDX 5 14 7 15 9 16 6 17 91 18 86 19 1 20 87 23 88 24 89 25 90 26
REMARK SMILES IDX 18 27 19 28 20 29 21 30 22 32 23 33 24 34 85 35 25 36 84 37
REMARK SMILES IDX 26 38 27 39 28 40 78 41 29 42 83 43 77 44 79 45 30 46 82 47
REMARK SMILES IDX 76 48 75 49 31 51 63 52 43 53 62 54 44 55 47 56 61 57 80 58
REMARK SMILES IDX 45 59 46 60 60 62 81 63 48 64 32 65 33 66 41 67 34 68 35 69
REMARK SMILES IDX 39 70 42 71 36 72 37 73 40 74 38 75 64 76 65 77 73 78 66 79
REMARK SMILES IDX 67 80 71 81 74 82 68 83 69 84 72 85 70 86 49 87 50 88 58 89
REMARK SMILES IDX 51 90 52 91 56 92 59 93 53 94 54 95 57 96 55 97
REMARK H PARENT 13 8 1 21 1 22 20 31 79 50 47 61
REMARK Flexibility Score: inf
ROOT
ATOM      1  C   UNL A   1      31.560  30.430  25.773  1.00  0.00     0.002 C 
ENDROOT
BRANCH   1   2
ATOM      2  C   UNL A   1      32.695  29.568  26.343  1.00  0.00     0.002 C 
BRANCH   2   3
ATOM      3  C   UNL A   1      33.559  28.848  25.302  1.00  0.00     0.021 C 
BRANCH   3   4
ATOM      4  C   UNL A   1      33.926  27.417  25.682  1.00  0.00     0.116 C 
BRANCH   4   5
ATOM      5  N   UNL A   1      33.853  26.525  24.539  1.00  0.00    -0.352 N 
ATOM      6  C   UNL A   1      32.911  26.105  23.665  1.00  0.00     0.251 C 
ATOM      7  O   UNL A   1      33.314  25.311  22.809  1.00  0.00    -0.270 OA
ATOM      8  H   UNL A   1      34.727  26.113  24.350  1.00  0.00     0.163 HD
BRANCH   6   9
ATOM      9  C   UNL A   1      31.475  26.521  23.667  1.00  0.00     0.067 C 
ATOM     10  C   UNL A   1      29.514  29.446  22.408  1.00  0.00     0.061 A 
ATOM     11  C   UNL A   1      28.160  29.852  22.426  1.00  0.00     0.064 A 
ATOM     12  C   UNL A   1      29.838  28.181  22.951  1.00  0.00     0.042 A 
ATOM     13  Cl  UNL A   1      27.695  31.404  21.811  1.00  0.00    -0.082 Cl
ATOM     14  C   UNL A   1      27.151  29.021  22.915  1.00  0.00     0.026 A 
ATOM     15  C   UNL A   1      28.814  27.364  23.452  1.00  0.00     0.130 A 
ATOM     16  C   UNL A   1      31.203  27.650  22.987  1.00  0.00     0.027 C 
ATOM     17  C   UNL A   1      27.480  27.770  23.422  1.00  0.00     0.049 A 
ATOM     18  O   UNL A   1      29.029  26.116  23.961  1.00  0.00    -0.475 OA
ATOM     19  C   UNL A   1      30.378  25.799  24.392  1.00  0.00     0.314 C 
BRANCH  10  20
ATOM     20  N   UNL A   1      30.498  30.334  21.963  1.00  0.00    -0.397 N 
ATOM     21  H   UNL A   1      30.247  31.241  21.674  1.00  0.00     0.156 HD
ATOM     22  H   UNL A   1      31.441  30.052  21.938  1.00  0.00     0.156 HD
ENDBRANCH  10  20
BRANCH  19  23
ATOM     23  C   UNL A   1      30.465  25.945  25.921  1.00  0.00     0.429 C 
ATOM     24  F   UNL A   1      29.325  25.493  26.504  1.00  0.00    -0.167 F 
ATOM     25  F   UNL A   1      31.475  25.222  26.457  1.00  0.00    -0.167 F 
ATOM     26  F   UNL A   1      30.642  27.226  26.313  1.00  0.00    -0.167 F 
ENDBRANCH  19  23
ENDBRANCH   6   9
ENDBRANCH   4   5
ENDBRANCH   3   4
ENDBRANCH   2   3
ENDBRANCH   1   2
BRANCH   1  27
ATOM     27  C   UNL A   1      31.360  31.788  26.454  1.00  0.00     0.021 C 
BRANCH  27  28
ATOM     28  C   UNL A   1      32.644  32.440  26.950  1.00  0.00     0.116 C 
BRANCH  28  29
ATOM     29  N   UNL A   1      32.424  33.812  27.371  1.00  0.00    -0.352 N 
ATOM     30  C   UNL A   1      33.019  34.497  28.400  1.00  0.00     0.251 C 
ATOM     31  H   UNL A   1      31.760  34.318  26.850  1.00  0.00     0.163 HD
ATOM     32  O   UNL A   1      32.589  35.587  28.764  1.00  0.00    -0.269 OA
BRANCH  30  33
ATOM     33  C   UNL A   1      34.186  33.900  29.075  1.00  0.00     0.039 A 
ATOM     34  C   UNL A   1      35.464  34.362  28.756  1.00  0.00     0.014 A 
ATOM     35  C   UNL A   1      34.006  32.885  30.021  1.00  0.00     0.014 A 
ATOM     36  C   UNL A   1      36.570  33.830  29.419  1.00  0.00     0.010 A 
ATOM     37  C   UNL A   1      35.105  32.392  30.717  1.00  0.00     0.010 A 
ATOM     38  C   UNL A   1      36.395  32.851  30.411  1.00  0.00    -0.014 A 
BRANCH  38  39
ATOM     39  C   UNL A   1      37.561  32.255  31.102  1.00  0.00     0.031 A 
ATOM     40  C   UNL A   1      38.334  31.158  30.432  1.00  0.00     0.074 A 
ATOM     41  C   UNL A   1      37.898  32.675  32.334  1.00  0.00     0.049 A 
ATOM     42  N   UNL A   1      39.370  30.490  30.869  1.00  0.00    -0.248 NA
ATOM     43  C   UNL A   1      37.872  30.745  29.097  1.00  0.00     0.031 C 
ATOM     44  C   UNL A   1      37.201  33.714  33.092  1.00  0.00     0.029 A 
ATOM     45  N   UNL A   1      38.912  32.276  33.168  1.00  0.00    -0.354 N 
ATOM     46  C   UNL A   1      39.685  29.586  29.865  1.00  0.00     0.074 A 
ATOM     47  C   UNL A   1      38.697  29.746  28.820  1.00  0.00     0.031 C 
ATOM     48  C   UNL A   1      37.819  33.885  34.271  1.00  0.00     0.029 A 
ATOM     49  C   UNL A   1      38.939  32.951  34.363  1.00  0.00     0.049 A 
ATOM     50  H   UNL A   1      39.558  31.572  32.932  1.00  0.00     0.167 HD
ATOM     51  C   UNL A   1      40.724  28.722  29.806  1.00  0.00     0.037 A 
ATOM     52  C   UNL A   1      39.778  32.830  35.409  1.00  0.00     0.037 A 
ATOM     53  C   UNL A   1      41.712  28.576  30.841  1.00  0.00     0.049 A 
ATOM     54  C   UNL A   1      40.903  31.833  35.336  1.00  0.00     0.074 A 
ATOM     55  C   UNL A   1      42.827  27.760  30.860  1.00  0.00     0.029 A 
ATOM     56  N   UNL A   1      41.697  29.266  32.044  1.00  0.00    -0.354 N 
ATOM     57  N   UNL A   1      41.228  31.024  34.357  1.00  0.00    -0.248 NA
ATOM     58  C   UNL A   1      41.781  31.735  36.511  1.00  0.00     0.031 C 
ATOM     59  C   UNL A   1      43.467  27.923  32.092  1.00  0.00     0.029 A 
ATOM     60  C   UNL A   1      42.774  28.876  32.823  1.00  0.00     0.049 A 
ATOM     61  H   UNL A   1      41.024  29.934  32.306  1.00  0.00     0.167 HD
ATOM     62  C   UNL A   1      42.357  30.339  34.785  1.00  0.00     0.074 A 
ATOM     63  C   UNL A   1      42.669  30.835  36.109  1.00  0.00     0.031 C 
ATOM     64  C   UNL A   1      43.070  29.385  34.138  1.00  0.00     0.037 A 
BRANCH  51  65
ATOM     65  C   UNL A   1      40.857  27.878  28.574  1.00  0.00     0.064 A 
ATOM     66  C   UNL A   1      40.189  26.649  28.457  1.00  0.00     0.173 A 
ATOM     67  C   UNL A   1      41.616  28.321  27.482  1.00  0.00     0.173 A 
ATOM     68  F   UNL A   1      39.462  26.177  29.481  1.00  0.00    -0.203 F 
ATOM     69  C   UNL A   1      40.295  25.884  27.299  1.00  0.00     0.198 A 
ATOM     70  C   UNL A   1      41.697  27.565  26.315  1.00  0.00     0.198 A 
ATOM     71  F   UNL A   1      42.271  29.490  27.541  1.00  0.00    -0.203 F 
ATOM     72  F   UNL A   1      39.682  24.695  27.226  1.00  0.00    -0.200 F 
ATOM     73  C   UNL A   1      41.042  26.347  26.226  1.00  0.00     0.200 A 
ATOM     74  F   UNL A   1      42.411  28.018  25.273  1.00  0.00    -0.200 F 
ATOM     75  F   UNL A   1      41.133  25.614  25.107  1.00  0.00    -0.200 F 
ENDBRANCH  51  65
BRANCH  52  76
ATOM     76  C   UNL A   1      39.606  33.705  36.596  1.00  0.00     0.064 A 
ATOM     77  C   UNL A   1      38.827  33.291  37.685  1.00  0.00     0.173 A 
ATOM     78  C   UNL A   1      40.227  34.960  36.677  1.00  0.00     0.173 A 
ATOM     79  F   UNL A   1      38.197  32.108  37.644  1.00  0.00    -0.203 F 
ATOM     80  C   UNL A   1      38.669  34.101  38.807  1.00  0.00     0.198 A 
ATOM     81  C   UNL A   1      40.088  35.760  37.810  1.00  0.00     0.198 A 
ATOM     82  F   UNL A   1      40.985  35.401  35.663  1.00  0.00    -0.203 F 
ATOM     83  F   UNL A   1      37.894  33.693  39.821  1.00  0.00    -0.200 F 
ATOM     84  C   UNL A   1      39.305  35.332  38.872  1.00  0.00     0.200 A 
ATOM     85  F   UNL A   1      40.714  36.942  37.874  1.00  0.00    -0.200 F 
ATOM     86  F   UNL A   1      39.161  36.106  39.956  1.00  0.00    -0.200 F 
ENDBRANCH  52  76
BRANCH  64  87
ATOM     87  C   UNL A   1      44.268  28.818  34.840  1.00  0.00     0.064 A 
ATOM     88  C   UNL A   1      45.523  29.438  34.756  1.00  0.00     0.173 A 
ATOM     89  C   UNL A   1      44.140  27.698  35.675  1.00  0.00     0.173 A 
ATOM     90  F   UNL A   1      45.697  30.505  33.961  1.00  0.00    -0.203 F 
ATOM     91  C   UNL A   1      46.610  28.951  35.477  1.00  0.00     0.198 A 
ATOM     92  C   UNL A   1      45.222  27.230  36.415  1.00  0.00     0.198 A 
ATOM     93  F   UNL A   1      42.958  27.076  35.796  1.00  0.00    -0.203 F 
ATOM     94  F   UNL A   1      47.807  29.541  35.361  1.00  0.00    -0.200 F 
ATOM     95  C   UNL A   1      46.456  27.854  36.313  1.00  0.00     0.200 A 
ATOM     96  F   UNL A   1      45.067  26.180  37.234  1.00  0.00    -0.200 F 
ATOM     97  F   UNL A   1      47.498  27.399  37.022  1.00  0.00    -0.200 F 
ENDBRANCH  64  87
ENDBRANCH  38  39
ENDBRANCH  30  33
ENDBRANCH  28  29
ENDBRANCH  27  28
ENDBRANCH   1  27
TORSDOF 15
ENDMDL
MODEL 2
REMARK VINA RESULT:     -12.3      0.522      7.342
REMARK SMILES Nc1c(Cl)ccc2c1C=C(C(=O)NCCCCCCNC(=O)c1ccc(-c3c4nc(c(-c5c(F)c(F)c(F)c(F)c5F)c5ccc([nH]5)c(-c5c(F)c(F)c(F)c(F)c5F)c5nc(c(-c6c(F)c(F)c(F)c(F)c6F)c6ccc3[nH]6)C=C5)C=C4)cc1)[C@@H](C(F)(F)F)O2
REMARK SMILES IDX 17 1 16 2 15 3 14 4 13 5 11 6 12 7 10 9 2 10 3 11 8 12 4 13
REMARK SMILES IDX 5 14 7 15 9 16 6 17 91 18 86 19 1 20 87 23 88 24 89 25 90 26
REMARK SMILES IDX 18 27 19 28 20 29 21 30 22 32 23 33 24 34 85 35 25 36 84 37
REMARK SMILES IDX 26 38 27 39 28 40 78 41 29 42 83 43 77 44 79 45 30 46 82 47
REMARK SMILES IDX 76 48 75 49 31 51 63 52 43 53 62 54 44 55 47 56 61 57 80 58
REMARK SMILES IDX 45 59 46 60 60 62 81 63 48 64 32 65 33 66 41 67 34 68 35 69
REMARK SMILES IDX 39 70 42 71 36 72 37 73 40 74 38 75 64 76 65 77 73 78 66 79
REMARK SMILES IDX 67 80 71 81 74 82 68 83 69 84 72 85 70 86 49 87 50 88 58 89
REMARK SMILES IDX 51 90 52 91 56 92 59 93 53 94 54 95 57 96 55 97
REMARK H PARENT 13 8 1 21 1 22 20 31 79 50 47 61
REMARK Flexibility Score: inf
ROOT
ATOM      1  C   UNL A   1      31.520  30.472  25.834  1.00  0.00     0.002 C 
ENDROOT
BRANCH   1   2
ATOM      2  C   UNL A   1      32.629  29.567  26.388  1.00  0.00     0.002 C 
BRANCH   2   3
ATOM      3  C   UNL A   1      33.495  28.869  25.333  1.00  0.00     0.021 C 
BRANCH   3   4
ATOM      4  C   UNL A   1      33.839  27.422  25.671  1.00  0.00     0.116 C 
BRANCH   4   5
ATOM      5  N   UNL A   1      33.756  26.565  24.503  1.00  0.00    -0.352 N 
ATOM      6  C   UNL A   1      32.805  26.170  23.627  1.00  0.00     0.251 C 
ATOM      7  O   UNL A   1      33.200  25.404  22.741  1.00  0.00    -0.270 OA
ATOM      8  H   UNL A   1      34.629  26.163  24.290  1.00  0.00     0.163 HD
BRANCH   6   9
ATOM      9  C   UNL A   1      31.367  26.580  23.658  1.00  0.00     0.067 C 
ATOM     10  C   UNL A   1      29.390  29.556  22.555  1.00  0.00     0.061 A 
ATOM     11  C   UNL A   1      28.035  29.957  22.601  1.00  0.00     0.064 A 
ATOM     12  C   UNL A   1      29.721  28.268  23.034  1.00  0.00     0.042 A 
ATOM     13  Cl  UNL A   1      27.561  31.535  22.064  1.00  0.00    -0.082 Cl
ATOM     14  C   UNL A   1      27.032  29.100  23.056  1.00  0.00     0.026 A 
ATOM     15  C   UNL A   1      28.703  27.425  23.502  1.00  0.00     0.130 A 
ATOM     16  C   UNL A   1      31.088  27.740  23.035  1.00  0.00     0.027 C 
ATOM     17  C   UNL A   1      27.367  27.827  23.500  1.00  0.00     0.049 A 
ATOM     18  O   UNL A   1      28.925  26.155  23.949  1.00  0.00    -0.475 OA
ATOM     19  C   UNL A   1      30.278  25.821  24.355  1.00  0.00     0.314 C 
BRANCH  10  20
ATOM     20  N   UNL A   1      30.368  30.468  22.146  1.00  0.00    -0.397 N 
ATOM     21  H   UNL A   1      30.178  31.434  22.164  1.00  0.00     0.156 HD
ATOM     22  H   UNL A   1      31.246  30.144  21.840  1.00  0.00     0.156 HD
ENDBRANCH  10  20
BRANCH  19  23
ATOM     23  C   UNL A   1      30.375  25.894  25.889  1.00  0.00     0.429 C 
ATOM     24  F   UNL A   1      31.379  25.097  26.337  1.00  0.00    -0.167 F 
ATOM     25  F   UNL A   1      30.654  27.139  26.336  1.00  0.00    -0.167 F 
ATOM     26  F   UNL A   1      29.238  25.497  26.502  1.00  0.00    -0.167 F 
ENDBRANCH  19  23
ENDBRANCH   6   9
ENDBRANCH   4   5
ENDBRANCH   3   4
ENDBRANCH   2   3
ENDBRANCH   1   2
BRANCH   1  27
ATOM     27  C   UNL A   1      31.400  31.847  26.499  1.00  0.00     0.021 C 
BRANCH  27  28
ATOM     28  C   UNL A   1      32.732  32.482  26.878  1.00  0.00     0.116 C 
BRANCH  28  29
ATOM     29  N   UNL A   1      32.559  33.827  27.399  1.00  0.00    -0.352 N 
ATOM     30  C   UNL A   1      33.198  34.424  28.456  1.00  0.00     0.251 C 
ATOM     31  H   UNL A   1      31.894  34.384  26.934  1.00  0.00     0.163 HD
ATOM     32  O   UNL A   1      32.807  35.495  28.907  1.00  0.00    -0.269 OA
BRANCH  30  33
ATOM     33  C   UNL A   1      34.367  33.753  29.054  1.00  0.00     0.039 A 
ATOM     34  C   UNL A   1      35.648  34.193  28.716  1.00  0.00     0.014 A 
ATOM     35  C   UNL A   1      34.186  32.691  29.947  1.00  0.00     0.014 A 
ATOM     36  C   UNL A   1      36.757  33.590  29.309  1.00  0.00     0.010 A 
ATOM     37  C   UNL A   1      35.291  32.126  30.575  1.00  0.00     0.010 A 
ATOM     38  C   UNL A   1      36.584  32.562  30.249  1.00  0.00    -0.014 A 
BRANCH  38  39
ATOM     39  C   UNL A   1      37.753  31.891  30.863  1.00  0.00     0.031 A 
ATOM     40  C   UNL A   1      38.193  32.288  32.241  1.00  0.00     0.074 A 
ATOM     41  C   UNL A   1      38.430  30.957  30.171  1.00  0.00     0.049 A 
ATOM     42  N   UNL A   1      39.197  31.843  32.950  1.00  0.00    -0.248 NA
ATOM     43  C   UNL A   1      37.407  33.340  32.907  1.00  0.00     0.031 C 
ATOM     44  C   UNL A   1      38.110  30.513  28.816  1.00  0.00     0.029 A 
ATOM     45  N   UNL A   1      39.532  30.216  30.515  1.00  0.00    -0.354 N 
ATOM     46  C   UNL A   1      39.160  32.552  34.141  1.00  0.00     0.074 A 
ATOM     47  C   UNL A   1      38.074  33.501  34.040  1.00  0.00     0.031 C 
ATOM     48  C   UNL A   1      38.983  29.562  28.449  1.00  0.00     0.029 A 
ATOM     49  C   UNL A   1      39.939  29.348  29.533  1.00  0.00     0.049 A 
ATOM     50  H   UNL A   1      39.989  30.299  31.383  1.00  0.00     0.167 HD
ATOM     51  C   UNL A   1      39.944  32.403  35.234  1.00  0.00     0.037 A 
ATOM     52  C   UNL A   1      40.966  28.476  29.515  1.00  0.00     0.037 A 
ATOM     53  C   UNL A   1      41.015  31.449  35.334  1.00  0.00     0.049 A 
ATOM     54  C   UNL A   1      41.848  28.357  30.728  1.00  0.00     0.074 A 
ATOM     55  C   UNL A   1      41.841  31.189  36.412  1.00  0.00     0.029 A 
ATOM     56  N   UNL A   1      41.408  30.597  34.312  1.00  0.00    -0.354 N 
ATOM     57  N   UNL A   1      41.769  28.991  31.873  1.00  0.00    -0.248 NA
ATOM     58  C   UNL A   1      42.960  27.399  30.649  1.00  0.00     0.031 C 
ATOM     59  C   UNL A   1      42.762  30.209  36.030  1.00  0.00     0.029 A 
ATOM     60  C   UNL A   1      42.481  29.826  34.728  1.00  0.00     0.049 A 
ATOM     61  H   UNL A   1      40.987  30.546  33.424  1.00  0.00     0.167 HD
ATOM     62  C   UNL A   1      42.801  28.494  32.658  1.00  0.00     0.074 A 
ATOM     63  C   UNL A   1      43.487  27.497  31.863  1.00  0.00     0.031 C 
ATOM     64  C   UNL A   1      43.148  28.836  33.922  1.00  0.00     0.037 A 
BRANCH  51  65
ATOM     65  C   UNL A   1      39.662  33.281  36.416  1.00  0.00     0.064 A 
ATOM     66  C   UNL A   1      40.268  34.539  36.550  1.00  0.00     0.173 A 
ATOM     67  C   UNL A   1      38.743  32.885  37.398  1.00  0.00     0.173 A 
ATOM     68  F   UNL A   1      41.165  34.957  35.643  1.00  0.00    -0.203 F 
ATOM     69  C   UNL A   1      39.980  35.360  37.636  1.00  0.00     0.198 A 
ATOM     70  C   UNL A   1      38.437  33.721  38.469  1.00  0.00     0.198 A 
ATOM     71  F   UNL A   1      38.134  31.693  37.314  1.00  0.00    -0.203 F 
ATOM     72  F   UNL A   1      40.601  36.541  37.765  1.00  0.00    -0.200 F 
ATOM     73  C   UNL A   1      39.059  34.954  38.590  1.00  0.00     0.200 A 
ATOM     74  F   UNL A   1      37.538  33.332  39.385  1.00  0.00    -0.200 F 
ATOM     75  F   UNL A   1      38.773  35.751  39.629  1.00  0.00    -0.200 F 
ENDBRANCH  51  65
BRANCH  52  76
ATOM     76  C   UNL A   1      41.186  27.622  28.321  1.00  0.00     0.064 A 
ATOM     77  C   UNL A   1      42.061  28.025  27.303  1.00  0.00     0.173 A 
ATOM     78  C   UNL A   1      40.545  26.382  28.179  1.00  0.00     0.173 A 
ATOM     79  F   UNL A   1      42.681  29.210  27.385  1.00  0.00    -0.203 F 
ATOM     80  C   UNL A   1      42.282  27.224  26.185  1.00  0.00     0.198 A 
ATOM     81  C   UNL A   1      40.784  25.572  27.071  1.00  0.00     0.198 A 
ATOM     82  F   UNL A   1      39.700  25.951  29.126  1.00  0.00    -0.203 F 
ATOM     83  F   UNL A   1      43.101  27.646  25.212  1.00  0.00    -0.200 F 
ATOM     84  C   UNL A   1      41.648  25.995  26.072  1.00  0.00     0.200 A 
ATOM     85  F   UNL A   1      40.180  24.380  26.972  1.00  0.00    -0.200 F 
ATOM     86  F   UNL A   1      41.870  25.221  25.001  1.00  0.00    -0.200 F 
ENDBRANCH  52  76
BRANCH  64  87
ATOM     87  C   UNL A   1      44.313  28.120  34.540  1.00  0.00     0.064 A 
ATOM     88  C   UNL A   1      45.605  28.663  34.505  1.00  0.00     0.173 A 
ATOM     89  C   UNL A   1      44.118  26.925  35.250  1.00  0.00     0.173 A 
ATOM     90  F   UNL A   1      45.842  29.797  33.829  1.00  0.00    -0.203 F 
ATOM     91  C   UNL A   1      46.663  28.031  35.152  1.00  0.00     0.198 A 
ATOM     92  C   UNL A   1      45.173  26.310  35.918  1.00  0.00     0.198 A 
ATOM     93  F   UNL A   1      42.899  26.371  35.319  1.00  0.00    -0.203 F 
ATOM     94  F   UNL A   1      47.895  28.553  35.083  1.00  0.00    -0.200 F 
ATOM     95  C   UNL A   1      46.444  26.861  35.866  1.00  0.00     0.200 A 
ATOM     96  F   UNL A   1      44.957  25.189  36.620  1.00  0.00    -0.200 F 
ATOM     97  F   UNL A   1      47.460  26.265  36.505  1.00  0.00    -0.200 F 
ENDBRANCH  64  87
ENDBRANCH  38  39
ENDBRANCH  30  33
ENDBRANCH  28  29
ENDBRANCH  27  28
ENDBRANCH   1  27
TORSDOF 15
ENDMDL
MODEL 3
REMARK VINA RESULT:     -12.2      6.029     11.062
REMARK SMILES Nc1c(Cl)ccc2c1C=C(C(=O)NCCCCCCNC(=O)c1ccc(-c3c4nc(c(-c5c(F)c(F)c(F)c(F)c5F)c5ccc([nH]5)c(-c5c(F)c(F)c(F)c(F)c5F)c5nc(c(-c6c(F)c(F)c(F)c(F)c6F)c6ccc3[nH]6)C=C5)C=C4)cc1)[C@@H](C(F)(F)F)O2
REMARK SMILES IDX 17 1 16 2 15 3 14 4 13 5 11 6 12 7 10 9 2 10 3 11 8 12 4 13
REMARK SMILES IDX 5 14 7 15 9 16 6 17 91 18 86 19 1 20 87 23 88 24 89 25 90 26
REMARK SMILES IDX 18 27 19 28 20 29 21 30 22 32 23 33 24 34 85 35 25 36 84 37
REMARK SMILES IDX 26 38 27 39 28 40 78 41 29 42 83 43 77 44 79 45 30 46 82 47
REMARK SMILES IDX 76 48 75 49 31 51 63 52 43 53 62 54 44 55 47 56 61 57 80 58
REMARK SMILES IDX 45 59 46 60 60 62 81 63 48 64 32 65 33 66 41 67 34 68 35 69
REMARK SMILES IDX 39 70 42 71 36 72 37 73 40 74 38 75 64 76 65 77 73 78 66 79
REMARK SMILES IDX 67 80 71 81 74 82 68 83 69 84 72 85 70 86 49 87 50 88 58 89
REMARK SMILES IDX 51 90 52 91 56 92 59 93 53 94 54 95 57 96 55 97
REMARK H PARENT 13 8 1 21 1 22 20 31 79 50 47 61
REMARK Flexibility Score: inf
ROOT
ATOM      1  C   UNL A   1      36.566  20.525  24.992  1.00  0.00     0.002 C 
ENDROOT
BRANCH   1   2
ATOM      2  C   UNL A   1      36.835  22.033  25.084  1.00  0.00     0.002 C 
BRANCH   2   3
ATOM      3  C   UNL A   1      35.986  22.791  26.111  1.00  0.00     0.021 C 
BRANCH   3   4
ATOM      4  C   UNL A   1      35.377  24.085  25.581  1.00  0.00     0.116 C 
BRANCH   4   5
ATOM      5  N   UNL A   1      33.979  24.209  25.949  1.00  0.00    -0.352 N 
ATOM      6  C   UNL A   1      32.806  23.632  25.602  1.00  0.00     0.251 C 
ATOM      7  O   UNL A   1      31.818  24.063  26.205  1.00  0.00    -0.270 OA
ATOM      8  H   UNL A   1      33.850  24.900  26.637  1.00  0.00     0.163 HD
BRANCH   6   9
ATOM      9  C   UNL A   1      32.634  22.553  24.581  1.00  0.00     0.067 C 
ATOM     10  C   UNL A   1      33.037  18.837  24.494  1.00  0.00     0.061 A 
ATOM     11  C   UNL A   1      32.895  17.816  23.525  1.00  0.00     0.064 A 
ATOM     12  C   UNL A   1      32.701  20.159  24.123  1.00  0.00     0.042 A 
ATOM     13  Cl  UNL A   1      33.323  16.178  23.899  1.00  0.00    -0.082 Cl
ATOM     14  C   UNL A   1      32.391  18.079  22.251  1.00  0.00     0.026 A 
ATOM     15  C   UNL A   1      32.210  20.408  22.833  1.00  0.00     0.130 A 
ATOM     16  C   UNL A   1      32.804  21.298  25.038  1.00  0.00     0.027 C 
ATOM     17  C   UNL A   1      32.040  19.378  21.908  1.00  0.00     0.049 A 
ATOM     18  O   UNL A   1      31.827  21.645  22.401  1.00  0.00    -0.475 OA
ATOM     19  C   UNL A   1      32.339  22.790  23.130  1.00  0.00     0.314 C 
BRANCH  10  20
ATOM     20  N   UNL A   1      33.601  18.537  25.738  1.00  0.00    -0.397 N 
ATOM     21  H   UNL A   1      33.135  18.802  26.565  1.00  0.00     0.156 HD
ATOM     22  H   UNL A   1      34.461  18.062  25.788  1.00  0.00     0.156 HD
ENDBRANCH  10  20
BRANCH  19  23
ATOM     23  C   UNL A   1      33.530  23.387  22.360  1.00  0.00     0.429 C 
ATOM     24  F   UNL A   1      33.672  24.704  22.657  1.00  0.00    -0.167 F 
ATOM     25  F   UNL A   1      34.705  22.799  22.679  1.00  0.00    -0.167 F 
ATOM     26  F   UNL A   1      33.386  23.286  21.020  1.00  0.00    -0.167 F 
ENDBRANCH  19  23
ENDBRANCH   6   9
ENDBRANCH   4   5
ENDBRANCH   3   4
ENDBRANCH   2   3
ENDBRANCH   1   2
BRANCH   1  27
ATOM     27  C   UNL A   1      37.812  19.634  24.977  1.00  0.00     0.021 C 
BRANCH  27  28
ATOM     28  C   UNL A   1      39.000  20.199  25.745  1.00  0.00     0.116 C 
BRANCH  28  29
ATOM     29  N   UNL A   1      40.053  19.213  25.911  1.00  0.00    -0.352 N 
ATOM     30  C   UNL A   1      41.395  19.418  26.106  1.00  0.00     0.251 C 
ATOM     31  H   UNL A   1      39.766  18.272  25.880  1.00  0.00     0.163 HD
ATOM     32  O   UNL A   1      42.193  18.490  26.030  1.00  0.00    -0.269 OA
BRANCH  30  33
ATOM     33  C   UNL A   1      41.873  20.781  26.403  1.00  0.00     0.039 A 
ATOM     34  C   UNL A   1      42.108  21.144  27.730  1.00  0.00     0.014 A 
ATOM     35  C   UNL A   1      42.086  21.692  25.363  1.00  0.00     0.014 A 
ATOM     36  C   UNL A   1      42.598  22.418  28.015  1.00  0.00     0.010 A 
ATOM     37  C   UNL A   1      42.623  22.944  25.645  1.00  0.00     0.010 A 
ATOM     38  C   UNL A   1      42.869  23.320  26.974  1.00  0.00    -0.014 A 
BRANCH  38  39
ATOM     39  C   UNL A   1      43.360  24.686  27.263  1.00  0.00     0.031 A 
ATOM     40  C   UNL A   1      42.417  25.705  27.834  1.00  0.00     0.074 A 
ATOM     41  C   UNL A   1      44.633  25.015  26.982  1.00  0.00     0.049 A 
ATOM     42  N   UNL A   1      42.638  26.957  28.140  1.00  0.00    -0.248 NA
ATOM     43  C   UNL A   1      41.036  25.260  28.081  1.00  0.00     0.031 C 
ATOM     44  C   UNL A   1      45.629  24.116  26.400  1.00  0.00     0.029 A 
ATOM     45  N   UNL A   1      45.307  26.199  27.147  1.00  0.00    -0.354 N 
ATOM     46  C   UNL A   1      41.431  27.444  28.618  1.00  0.00     0.074 A 
ATOM     47  C   UNL A   1      40.463  26.376  28.506  1.00  0.00     0.031 C 
ATOM     48  C   UNL A   1      46.792  24.773  26.274  1.00  0.00     0.029 A 
ATOM     49  C   UNL A   1      46.618  26.146  26.742  1.00  0.00     0.049 A 
ATOM     50  H   UNL A   1      44.891  27.009  27.519  1.00  0.00     0.167 HD
ATOM     51  C   UNL A   1      41.162  28.667  29.133  1.00  0.00     0.037 A 
ATOM     52  C   UNL A   1      47.569  27.100  26.753  1.00  0.00     0.037 A 
ATOM     53  C   UNL A   1      42.131  29.722  29.254  1.00  0.00     0.049 A 
ATOM     54  C   UNL A   1      47.234  28.464  27.294  1.00  0.00     0.074 A 
ATOM     55  C   UNL A   1      41.970  30.982  29.800  1.00  0.00     0.029 A 
ATOM     56  N   UNL A   1      43.445  29.637  28.818  1.00  0.00    -0.354 N 
ATOM     57  N   UNL A   1      46.104  28.899  27.798  1.00  0.00    -0.248 NA
ATOM     58  C   UNL A   1      48.306  29.468  27.272  1.00  0.00     0.031 C 
ATOM     59  C   UNL A   1      43.175  31.676  29.658  1.00  0.00     0.029 A 
ATOM     60  C   UNL A   1      44.100  30.832  29.064  1.00  0.00     0.049 A 
ATOM     61  H   UNL A   1      43.853  28.845  28.399  1.00  0.00     0.167 HD
ATOM     62  C   UNL A   1      46.335  30.215  28.175  1.00  0.00     0.074 A 
ATOM     63  C   UNL A   1      47.716  30.506  27.851  1.00  0.00     0.031 C 
ATOM     64  C   UNL A   1      45.478  31.102  28.736  1.00  0.00     0.037 A 
BRANCH  51  65
ATOM     65  C   UNL A   1      39.767  28.923  29.620  1.00  0.00     0.064 A 
ATOM     66  C   UNL A   1      38.769  29.399  28.755  1.00  0.00     0.173 A 
ATOM     67  C   UNL A   1      39.411  28.647  30.948  1.00  0.00     0.173 A 
ATOM     68  F   UNL A   1      39.065  29.690  27.479  1.00  0.00    -0.203 F 
ATOM     69  C   UNL A   1      37.470  29.609  29.208  1.00  0.00     0.198 A 
ATOM     70  C   UNL A   1      38.103  28.833  31.390  1.00  0.00     0.198 A 
ATOM     71  F   UNL A   1      40.327  28.188  31.813  1.00  0.00    -0.203 F 
ATOM     72  F   UNL A   1      36.543  30.101  28.375  1.00  0.00    -0.200 F 
ATOM     73  C   UNL A   1      37.136  29.317  30.522  1.00  0.00     0.200 A 
ATOM     74  F   UNL A   1      37.779  28.541  32.658  1.00  0.00    -0.200 F 
ATOM     75  F   UNL A   1      35.882  29.509  30.954  1.00  0.00    -0.200 F 
ENDBRANCH  51  65
BRANCH  52  76
ATOM     76  C   UNL A   1      48.937  26.781  26.272  1.00  0.00     0.064 A 
ATOM     77  C   UNL A   1      49.887  26.218  27.136  1.00  0.00     0.173 A 
ATOM     78  C   UNL A   1      49.319  27.012  24.943  1.00  0.00     0.173 A 
ATOM     79  F   UNL A   1      49.574  25.997  28.420  1.00  0.00    -0.203 F 
ATOM     80  C   UNL A   1      51.169  25.905  26.690  1.00  0.00     0.198 A 
ATOM     81  C   UNL A   1      50.594  26.678  24.492  1.00  0.00     0.198 A 
ATOM     82  F   UNL A   1      48.446  27.547  24.077  1.00  0.00    -0.203 F 
ATOM     83  F   UNL A   1      52.067  25.396  27.544  1.00  0.00    -0.200 F 
ATOM     84  C   UNL A   1      51.520  26.129  25.367  1.00  0.00     0.200 A 
ATOM     85  F   UNL A   1      50.926  26.884  23.210  1.00  0.00    -0.200 F 
ATOM     86  F   UNL A   1      52.750  25.818  24.937  1.00  0.00    -0.200 F 
ENDBRANCH  52  76
BRANCH  64  87
ATOM     87  C   UNL A   1      46.004  32.470  29.055  1.00  0.00     0.064 A 
ATOM     88  C   UNL A   1      46.642  32.741  30.274  1.00  0.00     0.173 A 
ATOM     89  C   UNL A   1      45.949  33.493  28.097  1.00  0.00     0.173 A 
ATOM     90  F   UNL A   1      46.709  31.797  31.224  1.00  0.00    -0.203 F 
ATOM     91  C   UNL A   1      47.199  33.991  30.525  1.00  0.00     0.198 A 
ATOM     92  C   UNL A   1      46.530  34.734  28.341  1.00  0.00     0.198 A 
ATOM     93  F   UNL A   1      45.356  33.280  26.912  1.00  0.00    -0.203 F 
ATOM     94  F   UNL A   1      47.781  34.237  31.707  1.00  0.00    -0.200 F 
ATOM     95  C   UNL A   1      47.152  34.983  29.556  1.00  0.00     0.200 A 
ATOM     96  F   UNL A   1      46.497  35.685  27.398  1.00  0.00    -0.200 F 
ATOM     97  F   UNL A   1      47.707  36.179  29.792  1.00  0.00    -0.200 F 
ENDBRANCH  64  87
ENDBRANCH  38  39
ENDBRANCH  30  33
ENDBRANCH  28  29
ENDBRANCH  27  28
ENDBRANCH   1  27
TORSDOF 15
ENDMDL
