MODEL 1
REMARK VINA RESULT:     -11.3      0.000      0.000
REMARK SMILES N#CCNC(=O)Cn1ccc(C(=O)NCCCCCCNC(=O)c2ccc(-c3c4nc(c(-c5c(F)c(F)c(F)c(F)c5F)c5ccc([nH]5)c(-c5c(F)c(F)c(F)c(F)c5F)c5nc(c(-c6c(F)c(F)c(F)c(F)c6F)c6ccc3[nH]6)C=C5)C=C4)cc2)c1
REMARK SMILES IDX 16 1 15 2 14 3 12 4 13 5 11 7 8 8 9 9 87 10 10 11 7 12 5 13
REMARK SMILES IDX 4 14 6 16 3 17 2 18 1 19 17 20 18 21 19 22 20 23 21 24 22 25
REMARK SMILES IDX 23 27 24 28 25 29 86 30 26 31 85 32 27 33 28 34 29 35 79 36
REMARK SMILES IDX 30 37 84 38 78 39 80 40 31 41 83 42 77 43 76 44 32 46 64 47
REMARK SMILES IDX 44 48 63 49 45 50 48 51 62 52 81 53 46 54 47 55 61 57 82 58
REMARK SMILES IDX 49 59 33 60 34 61 42 62 35 63 36 64 40 65 43 66 37 67 38 68
REMARK SMILES IDX 41 69 39 70 65 71 66 72 74 73 67 74 68 75 72 76 75 77 69 78
REMARK SMILES IDX 70 79 73 80 71 81 50 82 51 83 59 84 52 85 53 86 57 87 60 88
REMARK SMILES IDX 54 89 55 90 58 91 56 92
REMARK H PARENT 14 6 4 15 21 26 80 45 48 56
REMARK Flexibility Score: inf
ROOT
ATOM      1  C   UNL A   1      34.172  25.551  25.069  1.00  0.00     0.021 C 
ENDROOT
BRANCH   1   2
ATOM      2  C   UNL A   1      33.263  24.331  24.997  1.00  0.00     0.116 C 
BRANCH   2   3
ATOM      3  N   UNL A   1      32.246  24.215  26.014  1.00  0.00    -0.352 N 
ATOM      4  C   UNL A   1      30.945  24.688  25.986  1.00  0.00     0.252 C 
ATOM      5  O   UNL A   1      30.118  24.102  26.678  1.00  0.00    -0.269 OA
ATOM      6  H   UNL A   1      32.512  23.738  26.833  1.00  0.00     0.163 HD
BRANCH   4   7
ATOM      7  C   UNL A   1      30.550  25.822  25.138  1.00  0.00     0.057 A 
ATOM      8  N   UNL A   1      30.278  27.865  24.264  1.00  0.00    -0.344 N 
ATOM      9  C   UNL A   1      29.798  26.997  23.326  1.00  0.00     0.087 A 
ATOM     10  C   UNL A   1      30.516  27.177  25.428  1.00  0.00     0.100 A 
ATOM     11  C   UNL A   1      29.984  25.724  23.823  1.00  0.00     0.033 A 
BRANCH   8  12
ATOM     12  C   UNL A   1      30.509  29.286  24.063  1.00  0.00     0.221 C 
BRANCH  12  13
ATOM     13  C   UNL A   1      30.892  29.609  22.628  1.00  0.00     0.240 C 
ATOM     14  N   UNL A   1      29.999  30.158  21.755  1.00  0.00    -0.341 N 
ATOM     15  H   UNL A   1      30.339  30.276  20.838  1.00  0.00     0.164 HD
ATOM     16  O   UNL A   1      32.010  29.327  22.189  1.00  0.00    -0.273 OA
BRANCH  14  17
ATOM     17  C   UNL A   1      28.626  30.596  21.956  1.00  0.00     0.236 C 
BRANCH  17  18
ATOM     18  C   UNL A   1      28.546  32.096  22.189  1.00  0.00     0.084 C 
ATOM     19  N   UNL A   1      28.480  33.340  22.382  1.00  0.00    -0.196 NA
ENDBRANCH  17  18
ENDBRANCH  14  17
ENDBRANCH  12  13
ENDBRANCH   8  12
ENDBRANCH   4   7
ENDBRANCH   2   3
ENDBRANCH   1   2
BRANCH   1  20
ATOM     20  C   UNL A   1      33.748  26.714  24.166  1.00  0.00     0.002 C 
BRANCH  20  21
ATOM     21  C   UNL A   1      34.256  28.117  24.549  1.00  0.00     0.002 C 
BRANCH  21  22
ATOM     22  C   UNL A   1      33.766  28.703  25.882  1.00  0.00     0.021 C 
BRANCH  22  23
ATOM     23  C   UNL A   1      34.832  28.784  26.972  1.00  0.00     0.116 C 
BRANCH  23  24
ATOM     24  N   UNL A   1      35.294  30.148  27.167  1.00  0.00    -0.352 N 
ATOM     25  C   UNL A   1      36.394  30.627  27.830  1.00  0.00     0.251 C 
ATOM     26  H   UNL A   1      34.726  30.839  26.756  1.00  0.00     0.163 HD
ATOM     27  O   UNL A   1      36.420  31.803  28.179  1.00  0.00    -0.269 OA
BRANCH  25  28
ATOM     28  C   UNL A   1      37.548  29.759  28.140  1.00  0.00     0.039 A 
ATOM     29  C   UNL A   1      38.597  29.702  27.211  1.00  0.00     0.014 A 
ATOM     30  C   UNL A   1      37.564  28.936  29.269  1.00  0.00     0.014 A 
ATOM     31  C   UNL A   1      39.683  28.866  27.443  1.00  0.00     0.010 A 
ATOM     32  C   UNL A   1      38.664  28.130  29.528  1.00  0.00     0.010 A 
ATOM     33  C   UNL A   1      39.723  28.103  28.616  1.00  0.00    -0.014 A 
BRANCH  33  34
ATOM     34  C   UNL A   1      40.973  27.407  28.980  1.00  0.00     0.031 A 
ATOM     35  C   UNL A   1      41.024  26.000  28.344  1.00  0.00     0.074 A 
ATOM     36  C   UNL A   1      41.848  28.096  29.778  1.00  0.00     0.049 A 
ATOM     37  N   UNL A   1      41.678  24.947  28.719  1.00  0.00    -0.248 NA
ATOM     38  C   UNL A   1      40.181  25.691  27.151  1.00  0.00     0.031 C 
ATOM     39  C   UNL A   1      41.626  29.476  30.268  1.00  0.00     0.029 A 
ATOM     40  N   UNL A   1      43.080  27.812  30.342  1.00  0.00    -0.354 N 
ATOM     41  C   UNL A   1      41.495  23.943  27.739  1.00  0.00     0.074 A 
ATOM     42  C   UNL A   1      40.467  24.417  26.867  1.00  0.00     0.031 C 
ATOM     43  C   UNL A   1      42.617  29.867  31.100  1.00  0.00     0.029 A 
ATOM     44  C   UNL A   1      43.596  28.805  31.226  1.00  0.00     0.049 A 
ATOM     45  H   UNL A   1      43.568  26.980  30.145  1.00  0.00     0.167 HD
ATOM     46  C   UNL A   1      42.325  22.860  27.637  1.00  0.00     0.037 A 
ATOM     47  C   UNL A   1      44.707  28.757  32.031  1.00  0.00     0.037 A 
ATOM     48  C   UNL A   1      43.317  22.938  28.654  1.00  0.00     0.049 A 
ATOM     49  C   UNL A   1      45.416  27.541  31.619  1.00  0.00     0.074 A 
ATOM     50  C   UNL A   1      43.232  22.805  30.015  1.00  0.00     0.029 A 
ATOM     51  N   UNL A   1      44.474  23.602  28.325  1.00  0.00    -0.354 N 
ATOM     52  N   UNL A   1      46.071  27.415  30.504  1.00  0.00    -0.248 NA
ATOM     53  C   UNL A   1      45.329  26.352  32.473  1.00  0.00     0.031 C 
ATOM     54  C   UNL A   1      44.056  23.849  30.471  1.00  0.00     0.029 A 
ATOM     55  C   UNL A   1      44.832  24.345  29.416  1.00  0.00     0.049 A 
ATOM     56  H   UNL A   1      44.955  23.552  27.467  1.00  0.00     0.167 HD
ATOM     57  C   UNL A   1      46.149  26.051  30.381  1.00  0.00     0.074 A 
ATOM     58  C   UNL A   1      46.006  25.498  31.712  1.00  0.00     0.031 C 
ATOM     59  C   UNL A   1      45.697  25.484  29.234  1.00  0.00     0.037 A 
BRANCH  46  60
ATOM     60  C   UNL A   1      42.568  21.828  26.569  1.00  0.00     0.064 A 
ATOM     61  C   UNL A   1      42.124  20.501  26.820  1.00  0.00     0.173 A 
ATOM     62  C   UNL A   1      43.523  21.978  25.559  1.00  0.00     0.173 A 
ATOM     63  F   UNL A   1      41.172  20.257  27.737  1.00  0.00    -0.203 F 
ATOM     64  C   UNL A   1      42.718  19.395  26.219  1.00  0.00     0.198 A 
ATOM     65  C   UNL A   1      44.079  20.864  24.919  1.00  0.00     0.198 A 
ATOM     66  F   UNL A   1      44.017  23.182  25.247  1.00  0.00    -0.203 F 
ATOM     67  F   UNL A   1      42.379  18.157  26.610  1.00  0.00    -0.200 F 
ATOM     68  C   UNL A   1      43.713  19.577  25.281  1.00  0.00     0.200 A 
ATOM     69  F   UNL A   1      45.041  21.043  24.003  1.00  0.00    -0.200 F 
ATOM     70  F   UNL A   1      44.344  18.519  24.756  1.00  0.00    -0.200 F 
ENDBRANCH  46  60
BRANCH  47  71
ATOM     71  C   UNL A   1      45.334  29.508  33.194  1.00  0.00     0.064 A 
ATOM     72  C   UNL A   1      44.761  29.723  34.450  1.00  0.00     0.173 A 
ATOM     73  C   UNL A   1      46.687  29.961  33.095  1.00  0.00     0.173 A 
ATOM     74  F   UNL A   1      43.465  29.479  34.669  1.00  0.00    -0.203 F 
ATOM     75  C   UNL A   1      45.512  30.215  35.540  1.00  0.00     0.198 A 
ATOM     76  C   UNL A   1      47.449  30.380  34.184  1.00  0.00     0.198 A 
ATOM     77  F   UNL A   1      47.336  30.005  31.923  1.00  0.00    -0.203 F 
ATOM     78  F   UNL A   1      44.918  30.399  36.727  1.00  0.00    -0.200 F 
ATOM     79  C   UNL A   1      46.864  30.490  35.419  1.00  0.00     0.200 A 
ATOM     80  F   UNL A   1      48.753  30.648  34.020  1.00  0.00    -0.200 F 
ATOM     81  F   UNL A   1      47.593  30.872  36.476  1.00  0.00    -0.200 F 
ENDBRANCH  47  71
BRANCH  59  82
ATOM     82  C   UNL A   1      45.826  26.361  28.002  1.00  0.00     0.064 A 
ATOM     83  C   UNL A   1      47.100  26.800  27.596  1.00  0.00     0.173 A 
ATOM     84  C   UNL A   1      44.744  26.877  27.270  1.00  0.00     0.173 A 
ATOM     85  F   UNL A   1      48.196  26.333  28.216  1.00  0.00    -0.203 F 
ATOM     86  C   UNL A   1      47.274  27.715  26.553  1.00  0.00     0.198 A 
ATOM     87  C   UNL A   1      44.913  27.788  26.222  1.00  0.00     0.198 A 
ATOM     88  F   UNL A   1      43.496  26.504  27.545  1.00  0.00    -0.203 F 
ATOM     89  F   UNL A   1      48.508  28.106  26.207  1.00  0.00    -0.200 F 
ATOM     90  C   UNL A   1      46.180  28.212  25.868  1.00  0.00     0.200 A 
ATOM     91  F   UNL A   1      43.845  28.247  25.551  1.00  0.00    -0.200 F 
ATOM     92  F   UNL A   1      46.346  29.077  24.857  1.00  0.00    -0.200 F 
ENDBRANCH  59  82
ENDBRANCH  33  34
ENDBRANCH  25  28
ENDBRANCH  23  24
ENDBRANCH  22  23
ENDBRANCH  21  22
ENDBRANCH  20  21
ENDBRANCH   1  20
TORSDOF 17
ENDMDL
MODEL 2
REMARK VINA RESULT:     -10.9      5.773     11.664
REMARK SMILES N#CCNC(=O)Cn1ccc(C(=O)NCCCCCCNC(=O)c2ccc(-c3c4nc(c(-c5c(F)c(F)c(F)c(F)c5F)c5ccc([nH]5)c(-c5c(F)c(F)c(F)c(F)c5F)c5nc(c(-c6c(F)c(F)c(F)c(F)c6F)c6ccc3[nH]6)C=C5)C=C4)cc2)c1
REMARK SMILES IDX 16 1 15 2 14 3 12 4 13 5 11 7 8 8 9 9 87 10 10 11 7 12 5 13
REMARK SMILES IDX 4 14 6 16 3 17 2 18 1 19 17 20 18 21 19 22 20 23 21 24 22 25
REMARK SMILES IDX 23 27 24 28 25 29 86 30 26 31 85 32 27 33 28 34 29 35 79 36
REMARK SMILES IDX 30 37 84 38 78 39 80 40 31 41 83 42 77 43 76 44 32 46 64 47
REMARK SMILES IDX 44 48 63 49 45 50 48 51 62 52 81 53 46 54 47 55 61 57 82 58
REMARK SMILES IDX 49 59 33 60 34 61 42 62 35 63 36 64 40 65 43 66 37 67 38 68
REMARK SMILES IDX 41 69 39 70 65 71 66 72 74 73 67 74 68 75 72 76 75 77 69 78
REMARK SMILES IDX 70 79 73 80 71 81 50 82 51 83 59 84 52 85 53 86 57 87 60 88
REMARK SMILES IDX 54 89 55 90 58 91 56 92
REMARK H PARENT 14 6 4 15 21 26 80 45 48 56
REMARK Flexibility Score: inf
ROOT
ATOM      1  C   UNL A   1      43.463  25.656  29.022  1.00  0.00     0.021 C 
ENDROOT
BRANCH   1   2
ATOM      2  C   UNL A   1      44.243  26.685  28.215  1.00  0.00     0.116 C 
BRANCH   2   3
ATOM      3  N   UNL A   1      43.694  27.061  26.934  1.00  0.00    -0.352 N 
ATOM      4  C   UNL A   1      43.739  26.358  25.741  1.00  0.00     0.252 C 
ATOM      5  O   UNL A   1      42.846  26.574  24.928  1.00  0.00    -0.269 OA
ATOM      6  H   UNL A   1      43.229  27.927  26.905  1.00  0.00     0.163 HD
BRANCH   4   7
ATOM      7  C   UNL A   1      44.787  25.365  25.465  1.00  0.00     0.057 A 
ATOM      8  N   UNL A   1      45.898  23.471  25.030  1.00  0.00    -0.344 N 
ATOM      9  C   UNL A   1      46.808  24.476  24.868  1.00  0.00     0.087 A 
ATOM     10  C   UNL A   1      44.761  23.986  25.602  1.00  0.00     0.100 A 
ATOM     11  C   UNL A   1      46.142  25.661  25.097  1.00  0.00     0.033 A 
BRANCH   8  12
ATOM     12  C   UNL A   1      46.095  22.082  24.650  1.00  0.00     0.221 C 
BRANCH  12  13
ATOM     13  C   UNL A   1      44.933  21.538  23.835  1.00  0.00     0.240 C 
ATOM     14  N   UNL A   1      44.464  20.269  24.013  1.00  0.00    -0.341 N 
ATOM     15  H   UNL A   1      43.744  20.006  23.396  1.00  0.00     0.164 HD
ATOM     16  O   UNL A   1      44.413  22.212  22.941  1.00  0.00    -0.273 OA
BRANCH  14  17
ATOM     17  C   UNL A   1      44.857  19.241  24.965  1.00  0.00     0.236 C 
BRANCH  17  18
ATOM     18  C   UNL A   1      43.650  18.495  25.511  1.00  0.00     0.084 C 
ATOM     19  N   UNL A   1      42.649  17.876  25.964  1.00  0.00    -0.196 NA
ENDBRANCH  17  18
ENDBRANCH  14  17
ENDBRANCH  12  13
ENDBRANCH   8  12
ENDBRANCH   4   7
ENDBRANCH   2   3
ENDBRANCH   1   2
BRANCH   1  20
ATOM     20  C   UNL A   1      44.042  24.238  28.972  1.00  0.00     0.002 C 
BRANCH  20  21
ATOM     21  C   UNL A   1      43.043  23.071  29.082  1.00  0.00     0.002 C 
BRANCH  21  22
ATOM     22  C   UNL A   1      41.620  23.311  28.557  1.00  0.00     0.021 C 
BRANCH  22  23
ATOM     23  C   UNL A   1      41.540  23.681  27.078  1.00  0.00     0.116 C 
BRANCH  23  24
ATOM     24  N   UNL A   1      40.163  23.774  26.625  1.00  0.00    -0.352 N 
ATOM     25  C   UNL A   1      39.162  24.637  26.993  1.00  0.00     0.251 C 
ATOM     26  H   UNL A   1      39.906  23.112  25.943  1.00  0.00     0.163 HD
ATOM     27  O   UNL A   1      37.996  24.338  26.762  1.00  0.00    -0.269 OA
BRANCH  25  28
ATOM     28  C   UNL A   1      39.457  25.919  27.666  1.00  0.00     0.039 A 
ATOM     29  C   UNL A   1      40.028  26.946  26.903  1.00  0.00     0.014 A 
ATOM     30  C   UNL A   1      39.272  26.083  29.042  1.00  0.00     0.014 A 
ATOM     31  C   UNL A   1      40.359  28.154  27.506  1.00  0.00     0.010 A 
ATOM     32  C   UNL A   1      39.562  27.300  29.642  1.00  0.00     0.010 A 
ATOM     33  C   UNL A   1      40.099  28.335  28.870  1.00  0.00    -0.014 A 
BRANCH  33  34
ATOM     34  C   UNL A   1      40.223  29.685  29.453  1.00  0.00     0.031 A 
ATOM     35  C   UNL A   1      38.909  30.481  29.280  1.00  0.00     0.074 A 
ATOM     36  C   UNL A   1      41.425  29.994  30.033  1.00  0.00     0.049 A 
ATOM     37  N   UNL A   1      38.717  31.761  29.248  1.00  0.00    -0.248 NA
ATOM     38  C   UNL A   1      37.625  29.756  29.049  1.00  0.00     0.031 C 
ATOM     39  C   UNL A   1      42.574  29.064  30.126  1.00  0.00     0.029 A 
ATOM     40  N   UNL A   1      41.943  31.116  30.658  1.00  0.00    -0.354 N 
ATOM     41  C   UNL A   1      37.323  31.996  29.195  1.00  0.00     0.074 A 
ATOM     42  C   UNL A   1      36.712  30.727  28.949  1.00  0.00     0.031 C 
ATOM     43  C   UNL A   1      43.650  29.668  30.677  1.00  0.00     0.029 A 
ATOM     44  C   UNL A   1      43.320  31.038  31.020  1.00  0.00     0.049 A 
ATOM     45  H   UNL A   1      41.396  31.914  30.840  1.00  0.00     0.167 HD
ATOM     46  C   UNL A   1      36.771  33.206  29.518  1.00  0.00     0.037 A 
ATOM     47  C   UNL A   1      44.143  32.017  31.519  1.00  0.00     0.037 A 
ATOM     48  C   UNL A   1      37.812  34.112  29.868  1.00  0.00     0.049 A 
ATOM     49  C   UNL A   1      43.246  33.131  31.841  1.00  0.00     0.074 A 
ATOM     50  C   UNL A   1      38.790  34.703  29.113  1.00  0.00     0.029 A 
ATOM     51  N   UNL A   1      38.166  34.146  31.195  1.00  0.00    -0.354 N 
ATOM     52  N   UNL A   1      42.422  33.145  32.845  1.00  0.00    -0.248 NA
ATOM     53  C   UNL A   1      43.208  34.287  30.939  1.00  0.00     0.031 C 
ATOM     54  C   UNL A   1      39.919  34.590  29.942  1.00  0.00     0.029 A 
ATOM     55  C   UNL A   1      39.529  34.243  31.242  1.00  0.00     0.049 A 
ATOM     56  H   UNL A   1      37.555  34.109  31.966  1.00  0.00     0.167 HD
ATOM     57  C   UNL A   1      41.543  34.129  32.470  1.00  0.00     0.074 A 
ATOM     58  C   UNL A   1      42.241  34.982  31.530  1.00  0.00     0.031 C 
ATOM     59  C   UNL A   1      40.220  33.829  32.438  1.00  0.00     0.037 A 
BRANCH  46  60
ATOM     60  C   UNL A   1      35.375  33.664  29.839  1.00  0.00     0.064 A 
ATOM     61  C   UNL A   1      34.715  34.486  28.885  1.00  0.00     0.173 A 
ATOM     62  C   UNL A   1      34.849  33.677  31.134  1.00  0.00     0.173 A 
ATOM     63  F   UNL A   1      35.112  34.506  27.602  1.00  0.00    -0.203 F 
ATOM     64  C   UNL A   1      33.711  35.382  29.248  1.00  0.00     0.198 A 
ATOM     65  C   UNL A   1      33.803  34.541  31.481  1.00  0.00     0.198 A 
ATOM     66  F   UNL A   1      35.400  32.947  32.111  1.00  0.00    -0.203 F 
ATOM     67  F   UNL A   1      33.234  36.254  28.347  1.00  0.00    -0.200 F 
ATOM     68  C   UNL A   1      33.270  35.422  30.554  1.00  0.00     0.200 A 
ATOM     69  F   UNL A   1      33.370  34.575  32.749  1.00  0.00    -0.200 F 
ATOM     70  F   UNL A   1      32.361  36.333  30.928  1.00  0.00    -0.200 F 
ENDBRANCH  46  60
BRANCH  47  71
ATOM     71  C   UNL A   1      45.620  32.287  31.752  1.00  0.00     0.064 A 
ATOM     72  C   UNL A   1      46.543  32.735  30.803  1.00  0.00     0.173 A 
ATOM     73  C   UNL A   1      46.152  32.208  33.077  1.00  0.00     0.173 A 
ATOM     74  F   UNL A   1      46.245  32.740  29.500  1.00  0.00    -0.203 F 
ATOM     75  C   UNL A   1      47.828  33.191  31.167  1.00  0.00     0.198 A 
ATOM     76  C   UNL A   1      47.394  32.721  33.450  1.00  0.00     0.198 A 
ATOM     77  F   UNL A   1      45.476  31.631  34.080  1.00  0.00    -0.203 F 
ATOM     78  F   UNL A   1      48.676  33.616  30.220  1.00  0.00    -0.200 F 
ATOM     79  C   UNL A   1      48.230  33.234  32.492  1.00  0.00     0.200 A 
ATOM     80  F   UNL A   1      47.748  32.733  34.743  1.00  0.00    -0.200 F 
ATOM     81  F   UNL A   1      49.416  33.749  32.842  1.00  0.00    -0.200 F 
ENDBRANCH  47  71
BRANCH  59  82
ATOM     82  C   UNL A   1      39.787  32.772  33.438  1.00  0.00     0.064 A 
ATOM     83  C   UNL A   1      39.973  33.006  34.813  1.00  0.00     0.173 A 
ATOM     84  C   UNL A   1      39.300  31.500  33.098  1.00  0.00     0.173 A 
ATOM     85  F   UNL A   1      40.403  34.205  35.235  1.00  0.00    -0.203 F 
ATOM     86  C   UNL A   1      39.720  32.022  35.775  1.00  0.00     0.198 A 
ATOM     87  C   UNL A   1      39.040  30.515  34.056  1.00  0.00     0.198 A 
ATOM     88  F   UNL A   1      39.054  31.182  31.828  1.00  0.00    -0.203 F 
ATOM     89  F   UNL A   1      39.917  32.291  37.072  1.00  0.00    -0.200 F 
ATOM     90  C   UNL A   1      39.256  30.776  35.396  1.00  0.00     0.200 A 
ATOM     91  F   UNL A   1      38.570  29.316  33.677  1.00  0.00    -0.200 F 
ATOM     92  F   UNL A   1      38.997  29.836  36.318  1.00  0.00    -0.200 F 
ENDBRANCH  59  82
ENDBRANCH  33  34
ENDBRANCH  25  28
ENDBRANCH  23  24
ENDBRANCH  22  23
ENDBRANCH  21  22
ENDBRANCH  20  21
ENDBRANCH   1  20
TORSDOF 17
ENDMDL
MODEL 3
REMARK VINA RESULT:     -10.2      5.871     11.458
REMARK SMILES N#CCNC(=O)Cn1ccc(C(=O)NCCCCCCNC(=O)c2ccc(-c3c4nc(c(-c5c(F)c(F)c(F)c(F)c5F)c5ccc([nH]5)c(-c5c(F)c(F)c(F)c(F)c5F)c5nc(c(-c6c(F)c(F)c(F)c(F)c6F)c6ccc3[nH]6)C=C5)C=C4)cc2)c1
REMARK SMILES IDX 16 1 15 2 14 3 12 4 13 5 11 7 8 8 9 9 87 10 10 11 7 12 5 13
REMARK SMILES IDX 4 14 6 16 3 17 2 18 1 19 17 20 18 21 19 22 20 23 21 24 22 25
REMARK SMILES IDX 23 27 24 28 25 29 86 30 26 31 85 32 27 33 28 34 29 35 79 36
REMARK SMILES IDX 30 37 84 38 78 39 80 40 31 41 83 42 77 43 76 44 32 46 64 47
REMARK SMILES IDX 44 48 63 49 45 50 48 51 62 52 81 53 46 54 47 55 61 57 82 58
REMARK SMILES IDX 49 59 33 60 34 61 42 62 35 63 36 64 40 65 43 66 37 67 38 68
REMARK SMILES IDX 41 69 39 70 65 71 66 72 74 73 67 74 68 75 72 76 75 77 69 78
REMARK SMILES IDX 70 79 73 80 71 81 50 82 51 83 59 84 52 85 53 86 57 87 60 88
REMARK SMILES IDX 54 89 55 90 58 91 56 92
REMARK H PARENT 14 6 4 15 21 26 80 45 48 56
REMARK Flexibility Score: inf
ROOT
ATOM      1  C   UNL A   1      44.926  30.270  27.988  1.00  0.00     0.021 C 
ENDROOT
BRANCH   1   2
ATOM      2  C   UNL A   1      44.465  28.919  27.458  1.00  0.00     0.116 C 
BRANCH   2   3
ATOM      3  N   UNL A   1      43.853  28.905  26.152  1.00  0.00    -0.352 N 
ATOM      4  C   UNL A   1      42.844  28.079  25.685  1.00  0.00     0.252 C 
ATOM      5  O   UNL A   1      42.141  28.509  24.775  1.00  0.00    -0.269 OA
ATOM      6  H   UNL A   1      44.197  29.567  25.510  1.00  0.00     0.163 HD
BRANCH   4   7
ATOM      7  C   UNL A   1      42.592  26.755  26.271  1.00  0.00     0.057 A 
ATOM      8  N   UNL A   1      42.646  24.572  26.763  1.00  0.00    -0.344 N 
ATOM      9  C   UNL A   1      41.877  25.148  27.733  1.00  0.00     0.087 A 
ATOM     10  C   UNL A   1      42.882  25.494  25.774  1.00  0.00     0.100 A 
ATOM     11  C   UNL A   1      41.853  26.502  27.476  1.00  0.00     0.033 A 
BRANCH   8  12
ATOM     12  C   UNL A   1      43.144  23.206  26.777  1.00  0.00     0.221 C 
BRANCH  12  13
ATOM     13  C   UNL A   1      42.662  22.406  25.578  1.00  0.00     0.240 C 
ATOM     14  N   UNL A   1      41.466  21.751  25.588  1.00  0.00    -0.341 N 
ATOM     15  H   UNL A   1      41.279  21.223  24.779  1.00  0.00     0.164 HD
ATOM     16  O   UNL A   1      43.370  22.274  24.575  1.00  0.00    -0.273 OA
BRANCH  14  17
ATOM     17  C   UNL A   1      40.421  21.706  26.600  1.00  0.00     0.236 C 
BRANCH  17  18
ATOM     18  C   UNL A   1      39.036  21.792  25.978  1.00  0.00     0.084 C 
ATOM     19  N   UNL A   1      37.888  21.864  25.463  1.00  0.00    -0.196 NA
ENDBRANCH  17  18
ENDBRANCH  14  17
ENDBRANCH  12  13
ENDBRANCH   8  12
ENDBRANCH   4   7
ENDBRANCH   2   3
ENDBRANCH   1   2
BRANCH   1  20
ATOM     20  C   UNL A   1      46.397  30.594  27.710  1.00  0.00     0.002 C 
BRANCH  20  21
ATOM     21  C   UNL A   1      46.690  31.612  26.592  1.00  0.00     0.002 C 
BRANCH  21  22
ATOM     22  C   UNL A   1      47.905  32.532  26.779  1.00  0.00     0.021 C 
BRANCH  22  23
ATOM     23  C   UNL A   1      47.937  33.284  28.107  1.00  0.00     0.116 C 
BRANCH  23  24
ATOM     24  N   UNL A   1      47.589  34.684  27.937  1.00  0.00    -0.352 N 
ATOM     25  C   UNL A   1      46.373  35.314  28.016  1.00  0.00     0.251 C 
ATOM     26  H   UNL A   1      48.348  35.277  27.733  1.00  0.00     0.163 HD
ATOM     27  O   UNL A   1      46.234  36.419  27.502  1.00  0.00    -0.269 OA
BRANCH  25  28
ATOM     28  C   UNL A   1      45.222  34.689  28.700  1.00  0.00     0.039 A 
ATOM     29  C   UNL A   1      44.352  33.899  27.936  1.00  0.00     0.014 A 
ATOM     30  C   UNL A   1      44.939  34.950  30.044  1.00  0.00     0.014 A 
ATOM     31  C   UNL A   1      43.234  33.326  28.531  1.00  0.00     0.010 A 
ATOM     32  C   UNL A   1      43.848  34.348  30.654  1.00  0.00     0.010 A 
ATOM     33  C   UNL A   1      43.002  33.532  29.896  1.00  0.00    -0.014 A 
BRANCH  33  34
ATOM     34  C   UNL A   1      41.963  32.735  30.577  1.00  0.00     0.031 A 
ATOM     35  C   UNL A   1      42.566  31.445  31.178  1.00  0.00     0.074 A 
ATOM     36  C   UNL A   1      40.694  33.251  30.572  1.00  0.00     0.049 A 
ATOM     37  N   UNL A   1      41.992  30.319  31.461  1.00  0.00    -0.248 NA
ATOM     38  C   UNL A   1      44.031  31.365  31.452  1.00  0.00     0.031 C 
ATOM     39  C   UNL A   1      40.317  34.544  29.956  1.00  0.00     0.029 A 
ATOM     40  N   UNL A   1      39.471  32.829  31.066  1.00  0.00    -0.354 N 
ATOM     41  C   UNL A   1      42.940  29.492  32.106  1.00  0.00     0.074 A 
ATOM     42  C   UNL A   1      44.205  30.141  31.959  1.00  0.00     0.031 C 
ATOM     43  C   UNL A   1      38.985  34.756  30.035  1.00  0.00     0.029 A 
ATOM     44  C   UNL A   1      38.354  33.646  30.723  1.00  0.00     0.049 A 
ATOM     45  H   UNL A   1      39.379  32.018  31.617  1.00  0.00     0.167 HD
ATOM     46  C   UNL A   1      42.575  28.404  32.852  1.00  0.00     0.037 A 
ATOM     47  C   UNL A   1      37.017  33.424  30.941  1.00  0.00     0.037 A 
ATOM     48  C   UNL A   1      41.158  28.277  32.826  1.00  0.00     0.049 A 
ATOM     49  C   UNL A   1      36.971  32.260  31.831  1.00  0.00     0.074 A 
ATOM     50  C   UNL A   1      40.298  27.935  31.817  1.00  0.00     0.029 A 
ATOM     51  N   UNL A   1      40.471  28.935  33.818  1.00  0.00    -0.354 N 
ATOM     52  N   UNL A   1      37.294  32.284  33.089  1.00  0.00    -0.248 NA
ATOM     53  C   UNL A   1      36.610  30.955  31.265  1.00  0.00     0.031 C 
ATOM     54  C   UNL A   1      39.250  28.857  31.989  1.00  0.00     0.029 A 
ATOM     55  C   UNL A   1      39.359  29.481  33.239  1.00  0.00     0.049 A 
ATOM     56  H   UNL A   1      40.730  29.001  34.765  1.00  0.00     0.167 HD
ATOM     57  C   UNL A   1      37.517  30.955  33.344  1.00  0.00     0.074 A 
ATOM     58  C   UNL A   1      36.777  30.204  32.349  1.00  0.00     0.031 C 
ATOM     59  C   UNL A   1      38.710  30.595  33.882  1.00  0.00     0.037 A 
BRANCH  46  60
ATOM     60  C   UNL A   1      43.287  27.544  33.862  1.00  0.00     0.064 A 
ATOM     61  C   UNL A   1      43.676  26.238  33.459  1.00  0.00     0.173 A 
ATOM     62  C   UNL A   1      43.235  27.776  35.240  1.00  0.00     0.173 A 
ATOM     63  F   UNL A   1      43.803  25.929  32.158  1.00  0.00    -0.203 F 
ATOM     64  C   UNL A   1      43.834  25.198  34.371  1.00  0.00     0.198 A 
ATOM     65  C   UNL A   1      43.449  26.738  36.155  1.00  0.00     0.198 A 
ATOM     66  F   UNL A   1      42.872  28.968  35.728  1.00  0.00    -0.203 F 
ATOM     67  F   UNL A   1      44.038  23.947  33.932  1.00  0.00    -0.200 F 
ATOM     68  C   UNL A   1      43.700  25.446  35.722  1.00  0.00     0.200 A 
ATOM     69  F   UNL A   1      43.325  26.982  37.467  1.00  0.00    -0.200 F 
ATOM     70  F   UNL A   1      43.774  24.438  36.601  1.00  0.00    -0.200 F 
ENDBRANCH  46  60
BRANCH  47  71
ATOM     71  C   UNL A   1      35.663  33.955  30.500  1.00  0.00     0.064 A 
ATOM     72  C   UNL A   1      34.703  34.562  31.314  1.00  0.00     0.173 A 
ATOM     73  C   UNL A   1      35.328  33.970  29.109  1.00  0.00     0.173 A 
ATOM     74  F   UNL A   1      34.799  34.516  32.646  1.00  0.00    -0.203 F 
ATOM     75  C   UNL A   1      33.588  35.240  30.777  1.00  0.00     0.198 A 
ATOM     76  C   UNL A   1      34.267  34.697  28.571  1.00  0.00     0.198 A 
ATOM     77  F   UNL A   1      36.033  33.279  28.203  1.00  0.00    -0.203 F 
ATOM     78  F   UNL A   1      32.698  35.812  31.599  1.00  0.00    -0.200 F 
ATOM     79  C   UNL A   1      33.402  35.352  29.408  1.00  0.00     0.200 A 
ATOM     80  F   UNL A   1      34.118  34.769  27.241  1.00  0.00    -0.200 F 
ATOM     81  F   UNL A   1      32.392  36.071  28.901  1.00  0.00    -0.200 F 
ENDBRANCH  47  71
BRANCH  59  82
ATOM     82  C   UNL A   1      39.345  31.651  34.769  1.00  0.00     0.064 A 
ATOM     83  C   UNL A   1      38.675  32.070  35.933  1.00  0.00     0.173 A 
ATOM     84  C   UNL A   1      40.529  32.343  34.468  1.00  0.00     0.173 A 
ATOM     85  F   UNL A   1      37.552  31.443  36.319  1.00  0.00    -0.203 F 
ATOM     86  C   UNL A   1      39.140  33.129  36.719  1.00  0.00     0.198 A 
ATOM     87  C   UNL A   1      41.003  33.399  35.253  1.00  0.00     0.198 A 
ATOM     88  F   UNL A   1      41.264  32.007  33.408  1.00  0.00    -0.203 F 
ATOM     89  F   UNL A   1      38.463  33.494  37.816  1.00  0.00    -0.200 F 
ATOM     90  C   UNL A   1      40.303  33.795  36.377  1.00  0.00     0.200 A 
ATOM     91  F   UNL A   1      42.143  34.025  34.922  1.00  0.00    -0.200 F 
ATOM     92  F   UNL A   1      40.760  34.801  37.138  1.00  0.00    -0.200 F 
ENDBRANCH  59  82
ENDBRANCH  33  34
ENDBRANCH  25  28
ENDBRANCH  23  24
ENDBRANCH  22  23
ENDBRANCH  21  22
ENDBRANCH  20  21
ENDBRANCH   1  20
TORSDOF 17
ENDMDL
