MODEL 1
REMARK VINA RESULT:     -11.7      0.000      0.000
REMARK SMILES O=C(NCCCCCCNC(=O)[C@H]1CCCCN1C(=O)CSCc1ccccc1)c1ccc(-c2c3nc(c(-c4c(F)c(F)c(F)c(F)c4F)c4ccc([nH]4)c(-c4c(F)c(F)c(F)c(F)c4F)c4nc(c(-c5c(F)c(F)c(F)c(F)c5F)c5ccc2[nH]5)C=C4)C=C3)cc1
REMARK SMILES IDX 8 1 7 2 6 3 5 4 4 5 3 6 1 7 2 8 30 10 31 11 92 12 32 13
REMARK SMILES IDX 91 14 33 15 34 16 35 17 85 18 36 19 90 20 84 21 86 22 37 23
REMARK SMILES IDX 89 24 83 25 82 26 38 28 70 29 50 30 69 31 51 32 54 33 68 34
REMARK SMILES IDX 87 35 52 36 53 37 67 39 88 40 55 41 39 42 40 43 48 44 41 45
REMARK SMILES IDX 42 46 46 47 49 48 43 49 44 50 47 51 45 52 71 53 72 54 80 55
REMARK SMILES IDX 73 56 74 57 78 58 81 59 75 60 76 61 79 62 77 63 56 64 57 65
REMARK SMILES IDX 65 66 58 67 59 68 63 69 66 70 60 71 61 72 64 73 62 74 9 75
REMARK SMILES IDX 10 76 11 77 12 79 13 80 14 81 18 82 15 83 17 84 16 85 19 86
REMARK SMILES IDX 20 87 21 88 22 89 23 90 24 91 25 92 29 93 26 94 28 95 27 96
REMARK H PARENT 3 9 86 27 54 38 10 78
REMARK Flexibility Score: inf
ROOT
ATOM      1  C   UNL A   1      32.590  28.142  27.169  1.00  0.00     0.021 C 
ENDROOT
BRANCH   1   2
ATOM      2  C   UNL A   1      32.589  29.673  27.172  1.00  0.00     0.002 C 
BRANCH   2   3
ATOM      3  C   UNL A   1      31.494  30.310  26.312  1.00  0.00     0.002 C 
BRANCH   3   4
ATOM      4  C   UNL A   1      31.364  31.825  26.473  1.00  0.00     0.021 C 
BRANCH   4   5
ATOM      5  C   UNL A   1      32.659  32.516  26.881  1.00  0.00     0.116 C 
BRANCH   5   6
ATOM      6  N   UNL A   1      32.422  33.869  27.356  1.00  0.00    -0.352 N 
ATOM      7  O   UNL A   1      32.535  35.570  28.842  1.00  0.00    -0.269 OA
ATOM      8  C   UNL A   1      32.998  34.515  28.421  1.00  0.00     0.251 C 
ATOM      9  H   UNL A   1      31.761  34.392  26.846  1.00  0.00     0.163 HD
BRANCH   8  10
ATOM     10  C   UNL A   1      34.184  33.915  29.062  1.00  0.00     0.039 A 
ATOM     11  C   UNL A   1      34.024  32.871  29.976  1.00  0.00     0.014 A 
ATOM     12  C   UNL A   1      35.458  34.396  28.753  1.00  0.00     0.014 A 
ATOM     13  C   UNL A   1      35.121  32.399  30.680  1.00  0.00     0.010 A 
ATOM     14  C   UNL A   1      36.576  33.849  29.390  1.00  0.00     0.010 A 
ATOM     15  C   UNL A   1      36.413  32.858  30.370  1.00  0.00    -0.014 A 
BRANCH  15  16
ATOM     16  C   UNL A   1      37.575  32.194  31.011  1.00  0.00     0.031 A 
ATOM     17  C   UNL A   1      38.011  32.544  32.404  1.00  0.00     0.074 A 
ATOM     18  C   UNL A   1      38.212  31.231  30.315  1.00  0.00     0.049 A 
ATOM     19  N   UNL A   1      38.988  32.032  33.110  1.00  0.00    -0.248 NA
ATOM     20  C   UNL A   1      37.264  33.606  33.095  1.00  0.00     0.031 C 
ATOM     21  C   UNL A   1      37.879  30.826  28.946  1.00  0.00     0.029 A 
ATOM     22  N   UNL A   1      39.249  30.407  30.661  1.00  0.00    -0.354 N 
ATOM     23  C   UNL A   1      38.982  32.713  34.320  1.00  0.00     0.074 A 
ATOM     24  C   UNL A   1      37.921  33.696  34.244  1.00  0.00     0.031 C 
ATOM     25  C   UNL A   1      38.658  29.797  28.589  1.00  0.00     0.029 A 
ATOM     26  C   UNL A   1      39.595  29.520  29.669  1.00  0.00     0.049 A 
ATOM     27  H   UNL A   1      39.703  30.445  31.534  1.00  0.00     0.167 HD
ATOM     28  C   UNL A   1      39.785  32.522  35.395  1.00  0.00     0.037 A 
ATOM     29  C   UNL A   1      40.575  28.601  29.625  1.00  0.00     0.037 A 
ATOM     30  C   UNL A   1      40.835  31.536  35.458  1.00  0.00     0.049 A 
ATOM     31  C   UNL A   1      41.468  28.442  30.821  1.00  0.00     0.074 A 
ATOM     32  C   UNL A   1      41.688  31.250  36.511  1.00  0.00     0.029 A 
ATOM     33  N   UNL A   1      41.180  30.678  34.423  1.00  0.00    -0.354 N 
ATOM     34  N   UNL A   1      41.427  29.067  31.973  1.00  0.00    -0.248 NA
ATOM     35  C   UNL A   1      42.546  27.452  30.709  1.00  0.00     0.031 C 
ATOM     36  C   UNL A   1      42.581  30.256  36.095  1.00  0.00     0.029 A 
ATOM     37  C   UNL A   1      42.249  29.880  34.804  1.00  0.00     0.049 A 
ATOM     38  H   UNL A   1      40.732  30.642  33.546  1.00  0.00     0.167 HD
ATOM     39  C   UNL A   1      42.462  28.536  32.729  1.00  0.00     0.074 A 
ATOM     40  C   UNL A   1      43.089  27.514  31.915  1.00  0.00     0.031 C 
ATOM     41  C   UNL A   1      42.862  28.869  33.980  1.00  0.00     0.037 A 
BRANCH  28  42
ATOM     42  C   UNL A   1      39.576  33.403  36.594  1.00  0.00     0.064 A 
ATOM     43  C   UNL A   1      38.720  33.032  37.641  1.00  0.00     0.173 A 
ATOM     44  C   UNL A   1      40.301  34.598  36.734  1.00  0.00     0.173 A 
ATOM     45  F   UNL A   1      37.998  31.905  37.556  1.00  0.00    -0.203 F 
ATOM     46  C   UNL A   1      38.585  33.831  38.775  1.00  0.00     0.198 A 
ATOM     47  C   UNL A   1      40.184  35.380  37.881  1.00  0.00     0.198 A 
ATOM     48  F   UNL A   1      41.139  34.997  35.766  1.00  0.00    -0.203 F 
ATOM     49  F   UNL A   1      37.736  33.471  39.748  1.00  0.00    -0.200 F 
ATOM     50  C   UNL A   1      39.323  34.998  38.899  1.00  0.00     0.200 A 
ATOM     51  F   UNL A   1      40.911  36.500  38.005  1.00  0.00    -0.200 F 
ATOM     52  F   UNL A   1      39.204  35.755  39.997  1.00  0.00    -0.200 F 
ENDBRANCH  28  42
BRANCH  29  53
ATOM     53  C   UNL A   1      40.773  27.782  28.400  1.00  0.00     0.064 A 
ATOM     54  C   UNL A   1      40.164  26.528  28.261  1.00  0.00     0.173 A 
ATOM     55  C   UNL A   1      41.584  28.234  27.348  1.00  0.00     0.173 A 
ATOM     56  F   UNL A   1      39.391  26.044  29.245  1.00  0.00    -0.203 F 
ATOM     57  C   UNL A   1      40.384  25.744  27.129  1.00  0.00     0.198 A 
ATOM     58  C   UNL A   1      41.772  27.467  26.201  1.00  0.00     0.198 A 
ATOM     59  F   UNL A   1      42.183  29.432  27.427  1.00  0.00    -0.203 F 
ATOM     60  F   UNL A   1      39.836  24.525  27.047  1.00  0.00    -0.200 F 
ATOM     61  C   UNL A   1      41.182  26.218  26.098  1.00  0.00     0.200 A 
ATOM     62  F   UNL A   1      42.527  27.938  25.200  1.00  0.00    -0.200 F 
ATOM     63  F   UNL A   1      41.391  25.465  25.010  1.00  0.00    -0.200 F 
ENDBRANCH  29  53
BRANCH  41  64
ATOM     64  C   UNL A   1      44.017  28.097  34.548  1.00  0.00     0.064 A 
ATOM     65  C   UNL A   1      43.826  26.892  35.241  1.00  0.00     0.173 A 
ATOM     66  C   UNL A   1      45.330  28.567  34.397  1.00  0.00     0.173 A 
ATOM     67  F   UNL A   1      42.588  26.409  35.429  1.00  0.00    -0.203 F 
ATOM     68  C   UNL A   1      44.904  26.206  35.794  1.00  0.00     0.198 A 
ATOM     69  C   UNL A   1      46.408  27.861  34.920  1.00  0.00     0.198 A 
ATOM     70  F   UNL A   1      45.568  29.712  33.739  1.00  0.00    -0.203 F 
ATOM     71  F   UNL A   1      44.691  25.092  36.508  1.00  0.00    -0.200 F 
ATOM     72  C   UNL A   1      46.194  26.687  35.628  1.00  0.00     0.200 A 
ATOM     73  F   UNL A   1      47.656  28.319  34.747  1.00  0.00    -0.200 F 
ATOM     74  F   UNL A   1      47.230  26.026  36.161  1.00  0.00    -0.200 F 
ENDBRANCH  41  64
ENDBRANCH  15  16
ENDBRANCH   8  10
ENDBRANCH   5   6
ENDBRANCH   4   5
ENDBRANCH   3   4
ENDBRANCH   2   3
ENDBRANCH   1   2
BRANCH   1  75
ATOM     75  C   UNL A   1      31.417  27.525  26.403  1.00  0.00     0.116 C 
BRANCH  75  76
ATOM     76  N   UNL A   1      31.145  26.174  26.845  1.00  0.00    -0.354 N 
ATOM     77  C   UNL A   1      31.713  24.980  26.505  1.00  0.00     0.242 C 
ATOM     78  H   UNL A   1      30.421  26.103  27.509  1.00  0.00     0.163 HD
ATOM     79  O   UNL A   1      31.299  23.992  27.122  1.00  0.00    -0.273 OA
BRANCH  77  80
ATOM     80  C   UNL A   1      32.935  24.882  25.545  1.00  0.00     0.174 C 
ATOM     81  C   UNL A   1      33.888  23.742  25.959  1.00  0.00     0.035 C 
ATOM     82  N   UNL A   1      32.606  24.724  24.118  1.00  0.00    -0.330 N 
ATOM     83  C   UNL A   1      33.345  22.360  25.569  1.00  0.00     0.004 C 
ATOM     84  C   UNL A   1      31.983  23.446  23.780  1.00  0.00     0.120 C 
ATOM     85  C   UNL A   1      32.948  22.310  24.092  1.00  0.00     0.022 C 
BRANCH  82  86
ATOM     86  C   UNL A   1      33.104  25.649  23.207  1.00  0.00     0.233 C 
ATOM     87  O   UNL A   1      33.355  25.336  22.040  1.00  0.00    -0.274 OA
BRANCH  86  88
ATOM     88  C   UNL A   1      33.469  27.042  23.694  1.00  0.00     0.170 C 
BRANCH  88  89
ATOM     89  S   UNL A   1      32.556  28.381  22.875  1.00  0.00    -0.147 SA
BRANCH  89  90
ATOM     90  C   UNL A   1      30.890  27.670  22.826  1.00  0.00     0.105 C 
BRANCH  90  91
ATOM     91  C   UNL A   1      29.712  28.604  22.980  1.00  0.00    -0.038 A 
ATOM     92  C   UNL A   1      28.368  28.207  22.995  1.00  0.00     0.004 A 
ATOM     93  C   UNL A   1      29.995  29.980  23.071  1.00  0.00     0.004 A 
ATOM     94  C   UNL A   1      27.343  29.150  23.122  1.00  0.00     0.000 A 
ATOM     95  C   UNL A   1      28.972  30.921  23.185  1.00  0.00     0.000 A 
ATOM     96  C   UNL A   1      27.644  30.506  23.216  1.00  0.00     0.000 A 
ENDBRANCH  90  91
ENDBRANCH  89  90
ENDBRANCH  88  89
ENDBRANCH  86  88
ENDBRANCH  82  86
ENDBRANCH  77  80
ENDBRANCH  75  76
ENDBRANCH   1  75
TORSDOF 18
ENDMDL
MODEL 2
REMARK VINA RESULT:     -11.5      0.631      7.227
REMARK SMILES O=C(NCCCCCCNC(=O)[C@H]1CCCCN1C(=O)CSCc1ccccc1)c1ccc(-c2c3nc(c(-c4c(F)c(F)c(F)c(F)c4F)c4ccc([nH]4)c(-c4c(F)c(F)c(F)c(F)c4F)c4nc(c(-c5c(F)c(F)c(F)c(F)c5F)c5ccc2[nH]5)C=C4)C=C3)cc1
REMARK SMILES IDX 8 1 7 2 6 3 5 4 4 5 3 6 1 7 2 8 30 10 31 11 92 12 32 13
REMARK SMILES IDX 91 14 33 15 34 16 35 17 85 18 36 19 90 20 84 21 86 22 37 23
REMARK SMILES IDX 89 24 83 25 82 26 38 28 70 29 50 30 69 31 51 32 54 33 68 34
REMARK SMILES IDX 87 35 52 36 53 37 67 39 88 40 55 41 39 42 40 43 48 44 41 45
REMARK SMILES IDX 42 46 46 47 49 48 43 49 44 50 47 51 45 52 71 53 72 54 80 55
REMARK SMILES IDX 73 56 74 57 78 58 81 59 75 60 76 61 79 62 77 63 56 64 57 65
REMARK SMILES IDX 65 66 58 67 59 68 63 69 66 70 60 71 61 72 64 73 62 74 9 75
REMARK SMILES IDX 10 76 11 77 12 79 13 80 14 81 18 82 15 83 17 84 16 85 19 86
REMARK SMILES IDX 20 87 21 88 22 89 23 90 24 91 25 92 29 93 26 94 28 95 27 96
REMARK H PARENT 3 9 86 27 54 38 10 78
REMARK Flexibility Score: inf
ROOT
ATOM      1  C   UNL A   1      31.625  28.681  27.328  1.00  0.00     0.021 C 
ENDROOT
BRANCH   1   2
ATOM      2  C   UNL A   1      32.299  29.988  26.900  1.00  0.00     0.002 C 
BRANCH   2   3
ATOM      3  C   UNL A   1      31.429  30.895  26.026  1.00  0.00     0.002 C 
BRANCH   3   4
ATOM      4  C   UNL A   1      31.317  32.336  26.525  1.00  0.00     0.021 C 
BRANCH   4   5
ATOM      5  C   UNL A   1      32.577  32.853  27.205  1.00  0.00     0.116 C 
BRANCH   5   6
ATOM      6  N   UNL A   1      32.432  34.237  27.630  1.00  0.00    -0.352 N 
ATOM      7  O   UNL A   1      32.667  35.981  29.050  1.00  0.00    -0.269 OA
ATOM      8  C   UNL A   1      33.057  34.882  28.667  1.00  0.00     0.251 C 
ATOM      9  H   UNL A   1      31.805  34.782  27.103  1.00  0.00     0.163 HD
BRANCH   8  10
ATOM     10  C   UNL A   1      34.205  34.230  29.326  1.00  0.00     0.039 A 
ATOM     11  C   UNL A   1      33.987  33.356  30.394  1.00  0.00     0.014 A 
ATOM     12  C   UNL A   1      35.502  34.492  28.879  1.00  0.00     0.014 A 
ATOM     13  C   UNL A   1      35.068  32.851  31.100  1.00  0.00     0.010 A 
ATOM     14  C   UNL A   1      36.589  33.900  29.529  1.00  0.00     0.010 A 
ATOM     15  C   UNL A   1      36.379  33.088  30.654  1.00  0.00    -0.014 A 
BRANCH  15  16
ATOM     16  C   UNL A   1      37.496  32.376  31.324  1.00  0.00     0.031 A 
ATOM     17  C   UNL A   1      38.241  31.265  30.644  1.00  0.00     0.074 A 
ATOM     18  C   UNL A   1      37.849  32.783  32.559  1.00  0.00     0.049 A 
ATOM     19  N   UNL A   1      39.257  30.568  31.088  1.00  0.00    -0.248 NA
ATOM     20  C   UNL A   1      37.793  30.880  29.298  1.00  0.00     0.031 C 
ATOM     21  C   UNL A   1      37.178  33.843  33.318  1.00  0.00     0.029 A 
ATOM     22  N   UNL A   1      38.865  32.379  33.385  1.00  0.00    -0.354 N 
ATOM     23  C   UNL A   1      39.562  29.657  30.086  1.00  0.00     0.074 A 
ATOM     24  C   UNL A   1      38.606  29.869  29.019  1.00  0.00     0.031 C 
ATOM     25  C   UNL A   1      37.830  34.041  34.471  1.00  0.00     0.029 A 
ATOM     26  C   UNL A   1      38.915  33.075  34.569  1.00  0.00     0.049 A 
ATOM     27  H   UNL A   1      39.496  31.659  33.153  1.00  0.00     0.167 HD
ATOM     28  C   UNL A   1      40.557  28.736  30.061  1.00  0.00     0.037 A 
ATOM     29  C   UNL A   1      39.730  32.934  35.629  1.00  0.00     0.037 A 
ATOM     30  C   UNL A   1      41.504  28.538  31.130  1.00  0.00     0.049 A 
ATOM     31  C   UNL A   1      40.798  31.880  35.581  1.00  0.00     0.074 A 
ATOM     32  C   UNL A   1      42.563  27.648  31.190  1.00  0.00     0.029 A 
ATOM     33  N   UNL A   1      41.505  29.237  32.329  1.00  0.00    -0.354 N 
ATOM     34  N   UNL A   1      41.099  31.050  34.611  1.00  0.00    -0.248 NA
ATOM     35  C   UNL A   1      41.638  31.741  36.776  1.00  0.00     0.031 C 
ATOM     36  C   UNL A   1      43.171  27.772  32.444  1.00  0.00     0.029 A 
ATOM     37  C   UNL A   1      42.530  28.781  33.144  1.00  0.00     0.049 A 
ATOM     38  H   UNL A   1      40.871  29.953  32.566  1.00  0.00     0.167 HD
ATOM     39  C   UNL A   1      42.172  30.302  35.072  1.00  0.00     0.074 A 
ATOM     40  C   UNL A   1      42.489  30.801  36.394  1.00  0.00     0.031 C 
ATOM     41  C   UNL A   1      42.830  29.288  34.460  1.00  0.00     0.037 A 
BRANCH  28  42
ATOM     42  C   UNL A   1      40.672  27.858  28.848  1.00  0.00     0.064 A 
ATOM     43  C   UNL A   1      39.932  26.673  28.723  1.00  0.00     0.173 A 
ATOM     44  C   UNL A   1      41.475  28.245  27.763  1.00  0.00     0.173 A 
ATOM     45  F   UNL A   1      39.156  26.252  29.733  1.00  0.00    -0.203 F 
ATOM     46  C   UNL A   1      40.003  25.901  27.565  1.00  0.00     0.198 A 
ATOM     47  C   UNL A   1      41.521  27.486  26.596  1.00  0.00     0.198 A 
ATOM     48  F   UNL A   1      42.198  29.373  27.826  1.00  0.00    -0.203 F 
ATOM     49  F   UNL A   1      39.311  24.756  27.482  1.00  0.00    -0.200 F 
ATOM     50  C   UNL A   1      40.789  26.312  26.499  1.00  0.00     0.200 A 
ATOM     51  F   UNL A   1      42.270  27.894  25.562  1.00  0.00    -0.200 F 
ATOM     52  F   UNL A   1      40.842  25.578  25.380  1.00  0.00    -0.200 F 
ENDBRANCH  28  42
BRANCH  29  53
ATOM     53  C   UNL A   1      39.550  33.796  36.826  1.00  0.00     0.064 A 
ATOM     54  C   UNL A   1      40.168  35.051  36.915  1.00  0.00     0.173 A 
ATOM     55  C   UNL A   1      38.764  33.377  37.910  1.00  0.00     0.173 A 
ATOM     56  F   UNL A   1      40.942  35.490  35.912  1.00  0.00    -0.203 F 
ATOM     57  C   UNL A   1      40.031  35.839  38.056  1.00  0.00     0.198 A 
ATOM     58  C   UNL A   1      38.597  34.182  39.034  1.00  0.00     0.198 A 
ATOM     59  F   UNL A   1      38.144  32.188  37.872  1.00  0.00    -0.203 F 
ATOM     60  F   UNL A   1      40.679  37.009  38.139  1.00  0.00    -0.200 F 
ATOM     61  C   UNL A   1      39.240  35.407  39.111  1.00  0.00     0.200 A 
ATOM     62  F   UNL A   1      37.816  33.770  40.040  1.00  0.00    -0.200 F 
ATOM     63  F   UNL A   1      39.107  36.167  40.206  1.00  0.00    -0.200 F 
ENDBRANCH  29  53
BRANCH  41  64
ATOM     64  C   UNL A   1      43.975  28.674  35.210  1.00  0.00     0.064 A 
ATOM     65  C   UNL A   1      43.793  27.568  36.054  1.00  0.00     0.173 A 
ATOM     66  C   UNL A   1      45.271  29.196  35.082  1.00  0.00     0.173 A 
ATOM     67  F   UNL A   1      42.570  27.042  36.225  1.00  0.00    -0.203 F 
ATOM     68  C   UNL A   1      44.859  27.031  36.772  1.00  0.00     0.198 A 
ATOM     69  C   UNL A   1      46.341  28.635  35.773  1.00  0.00     0.198 A 
ATOM     70  F   UNL A   1      45.500  30.250  34.284  1.00  0.00    -0.203 F 
ATOM     71  F   UNL A   1      44.648  26.017  37.622  1.00  0.00    -0.200 F 
ATOM     72  C   UNL A   1      46.132  27.561  36.626  1.00  0.00     0.200 A 
ATOM     73  F   UNL A   1      47.573  29.139  35.621  1.00  0.00    -0.200 F 
ATOM     74  F   UNL A   1      47.157  27.045  37.317  1.00  0.00    -0.200 F 
ENDBRANCH  41  64
ENDBRANCH  15  16
ENDBRANCH   8  10
ENDBRANCH   5   6
ENDBRANCH   4   5
ENDBRANCH   3   4
ENDBRANCH   2   3
ENDBRANCH   1   2
BRANCH   1  75
ATOM     75  C   UNL A   1      32.349  27.424  26.840  1.00  0.00     0.116 C 
BRANCH  75  76
ATOM     76  N   UNL A   1      31.483  26.264  26.874  1.00  0.00    -0.354 N 
ATOM     77  C   UNL A   1      31.515  25.091  26.177  1.00  0.00     0.242 C 
ATOM     78  H   UNL A   1      30.737  26.335  27.514  1.00  0.00     0.163 HD
ATOM     79  O   UNL A   1      30.661  24.255  26.489  1.00  0.00    -0.273 OA
BRANCH  77  80
ATOM     80  C   UNL A   1      32.666  24.742  25.187  1.00  0.00     0.174 C 
ATOM     81  C   UNL A   1      33.308  23.380  25.525  1.00  0.00     0.035 C 
ATOM     82  N   UNL A   1      32.295  24.746  23.761  1.00  0.00    -0.330 N 
ATOM     83  C   UNL A   1      32.432  22.200  25.080  1.00  0.00     0.004 C 
ATOM     84  C   UNL A   1      31.369  23.683  23.375  1.00  0.00     0.120 C 
ATOM     85  C   UNL A   1      32.022  22.327  23.611  1.00  0.00     0.022 C 
BRANCH  82  86
ATOM     86  C   UNL A   1      33.000  25.564  22.885  1.00  0.00     0.233 C 
ATOM     87  O   UNL A   1      33.262  25.204  21.734  1.00  0.00    -0.274 OA
BRANCH  86  88
ATOM     88  C   UNL A   1      33.574  26.874  23.399  1.00  0.00     0.170 C 
BRANCH  88  89
ATOM     89  S   UNL A   1      32.518  28.320  23.096  1.00  0.00    -0.147 SA
BRANCH  89  90
ATOM     90  C   UNL A   1      30.876  27.560  23.180  1.00  0.00     0.105 C 
BRANCH  90  91
ATOM     91  C   UNL A   1      29.669  28.469  23.185  1.00  0.00    -0.038 A 
ATOM     92  C   UNL A   1      28.336  28.036  23.133  1.00  0.00     0.004 A 
ATOM     93  C   UNL A   1      29.912  29.854  23.201  1.00  0.00     0.004 A 
ATOM     94  C   UNL A   1      27.284  28.957  23.123  1.00  0.00     0.000 A 
ATOM     95  C   UNL A   1      28.863  30.773  23.177  1.00  0.00     0.000 A 
ATOM     96  C   UNL A   1      27.546  30.324  23.143  1.00  0.00     0.000 A 
ENDBRANCH  90  91
ENDBRANCH  89  90
ENDBRANCH  88  89
ENDBRANCH  86  88
ENDBRANCH  82  86
ENDBRANCH  77  80
ENDBRANCH  75  76
ENDBRANCH   1  75
TORSDOF 18
ENDMDL
MODEL 3
REMARK VINA RESULT:     -11.4      5.184     10.671
REMARK SMILES O=C(NCCCCCCNC(=O)[C@H]1CCCCN1C(=O)CSCc1ccccc1)c1ccc(-c2c3nc(c(-c4c(F)c(F)c(F)c(F)c4F)c4ccc([nH]4)c(-c4c(F)c(F)c(F)c(F)c4F)c4nc(c(-c5c(F)c(F)c(F)c(F)c5F)c5ccc2[nH]5)C=C4)C=C3)cc1
REMARK SMILES IDX 8 1 7 2 6 3 5 4 4 5 3 6 1 7 2 8 30 10 31 11 92 12 32 13
REMARK SMILES IDX 91 14 33 15 34 16 35 17 85 18 36 19 90 20 84 21 86 22 37 23
REMARK SMILES IDX 89 24 83 25 82 26 38 28 70 29 50 30 69 31 51 32 54 33 68 34
REMARK SMILES IDX 87 35 52 36 53 37 67 39 88 40 55 41 39 42 40 43 48 44 41 45
REMARK SMILES IDX 42 46 46 47 49 48 43 49 44 50 47 51 45 52 71 53 72 54 80 55
REMARK SMILES IDX 73 56 74 57 78 58 81 59 75 60 76 61 79 62 77 63 56 64 57 65
REMARK SMILES IDX 65 66 58 67 59 68 63 69 66 70 60 71 61 72 64 73 62 74 9 75
REMARK SMILES IDX 10 76 11 77 12 79 13 80 14 81 18 82 15 83 17 84 16 85 19 86
REMARK SMILES IDX 20 87 21 88 22 89 23 90 24 91 25 92 29 93 26 94 28 95 27 96
REMARK H PARENT 3 9 86 27 54 38 10 78
REMARK Flexibility Score: inf
ROOT
ATOM      1  C   UNL A   1      37.140  23.477  25.100  1.00  0.00     0.021 C 
ENDROOT
BRANCH   1   2
ATOM      2  C   UNL A   1      37.596  22.130  25.669  1.00  0.00     0.002 C 
BRANCH   2   3
ATOM      3  C   UNL A   1      37.355  20.935  24.744  1.00  0.00     0.002 C 
BRANCH   3   4
ATOM      4  C   UNL A   1      38.307  19.759  24.966  1.00  0.00     0.021 C 
BRANCH   4   5
ATOM      5  C   UNL A   1      39.340  20.000  26.058  1.00  0.00     0.116 C 
BRANCH   5   6
ATOM      6  N   UNL A   1      40.476  19.101  25.934  1.00  0.00    -0.352 N 
ATOM      7  O   UNL A   1      42.655  18.582  25.624  1.00  0.00    -0.269 OA
ATOM      8  C   UNL A   1      41.814  19.405  25.972  1.00  0.00     0.251 C 
ATOM      9  H   UNL A   1      40.257  18.150  25.808  1.00  0.00     0.163 HD
BRANCH   8  10
ATOM     10  C   UNL A   1      42.229  20.744  26.430  1.00  0.00     0.039 A 
ATOM     11  C   UNL A   1      42.604  21.711  25.494  1.00  0.00     0.014 A 
ATOM     12  C   UNL A   1      42.248  21.035  27.796  1.00  0.00     0.014 A 
ATOM     13  C   UNL A   1      43.125  22.921  25.927  1.00  0.00     0.010 A 
ATOM     14  C   UNL A   1      42.677  22.294  28.227  1.00  0.00     0.010 A 
ATOM     15  C   UNL A   1      43.133  23.240  27.296  1.00  0.00    -0.014 A 
BRANCH  15  16
ATOM     16  C   UNL A   1      43.520  24.614  27.702  1.00  0.00     0.031 A 
ATOM     17  C   UNL A   1      44.957  25.045  27.747  1.00  0.00     0.074 A 
ATOM     18  C   UNL A   1      42.534  25.483  27.997  1.00  0.00     0.049 A 
ATOM     19  N   UNL A   1      45.451  26.219  28.054  1.00  0.00    -0.248 NA
ATOM     20  C   UNL A   1      45.973  24.036  27.412  1.00  0.00     0.031 C 
ATOM     21  C   UNL A   1      41.104  25.160  28.002  1.00  0.00     0.029 A 
ATOM     22  N   UNL A   1      42.574  26.812  28.327  1.00  0.00    -0.354 N 
ATOM     23  C   UNL A   1      46.831  26.089  27.960  1.00  0.00     0.074 A 
ATOM     24  C   UNL A   1      47.099  24.713  27.596  1.00  0.00     0.031 C 
ATOM     25  C   UNL A   1      40.402  26.270  28.264  1.00  0.00     0.029 A 
ATOM     26  C   UNL A   1      41.330  27.363  28.523  1.00  0.00     0.049 A 
ATOM     27  H   UNL A   1      43.411  27.323  28.416  1.00  0.00     0.167 HD
ATOM     28  C   UNL A   1      47.779  27.037  28.154  1.00  0.00     0.037 A 
ATOM     29  C   UNL A   1      40.975  28.605  28.895  1.00  0.00     0.037 A 
ATOM     30  C   UNL A   1      47.496  28.404  28.513  1.00  0.00     0.049 A 
ATOM     31  C   UNL A   1      42.054  29.620  29.135  1.00  0.00     0.074 A 
ATOM     32  C   UNL A   1      48.386  29.447  28.709  1.00  0.00     0.029 A 
ATOM     33  N   UNL A   1      46.227  28.920  28.738  1.00  0.00    -0.354 N 
ATOM     34  N   UNL A   1      43.353  29.494  29.006  1.00  0.00    -0.248 NA
ATOM     35  C   UNL A   1      41.618  30.951  29.574  1.00  0.00     0.031 C 
ATOM     36  C   UNL A   1      47.661  30.577  29.101  1.00  0.00     0.029 A 
ATOM     37  C   UNL A   1      46.313  30.257  29.093  1.00  0.00     0.049 A 
ATOM     38  H   UNL A   1      45.388  28.409  28.656  1.00  0.00     0.167 HD
ATOM     39  C   UNL A   1      43.888  30.731  29.333  1.00  0.00     0.074 A 
ATOM     40  C   UNL A   1      42.771  31.602  29.633  1.00  0.00     0.031 C 
ATOM     41  C   UNL A   1      45.188  31.109  29.390  1.00  0.00     0.037 A 
BRANCH  28  42
ATOM     42  C   UNL A   1      49.218  26.636  27.995  1.00  0.00     0.064 A 
ATOM     43  C   UNL A   1      49.843  26.614  26.740  1.00  0.00     0.173 A 
ATOM     44  C   UNL A   1      50.004  26.344  29.122  1.00  0.00     0.173 A 
ATOM     45  F   UNL A   1      49.137  26.877  25.630  1.00  0.00    -0.203 F 
ATOM     46  C   UNL A   1      51.195  26.300  26.616  1.00  0.00     0.198 A 
ATOM     47  C   UNL A   1      51.361  26.058  28.998  1.00  0.00     0.198 A 
ATOM     48  F   UNL A   1      49.459  26.357  30.348  1.00  0.00    -0.203 F 
ATOM     49  F   UNL A   1      51.761  26.254  25.402  1.00  0.00    -0.200 F 
ATOM     50  C   UNL A   1      51.955  26.032  27.745  1.00  0.00     0.200 A 
ATOM     51  F   UNL A   1      52.097  25.814  30.091  1.00  0.00    -0.200 F 
ATOM     52  F   UNL A   1      53.258  25.747  27.625  1.00  0.00    -0.200 F 
ENDBRANCH  28  42
BRANCH  29  53
ATOM     53  C   UNL A   1      39.540  28.945  29.083  1.00  0.00     0.064 A 
ATOM     54  C   UNL A   1      38.754  29.387  28.011  1.00  0.00     0.173 A 
ATOM     55  C   UNL A   1      38.930  28.843  30.342  1.00  0.00     0.173 A 
ATOM     56  F   UNL A   1      39.295  29.516  26.790  1.00  0.00    -0.203 F 
ATOM     57  C   UNL A   1      37.420  29.745  28.198  1.00  0.00     0.198 A 
ATOM     58  C   UNL A   1      37.586  29.164  30.520  1.00  0.00     0.198 A 
ATOM     59  F   UNL A   1      39.636  28.417  31.400  1.00  0.00    -0.203 F 
ATOM     60  F   UNL A   1      36.707  30.220  27.168  1.00  0.00    -0.200 F 
ATOM     61  C   UNL A   1      36.836  29.626  29.451  1.00  0.00     0.200 A 
ATOM     62  F   UNL A   1      37.022  29.028  31.727  1.00  0.00    -0.200 F 
ATOM     63  F   UNL A   1      35.553  29.967  29.629  1.00  0.00    -0.200 F 
ENDBRANCH  29  53
BRANCH  41  64
ATOM     64  C   UNL A   1      45.462  32.537  29.764  1.00  0.00     0.064 A 
ATOM     65  C   UNL A   1      45.518  33.552  28.797  1.00  0.00     0.173 A 
ATOM     66  C   UNL A   1      45.667  32.894  31.104  1.00  0.00     0.173 A 
ATOM     67  F   UNL A   1      45.347  33.260  27.499  1.00  0.00    -0.203 F 
ATOM     68  C   UNL A   1      45.808  34.866  29.155  1.00  0.00     0.198 A 
ATOM     69  C   UNL A   1      45.921  34.214  31.463  1.00  0.00     0.198 A 
ATOM     70  F   UNL A   1      45.619  31.962  32.069  1.00  0.00    -0.203 F 
ATOM     71  F   UNL A   1      45.922  35.807  28.207  1.00  0.00    -0.200 F 
ATOM     72  C   UNL A   1      46.003  35.197  30.488  1.00  0.00     0.200 A 
ATOM     73  F   UNL A   1      46.096  34.535  32.753  1.00  0.00    -0.200 F 
ATOM     74  F   UNL A   1      46.283  36.461  30.832  1.00  0.00    -0.200 F 
ENDBRANCH  41  64
ENDBRANCH  15  16
ENDBRANCH   8  10
ENDBRANCH   5   6
ENDBRANCH   4   5
ENDBRANCH   3   4
ENDBRANCH   2   3
ENDBRANCH   1   2
BRANCH   1  75
ATOM     75  C   UNL A   1      35.773  23.934  25.617  1.00  0.00     0.116 C 
BRANCH  75  76
ATOM     76  N   UNL A   1      35.085  24.756  24.644  1.00  0.00    -0.354 N 
ATOM     77  C   UNL A   1      33.805  25.229  24.604  1.00  0.00     0.242 C 
ATOM     78  H   UNL A   1      35.638  25.020  23.873  1.00  0.00     0.163 HD
ATOM     79  O   UNL A   1      33.537  25.977  23.657  1.00  0.00    -0.273 OA
BRANCH  77  80
ATOM     80  C   UNL A   1      32.797  25.006  25.770  1.00  0.00     0.174 C 
ATOM     81  C   UNL A   1      32.247  26.344  26.305  1.00  0.00     0.035 C 
ATOM     82  N   UNL A   1      31.661  24.120  25.462  1.00  0.00    -0.330 N 
ATOM     83  C   UNL A   1      31.188  26.950  25.373  1.00  0.00     0.004 C 
ATOM     84  C   UNL A   1      30.719  24.664  24.485  1.00  0.00     0.120 C 
ATOM     85  C   UNL A   1      30.091  25.937  25.036  1.00  0.00     0.022 C 
BRANCH  82  86
ATOM     86  C   UNL A   1      31.448  23.000  26.257  1.00  0.00     0.233 C 
ATOM     87  O   UNL A   1      30.375  22.388  26.238  1.00  0.00    -0.274 OA
BRANCH  86  88
ATOM     88  C   UNL A   1      32.510  22.597  27.266  1.00  0.00     0.170 C 
BRANCH  88  89
ATOM     89  S   UNL A   1      33.622  21.281  26.693  1.00  0.00    -0.147 SA
BRANCH  89  90
ATOM     90  C   UNL A   1      33.142  21.171  24.950  1.00  0.00     0.105 C 
BRANCH  90  91
ATOM     91  C   UNL A   1      33.227  19.825  24.270  1.00  0.00    -0.038 A 
ATOM     92  C   UNL A   1      32.315  19.344  23.319  1.00  0.00     0.004 A 
ATOM     93  C   UNL A   1      34.282  18.978  24.659  1.00  0.00     0.004 A 
ATOM     94  C   UNL A   1      32.468  18.072  22.759  1.00  0.00     0.000 A 
ATOM     95  C   UNL A   1      34.426  17.704  24.109  1.00  0.00     0.000 A 
ATOM     96  C   UNL A   1      33.520  17.252  23.154  1.00  0.00     0.000 A 
ENDBRANCH  90  91
ENDBRANCH  89  90
ENDBRANCH  88  89
ENDBRANCH  86  88
ENDBRANCH  82  86
ENDBRANCH  77  80
ENDBRANCH  75  76
ENDBRANCH   1  75
TORSDOF 18
ENDMDL
