MODEL 1
REMARK VINA RESULT:     -13.7      0.000      0.000
REMARK SMILES Cc1ccc(S(=O)(=O)Nc2ccccn2)cc1C(=O)NCCCCCCNC(=O)c1ccc(-c2c3nc(c(-c4c(F)c(F)c(F)c(F)c4F)c4ccc([nH]4)c(-c4c(F)c(F)c(F)c(F)c4F)c4nc(c(-c5c(F)c(F)c(F)c(F)c5F)c5ccc2[nH]5)C=C4)C=C3)cc1
REMARK SMILES IDX 23 1 22 2 21 3 20 4 18 5 19 6 17 8 1 9 2 10 3 11 4 12 16 13
REMARK SMILES IDX 5 14 6 15 7 16 8 17 9 18 10 20 11 21 15 22 12 23 14 24 13 25
REMARK SMILES IDX 24 26 25 27 26 28 27 29 28 30 29 32 30 33 31 34 92 35 32 36
REMARK SMILES IDX 91 37 33 38 34 39 35 40 85 41 36 42 90 43 84 44 86 45 37 46
REMARK SMILES IDX 89 47 83 48 82 49 38 51 70 52 50 53 69 54 51 55 54 56 68 57
REMARK SMILES IDX 87 58 52 59 53 60 67 62 88 63 55 64 39 65 40 66 48 67 41 68
REMARK SMILES IDX 42 69 46 70 49 71 43 72 44 73 47 74 45 75 71 76 72 77 80 78
REMARK SMILES IDX 73 79 74 80 78 81 81 82 75 83 76 84 79 85 77 86 56 87 57 88
REMARK SMILES IDX 65 89 58 90 59 91 63 92 66 93 60 94 61 95 64 96 62 97
REMARK H PARENT 20 7 9 19 27 31 86 50 54 61
REMARK Flexibility Score: inf
ROOT
ATOM      1  C   UNL A   1      35.578  21.407  25.520  1.00  0.00     0.002 C 
ENDROOT
BRANCH   1   2
ATOM      2  C   UNL A   1      34.557  22.553  25.504  1.00  0.00     0.021 C 
BRANCH   2   3
ATOM      3  C   UNL A   1      34.325  23.260  26.847  1.00  0.00     0.116 C 
BRANCH   3   4
ATOM      4  N   UNL A   1      32.958  23.693  26.970  1.00  0.00    -0.352 N 
ATOM      5  C   UNL A   1      32.243  24.800  26.624  1.00  0.00     0.251 C 
ATOM      6  O   UNL A   1      31.027  24.667  26.812  1.00  0.00    -0.269 OA
ATOM      7  H   UNL A   1      32.397  23.018  27.417  1.00  0.00     0.163 HD
BRANCH   5   8
ATOM      8  C   UNL A   1      32.727  26.111  26.052  1.00  0.00     0.044 A 
ATOM      9  C   UNL A   1      31.885  27.836  27.799  1.00  0.00     0.045 C 
ATOM     10  C   UNL A   1      32.576  27.428  26.536  1.00  0.00    -0.038 A 
ATOM     11  C   UNL A   1      33.019  28.515  25.745  1.00  0.00     0.005 A 
ATOM     12  C   UNL A   1      33.398  28.340  24.420  1.00  0.00     0.022 A 
ATOM     13  C   UNL A   1      33.218  25.962  24.728  1.00  0.00     0.036 A 
ATOM     14  C   UNL A   1      33.423  27.058  23.888  1.00  0.00     0.088 A 
BRANCH  14  15
ATOM     15  S   UNL A   1      33.445  26.947  22.107  1.00  0.00     0.263 S 
ATOM     16  O   UNL A   1      34.180  28.109  21.651  1.00  0.00    -0.201 OA
ATOM     17  O   UNL A   1      33.908  25.609  21.797  1.00  0.00    -0.201 OA
BRANCH  15  18
ATOM     18  N   UNL A   1      31.904  27.044  21.520  1.00  0.00    -0.263 N 
ATOM     19  H   UNL A   1      31.780  26.922  20.552  1.00  0.00     0.182 HD
BRANCH  18  20
ATOM     20  C   UNL A   1      30.759  27.286  22.290  1.00  0.00     0.139 A 
ATOM     21  C   UNL A   1      30.145  26.397  23.155  1.00  0.00     0.048 A 
ATOM     22  N   UNL A   1      30.293  28.519  22.014  1.00  0.00    -0.239 NA
ATOM     23  C   UNL A   1      28.917  26.771  23.700  1.00  0.00     0.005 A 
ATOM     24  C   UNL A   1      29.108  28.855  22.566  1.00  0.00     0.113 A 
ATOM     25  C   UNL A   1      28.383  28.018  23.394  1.00  0.00     0.020 A 
ENDBRANCH  18  20
ENDBRANCH  15  18
ENDBRANCH  14  15
ENDBRANCH   5   8
ENDBRANCH   3   4
ENDBRANCH   2   3
ENDBRANCH   1   2
BRANCH   1  26
ATOM     26  C   UNL A   1      36.860  21.610  24.699  1.00  0.00     0.002 C 
BRANCH  26  27
ATOM     27  C   UNL A   1      38.179  21.484  25.463  1.00  0.00     0.021 C 
BRANCH  27  28
ATOM     28  C   UNL A   1      38.678  22.793  26.061  1.00  0.00     0.116 C 
BRANCH  28  29
ATOM     29  N   UNL A   1      40.128  22.867  26.183  1.00  0.00    -0.352 N 
ATOM     30  C   UNL A   1      40.922  23.942  26.527  1.00  0.00     0.251 C 
ATOM     31  H   UNL A   1      40.611  22.030  25.993  1.00  0.00     0.163 HD
ATOM     32  O   UNL A   1      42.144  23.833  26.538  1.00  0.00    -0.269 OA
BRANCH  30  33
ATOM     33  C   UNL A   1      40.288  25.194  27.002  1.00  0.00     0.039 A 
ATOM     34  C   UNL A   1      40.628  26.391  26.361  1.00  0.00     0.014 A 
ATOM     35  C   UNL A   1      39.510  25.214  28.157  1.00  0.00     0.014 A 
ATOM     36  C   UNL A   1      40.382  27.605  27.000  1.00  0.00     0.010 A 
ATOM     37  C   UNL A   1      39.344  26.407  28.834  1.00  0.00     0.010 A 
ATOM     38  C   UNL A   1      39.838  27.595  28.286  1.00  0.00    -0.014 A 
BRANCH  38  39
ATOM     39  C   UNL A   1      39.841  28.759  29.165  1.00  0.00     0.031 A 
ATOM     40  C   UNL A   1      38.802  29.802  29.044  1.00  0.00     0.074 A 
ATOM     41  C   UNL A   1      40.771  28.844  30.142  1.00  0.00     0.049 A 
ATOM     42  N   UNL A   1      38.922  31.004  29.498  1.00  0.00    -0.248 NA
ATOM     43  C   UNL A   1      37.537  29.569  28.356  1.00  0.00     0.031 C 
ATOM     44  C   UNL A   1      40.805  29.783  31.260  1.00  0.00     0.029 A 
ATOM     45  N   UNL A   1      42.028  28.217  30.177  1.00  0.00    -0.354 N 
ATOM     46  C   UNL A   1      37.705  31.632  29.371  1.00  0.00     0.074 A 
ATOM     47  C   UNL A   1      36.883  30.703  28.627  1.00  0.00     0.031 C 
ATOM     48  C   UNL A   1      42.077  29.921  31.665  1.00  0.00     0.029 A 
ATOM     49  C   UNL A   1      42.905  29.181  30.730  1.00  0.00     0.049 A 
ATOM     50  H   UNL A   1      42.250  27.304  29.881  1.00  0.00     0.167 HD
ATOM     51  C   UNL A   1      37.500  32.829  29.993  1.00  0.00     0.037 A 
ATOM     52  C   UNL A   1      43.924  29.706  29.988  1.00  0.00     0.037 A 
ATOM     53  C   UNL A   1      38.714  33.320  30.634  1.00  0.00     0.049 A 
ATOM     54  C   UNL A   1      43.862  31.206  29.794  1.00  0.00     0.074 A 
ATOM     55  C   UNL A   1      39.217  33.266  31.924  1.00  0.00     0.029 A 
ATOM     56  N   UNL A   1      39.761  33.734  29.831  1.00  0.00    -0.354 N 
ATOM     57  N   UNL A   1      42.858  31.953  30.158  1.00  0.00    -0.248 NA
ATOM     58  C   UNL A   1      44.886  31.961  29.068  1.00  0.00     0.031 C 
ATOM     59  C   UNL A   1      40.595  33.623  31.878  1.00  0.00     0.029 A 
ATOM     60  C   UNL A   1      40.921  33.896  30.562  1.00  0.00     0.049 A 
ATOM     61  H   UNL A   1      39.689  33.893  28.863  1.00  0.00     0.167 HD
ATOM     62  C   UNL A   1      43.059  33.226  29.702  1.00  0.00     0.074 A 
ATOM     63  C   UNL A   1      44.340  33.187  29.025  1.00  0.00     0.031 C 
ATOM     64  C   UNL A   1      42.149  34.224  29.868  1.00  0.00     0.037 A 
BRANCH  51  65
ATOM     65  C   UNL A   1      36.142  33.456  30.194  1.00  0.00     0.064 A 
ATOM     66  C   UNL A   1      35.420  33.976  29.097  1.00  0.00     0.173 A 
ATOM     67  C   UNL A   1      35.518  33.615  31.444  1.00  0.00     0.173 A 
ATOM     68  F   UNL A   1      35.845  33.812  27.839  1.00  0.00    -0.203 F 
ATOM     69  C   UNL A   1      34.234  34.696  29.256  1.00  0.00     0.198 A 
ATOM     70  C   UNL A   1      34.364  34.388  31.610  1.00  0.00     0.198 A 
ATOM     71  F   UNL A   1      35.975  32.984  32.533  1.00  0.00    -0.203 F 
ATOM     72  F   UNL A   1      33.593  35.168  28.177  1.00  0.00    -0.200 F 
ATOM     73  C   UNL A   1      33.728  34.939  30.517  1.00  0.00     0.200 A 
ATOM     74  F   UNL A   1      33.875  34.596  32.841  1.00  0.00    -0.200 F 
ATOM     75  F   UNL A   1      32.621  35.677  30.674  1.00  0.00    -0.200 F 
ENDBRANCH  51  65
BRANCH  52  76
ATOM     76  C   UNL A   1      44.464  28.748  28.985  1.00  0.00     0.064 A 
ATOM     77  C   UNL A   1      45.249  27.669  29.438  1.00  0.00     0.173 A 
ATOM     78  C   UNL A   1      43.944  28.670  27.689  1.00  0.00     0.173 A 
ATOM     79  F   UNL A   1      45.773  27.692  30.674  1.00  0.00    -0.203 F 
ATOM     80  C   UNL A   1      45.398  26.513  28.676  1.00  0.00     0.198 A 
ATOM     81  C   UNL A   1      44.116  27.520  26.919  1.00  0.00     0.198 A 
ATOM     82  F   UNL A   1      43.173  29.654  27.205  1.00  0.00    -0.203 F 
ATOM     83  F   UNL A   1      46.046  25.455  29.186  1.00  0.00    -0.200 F 
ATOM     84  C   UNL A   1      44.810  26.430  27.427  1.00  0.00     0.200 A 
ATOM     85  F   UNL A   1      43.526  27.431  25.718  1.00  0.00    -0.200 F 
ATOM     86  F   UNL A   1      44.873  25.289  26.728  1.00  0.00    -0.200 F 
ENDBRANCH  52  76
BRANCH  64  87
ATOM     87  C   UNL A   1      42.380  35.614  29.377  1.00  0.00     0.064 A 
ATOM     88  C   UNL A   1      41.833  36.069  28.169  1.00  0.00     0.173 A 
ATOM     89  C   UNL A   1      43.256  36.488  30.049  1.00  0.00     0.173 A 
ATOM     90  F   UNL A   1      41.013  35.285  27.454  1.00  0.00    -0.203 F 
ATOM     91  C   UNL A   1      42.132  37.337  27.670  1.00  0.00     0.198 A 
ATOM     92  C   UNL A   1      43.585  37.736  29.528  1.00  0.00     0.198 A 
ATOM     93  F   UNL A   1      43.792  36.153  31.233  1.00  0.00    -0.203 F 
ATOM     94  F   UNL A   1      41.562  37.755  26.532  1.00  0.00    -0.200 F 
ATOM     95  C   UNL A   1      43.018  38.163  28.343  1.00  0.00     0.200 A 
ATOM     96  F   UNL A   1      44.453  38.522  30.181  1.00  0.00    -0.200 F 
ATOM     97  F   UNL A   1      43.321  39.371  27.849  1.00  0.00    -0.200 F 
ENDBRANCH  64  87
ENDBRANCH  38  39
ENDBRANCH  30  33
ENDBRANCH  28  29
ENDBRANCH  27  28
ENDBRANCH  26  27
ENDBRANCH   1  26
TORSDOF 16
ENDMDL
MODEL 2
REMARK VINA RESULT:     -13.6      3.667      9.889
REMARK SMILES Cc1ccc(S(=O)(=O)Nc2ccccn2)cc1C(=O)NCCCCCCNC(=O)c1ccc(-c2c3nc(c(-c4c(F)c(F)c(F)c(F)c4F)c4ccc([nH]4)c(-c4c(F)c(F)c(F)c(F)c4F)c4nc(c(-c5c(F)c(F)c(F)c(F)c5F)c5ccc2[nH]5)C=C4)C=C3)cc1
REMARK SMILES IDX 23 1 22 2 21 3 20 4 18 5 19 6 17 8 1 9 2 10 3 11 4 12 16 13
REMARK SMILES IDX 5 14 6 15 7 16 8 17 9 18 10 20 11 21 15 22 12 23 14 24 13 25
REMARK SMILES IDX 24 26 25 27 26 28 27 29 28 30 29 32 30 33 31 34 92 35 32 36
REMARK SMILES IDX 91 37 33 38 34 39 35 40 85 41 36 42 90 43 84 44 86 45 37 46
REMARK SMILES IDX 89 47 83 48 82 49 38 51 70 52 50 53 69 54 51 55 54 56 68 57
REMARK SMILES IDX 87 58 52 59 53 60 67 62 88 63 55 64 39 65 40 66 48 67 41 68
REMARK SMILES IDX 42 69 46 70 49 71 43 72 44 73 47 74 45 75 71 76 72 77 80 78
REMARK SMILES IDX 73 79 74 80 78 81 81 82 75 83 76 84 79 85 77 86 56 87 57 88
REMARK SMILES IDX 65 89 58 90 59 91 63 92 66 93 60 94 61 95 64 96 62 97
REMARK H PARENT 20 7 9 19 27 31 86 50 54 61
REMARK Flexibility Score: inf
ROOT
ATOM      1  C   UNL A   1      33.056  28.512  25.388  1.00  0.00     0.002 C 
ENDROOT
BRANCH   1   2
ATOM      2  C   UNL A   1      34.041  28.437  24.214  1.00  0.00     0.021 C 
BRANCH   2   3
ATOM      3  C   UNL A   1      33.484  28.856  22.846  1.00  0.00     0.116 C 
BRANCH   3   4
ATOM      4  N   UNL A   1      33.251  27.705  22.012  1.00  0.00    -0.352 N 
ATOM      5  C   UNL A   1      32.432  26.617  22.046  1.00  0.00     0.251 C 
ATOM      6  O   UNL A   1      32.486  25.942  21.011  1.00  0.00    -0.269 OA
ATOM      7  H   UNL A   1      33.830  27.705  21.216  1.00  0.00     0.163 HD
BRANCH   5   8
ATOM      8  C   UNL A   1      31.495  26.158  23.138  1.00  0.00     0.044 A 
ATOM      9  C   UNL A   1      29.818  28.132  23.311  1.00  0.00     0.045 C 
ATOM     10  C   UNL A   1      30.371  26.797  23.703  1.00  0.00    -0.038 A 
ATOM     11  C   UNL A   1      29.722  26.208  24.815  1.00  0.00     0.005 A 
ATOM     12  C   UNL A   1      30.284  25.139  25.499  1.00  0.00     0.022 A 
ATOM     13  C   UNL A   1      31.983  25.002  23.803  1.00  0.00     0.036 A 
ATOM     14  C   UNL A   1      31.466  24.582  25.029  1.00  0.00     0.088 A 
BRANCH  14  15
ATOM     15  S   UNL A   1      32.368  23.564  26.184  1.00  0.00     0.263 S 
ATOM     16  O   UNL A   1      31.772  23.819  27.480  1.00  0.00    -0.201 OA
ATOM     17  O   UNL A   1      32.371  22.228  25.620  1.00  0.00    -0.201 OA
BRANCH  15  18
ATOM     18  N   UNL A   1      33.948  24.040  26.237  1.00  0.00    -0.263 N 
ATOM     19  H   UNL A   1      34.182  24.767  26.858  1.00  0.00     0.182 HD
BRANCH  18  20
ATOM     20  C   UNL A   1      34.984  23.492  25.469  1.00  0.00     0.139 A 
ATOM     21  C   UNL A   1      35.285  23.798  24.154  1.00  0.00     0.048 A 
ATOM     22  N   UNL A   1      35.622  22.553  26.194  1.00  0.00    -0.239 NA
ATOM     23  C   UNL A   1      36.248  23.019  23.514  1.00  0.00     0.005 A 
ATOM     24  C   UNL A   1      36.558  21.824  25.549  1.00  0.00     0.113 A 
ATOM     25  C   UNL A   1      36.891  22.007  24.219  1.00  0.00     0.020 A 
ENDBRANCH  18  20
ENDBRANCH  15  18
ENDBRANCH  14  15
ENDBRANCH   5   8
ENDBRANCH   3   4
ENDBRANCH   2   3
ENDBRANCH   1   2
BRANCH   1  26
ATOM     26  C   UNL A   1      32.298  29.835  25.572  1.00  0.00     0.002 C 
BRANCH  26  27
ATOM     27  C   UNL A   1      32.557  30.586  26.880  1.00  0.00     0.021 C 
BRANCH  27  28
ATOM     28  C   UNL A   1      33.803  30.124  27.625  1.00  0.00     0.116 C 
BRANCH  28  29
ATOM     29  N   UNL A   1      34.442  31.175  28.408  1.00  0.00    -0.352 N 
ATOM     30  C   UNL A   1      35.666  31.168  29.044  1.00  0.00     0.251 C 
ATOM     31  H   UNL A   1      33.926  32.009  28.494  1.00  0.00     0.163 HD
ATOM     32  O   UNL A   1      36.029  32.139  29.702  1.00  0.00    -0.269 OA
BRANCH  30  33
ATOM     33  C   UNL A   1      36.593  30.033  28.829  1.00  0.00     0.039 A 
ATOM     34  C   UNL A   1      36.975  29.273  29.940  1.00  0.00     0.014 A 
ATOM     35  C   UNL A   1      37.205  29.826  27.594  1.00  0.00     0.014 A 
ATOM     36  C   UNL A   1      38.115  28.474  29.866  1.00  0.00     0.010 A 
ATOM     37  C   UNL A   1      38.384  29.108  27.541  1.00  0.00     0.010 A 
ATOM     38  C   UNL A   1      38.873  28.485  28.694  1.00  0.00    -0.014 A 
BRANCH  38  39
ATOM     39  C   UNL A   1      40.232  27.959  28.616  1.00  0.00     0.031 A 
ATOM     40  C   UNL A   1      40.476  26.535  28.311  1.00  0.00     0.074 A 
ATOM     41  C   UNL A   1      41.276  28.807  28.760  1.00  0.00     0.049 A 
ATOM     42  N   UNL A   1      41.575  25.913  28.578  1.00  0.00    -0.248 NA
ATOM     43  C   UNL A   1      39.464  25.680  27.702  1.00  0.00     0.031 C 
ATOM     44  C   UNL A   1      42.685  28.540  28.482  1.00  0.00     0.029 A 
ATOM     45  N   UNL A   1      41.280  30.045  29.425  1.00  0.00    -0.354 N 
ATOM     46  C   UNL A   1      41.514  24.668  27.996  1.00  0.00     0.074 A 
ATOM     47  C   UNL A   1      40.165  24.563  27.486  1.00  0.00     0.031 C 
ATOM     48  C   UNL A   1      43.431  29.371  29.226  1.00  0.00     0.029 A 
ATOM     49  C   UNL A   1      42.525  30.096  30.098  1.00  0.00     0.049 A 
ATOM     50  H   UNL A   1      40.572  30.728  29.422  1.00  0.00     0.167 HD
ATOM     51  C   UNL A   1      42.642  23.904  27.926  1.00  0.00     0.037 A 
ATOM     52  C   UNL A   1      42.581  30.110  31.462  1.00  0.00     0.037 A 
ATOM     53  C   UNL A   1      43.763  24.528  28.621  1.00  0.00     0.049 A 
ATOM     54  C   UNL A   1      43.326  28.946  32.080  1.00  0.00     0.074 A 
ATOM     55  C   UNL A   1      44.832  25.313  28.222  1.00  0.00     0.029 A 
ATOM     56  N   UNL A   1      43.714  24.619  29.999  1.00  0.00    -0.354 N 
ATOM     57  N   UNL A   1      43.763  27.915  31.413  1.00  0.00    -0.248 NA
ATOM     58  C   UNL A   1      43.535  28.807  33.523  1.00  0.00     0.031 C 
ATOM     59  C   UNL A   1      45.406  25.904  29.383  1.00  0.00     0.029 A 
ATOM     60  C   UNL A   1      44.686  25.472  30.482  1.00  0.00     0.049 A 
ATOM     61  H   UNL A   1      43.069  24.136  30.565  1.00  0.00     0.167 HD
ATOM     62  C   UNL A   1      44.251  26.987  32.291  1.00  0.00     0.074 A 
ATOM     63  C   UNL A   1      44.089  27.586  33.601  1.00  0.00     0.031 C 
ATOM     64  C   UNL A   1      44.719  25.772  31.899  1.00  0.00     0.037 A 
BRANCH  51  65
ATOM     65  C   UNL A   1      42.784  22.682  27.051  1.00  0.00     0.064 A 
ATOM     66  C   UNL A   1      42.064  21.503  27.340  1.00  0.00     0.173 A 
ATOM     67  C   UNL A   1      43.644  22.595  25.942  1.00  0.00     0.173 A 
ATOM     68  F   UNL A   1      41.139  21.467  28.307  1.00  0.00    -0.203 F 
ATOM     69  C   UNL A   1      42.277  20.307  26.650  1.00  0.00     0.198 A 
ATOM     70  C   UNL A   1      43.903  21.385  25.291  1.00  0.00     0.198 A 
ATOM     71  F   UNL A   1      44.217  23.688  25.421  1.00  0.00    -0.203 F 
ATOM     72  F   UNL A   1      41.565  19.218  26.971  1.00  0.00    -0.200 F 
ATOM     73  C   UNL A   1      43.228  20.238  25.652  1.00  0.00     0.200 A 
ATOM     74  F   UNL A   1      44.816  21.341  24.310  1.00  0.00    -0.200 F 
ATOM     75  F   UNL A   1      43.473  19.078  25.028  1.00  0.00    -0.200 F 
ENDBRANCH  51  65
BRANCH  52  76
ATOM     76  C   UNL A   1      41.410  30.786  32.084  1.00  0.00     0.064 A 
ATOM     77  C   UNL A   1      40.350  29.993  32.567  1.00  0.00     0.173 A 
ATOM     78  C   UNL A   1      41.475  32.114  32.520  1.00  0.00     0.173 A 
ATOM     79  F   UNL A   1      40.240  28.712  32.180  1.00  0.00    -0.203 F 
ATOM     80  C   UNL A   1      39.475  30.470  33.539  1.00  0.00     0.198 A 
ATOM     81  C   UNL A   1      40.580  32.596  33.476  1.00  0.00     0.198 A 
ATOM     82  F   UNL A   1      42.469  32.917  32.113  1.00  0.00    -0.203 F 
ATOM     83  F   UNL A   1      38.556  29.651  34.070  1.00  0.00    -0.200 F 
ATOM     84  C   UNL A   1      39.607  31.764  34.011  1.00  0.00     0.200 A 
ATOM     85  F   UNL A   1      40.724  33.842  33.949  1.00  0.00    -0.200 F 
ATOM     86  F   UNL A   1      38.827  32.198  35.009  1.00  0.00    -0.200 F 
ENDBRANCH  52  76
BRANCH  64  87
ATOM     87  C   UNL A   1      45.260  24.769  32.861  1.00  0.00     0.064 A 
ATOM     88  C   UNL A   1      44.478  23.707  33.336  1.00  0.00     0.173 A 
ATOM     89  C   UNL A   1      46.542  24.917  33.423  1.00  0.00     0.173 A 
ATOM     90  F   UNL A   1      43.235  23.515  32.872  1.00  0.00    -0.203 F 
ATOM     91  C   UNL A   1      44.959  22.830  34.308  1.00  0.00     0.198 A 
ATOM     92  C   UNL A   1      47.004  24.066  34.423  1.00  0.00     0.198 A 
ATOM     93  F   UNL A   1      47.376  25.879  32.998  1.00  0.00    -0.203 F 
ATOM     94  F   UNL A   1      44.200  21.803  34.712  1.00  0.00    -0.200 F 
ATOM     95  C   UNL A   1      46.216  23.018  34.860  1.00  0.00     0.200 A 
ATOM     96  F   UNL A   1      48.217  24.265  34.959  1.00  0.00    -0.200 F 
ATOM     97  F   UNL A   1      46.668  22.188  35.810  1.00  0.00    -0.200 F 
ENDBRANCH  64  87
ENDBRANCH  38  39
ENDBRANCH  30  33
ENDBRANCH  28  29
ENDBRANCH  27  28
ENDBRANCH  26  27
ENDBRANCH   1  26
TORSDOF 16
ENDMDL
MODEL 3
REMARK VINA RESULT:     -13.6      3.486      9.874
REMARK SMILES Cc1ccc(S(=O)(=O)Nc2ccccn2)cc1C(=O)NCCCCCCNC(=O)c1ccc(-c2c3nc(c(-c4c(F)c(F)c(F)c(F)c4F)c4ccc([nH]4)c(-c4c(F)c(F)c(F)c(F)c4F)c4nc(c(-c5c(F)c(F)c(F)c(F)c5F)c5ccc2[nH]5)C=C4)C=C3)cc1
REMARK SMILES IDX 23 1 22 2 21 3 20 4 18 5 19 6 17 8 1 9 2 10 3 11 4 12 16 13
REMARK SMILES IDX 5 14 6 15 7 16 8 17 9 18 10 20 11 21 15 22 12 23 14 24 13 25
REMARK SMILES IDX 24 26 25 27 26 28 27 29 28 30 29 32 30 33 31 34 92 35 32 36
REMARK SMILES IDX 91 37 33 38 34 39 35 40 85 41 36 42 90 43 84 44 86 45 37 46
REMARK SMILES IDX 89 47 83 48 82 49 38 51 70 52 50 53 69 54 51 55 54 56 68 57
REMARK SMILES IDX 87 58 52 59 53 60 67 62 88 63 55 64 39 65 40 66 48 67 41 68
REMARK SMILES IDX 42 69 46 70 49 71 43 72 44 73 47 74 45 75 71 76 72 77 80 78
REMARK SMILES IDX 73 79 74 80 78 81 81 82 75 83 76 84 79 85 77 86 56 87 57 88
REMARK SMILES IDX 65 89 58 90 59 91 63 92 66 93 60 94 61 95 64 96 62 97
REMARK H PARENT 20 7 9 19 27 31 86 50 54 61
REMARK Flexibility Score: inf
ROOT
ATOM      1  C   UNL A   1      34.204  28.432  25.715  1.00  0.00     0.002 C 
ENDROOT
BRANCH   1   2
ATOM      2  C   UNL A   1      33.419  29.095  24.574  1.00  0.00     0.021 C 
BRANCH   2   3
ATOM      3  C   UNL A   1      33.632  28.491  23.178  1.00  0.00     0.116 C 
BRANCH   3   4
ATOM      4  N   UNL A   1      32.376  28.304  22.502  1.00  0.00    -0.352 N 
ATOM      5  C   UNL A   1      31.326  27.440  22.600  1.00  0.00     0.251 C 
ATOM      6  O   UNL A   1      30.373  27.756  21.878  1.00  0.00    -0.269 OA
ATOM      7  H   UNL A   1      32.239  28.968  21.789  1.00  0.00     0.163 HD
BRANCH   5   8
ATOM      8  C   UNL A   1      31.183  26.203  23.454  1.00  0.00     0.044 A 
ATOM      9  C   UNL A   1      30.608  27.188  25.786  1.00  0.00     0.045 C 
ATOM     10  C   UNL A   1      30.883  26.073  24.827  1.00  0.00    -0.038 A 
ATOM     11  C   UNL A   1      30.927  24.792  25.430  1.00  0.00     0.005 A 
ATOM     12  C   UNL A   1      31.464  23.697  24.767  1.00  0.00     0.022 A 
ATOM     13  C   UNL A   1      31.629  25.037  22.777  1.00  0.00     0.036 A 
ATOM     14  C   UNL A   1      31.887  23.843  23.452  1.00  0.00     0.088 A 
BRANCH  14  15
ATOM     15  S   UNL A   1      32.979  22.575  22.833  1.00  0.00     0.263 S 
ATOM     16  O   UNL A   1      32.117  21.567  22.251  1.00  0.00    -0.201 OA
ATOM     17  O   UNL A   1      33.968  23.260  22.026  1.00  0.00    -0.201 OA
BRANCH  15  18
ATOM     18  N   UNL A   1      33.809  21.888  24.085  1.00  0.00    -0.263 N 
ATOM     19  H   UNL A   1      33.460  21.044  24.451  1.00  0.00     0.182 HD
BRANCH  18  20
ATOM     20  C   UNL A   1      34.970  22.412  24.669  1.00  0.00     0.139 A 
ATOM     21  C   UNL A   1      35.068  23.581  25.402  1.00  0.00     0.048 A 
ATOM     22  N   UNL A   1      36.017  21.626  24.352  1.00  0.00    -0.239 NA
ATOM     23  C   UNL A   1      36.345  24.017  25.754  1.00  0.00     0.005 A 
ATOM     24  C   UNL A   1      37.238  22.070  24.717  1.00  0.00     0.113 A 
ATOM     25  C   UNL A   1      37.452  23.255  25.398  1.00  0.00     0.020 A 
ENDBRANCH  18  20
ENDBRANCH  15  18
ENDBRANCH  14  15
ENDBRANCH   5   8
ENDBRANCH   3   4
ENDBRANCH   2   3
ENDBRANCH   1   2
BRANCH   1  26
ATOM     26  C   UNL A   1      33.632  28.591  27.131  1.00  0.00     0.002 C 
BRANCH  26  27
ATOM     27  C   UNL A   1      33.280  30.016  27.563  1.00  0.00     0.021 C 
BRANCH  27  28
ATOM     28  C   UNL A   1      34.439  31.000  27.459  1.00  0.00     0.116 C 
BRANCH  28  29
ATOM     29  N   UNL A   1      34.825  31.588  28.735  1.00  0.00    -0.352 N 
ATOM     30  C   UNL A   1      35.785  31.172  29.633  1.00  0.00     0.251 C 
ATOM     31  H   UNL A   1      34.330  32.399  28.992  1.00  0.00     0.163 HD
ATOM     32  O   UNL A   1      35.947  31.772  30.692  1.00  0.00    -0.269 OA
BRANCH  30  33
ATOM     33  C   UNL A   1      36.703  30.071  29.261  1.00  0.00     0.039 A 
ATOM     34  C   UNL A   1      37.017  29.115  30.234  1.00  0.00     0.014 A 
ATOM     35  C   UNL A   1      37.372  30.073  28.039  1.00  0.00     0.014 A 
ATOM     36  C   UNL A   1      38.146  28.314  30.070  1.00  0.00     0.010 A 
ATOM     37  C   UNL A   1      38.540  29.345  27.912  1.00  0.00     0.010 A 
ATOM     38  C   UNL A   1      38.962  28.515  28.955  1.00  0.00    -0.014 A 
BRANCH  38  39
ATOM     39  C   UNL A   1      40.314  27.978  28.846  1.00  0.00     0.031 A 
ATOM     40  C   UNL A   1      40.539  26.560  28.497  1.00  0.00     0.074 A 
ATOM     41  C   UNL A   1      41.368  28.810  29.003  1.00  0.00     0.049 A 
ATOM     42  N   UNL A   1      41.635  25.919  28.733  1.00  0.00    -0.248 NA
ATOM     43  C   UNL A   1      39.511  25.734  27.875  1.00  0.00     0.031 C 
ATOM     44  C   UNL A   1      42.771  28.537  28.702  1.00  0.00     0.029 A 
ATOM     45  N   UNL A   1      41.393  30.027  29.704  1.00  0.00    -0.354 N 
ATOM     46  C   UNL A   1      41.554  24.693  28.115  1.00  0.00     0.074 A 
ATOM     47  C   UNL A   1      40.198  24.617  27.618  1.00  0.00     0.031 C 
ATOM     48  C   UNL A   1      43.535  29.338  29.462  1.00  0.00     0.029 A 
ATOM     49  C   UNL A   1      42.646  30.046  30.365  1.00  0.00     0.049 A 
ATOM     50  H   UNL A   1      40.692  30.718  29.729  1.00  0.00     0.167 HD
ATOM     51  C   UNL A   1      42.672  23.920  28.011  1.00  0.00     0.037 A 
ATOM     52  C   UNL A   1      42.716  30.019  31.728  1.00  0.00     0.037 A 
ATOM     53  C   UNL A   1      43.807  24.512  28.711  1.00  0.00     0.049 A 
ATOM     54  C   UNL A   1      43.456  28.830  32.303  1.00  0.00     0.074 A 
ATOM     55  C   UNL A   1      44.881  25.297  28.323  1.00  0.00     0.029 A 
ATOM     56  N   UNL A   1      43.775  24.562  30.092  1.00  0.00    -0.354 N 
ATOM     57  N   UNL A   1      43.874  27.815  31.601  1.00  0.00    -0.248 NA
ATOM     58  C   UNL A   1      43.679  28.647  33.739  1.00  0.00     0.031 C 
ATOM     59  C   UNL A   1      45.474  25.847  29.495  1.00  0.00     0.029 A 
ATOM     60  C   UNL A   1      44.761  25.390  30.588  1.00  0.00     0.049 A 
ATOM     61  H   UNL A   1      43.131  24.069  30.650  1.00  0.00     0.167 HD
ATOM     62  C   UNL A   1      44.362  26.857  32.445  1.00  0.00     0.074 A 
ATOM     63  C   UNL A   1      44.221  27.418  33.774  1.00  0.00     0.031 C 
ATOM     64  C   UNL A   1      44.813  25.648  32.013  1.00  0.00     0.037 A 
BRANCH  51  65
ATOM     65  C   UNL A   1      42.792  22.723  27.099  1.00  0.00     0.064 A 
ATOM     66  C   UNL A   1      42.062  21.543  27.361  1.00  0.00     0.173 A 
ATOM     67  C   UNL A   1      43.639  22.660  25.979  1.00  0.00     0.173 A 
ATOM     68  F   UNL A   1      41.147  21.488  28.336  1.00  0.00    -0.203 F 
ATOM     69  C   UNL A   1      42.255  20.366  26.634  1.00  0.00     0.198 A 
ATOM     70  C   UNL A   1      43.878  21.466  25.289  1.00  0.00     0.198 A 
ATOM     71  F   UNL A   1      44.218  23.761  25.484  1.00  0.00    -0.203 F 
ATOM     72  F   UNL A   1      41.534  19.276  26.930  1.00  0.00    -0.200 F 
ATOM     73  C   UNL A   1      43.194  20.316  25.624  1.00  0.00     0.200 A 
ATOM     74  F   UNL A   1      44.780  21.441  24.297  1.00  0.00    -0.200 F 
ATOM     75  F   UNL A   1      43.420  19.173  24.963  1.00  0.00    -0.200 F 
ENDBRANCH  51  65
BRANCH  52  76
ATOM     76  C   UNL A   1      41.560  30.689  32.382  1.00  0.00     0.064 A 
ATOM     77  C   UNL A   1      41.523  32.098  32.410  1.00  0.00     0.173 A 
ATOM     78  C   UNL A   1      40.368  30.006  32.644  1.00  0.00     0.173 A 
ATOM     79  F   UNL A   1      42.639  32.803  32.165  1.00  0.00    -0.203 F 
ATOM     80  C   UNL A   1      40.324  32.787  32.565  1.00  0.00     0.198 A 
ATOM     81  C   UNL A   1      39.171  30.702  32.825  1.00  0.00     0.198 A 
ATOM     82  F   UNL A   1      40.330  28.666  32.615  1.00  0.00    -0.203 F 
ATOM     83  F   UNL A   1      40.303  34.124  32.462  1.00  0.00    -0.200 F 
ATOM     84  C   UNL A   1      39.145  32.087  32.748  1.00  0.00     0.200 A 
ATOM     85  F   UNL A   1      38.026  30.022  32.978  1.00  0.00    -0.200 F 
ATOM     86  F   UNL A   1      37.977  32.741  32.808  1.00  0.00    -0.200 F 
ENDBRANCH  52  76
BRANCH  64  87
ATOM     87  C   UNL A   1      45.354  24.612  32.939  1.00  0.00     0.064 A 
ATOM     88  C   UNL A   1      44.572  23.533  33.376  1.00  0.00     0.173 A 
ATOM     89  C   UNL A   1      46.636  24.741  33.508  1.00  0.00     0.173 A 
ATOM     90  F   UNL A   1      43.329  23.358  32.903  1.00  0.00    -0.203 F 
ATOM     91  C   UNL A   1      45.053  22.622  34.315  1.00  0.00     0.198 A 
ATOM     92  C   UNL A   1      47.097  23.854  34.477  1.00  0.00     0.198 A 
ATOM     93  F   UNL A   1      47.469  25.718  33.118  1.00  0.00    -0.203 F 
ATOM     94  F   UNL A   1      44.294  21.581  34.682  1.00  0.00    -0.200 F 
ATOM     95  C   UNL A   1      46.309  22.792  34.875  1.00  0.00     0.200 A 
ATOM     96  F   UNL A   1      48.309  24.035  35.020  1.00  0.00    -0.200 F 
ATOM     97  F   UNL A   1      46.760  21.928  35.795  1.00  0.00    -0.200 F 
ENDBRANCH  64  87
ENDBRANCH  38  39
ENDBRANCH  30  33
ENDBRANCH  28  29
ENDBRANCH  27  28
ENDBRANCH  26  27
ENDBRANCH   1  26
TORSDOF 16
ENDMDL
