MODEL 1
REMARK VINA RESULT:     -14.2      0.000      0.000
REMARK SMILES Cc1c(NC(=O)[C@@H]2CC=CC[C@@H]2C(=O)NCCCCCCNC(=O)c2ccc(-c3c4nc(c(-c5c(F)c(F)c(F)c(F)c5F)c5ccc([nH]5)c(-c5c(F)c(F)c(F)c(F)c5F)c5nc(c(-c6c(F)c(F)c(F)c(F)c6F)c6ccc3[nH]6)C=C5)C=C4)cc2)cccc1C(=O)N1CCOCC1
REMARK SMILES IDX 18 1 17 2 16 3 15 4 13 5 14 6 12 8 7 9 8 10 9 11 11 12 10 13
REMARK SMILES IDX 5 14 4 15 6 17 3 18 1 19 2 20 91 21 88 22 90 23 89 24 92 25
REMARK SMILES IDX 93 26 94 27 95 28 99 29 96 30 98 31 97 32 19 33 20 34 21 35
REMARK SMILES IDX 22 36 23 37 24 39 25 40 26 41 87 42 27 43 86 44 28 45 29 46
REMARK SMILES IDX 30 47 80 48 31 49 85 50 79 51 81 52 32 53 84 54 78 55 77 56
REMARK SMILES IDX 33 58 65 59 45 60 64 61 46 62 49 63 63 64 82 65 47 66 48 67
REMARK SMILES IDX 62 69 83 70 50 71 34 72 35 73 43 74 36 75 37 76 41 77 44 78
REMARK SMILES IDX 38 79 39 80 42 81 40 82 66 83 67 84 75 85 68 86 69 87 73 88
REMARK SMILES IDX 76 89 70 90 71 91 74 92 72 93 51 94 52 95 60 96 53 97 54 98
REMARK SMILES IDX 58 99 61 100 55 101 56 102 59 103 57 104
REMARK H PARENT 15 7 4 16 22 38 81 57 49 68
REMARK Flexibility Score: inf
ROOT
ATOM      1  C   UNL A   1      35.265  23.569  23.560  1.00  0.00     0.002 C 
ENDROOT
BRANCH   1   2
ATOM      2  C   UNL A   1      34.423  23.320  22.305  1.00  0.00     0.021 C 
BRANCH   2   3
ATOM      3  C   UNL A   1      33.280  24.311  22.076  1.00  0.00     0.116 C 
BRANCH   3   4
ATOM      4  N   UNL A   1      33.607  25.639  22.545  1.00  0.00    -0.356 N 
ATOM      5  C   UNL A   1      33.527  26.316  23.711  1.00  0.00     0.224 C 
ATOM      6  O   UNL A   1      34.044  27.446  23.650  1.00  0.00    -0.275 OA
ATOM      7  H   UNL A   1      33.987  26.196  21.827  1.00  0.00     0.163 HD
BRANCH   5   8
ATOM      8  C   UNL A   1      32.965  25.840  25.072  1.00  0.00     0.095 C 
ATOM      9  C   UNL A   1      31.452  25.816  25.395  1.00  0.00     0.095 C 
ATOM     10  C   UNL A   1      30.871  27.234  25.275  1.00  0.00     0.041 C 
ATOM     11  C   UNL A   1      31.693  28.230  26.049  1.00  0.00    -0.030 C 
ATOM     12  C   UNL A   1      33.651  26.674  26.191  1.00  0.00     0.041 C 
ATOM     13  C   UNL A   1      32.935  27.967  26.483  1.00  0.00    -0.030 C 
BRANCH   9  14
ATOM     14  C   UNL A   1      30.766  24.661  24.678  1.00  0.00     0.228 C 
ATOM     15  N   UNL A   1      30.959  23.349  24.956  1.00  0.00    -0.326 N 
ATOM     16  H   UNL A   1      30.260  22.786  24.552  1.00  0.00     0.169 HD
ATOM     17  O   UNL A   1      29.933  24.878  23.788  1.00  0.00    -0.274 OA
BRANCH  15  18
ATOM     18  C   UNL A   1      31.892  22.580  25.671  1.00  0.00     0.044 A 
ATOM     19  C   UNL A   1      32.143  21.219  23.558  1.00  0.00     0.047 C 
ATOM     20  C   UNL A   1      32.609  21.586  24.945  1.00  0.00    -0.015 A 
ATOM     21  C   UNL A   1      33.685  20.914  25.568  1.00  0.00     0.045 A 
ATOM     22  C   UNL A   1      32.186  22.804  27.015  1.00  0.00     0.026 A 
ATOM     23  C   UNL A   1      33.941  21.147  26.929  1.00  0.00     0.014 A 
ATOM     24  C   UNL A   1      33.185  22.069  27.651  1.00  0.00     0.003 A 
BRANCH  21  25
ATOM     25  C   UNL A   1      34.455  19.795  24.949  1.00  0.00     0.254 C 
ATOM     26  O   UNL A   1      35.617  20.043  24.626  1.00  0.00    -0.269 OA
ATOM     27  N   UNL A   1      33.914  18.522  24.802  1.00  0.00    -0.334 N 
ATOM     28  C   UNL A   1      32.499  18.165  24.637  1.00  0.00     0.148 C 
ATOM     29  C   UNL A   1      34.833  17.411  24.547  1.00  0.00     0.148 C 
ATOM     30  C   UNL A   1      32.156  16.855  25.374  1.00  0.00     0.181 C 
ATOM     31  C   UNL A   1      34.430  16.201  25.391  1.00  0.00     0.181 C 
ATOM     32  O   UNL A   1      33.087  15.802  25.078  1.00  0.00    -0.378 OA
ENDBRANCH  21  25
ENDBRANCH  15  18
ENDBRANCH   9  14
ENDBRANCH   5   8
ENDBRANCH   3   4
ENDBRANCH   2   3
ENDBRANCH   1   2
BRANCH   1  33
ATOM     33  C   UNL A   1      36.778  23.324  23.431  1.00  0.00     0.002 C 
BRANCH  33  34
ATOM     34  C   UNL A   1      37.402  22.369  24.453  1.00  0.00     0.021 C 
BRANCH  34  35
ATOM     35  C   UNL A   1      37.716  23.009  25.794  1.00  0.00     0.116 C 
BRANCH  35  36
ATOM     36  N   UNL A   1      39.033  22.676  26.331  1.00  0.00    -0.352 N 
ATOM     37  C   UNL A   1      40.021  23.486  26.847  1.00  0.00     0.251 C 
ATOM     38  H   UNL A   1      39.250  21.716  26.322  1.00  0.00     0.163 HD
ATOM     39  O   UNL A   1      41.096  23.008  27.153  1.00  0.00    -0.269 OA
BRANCH  37  40
ATOM     40  C   UNL A   1      39.742  24.920  27.155  1.00  0.00     0.039 A 
ATOM     41  C   UNL A   1      40.304  25.904  26.325  1.00  0.00     0.014 A 
ATOM     42  C   UNL A   1      39.081  25.302  28.315  1.00  0.00     0.014 A 
ATOM     43  C   UNL A   1      40.406  27.221  26.775  1.00  0.00     0.010 A 
ATOM     44  C   UNL A   1      39.282  26.568  28.814  1.00  0.00     0.010 A 
ATOM     45  C   UNL A   1      39.994  27.517  28.069  1.00  0.00    -0.014 A 
BRANCH  45  46
ATOM     46  C   UNL A   1      40.279  28.749  28.795  1.00  0.00     0.031 A 
ATOM     47  C   UNL A   1      39.223  29.774  28.950  1.00  0.00     0.074 A 
ATOM     48  C   UNL A   1      41.396  28.805  29.553  1.00  0.00     0.049 A 
ATOM     49  N   UNL A   1      39.389  30.912  29.532  1.00  0.00    -0.248 NA
ATOM     50  C   UNL A   1      37.884  29.605  28.402  1.00  0.00     0.031 C 
ATOM     51  C   UNL A   1      41.628  29.647  30.723  1.00  0.00     0.029 A 
ATOM     52  N   UNL A   1      42.646  28.216  29.296  1.00  0.00    -0.354 N 
ATOM     53  C   UNL A   1      38.157  31.513  29.667  1.00  0.00     0.074 A 
ATOM     54  C   UNL A   1      37.273  30.698  28.870  1.00  0.00     0.031 C 
ATOM     55  C   UNL A   1      42.950  29.761  30.922  1.00  0.00     0.029 A 
ATOM     56  C   UNL A   1      43.601  29.152  29.778  1.00  0.00     0.049 A 
ATOM     57  H   UNL A   1      42.824  27.345  28.875  1.00  0.00     0.167 HD
ATOM     58  C   UNL A   1      38.041  32.574  30.521  1.00  0.00     0.037 A 
ATOM     59  C   UNL A   1      44.438  29.811  28.921  1.00  0.00     0.037 A 
ATOM     60  C   UNL A   1      39.362  33.014  30.977  1.00  0.00     0.049 A 
ATOM     61  C   UNL A   1      44.314  31.320  28.927  1.00  0.00     0.074 A 
ATOM     62  C   UNL A   1      40.110  32.852  32.131  1.00  0.00     0.029 A 
ATOM     63  N   UNL A   1      40.222  33.554  30.039  1.00  0.00    -0.354 N 
ATOM     64  N   UNL A   1      43.393  31.978  29.576  1.00  0.00    -0.248 NA
ATOM     65  C   UNL A   1      45.154  32.202  28.113  1.00  0.00     0.031 C 
ATOM     66  C   UNL A   1      41.441  33.288  31.858  1.00  0.00     0.029 A 
ATOM     67  C   UNL A   1      41.491  33.721  30.546  1.00  0.00     0.049 A 
ATOM     68  H   UNL A   1      39.958  33.791  29.120  1.00  0.00     0.167 HD
ATOM     69  C   UNL A   1      43.452  33.299  29.230  1.00  0.00     0.074 A 
ATOM     70  C   UNL A   1      44.580  33.399  28.325  1.00  0.00     0.031 C 
ATOM     71  C   UNL A   1      42.535  34.207  29.662  1.00  0.00     0.037 A 
BRANCH  58  72
ATOM     72  C   UNL A   1      36.760  33.166  31.086  1.00  0.00     0.064 A 
ATOM     73  C   UNL A   1      35.857  33.838  30.228  1.00  0.00     0.173 A 
ATOM     74  C   UNL A   1      36.378  33.180  32.441  1.00  0.00     0.173 A 
ATOM     75  F   UNL A   1      36.034  33.860  28.899  1.00  0.00    -0.203 F 
ATOM     76  C   UNL A   1      34.729  34.522  30.695  1.00  0.00     0.198 A 
ATOM     77  C   UNL A   1      35.255  33.871  32.910  1.00  0.00     0.198 A 
ATOM     78  F   UNL A   1      37.043  32.513  33.382  1.00  0.00    -0.203 F 
ATOM     79  F   UNL A   1      33.932  35.160  29.827  1.00  0.00    -0.200 F 
ATOM     80  C   UNL A   1      34.437  34.553  32.041  1.00  0.00     0.200 A 
ATOM     81  F   UNL A   1      34.979  33.863  34.223  1.00  0.00    -0.200 F 
ATOM     82  F   UNL A   1      33.370  35.222  32.495  1.00  0.00    -0.200 F 
ENDBRANCH  58  72
BRANCH  59  83
ATOM     83  C   UNL A   1      44.755  29.002  27.716  1.00  0.00     0.064 A 
ATOM     84  C   UNL A   1      45.703  27.968  27.838  1.00  0.00     0.173 A 
ATOM     85  C   UNL A   1      43.864  28.949  26.638  1.00  0.00     0.173 A 
ATOM     86  F   UNL A   1      46.575  27.977  28.858  1.00  0.00    -0.203 F 
ATOM     87  C   UNL A   1      45.669  26.860  26.996  1.00  0.00     0.198 A 
ATOM     88  C   UNL A   1      43.843  27.844  25.788  1.00  0.00     0.198 A 
ATOM     89  F   UNL A   1      42.930  29.899  26.481  1.00  0.00    -0.203 F 
ATOM     90  F   UNL A   1      46.499  25.830  27.213  1.00  0.00    -0.200 F 
ATOM     91  C   UNL A   1      44.717  26.784  25.993  1.00  0.00     0.200 A 
ATOM     92  F   UNL A   1      42.907  27.758  24.832  1.00  0.00    -0.200 F 
ATOM     93  F   UNL A   1      44.610  25.673  25.251  1.00  0.00    -0.200 F 
ENDBRANCH  59  83
BRANCH  71  94
ATOM     94  C   UNL A   1      42.549  35.646  29.258  1.00  0.00     0.064 A 
ATOM     95  C   UNL A   1      41.970  36.087  28.061  1.00  0.00     0.173 A 
ATOM     96  C   UNL A   1      43.271  36.601  30.004  1.00  0.00     0.173 A 
ATOM     97  F   UNL A   1      41.279  35.239  27.285  1.00  0.00    -0.203 F 
ATOM     98  C   UNL A   1      42.106  37.410  27.635  1.00  0.00     0.198 A 
ATOM     99  C   UNL A   1      43.445  37.905  29.552  1.00  0.00     0.198 A 
ATOM    100  F   UNL A   1      43.803  36.293  31.196  1.00  0.00    -0.203 F 
ATOM    101  F   UNL A   1      41.513  37.807  26.501  1.00  0.00    -0.200 F 
ATOM    102  C   UNL A   1      42.859  38.312  28.369  1.00  0.00     0.200 A 
ATOM    103  F   UNL A   1      44.184  38.764  30.270  1.00  0.00    -0.200 F 
ATOM    104  F   UNL A   1      43.015  39.572  27.941  1.00  0.00    -0.200 F 
ENDBRANCH  71  94
ENDBRANCH  45  46
ENDBRANCH  37  40
ENDBRANCH  35  36
ENDBRANCH  34  35
ENDBRANCH  33  34
ENDBRANCH   1  33
TORSDOF 16
ENDMDL
MODEL 2
REMARK VINA RESULT:     -13.7      1.959      3.277
REMARK SMILES Cc1c(NC(=O)[C@@H]2CC=CC[C@@H]2C(=O)NCCCCCCNC(=O)c2ccc(-c3c4nc(c(-c5c(F)c(F)c(F)c(F)c5F)c5ccc([nH]5)c(-c5c(F)c(F)c(F)c(F)c5F)c5nc(c(-c6c(F)c(F)c(F)c(F)c6F)c6ccc3[nH]6)C=C5)C=C4)cc2)cccc1C(=O)N1CCOCC1
REMARK SMILES IDX 18 1 17 2 16 3 15 4 13 5 14 6 12 8 7 9 8 10 9 11 11 12 10 13
REMARK SMILES IDX 5 14 4 15 6 17 3 18 1 19 2 20 91 21 88 22 90 23 89 24 92 25
REMARK SMILES IDX 93 26 94 27 95 28 99 29 96 30 98 31 97 32 19 33 20 34 21 35
REMARK SMILES IDX 22 36 23 37 24 39 25 40 26 41 87 42 27 43 86 44 28 45 29 46
REMARK SMILES IDX 30 47 80 48 31 49 85 50 79 51 81 52 32 53 84 54 78 55 77 56
REMARK SMILES IDX 33 58 65 59 45 60 64 61 46 62 49 63 63 64 82 65 47 66 48 67
REMARK SMILES IDX 62 69 83 70 50 71 34 72 35 73 43 74 36 75 37 76 41 77 44 78
REMARK SMILES IDX 38 79 39 80 42 81 40 82 66 83 67 84 75 85 68 86 69 87 73 88
REMARK SMILES IDX 76 89 70 90 71 91 74 92 72 93 51 94 52 95 60 96 53 97 54 98
REMARK SMILES IDX 58 99 61 100 55 101 56 102 59 103 57 104
REMARK H PARENT 15 7 4 16 22 38 81 57 49 68
REMARK Flexibility Score: inf
ROOT
ATOM      1  C   UNL A   1      35.841  23.689  25.001  1.00  0.00     0.002 C 
ENDROOT
BRANCH   1   2
ATOM      2  C   UNL A   1      35.754  23.442  23.493  1.00  0.00     0.021 C 
BRANCH   2   3
ATOM      3  C   UNL A   1      34.449  23.888  22.830  1.00  0.00     0.116 C 
BRANCH   3   4
ATOM      4  N   UNL A   1      34.232  25.312  22.955  1.00  0.00    -0.356 N 
ATOM      5  C   UNL A   1      33.640  26.142  23.841  1.00  0.00     0.224 C 
ATOM      6  O   UNL A   1      33.801  27.343  23.561  1.00  0.00    -0.275 OA
ATOM      7  H   UNL A   1      34.617  25.807  22.195  1.00  0.00     0.163 HD
BRANCH   5   8
ATOM      8  C   UNL A   1      32.888  25.788  25.147  1.00  0.00     0.095 C 
ATOM      9  C   UNL A   1      31.350  25.880  25.283  1.00  0.00     0.095 C 
ATOM     10  C   UNL A   1      30.889  27.322  25.016  1.00  0.00     0.041 C 
ATOM     11  C   UNL A   1      31.681  28.310  25.830  1.00  0.00    -0.030 C 
ATOM     12  C   UNL A   1      33.494  26.645  26.294  1.00  0.00     0.041 C 
ATOM     13  C   UNL A   1      32.841  27.996  26.427  1.00  0.00    -0.030 C 
BRANCH   9  14
ATOM     14  C   UNL A   1      30.674  24.729  24.550  1.00  0.00     0.228 C 
ATOM     15  N   UNL A   1      30.849  23.416  24.837  1.00  0.00    -0.326 N 
ATOM     16  H   UNL A   1      30.157  22.858  24.415  1.00  0.00     0.169 HD
ATOM     17  O   UNL A   1      29.866  24.950  23.638  1.00  0.00    -0.274 OA
BRANCH  15  18
ATOM     18  C   UNL A   1      31.757  22.642  25.578  1.00  0.00     0.044 A 
ATOM     19  C   UNL A   1      32.159  21.361  23.438  1.00  0.00     0.047 C 
ATOM     20  C   UNL A   1      32.537  21.689  24.862  1.00  0.00    -0.015 A 
ATOM     21  C   UNL A   1      33.590  21.017  25.523  1.00  0.00     0.045 A 
ATOM     22  C   UNL A   1      31.968  22.823  26.944  1.00  0.00     0.026 A 
ATOM     23  C   UNL A   1      33.761  21.208  26.904  1.00  0.00     0.014 A 
ATOM     24  C   UNL A   1      32.945  22.087  27.611  1.00  0.00     0.003 A 
BRANCH  21  25
ATOM     25  C   UNL A   1      34.419  19.937  24.912  1.00  0.00     0.254 C 
ATOM     26  O   UNL A   1      35.568  20.244  24.591  1.00  0.00    -0.269 OA
ATOM     27  N   UNL A   1      33.946  18.637  24.769  1.00  0.00    -0.334 N 
ATOM     28  C   UNL A   1      32.552  18.206  24.601  1.00  0.00     0.148 C 
ATOM     29  C   UNL A   1      34.922  17.574  24.523  1.00  0.00     0.148 C 
ATOM     30  C   UNL A   1      32.275  16.884  25.343  1.00  0.00     0.181 C 
ATOM     31  C   UNL A   1      34.580  16.349  25.371  1.00  0.00     0.181 C 
ATOM     32  O   UNL A   1      33.260  15.879  25.055  1.00  0.00    -0.378 OA
ENDBRANCH  21  25
ENDBRANCH  15  18
ENDBRANCH   9  14
ENDBRANCH   5   8
ENDBRANCH   3   4
ENDBRANCH   2   3
ENDBRANCH   1   2
BRANCH   1  33
ATOM     33  C   UNL A   1      37.249  23.680  25.619  1.00  0.00     0.002 C 
BRANCH  33  34
ATOM     34  C   UNL A   1      38.007  22.350  25.564  1.00  0.00     0.021 C 
BRANCH  34  35
ATOM     35  C   UNL A   1      39.231  22.293  26.462  1.00  0.00     0.116 C 
BRANCH  35  36
ATOM     36  N   UNL A   1      40.208  21.273  26.091  1.00  0.00    -0.352 N 
ATOM     37  C   UNL A   1      41.584  21.286  26.152  1.00  0.00     0.251 C 
ATOM     38  H   UNL A   1      39.819  20.439  25.740  1.00  0.00     0.163 HD
ATOM     39  O   UNL A   1      42.218  20.354  25.694  1.00  0.00    -0.269 OA
BRANCH  37  40
ATOM     40  C   UNL A   1      42.300  22.369  26.888  1.00  0.00     0.039 A 
ATOM     41  C   UNL A   1      42.238  22.378  28.291  1.00  0.00     0.014 A 
ATOM     42  C   UNL A   1      42.883  23.441  26.223  1.00  0.00     0.014 A 
ATOM     43  C   UNL A   1      42.540  23.544  28.995  1.00  0.00     0.010 A 
ATOM     44  C   UNL A   1      43.069  24.625  26.898  1.00  0.00     0.010 A 
ATOM     45  C   UNL A   1      42.845  24.696  28.279  1.00  0.00    -0.014 A 
BRANCH  45  46
ATOM     46  C   UNL A   1      42.909  26.047  28.822  1.00  0.00     0.031 A 
ATOM     47  C   UNL A   1      41.716  26.922  28.766  1.00  0.00     0.074 A 
ATOM     48  C   UNL A   1      43.952  26.372  29.617  1.00  0.00     0.049 A 
ATOM     49  N   UNL A   1      41.685  28.143  29.175  1.00  0.00    -0.248 NA
ATOM     50  C   UNL A   1      40.454  26.485  28.184  1.00  0.00     0.031 C 
ATOM     51  C   UNL A   1      43.985  27.398  30.655  1.00  0.00     0.029 A 
ATOM     52  N   UNL A   1      45.285  25.939  29.516  1.00  0.00    -0.354 N 
ATOM     53  C   UNL A   1      40.377  28.574  29.155  1.00  0.00     0.074 A 
ATOM     54  C   UNL A   1      39.670  27.534  28.449  1.00  0.00     0.031 C 
ATOM     55  C   UNL A   1      45.261  27.729  30.900  1.00  0.00     0.029 A 
ATOM     56  C   UNL A   1      46.068  27.062  29.896  1.00  0.00     0.049 A 
ATOM     57  H   UNL A   1      45.608  25.050  29.242  1.00  0.00     0.167 HD
ATOM     58  C   UNL A   1      40.059  29.718  29.831  1.00  0.00     0.037 A 
ATOM     59  C   UNL A   1      46.867  27.704  28.992  1.00  0.00     0.037 A 
ATOM     60  C   UNL A   1      41.273  30.406  30.279  1.00  0.00     0.049 A 
ATOM     61  C   UNL A   1      46.540  29.165  28.761  1.00  0.00     0.074 A 
ATOM     62  C   UNL A   1      41.953  30.520  31.480  1.00  0.00     0.029 A 
ATOM     63  N   UNL A   1      42.116  30.923  29.314  1.00  0.00    -0.354 N 
ATOM     64  N   UNL A   1      45.496  29.769  29.255  1.00  0.00    -0.248 NA
ATOM     65  C   UNL A   1      47.310  30.031  27.865  1.00  0.00     0.031 C 
ATOM     66  C   UNL A   1      43.229  31.100  31.211  1.00  0.00     0.029 A 
ATOM     67  C   UNL A   1      43.313  31.341  29.852  1.00  0.00     0.049 A 
ATOM     68  H   UNL A   1      41.889  30.985  28.358  1.00  0.00     0.167 HD
ATOM     69  C   UNL A   1      45.401  31.022  28.715  1.00  0.00     0.074 A 
ATOM     70  C   UNL A   1      46.566  31.151  27.863  1.00  0.00     0.031 C 
ATOM     71  C   UNL A   1      44.341  31.840  28.958  1.00  0.00     0.037 A 
BRANCH  58  72
ATOM     72  C   UNL A   1      38.674  30.195  30.234  1.00  0.00     0.064 A 
ATOM     73  C   UNL A   1      37.770  30.652  29.245  1.00  0.00     0.173 A 
ATOM     74  C   UNL A   1      38.181  30.302  31.549  1.00  0.00     0.173 A 
ATOM     75  F   UNL A   1      38.053  30.557  27.937  1.00  0.00    -0.203 F 
ATOM     76  C   UNL A   1      36.532  31.229  29.552  1.00  0.00     0.198 A 
ATOM     77  C   UNL A   1      36.947  30.885  31.857  1.00  0.00     0.198 A 
ATOM     78  F   UNL A   1      38.841  29.828  32.604  1.00  0.00    -0.203 F 
ATOM     79  F   UNL A   1      35.739  31.664  28.563  1.00  0.00    -0.200 F 
ATOM     80  C   UNL A   1      36.128  31.362  30.861  1.00  0.00     0.200 A 
ATOM     81  F   UNL A   1      36.566  30.979  33.140  1.00  0.00    -0.200 F 
ATOM     82  F   UNL A   1      34.953  31.931  31.161  1.00  0.00    -0.200 F 
ENDBRANCH  58  72
BRANCH  59  83
ATOM     83  C   UNL A   1      47.375  26.784  27.941  1.00  0.00     0.064 A 
ATOM     84  C   UNL A   1      46.701  26.744  26.706  1.00  0.00     0.173 A 
ATOM     85  C   UNL A   1      48.693  26.314  27.983  1.00  0.00     0.173 A 
ATOM     86  F   UNL A   1      45.437  27.188  26.619  1.00  0.00    -0.203 F 
ATOM     87  C   UNL A   1      47.364  26.380  25.538  1.00  0.00     0.198 A 
ATOM     88  C   UNL A   1      49.348  25.936  26.812  1.00  0.00     0.198 A 
ATOM     89  F   UNL A   1      49.389  26.342  29.129  1.00  0.00    -0.203 F 
ATOM     90  F   UNL A   1      46.737  26.474  24.356  1.00  0.00    -0.200 F 
ATOM     91  C   UNL A   1      48.697  26.007  25.588  1.00  0.00     0.200 A 
ATOM     92  F   UNL A   1      50.646  25.598  26.855  1.00  0.00    -0.200 F 
ATOM     93  F   UNL A   1      49.369  25.761  24.455  1.00  0.00    -0.200 F 
ENDBRANCH  59  83
BRANCH  71  94
ATOM     94  C   UNL A   1      44.189  33.194  28.341  1.00  0.00     0.064 A 
ATOM     95  C   UNL A   1      44.227  34.367  29.105  1.00  0.00     0.173 A 
ATOM     96  C   UNL A   1      43.862  33.334  26.977  1.00  0.00     0.173 A 
ATOM     97  F   UNL A   1      44.515  34.319  30.414  1.00  0.00    -0.203 F 
ATOM     98  C   UNL A   1      43.952  35.612  28.535  1.00  0.00     0.198 A 
ATOM     99  C   UNL A   1      43.542  34.570  26.422  1.00  0.00     0.198 A 
ATOM    100  F   UNL A   1      43.868  32.279  26.148  1.00  0.00    -0.203 F 
ATOM    101  F   UNL A   1      44.028  36.719  29.287  1.00  0.00    -0.200 F 
ATOM    102  C   UNL A   1      43.591  35.710  27.201  1.00  0.00     0.200 A 
ATOM    103  F   UNL A   1      43.186  34.649  25.132  1.00  0.00    -0.200 F 
ATOM    104  F   UNL A   1      43.296  36.902  26.664  1.00  0.00    -0.200 F 
ENDBRANCH  71  94
ENDBRANCH  45  46
ENDBRANCH  37  40
ENDBRANCH  35  36
ENDBRANCH  34  35
ENDBRANCH  33  34
ENDBRANCH   1  33
TORSDOF 16
ENDMDL
MODEL 3
REMARK VINA RESULT:     -13.5      3.472      6.568
REMARK SMILES Cc1c(NC(=O)[C@@H]2CC=CC[C@@H]2C(=O)NCCCCCCNC(=O)c2ccc(-c3c4nc(c(-c5c(F)c(F)c(F)c(F)c5F)c5ccc([nH]5)c(-c5c(F)c(F)c(F)c(F)c5F)c5nc(c(-c6c(F)c(F)c(F)c(F)c6F)c6ccc3[nH]6)C=C5)C=C4)cc2)cccc1C(=O)N1CCOCC1
REMARK SMILES IDX 18 1 17 2 16 3 15 4 13 5 14 6 12 8 7 9 8 10 9 11 11 12 10 13
REMARK SMILES IDX 5 14 4 15 6 17 3 18 1 19 2 20 91 21 88 22 90 23 89 24 92 25
REMARK SMILES IDX 93 26 94 27 95 28 99 29 96 30 98 31 97 32 19 33 20 34 21 35
REMARK SMILES IDX 22 36 23 37 24 39 25 40 26 41 87 42 27 43 86 44 28 45 29 46
REMARK SMILES IDX 30 47 80 48 31 49 85 50 79 51 81 52 32 53 84 54 78 55 77 56
REMARK SMILES IDX 33 58 65 59 45 60 64 61 46 62 49 63 63 64 82 65 47 66 48 67
REMARK SMILES IDX 62 69 83 70 50 71 34 72 35 73 43 74 36 75 37 76 41 77 44 78
REMARK SMILES IDX 38 79 39 80 42 81 40 82 66 83 67 84 75 85 68 86 69 87 73 88
REMARK SMILES IDX 76 89 70 90 71 91 74 92 72 93 51 94 52 95 60 96 53 97 54 98
REMARK SMILES IDX 58 99 61 100 55 101 56 102 59 103 57 104
REMARK H PARENT 15 7 4 16 22 38 81 57 49 68
REMARK Flexibility Score: inf
ROOT
ATOM      1  C   UNL A   1      38.677  24.665  26.644  1.00  0.00     0.002 C 
ENDROOT
BRANCH   1   2
ATOM      2  C   UNL A   1      38.183  23.275  26.233  1.00  0.00     0.021 C 
BRANCH   2   3
ATOM      3  C   UNL A   1      36.827  23.244  25.525  1.00  0.00     0.116 C 
BRANCH   3   4
ATOM      4  N   UNL A   1      35.734  23.033  26.449  1.00  0.00    -0.356 N 
ATOM      5  C   UNL A   1      34.422  23.349  26.506  1.00  0.00     0.224 C 
ATOM      6  O   UNL A   1      33.846  22.845  27.487  1.00  0.00    -0.275 OA
ATOM      7  H   UNL A   1      36.021  22.526  27.243  1.00  0.00     0.163 HD
BRANCH   5   8
ATOM      8  C   UNL A   1      33.576  24.162  25.496  1.00  0.00     0.095 C 
ATOM      9  C   UNL A   1      32.066  23.911  25.271  1.00  0.00     0.095 C 
ATOM     10  C   UNL A   1      31.843  22.464  24.800  1.00  0.00     0.041 C 
ATOM     11  C   UNL A   1      32.747  22.118  23.648  1.00  0.00    -0.030 C 
ATOM     12  C   UNL A   1      34.263  24.059  24.105  1.00  0.00     0.041 C 
ATOM     13  C   UNL A   1      33.821  22.851  23.320  1.00  0.00    -0.030 C 
BRANCH   9  14
ATOM     14  C   UNL A   1      31.249  24.456  26.435  1.00  0.00     0.228 C 
ATOM     15  N   UNL A   1      30.977  25.766  26.646  1.00  0.00    -0.326 N 
ATOM     16  H   UNL A   1      30.253  25.884  27.302  1.00  0.00     0.169 HD
ATOM     17  O   UNL A   1      30.741  23.687  27.262  1.00  0.00    -0.274 OA
BRANCH  15  18
ATOM     18  C   UNL A   1      31.454  27.000  26.175  1.00  0.00     0.044 A 
ATOM     19  C   UNL A   1      30.233  26.469  24.029  1.00  0.00     0.047 C 
ATOM     20  C   UNL A   1      30.976  27.444  24.909  1.00  0.00    -0.015 A 
ATOM     21  C   UNL A   1      31.278  28.754  24.474  1.00  0.00     0.045 A 
ATOM     22  C   UNL A   1      32.300  27.819  26.922  1.00  0.00     0.026 A 
ATOM     23  C   UNL A   1      32.150  29.545  25.241  1.00  0.00     0.014 A 
ATOM     24  C   UNL A   1      32.672  29.074  26.443  1.00  0.00     0.003 A 
BRANCH  21  25
ATOM     25  C   UNL A   1      30.914  29.306  23.136  1.00  0.00     0.254 C 
ATOM     26  O   UNL A   1      31.598  28.930  22.183  1.00  0.00    -0.269 OA
ATOM     27  N   UNL A   1      29.822  30.149  22.959  1.00  0.00    -0.334 N 
ATOM     28  C   UNL A   1      29.239  31.075  23.939  1.00  0.00     0.148 C 
ATOM     29  C   UNL A   1      29.311  30.336  21.600  1.00  0.00     0.148 C 
ATOM     30  C   UNL A   1      27.703  31.129  23.824  1.00  0.00     0.181 C 
ATOM     31  C   UNL A   1      27.783  30.296  21.610  1.00  0.00     0.181 C 
ATOM     32  O   UNL A   1      27.264  31.323  22.470  1.00  0.00    -0.378 OA
ENDBRANCH  21  25
ENDBRANCH  15  18
ENDBRANCH   9  14
ENDBRANCH   5   8
ENDBRANCH   3   4
ENDBRANCH   2   3
ENDBRANCH   1   2
BRANCH   1  33
ATOM     33  C   UNL A   1      39.666  24.722  27.820  1.00  0.00     0.002 C 
BRANCH  33  34
ATOM     34  C   UNL A   1      41.110  24.311  27.516  1.00  0.00     0.021 C 
BRANCH  34  35
ATOM     35  C   UNL A   1      42.109  25.454  27.577  1.00  0.00     0.116 C 
BRANCH  35  36
ATOM     36  N   UNL A   1      42.417  26.059  26.284  1.00  0.00    -0.352 N 
ATOM     37  C   UNL A   1      42.057  27.280  25.757  1.00  0.00     0.251 C 
ATOM     38  H   UNL A   1      42.973  25.503  25.692  1.00  0.00     0.163 HD
ATOM     39  O   UNL A   1      42.343  27.550  24.607  1.00  0.00    -0.269 OA
BRANCH  37  40
ATOM     40  C   UNL A   1      41.433  28.324  26.623  1.00  0.00     0.039 A 
ATOM     41  C   UNL A   1      42.274  29.235  27.282  1.00  0.00     0.014 A 
ATOM     42  C   UNL A   1      40.074  28.316  26.912  1.00  0.00     0.014 A 
ATOM     43  C   UNL A   1      41.798  29.956  28.378  1.00  0.00     0.010 A 
ATOM     44  C   UNL A   1      39.631  28.932  28.059  1.00  0.00     0.010 A 
ATOM     45  C   UNL A   1      40.506  29.711  28.827  1.00  0.00    -0.014 A 
BRANCH  45  46
ATOM     46  C   UNL A   1      39.946  30.152  30.100  1.00  0.00     0.031 A 
ATOM     47  C   UNL A   1      39.143  31.393  30.161  1.00  0.00     0.074 A 
ATOM     48  C   UNL A   1      39.926  29.278  31.130  1.00  0.00     0.049 A 
ATOM     49  N   UNL A   1      38.646  31.889  31.241  1.00  0.00    -0.248 NA
ATOM     50  C   UNL A   1      38.877  32.211  28.985  1.00  0.00     0.031 C 
ATOM     51  C   UNL A   1      39.004  29.270  32.263  1.00  0.00     0.029 A 
ATOM     52  N   UNL A   1      40.880  28.298  31.453  1.00  0.00    -0.354 N 
ATOM     53  C   UNL A   1      37.802  32.921  30.895  1.00  0.00     0.074 A 
ATOM     54  C   UNL A   1      38.053  33.132  29.490  1.00  0.00     0.031 C 
ATOM     55  C   UNL A   1      39.554  28.572  33.267  1.00  0.00     0.029 A 
ATOM     56  C   UNL A   1      40.918  28.274  32.873  1.00  0.00     0.049 A 
ATOM     57  H   UNL A   1      41.408  27.747  30.831  1.00  0.00     0.167 HD
ATOM     58  C   UNL A   1      36.932  33.392  31.838  1.00  0.00     0.037 A 
ATOM     59  C   UNL A   1      42.029  28.685  33.556  1.00  0.00     0.037 A 
ATOM     60  C   UNL A   1      37.238  32.823  33.153  1.00  0.00     0.049 A 
ATOM     61  C   UNL A   1      41.818  29.854  34.495  1.00  0.00     0.074 A 
ATOM     62  C   UNL A   1      36.706  31.814  33.937  1.00  0.00     0.029 A 
ATOM     63  N   UNL A   1      38.440  33.170  33.742  1.00  0.00    -0.354 N 
ATOM     64  N   UNL A   1      40.712  30.542  34.571  1.00  0.00    -0.248 NA
ATOM     65  C   UNL A   1      42.874  30.408  35.345  1.00  0.00     0.031 C 
ATOM     66  C   UNL A   1      37.624  31.549  34.997  1.00  0.00     0.029 A 
ATOM     67  C   UNL A   1      38.701  32.404  34.856  1.00  0.00     0.049 A 
ATOM     68  H   UNL A   1      39.036  33.877  33.405  1.00  0.00     0.167 HD
ATOM     69  C   UNL A   1      40.910  31.628  35.377  1.00  0.00     0.074 A 
ATOM     70  C   UNL A   1      42.272  31.496  35.855  1.00  0.00     0.031 C 
ATOM     71  C   UNL A   1      39.964  32.591  35.547  1.00  0.00     0.037 A 
BRANCH  58  72
ATOM     72  C   UNL A   1      35.704  34.258  31.607  1.00  0.00     0.064 A 
ATOM     73  C   UNL A   1      35.269  35.148  32.618  1.00  0.00     0.173 A 
ATOM     74  C   UNL A   1      34.869  34.232  30.473  1.00  0.00     0.173 A 
ATOM     75  F   UNL A   1      35.985  35.347  33.734  1.00  0.00    -0.203 F 
ATOM     76  C   UNL A   1      34.077  35.876  32.531  1.00  0.00     0.198 A 
ATOM     77  C   UNL A   1      33.673  34.953  30.388  1.00  0.00     0.198 A 
ATOM     78  F   UNL A   1      35.168  33.538  29.377  1.00  0.00    -0.203 F 
ATOM     79  F   UNL A   1      33.714  36.680  33.540  1.00  0.00    -0.200 F 
ATOM     80  C   UNL A   1      33.268  35.765  31.422  1.00  0.00     0.200 A 
ATOM     81  F   UNL A   1      32.917  34.846  29.285  1.00  0.00    -0.200 F 
ATOM     82  F   UNL A   1      32.117  36.444  31.342  1.00  0.00    -0.200 F 
ENDBRANCH  58  72
BRANCH  59  83
ATOM     83  C   UNL A   1      43.279  28.442  32.790  1.00  0.00     0.064 A 
ATOM     84  C   UNL A   1      43.806  27.137  32.769  1.00  0.00     0.173 A 
ATOM     85  C   UNL A   1      43.678  29.325  31.779  1.00  0.00     0.173 A 
ATOM     86  F   UNL A   1      43.449  26.256  33.717  1.00  0.00    -0.203 F 
ATOM     87  C   UNL A   1      44.589  26.695  31.706  1.00  0.00     0.198 A 
ATOM     88  C   UNL A   1      44.475  28.882  30.724  1.00  0.00     0.198 A 
ATOM     89  F   UNL A   1      43.196  30.576  31.741  1.00  0.00    -0.203 F 
ATOM     90  F   UNL A   1      44.972  25.412  31.646  1.00  0.00    -0.200 F 
ATOM     91  C   UNL A   1      44.895  27.561  30.668  1.00  0.00     0.200 A 
ATOM     92  F   UNL A   1      44.751  29.711  29.707  1.00  0.00    -0.200 F 
ATOM     93  F   UNL A   1      45.555  27.111  29.592  1.00  0.00    -0.200 F 
ENDBRANCH  59  83
BRANCH  71  94
ATOM     94  C   UNL A   1      40.174  33.812  36.383  1.00  0.00     0.064 A 
ATOM     95  C   UNL A   1      39.524  33.993  37.611  1.00  0.00     0.173 A 
ATOM     96  C   UNL A   1      40.932  34.899  35.900  1.00  0.00     0.173 A 
ATOM     97  F   UNL A   1      38.771  33.015  38.134  1.00  0.00    -0.203 F 
ATOM     98  C   UNL A   1      39.628  35.194  38.316  1.00  0.00     0.198 A 
ATOM     99  C   UNL A   1      40.994  36.111  36.581  1.00  0.00     0.198 A 
ATOM    100  F   UNL A   1      41.646  34.799  34.769  1.00  0.00    -0.203 F 
ATOM    101  F   UNL A   1      39.020  35.324  39.503  1.00  0.00    -0.200 F 
ATOM    102  C   UNL A   1      40.345  36.258  37.791  1.00  0.00     0.200 A 
ATOM    103  F   UNL A   1      41.685  37.134  36.057  1.00  0.00    -0.200 F 
ATOM    104  F   UNL A   1      40.416  37.420  38.455  1.00  0.00    -0.200 F 
ENDBRANCH  71  94
ENDBRANCH  45  46
ENDBRANCH  37  40
ENDBRANCH  35  36
ENDBRANCH  34  35
ENDBRANCH  33  34
ENDBRANCH   1  33
TORSDOF 16
ENDMDL
