MODEL 1
REMARK VINA RESULT:     -12.7      0.000      0.000
REMARK SMILES O=C(NCCCCCCNC(=O)[C@H]1CCCC[C@@H]1C(=O)Nc1ccc(Br)c(Cl)c1)c1ccc(-c2c3nc(c(-c4c(F)c(F)c(F)c(F)c4F)c4ccc([nH]4)c(-c4c(F)c(F)c(F)c(F)c4F)c4nc(c(-c5c(F)c(F)c(F)c(F)c5F)c5ccc2[nH]5)C=C4)C=C3)cc1
REMARK SMILES IDX 6 1 5 2 4 3 3 4 1 5 2 6 30 8 31 9 92 10 32 11 91 12 33 13
REMARK SMILES IDX 34 14 35 15 85 16 36 17 90 18 84 19 86 20 37 21 89 22 83 23
REMARK SMILES IDX 82 24 38 26 70 27 50 28 69 29 51 30 54 31 68 32 87 33 52 34
REMARK SMILES IDX 53 35 67 37 88 38 55 39 39 40 40 41 48 42 41 43 42 44 46 45
REMARK SMILES IDX 49 46 43 47 44 48 47 49 45 50 71 51 72 52 80 53 73 54 74 55
REMARK SMILES IDX 78 56 81 57 75 58 76 59 79 60 77 61 56 62 57 63 65 64 58 65
REMARK SMILES IDX 59 66 63 67 66 68 60 69 61 70 64 71 62 72 7 73 8 74 9 75
REMARK SMILES IDX 10 76 11 77 12 79 13 80 14 81 18 82 15 83 17 84 16 85 19 86
REMARK SMILES IDX 20 87 21 88 22 90 23 91 29 92 24 93 27 94 25 95 28 96 26 97
REMARK H PARENT 3 7 86 25 54 36 10 78 21 89
REMARK Flexibility Score: inf
ROOT
ATOM      1  C   UNL A   1      36.880  20.558  24.697  1.00  0.00     0.002 C 
ENDROOT
BRANCH   1   2
ATOM      2  C   UNL A   1      38.000  19.558  24.996  1.00  0.00     0.021 C 
BRANCH   2   3
ATOM      3  C   UNL A   1      39.193  20.136  25.751  1.00  0.00     0.116 C 
BRANCH   3   4
ATOM      4  N   UNL A   1      40.232  19.146  25.969  1.00  0.00    -0.352 N 
ATOM      5  O   UNL A   1      42.324  18.329  26.085  1.00  0.00    -0.269 OA
ATOM      6  C   UNL A   1      41.585  19.308  26.119  1.00  0.00     0.251 C 
ATOM      7  H   UNL A   1      39.917  18.214  26.015  1.00  0.00     0.163 HD
BRANCH   6   8
ATOM      8  C   UNL A   1      42.166  20.654  26.325  1.00  0.00     0.039 A 
ATOM      9  C   UNL A   1      42.312  21.127  27.632  1.00  0.00     0.014 A 
ATOM     10  C   UNL A   1      42.495  21.479  25.245  1.00  0.00     0.014 A 
ATOM     11  C   UNL A   1      42.800  22.416  27.857  1.00  0.00     0.010 A 
ATOM     12  C   UNL A   1      43.055  22.735  25.470  1.00  0.00     0.010 A 
ATOM     13  C   UNL A   1      43.181  23.229  26.777  1.00  0.00    -0.014 A 
BRANCH  13  14
ATOM     14  C   UNL A   1      43.634  24.626  27.001  1.00  0.00     0.031 A 
ATOM     15  C   UNL A   1      42.663  25.647  27.536  1.00  0.00     0.074 A 
ATOM     16  C   UNL A   1      44.902  24.979  26.719  1.00  0.00     0.049 A 
ATOM     17  N   UNL A   1      42.852  26.919  27.781  1.00  0.00    -0.248 NA
ATOM     18  C   UNL A   1      41.292  25.185  27.808  1.00  0.00     0.031 C 
ATOM     19  C   UNL A   1      45.923  24.089  26.166  1.00  0.00     0.029 A 
ATOM     20  N   UNL A   1      45.552  26.180  26.866  1.00  0.00    -0.354 N 
ATOM     21  C   UNL A   1      41.626  27.404  28.220  1.00  0.00     0.074 A 
ATOM     22  C   UNL A   1      40.684  26.310  28.153  1.00  0.00     0.031 C 
ATOM     23  C   UNL A   1      47.080  24.762  26.058  1.00  0.00     0.029 A 
ATOM     24  C   UNL A   1      46.876  26.138  26.504  1.00  0.00     0.049 A 
ATOM     25  H   UNL A   1      45.110  26.994  27.201  1.00  0.00     0.167 HD
ATOM     26  C   UNL A   1      41.324  28.642  28.673  1.00  0.00     0.037 A 
ATOM     27  C   UNL A   1      47.820  27.100  26.538  1.00  0.00     0.037 A 
ATOM     28  C   UNL A   1      42.275  29.711  28.794  1.00  0.00     0.049 A 
ATOM     29  C   UNL A   1      47.457  28.467  27.052  1.00  0.00     0.074 A 
ATOM     30  C   UNL A   1      42.079  30.984  29.297  1.00  0.00     0.029 A 
ATOM     31  N   UNL A   1      43.607  29.625  28.420  1.00  0.00    -0.354 N 
ATOM     32  N   UNL A   1      46.308  28.897  27.513  1.00  0.00    -0.248 NA
ATOM     33  C   UNL A   1      48.520  29.484  27.055  1.00  0.00     0.031 C 
ATOM     34  C   UNL A   1      43.285  31.681  29.199  1.00  0.00     0.029 A 
ATOM     35  C   UNL A   1      44.242  30.829  28.671  1.00  0.00     0.049 A 
ATOM     36  H   UNL A   1      44.038  28.827  28.035  1.00  0.00     0.167 HD
ATOM     37  C   UNL A   1      46.514  30.218  27.885  1.00  0.00     0.074 A 
ATOM     38  C   UNL A   1      47.902  30.521  27.605  1.00  0.00     0.031 C 
ATOM     39  C   UNL A   1      45.631  31.101  28.409  1.00  0.00     0.037 A 
BRANCH  26  40
ATOM     40  C   UNL A   1      39.914  28.908  29.110  1.00  0.00     0.064 A 
ATOM     41  C   UNL A   1      38.937  29.334  28.199  1.00  0.00     0.173 A 
ATOM     42  C   UNL A   1      39.515  28.651  30.430  1.00  0.00     0.173 A 
ATOM     43  F   UNL A   1      39.271  29.603  26.928  1.00  0.00    -0.203 F 
ATOM     44  C   UNL A   1      37.613  29.505  28.596  1.00  0.00     0.198 A 
ATOM     45  C   UNL A   1      38.186  28.797  30.817  1.00  0.00     0.198 A 
ATOM     46  F   UNL A   1      40.410  28.234  31.338  1.00  0.00    -0.203 F 
ATOM     47  F   UNL A   1      36.703  29.940  27.714  1.00  0.00    -0.200 F 
ATOM     48  C   UNL A   1      37.237  29.225  29.901  1.00  0.00     0.200 A 
ATOM     49  F   UNL A   1      37.821  28.513  32.076  1.00  0.00    -0.200 F 
ATOM     50  F   UNL A   1      35.959  29.370  30.276  1.00  0.00    -0.200 F 
ENDBRANCH  26  40
BRANCH  27  51
ATOM     51  C   UNL A   1      49.210  26.789  26.114  1.00  0.00     0.064 A 
ATOM     52  C   UNL A   1      49.618  26.993  24.789  1.00  0.00     0.173 A 
ATOM     53  C   UNL A   1      50.160  26.295  27.021  1.00  0.00     0.173 A 
ATOM     54  F   UNL A   1      48.742  27.446  23.882  1.00  0.00    -0.203 F 
ATOM     55  C   UNL A   1      50.920  26.703  24.383  1.00  0.00     0.198 A 
ATOM     56  C   UNL A   1      51.468  26.029  26.620  1.00  0.00     0.198 A 
ATOM     57  F   UNL A   1      49.820  26.085  28.301  1.00  0.00    -0.203 F 
ATOM     58  F   UNL A   1      51.274  26.874  23.102  1.00  0.00    -0.200 F 
ATOM     59  C   UNL A   1      51.846  26.227  25.300  1.00  0.00     0.200 A 
ATOM     60  F   UNL A   1      52.362  25.582  27.512  1.00  0.00    -0.200 F 
ATOM     61  F   UNL A   1      53.098  25.956  24.911  1.00  0.00    -0.200 F 
ENDBRANCH  27  51
BRANCH  39  62
ATOM     62  C   UNL A   1      46.125  32.475  28.744  1.00  0.00     0.064 A 
ATOM     63  C   UNL A   1      46.734  32.746  29.977  1.00  0.00     0.173 A 
ATOM     64  C   UNL A   1      46.103  33.492  27.777  1.00  0.00     0.173 A 
ATOM     65  F   UNL A   1      46.769  31.807  30.934  1.00  0.00    -0.203 F 
ATOM     66  C   UNL A   1      47.309  33.988  30.228  1.00  0.00     0.198 A 
ATOM     67  C   UNL A   1      46.701  34.724  28.024  1.00  0.00     0.198 A 
ATOM     68  F   UNL A   1      45.541  33.273  26.580  1.00  0.00    -0.203 F 
ATOM     69  F   UNL A   1      47.879  34.232  31.417  1.00  0.00    -0.200 F 
ATOM     70  C   UNL A   1      47.305  34.970  29.248  1.00  0.00     0.200 A 
ATOM     71  F   UNL A   1      46.710  35.665  27.069  1.00  0.00    -0.200 F 
ATOM     72  F   UNL A   1      47.886  36.155  29.481  1.00  0.00    -0.200 F 
ENDBRANCH  39  62
ENDBRANCH  13  14
ENDBRANCH   6   8
ENDBRANCH   3   4
ENDBRANCH   2   3
ENDBRANCH   1   2
BRANCH   1  73
ATOM     73  C   UNL A   1      37.299  22.034  24.639  1.00  0.00     0.002 C 
BRANCH  73  74
ATOM     74  C   UNL A   1      36.662  22.860  23.516  1.00  0.00     0.021 C 
BRANCH  74  75
ATOM     75  C   UNL A   1      35.410  23.627  23.937  1.00  0.00     0.116 C 
BRANCH  75  76
ATOM     76  N   UNL A   1      34.245  23.271  23.150  1.00  0.00    -0.356 N 
ATOM     77  C   UNL A   1      32.968  22.916  23.404  1.00  0.00     0.223 C 
ATOM     78  H   UNL A   1      34.433  23.293  22.183  1.00  0.00     0.163 HD
ATOM     79  O   UNL A   1      32.254  22.808  22.395  1.00  0.00    -0.275 OA
BRANCH  77  80
ATOM     80  C   UNL A   1      32.332  22.603  24.768  1.00  0.00     0.091 C 
ATOM     81  C   UNL A   1      32.481  21.110  25.098  1.00  0.00     0.014 C 
ATOM     82  C   UNL A   1      32.581  23.543  25.949  1.00  0.00     0.091 C 
ATOM     83  C   UNL A   1      33.753  20.793  25.856  1.00  0.00     0.001 C 
ATOM     84  C   UNL A   1      33.725  23.093  26.891  1.00  0.00     0.014 C 
ATOM     85  C   UNL A   1      33.811  21.592  27.147  1.00  0.00     0.001 C 
BRANCH  82  86
ATOM     86  C   UNL A   1      31.307  23.767  26.775  1.00  0.00     0.228 C 
ATOM     87  O   UNL A   1      30.941  22.955  27.626  1.00  0.00    -0.274 OA
ATOM     88  N   UNL A   1      30.642  24.965  26.682  1.00  0.00    -0.326 N 
ATOM     89  H   UNL A   1      30.065  25.173  27.452  1.00  0.00     0.169 HD
BRANCH  88  90
ATOM     90  C   UNL A   1      30.642  25.943  25.674  1.00  0.00     0.042 A 
ATOM     91  C   UNL A   1      29.975  25.778  24.460  1.00  0.00     0.027 A 
ATOM     92  C   UNL A   1      31.266  27.164  25.940  1.00  0.00     0.047 A 
ATOM     93  C   UNL A   1      29.975  26.793  23.499  1.00  0.00     0.019 A 
ATOM     94  C   UNL A   1      31.290  28.178  24.972  1.00  0.00     0.057 A 
ATOM     95  C   UNL A   1      30.645  27.991  23.745  1.00  0.00     0.036 A 
ATOM     96  Cl  UNL A   1      32.148  29.627  25.357  1.00  0.00    -0.083 Cl
ATOM     97  Br  UNL A   1      30.613  29.307  22.380  1.00  0.00    -0.049 Br
ENDBRANCH  88  90
ENDBRANCH  82  86
ENDBRANCH  77  80
ENDBRANCH  75  76
ENDBRANCH  74  75
ENDBRANCH  73  74
ENDBRANCH   1  73
TORSDOF 15
ENDMDL
MODEL 2
REMARK VINA RESULT:     -12.6      1.758      7.752
REMARK SMILES O=C(NCCCCCCNC(=O)[C@H]1CCCC[C@@H]1C(=O)Nc1ccc(Br)c(Cl)c1)c1ccc(-c2c3nc(c(-c4c(F)c(F)c(F)c(F)c4F)c4ccc([nH]4)c(-c4c(F)c(F)c(F)c(F)c4F)c4nc(c(-c5c(F)c(F)c(F)c(F)c5F)c5ccc2[nH]5)C=C4)C=C3)cc1
REMARK SMILES IDX 6 1 5 2 4 3 3 4 1 5 2 6 30 8 31 9 92 10 32 11 91 12 33 13
REMARK SMILES IDX 34 14 35 15 85 16 36 17 90 18 84 19 86 20 37 21 89 22 83 23
REMARK SMILES IDX 82 24 38 26 70 27 50 28 69 29 51 30 54 31 68 32 87 33 52 34
REMARK SMILES IDX 53 35 67 37 88 38 55 39 39 40 40 41 48 42 41 43 42 44 46 45
REMARK SMILES IDX 49 46 43 47 44 48 47 49 45 50 71 51 72 52 80 53 73 54 74 55
REMARK SMILES IDX 78 56 81 57 75 58 76 59 79 60 77 61 56 62 57 63 65 64 58 65
REMARK SMILES IDX 59 66 63 67 66 68 60 69 61 70 64 71 62 72 7 73 8 74 9 75
REMARK SMILES IDX 10 76 11 77 12 79 13 80 14 81 18 82 15 83 17 84 16 85 19 86
REMARK SMILES IDX 20 87 21 88 22 90 23 91 29 92 24 93 27 94 25 95 28 96 26 97
REMARK H PARENT 3 7 86 25 54 36 10 78 21 89
REMARK Flexibility Score: inf
ROOT
ATOM      1  C   UNL A   1      36.651  20.404  24.950  1.00  0.00     0.002 C 
ENDROOT
BRANCH   1   2
ATOM      2  C   UNL A   1      37.958  19.607  24.894  1.00  0.00     0.021 C 
BRANCH   2   3
ATOM      3  C   UNL A   1      39.075  20.142  25.784  1.00  0.00     0.116 C 
BRANCH   3   4
ATOM      4  N   UNL A   1      40.177  19.204  25.898  1.00  0.00    -0.352 N 
ATOM      5  O   UNL A   1      42.317  18.514  25.914  1.00  0.00    -0.269 OA
ATOM      6  C   UNL A   1      41.520  19.437  26.048  1.00  0.00     0.251 C 
ATOM      7  H   UNL A   1      39.921  18.254  25.862  1.00  0.00     0.163 HD
BRANCH   6   8
ATOM      8  C   UNL A   1      42.020  20.793  26.370  1.00  0.00     0.039 A 
ATOM      9  C   UNL A   1      42.269  21.113  27.708  1.00  0.00     0.014 A 
ATOM     10  C   UNL A   1      42.170  21.769  25.380  1.00  0.00     0.014 A 
ATOM     11  C   UNL A   1      42.683  22.402  28.050  1.00  0.00     0.010 A 
ATOM     12  C   UNL A   1      42.658  23.032  25.713  1.00  0.00     0.010 A 
ATOM     13  C   UNL A   1      42.886  23.371  27.054  1.00  0.00    -0.014 A 
BRANCH  13  14
ATOM     14  C   UNL A   1      43.257  24.763  27.414  1.00  0.00     0.031 A 
ATOM     15  C   UNL A   1      44.659  25.252  27.158  1.00  0.00     0.074 A 
ATOM     16  C   UNL A   1      42.346  25.582  27.974  1.00  0.00     0.049 A 
ATOM     17  N   UNL A   1      45.189  26.421  27.417  1.00  0.00    -0.248 NA
ATOM     18  C   UNL A   1      45.599  24.293  26.553  1.00  0.00     0.031 C 
ATOM     19  C   UNL A   1      40.968  25.214  28.301  1.00  0.00     0.029 A 
ATOM     20  N   UNL A   1      42.440  26.896  28.360  1.00  0.00    -0.354 N 
ATOM     21  C   UNL A   1      46.517  26.329  27.021  1.00  0.00     0.074 A 
ATOM     22  C   UNL A   1      46.734  24.977  26.559  1.00  0.00     0.031 C 
ATOM     23  C   UNL A   1      40.335  26.287  28.801  1.00  0.00     0.029 A 
ATOM     24  C   UNL A   1      41.267  27.409  28.859  1.00  0.00     0.049 A 
ATOM     25  H   UNL A   1      43.269  27.422  28.285  1.00  0.00     0.167 HD
ATOM     26  C   UNL A   1      47.461  27.297  27.009  1.00  0.00     0.037 A 
ATOM     27  C   UNL A   1      40.977  28.648  29.304  1.00  0.00     0.037 A 
ATOM     28  C   UNL A   1      47.229  28.655  27.413  1.00  0.00     0.049 A 
ATOM     29  C   UNL A   1      42.046  29.708  29.274  1.00  0.00     0.074 A 
ATOM     30  C   UNL A   1      48.106  29.724  27.383  1.00  0.00     0.029 A 
ATOM     31  N   UNL A   1      46.025  29.134  27.908  1.00  0.00    -0.354 N 
ATOM     32  N   UNL A   1      43.282  29.621  28.848  1.00  0.00    -0.248 NA
ATOM     33  C   UNL A   1      41.681  31.039  29.784  1.00  0.00     0.031 C 
ATOM     34  C   UNL A   1      47.444  30.845  27.889  1.00  0.00     0.029 A 
ATOM     35  C   UNL A   1      46.142  30.482  28.198  1.00  0.00     0.049 A 
ATOM     36  H   UNL A   1      45.210  28.596  28.034  1.00  0.00     0.167 HD
ATOM     37  C   UNL A   1      43.833  30.885  29.010  1.00  0.00     0.074 A 
ATOM     38  C   UNL A   1      42.795  31.727  29.567  1.00  0.00     0.031 C 
ATOM     39  C   UNL A   1      45.088  31.308  28.727  1.00  0.00     0.037 A 
BRANCH  26  40
ATOM     40  C   UNL A   1      48.831  26.941  26.511  1.00  0.00     0.064 A 
ATOM     41  C   UNL A   1      49.794  26.383  27.363  1.00  0.00     0.173 A 
ATOM     42  C   UNL A   1      49.153  27.076  25.153  1.00  0.00     0.173 A 
ATOM     43  F   UNL A   1      49.537  26.242  28.673  1.00  0.00    -0.203 F 
ATOM     44  C   UNL A   1      51.036  25.984  26.876  1.00  0.00     0.198 A 
ATOM     45  C   UNL A   1      50.386  26.652  24.664  1.00  0.00     0.198 A 
ATOM     46  F   UNL A   1      48.264  27.598  24.294  1.00  0.00    -0.203 F 
ATOM     47  F   UNL A   1      51.951  25.479  27.716  1.00  0.00    -0.200 F 
ATOM     48  C   UNL A   1      51.327  26.108  25.527  1.00  0.00     0.200 A 
ATOM     49  F   UNL A   1      50.661  26.759  23.356  1.00  0.00    -0.200 F 
ATOM     50  F   UNL A   1      52.515  25.704  25.056  1.00  0.00    -0.200 F 
ENDBRANCH  26  40
BRANCH  27  51
ATOM     51  C   UNL A   1      39.602  28.964  29.770  1.00  0.00     0.064 A 
ATOM     52  C   UNL A   1      39.225  28.730  31.100  1.00  0.00     0.173 A 
ATOM     53  C   UNL A   1      38.644  29.517  28.907  1.00  0.00     0.173 A 
ATOM     54  F   UNL A   1      40.100  28.187  31.958  1.00  0.00    -0.203 F 
ATOM     55  C   UNL A   1      37.937  29.023  31.546  1.00  0.00     0.198 A 
ATOM     56  C   UNL A   1      37.364  29.832  29.361  1.00  0.00     0.198 A 
ATOM     57  F   UNL A   1      38.956  29.763  27.627  1.00  0.00    -0.203 F 
ATOM     58  F   UNL A   1      37.592  28.755  32.813  1.00  0.00    -0.200 F 
ATOM     59  C   UNL A   1      37.010  29.580  30.678  1.00  0.00     0.200 A 
ATOM     60  F   UNL A   1      36.476  30.382  28.523  1.00  0.00    -0.200 F 
ATOM     61  F   UNL A   1      35.775  29.868  31.109  1.00  0.00    -0.200 F 
ENDBRANCH  27  51
BRANCH  39  62
ATOM     62  C   UNL A   1      45.421  32.746  28.981  1.00  0.00     0.064 A 
ATOM     63  C   UNL A   1      45.972  33.158  30.201  1.00  0.00     0.173 A 
ATOM     64  C   UNL A   1      45.307  33.692  27.951  1.00  0.00     0.173 A 
ATOM     65  F   UNL A   1      46.091  32.290  31.217  1.00  0.00    -0.203 F 
ATOM     66  C   UNL A   1      46.403  34.470  30.380  1.00  0.00     0.198 A 
ATOM     67  C   UNL A   1      45.761  34.995  28.126  1.00  0.00     0.198 A 
ATOM     68  F   UNL A   1      44.795  33.339  26.763  1.00  0.00    -0.203 F 
ATOM     69  F   UNL A   1      46.919  34.849  31.558  1.00  0.00    -0.200 F 
ATOM     70  C   UNL A   1      46.310  35.383  29.339  1.00  0.00     0.200 A 
ATOM     71  F   UNL A   1      45.686  35.871  27.113  1.00  0.00    -0.200 F 
ATOM     72  F   UNL A   1      46.754  36.636  29.504  1.00  0.00    -0.200 F 
ENDBRANCH  39  62
ENDBRANCH  13  14
ENDBRANCH   6   8
ENDBRANCH   3   4
ENDBRANCH   2   3
ENDBRANCH   1   2
BRANCH   1  73
ATOM     73  C   UNL A   1      36.764  21.898  24.611  1.00  0.00     0.002 C 
BRANCH  73  74
ATOM     74  C   UNL A   1      35.556  22.507  23.891  1.00  0.00     0.021 C 
BRANCH  74  75
ATOM     75  C   UNL A   1      35.208  23.923  24.343  1.00  0.00     0.116 C 
BRANCH  75  76
ATOM     76  N   UNL A   1      34.401  24.637  23.372  1.00  0.00    -0.356 N 
ATOM     77  C   UNL A   1      33.584  25.712  23.384  1.00  0.00     0.223 C 
ATOM     78  H   UNL A   1      34.465  24.236  22.475  1.00  0.00     0.163 HD
ATOM     79  O   UNL A   1      33.175  26.059  22.266  1.00  0.00    -0.275 OA
BRANCH  77  80
ATOM     80  C   UNL A   1      33.089  26.504  24.606  1.00  0.00     0.091 C 
ATOM     81  C   UNL A   1      33.886  27.808  24.757  1.00  0.00     0.014 C 
ATOM     82  C   UNL A   1      31.587  26.644  24.854  1.00  0.00     0.091 C 
ATOM     83  C   UNL A   1      33.264  28.974  24.016  1.00  0.00     0.001 C 
ATOM     84  C   UNL A   1      30.974  27.963  24.324  1.00  0.00     0.014 C 
ATOM     85  C   UNL A   1      31.842  29.206  24.497  1.00  0.00     0.001 C 
BRANCH  82  86
ATOM     86  C   UNL A   1      31.240  26.490  26.342  1.00  0.00     0.228 C 
ATOM     87  O   UNL A   1      31.011  27.469  27.054  1.00  0.00    -0.274 OA
ATOM     88  N   UNL A   1      31.026  25.238  26.861  1.00  0.00    -0.326 N 
ATOM     89  H   UNL A   1      30.493  25.223  27.689  1.00  0.00     0.169 HD
BRANCH  88  90
ATOM     90  C   UNL A   1      31.440  23.972  26.414  1.00  0.00     0.042 A 
ATOM     91  C   UNL A   1      30.851  23.324  25.329  1.00  0.00     0.027 A 
ATOM     92  C   UNL A   1      32.545  23.383  27.033  1.00  0.00     0.047 A 
ATOM     93  C   UNL A   1      31.318  22.078  24.898  1.00  0.00     0.019 A 
ATOM     94  C   UNL A   1      33.004  22.123  26.622  1.00  0.00     0.057 A 
ATOM     95  C   UNL A   1      32.386  21.466  25.553  1.00  0.00     0.036 A 
ATOM     96  Cl  UNL A   1      34.329  21.436  27.492  1.00  0.00    -0.083 Cl
ATOM     97  Br  UNL A   1      32.944  19.768  24.919  1.00  0.00    -0.049 Br
ENDBRANCH  88  90
ENDBRANCH  82  86
ENDBRANCH  77  80
ENDBRANCH  75  76
ENDBRANCH  74  75
ENDBRANCH  73  74
ENDBRANCH   1  73
TORSDOF 15
ENDMDL
MODEL 3
REMARK VINA RESULT:     -12.6      5.523      9.821
REMARK SMILES O=C(NCCCCCCNC(=O)[C@H]1CCCC[C@@H]1C(=O)Nc1ccc(Br)c(Cl)c1)c1ccc(-c2c3nc(c(-c4c(F)c(F)c(F)c(F)c4F)c4ccc([nH]4)c(-c4c(F)c(F)c(F)c(F)c4F)c4nc(c(-c5c(F)c(F)c(F)c(F)c5F)c5ccc2[nH]5)C=C4)C=C3)cc1
REMARK SMILES IDX 6 1 5 2 4 3 3 4 1 5 2 6 30 8 31 9 92 10 32 11 91 12 33 13
REMARK SMILES IDX 34 14 35 15 85 16 36 17 90 18 84 19 86 20 37 21 89 22 83 23
REMARK SMILES IDX 82 24 38 26 70 27 50 28 69 29 51 30 54 31 68 32 87 33 52 34
REMARK SMILES IDX 53 35 67 37 88 38 55 39 39 40 40 41 48 42 41 43 42 44 46 45
REMARK SMILES IDX 49 46 43 47 44 48 47 49 45 50 71 51 72 52 80 53 73 54 74 55
REMARK SMILES IDX 78 56 81 57 75 58 76 59 79 60 77 61 56 62 57 63 65 64 58 65
REMARK SMILES IDX 59 66 63 67 66 68 60 69 61 70 64 71 62 72 7 73 8 74 9 75
REMARK SMILES IDX 10 76 11 77 12 79 13 80 14 81 18 82 15 83 17 84 16 85 19 86
REMARK SMILES IDX 20 87 21 88 22 90 23 91 29 92 24 93 27 94 25 95 28 96 26 97
REMARK H PARENT 3 7 86 25 54 36 10 78 21 89
REMARK Flexibility Score: inf
ROOT
ATOM      1  C   UNL A   1      31.360  30.984  25.868  1.00  0.00     0.002 C 
ENDROOT
BRANCH   1   2
ATOM      2  C   UNL A   1      31.245  32.371  26.505  1.00  0.00     0.021 C 
BRANCH   2   3
ATOM      3  C   UNL A   1      32.490  32.842  27.249  1.00  0.00     0.116 C 
BRANCH   3   4
ATOM      4  N   UNL A   1      32.377  34.222  27.684  1.00  0.00    -0.352 N 
ATOM      5  O   UNL A   1      32.652  35.998  29.035  1.00  0.00    -0.269 OA
ATOM      6  C   UNL A   1      33.038  34.888  28.683  1.00  0.00     0.251 C 
ATOM      7  H   UNL A   1      31.726  34.764  27.183  1.00  0.00     0.163 HD
BRANCH   6   8
ATOM      8  C   UNL A   1      34.216  34.281  29.346  1.00  0.00     0.039 A 
ATOM      9  C   UNL A   1      35.485  34.538  28.819  1.00  0.00     0.014 A 
ATOM     10  C   UNL A   1      34.073  33.404  30.425  1.00  0.00     0.014 A 
ATOM     11  C   UNL A   1      36.609  33.931  29.384  1.00  0.00     0.010 A 
ATOM     12  C   UNL A   1      35.201  32.861  31.037  1.00  0.00     0.010 A 
ATOM     13  C   UNL A   1      36.477  33.092  30.502  1.00  0.00    -0.014 A 
BRANCH  13  14
ATOM     14  C   UNL A   1      37.656  32.386  31.065  1.00  0.00     0.031 A 
ATOM     15  C   UNL A   1      38.150  32.742  32.443  1.00  0.00     0.074 A 
ATOM     16  C   UNL A   1      38.286  31.439  30.344  1.00  0.00     0.049 A 
ATOM     17  N   UNL A   1      39.172  32.261  33.106  1.00  0.00    -0.248 NA
ATOM     18  C   UNL A   1      37.415  33.796  33.164  1.00  0.00     0.031 C 
ATOM     19  C   UNL A   1      37.921  31.032  28.986  1.00  0.00     0.029 A 
ATOM     20  N   UNL A   1      39.359  30.642  30.654  1.00  0.00    -0.354 N 
ATOM     21  C   UNL A   1      39.206  32.961  34.306  1.00  0.00     0.074 A 
ATOM     22  C   UNL A   1      38.144  33.940  34.261  1.00  0.00     0.031 C 
ATOM     23  C   UNL A   1      38.731  30.034  28.596  1.00  0.00     0.029 A 
ATOM     24  C   UNL A   1      39.690  29.752  29.661  1.00  0.00     0.049 A 
ATOM     25  H   UNL A   1      39.845  30.701  31.508  1.00  0.00     0.167 HD
ATOM     26  C   UNL A   1      40.027  32.778  35.365  1.00  0.00     0.037 A 
ATOM     27  C   UNL A   1      40.653  28.810  29.620  1.00  0.00     0.037 A 
ATOM     28  C   UNL A   1      41.043  31.765  35.431  1.00  0.00     0.049 A 
ATOM     29  C   UNL A   1      41.549  28.623  30.816  1.00  0.00     0.074 A 
ATOM     30  C   UNL A   1      41.887  31.461  36.484  1.00  0.00     0.029 A 
ATOM     31  N   UNL A   1      41.343  30.882  34.405  1.00  0.00    -0.354 N 
ATOM     32  N   UNL A   1      41.535  29.256  31.963  1.00  0.00    -0.248 NA
ATOM     33  C   UNL A   1      42.592  27.591  30.714  1.00  0.00     0.031 C 
ATOM     34  C   UNL A   1      42.721  30.414  36.085  1.00  0.00     0.029 A 
ATOM     35  C   UNL A   1      42.368  30.040  34.798  1.00  0.00     0.049 A 
ATOM     36  H   UNL A   1      40.892  30.856  33.529  1.00  0.00     0.167 HD
ATOM     37  C   UNL A   1      42.543  28.684  32.727  1.00  0.00     0.074 A 
ATOM     38  C   UNL A   1      43.146  27.646  31.918  1.00  0.00     0.031 C 
ATOM     39  C   UNL A   1      42.936  28.995  33.986  1.00  0.00     0.037 A 
BRANCH  26  40
ATOM     40  C   UNL A   1      39.843  33.664  36.561  1.00  0.00     0.064 A 
ATOM     41  C   UNL A   1      40.480  34.909  36.650  1.00  0.00     0.173 A 
ATOM     42  C   UNL A   1      38.955  33.304  37.586  1.00  0.00     0.173 A 
ATOM     43  F   UNL A   1      41.347  35.293  35.700  1.00  0.00    -0.203 F 
ATOM     44  C   UNL A   1      40.245  35.759  37.727  1.00  0.00     0.198 A 
ATOM     45  C   UNL A   1      38.702  34.168  38.648  1.00  0.00     0.198 A 
ATOM     46  F   UNL A   1      38.315  32.126  37.545  1.00  0.00    -0.203 F 
ATOM     47  F   UNL A   1      40.888  36.933  37.804  1.00  0.00    -0.200 F 
ATOM     48  C   UNL A   1      39.348  35.393  38.719  1.00  0.00     0.200 A 
ATOM     49  F   UNL A   1      37.824  33.818  39.599  1.00  0.00    -0.200 F 
ATOM     50  F   UNL A   1      39.107  36.221  39.745  1.00  0.00    -0.200 F 
ENDBRANCH  26  40
BRANCH  27  51
ATOM     51  C   UNL A   1      40.788  27.939  28.423  1.00  0.00     0.064 A 
ATOM     52  C   UNL A   1      41.572  28.338  27.332  1.00  0.00     0.173 A 
ATOM     53  C   UNL A   1      40.149  26.692  28.348  1.00  0.00     0.173 A 
ATOM     54  F   UNL A   1      42.186  29.529  27.349  1.00  0.00    -0.203 F 
ATOM     55  C   UNL A   1      41.703  27.528  26.205  1.00  0.00     0.198 A 
ATOM     56  C   UNL A   1      40.302  25.873  27.230  1.00  0.00     0.198 A 
ATOM     57  F   UNL A   1      39.391  26.263  29.366  1.00  0.00    -0.203 F 
ATOM     58  F   UNL A   1      42.430  27.949  25.161  1.00  0.00    -0.200 F 
ATOM     59  C   UNL A   1      41.073  26.293  26.158  1.00  0.00     0.200 A 
ATOM     60  F   UNL A   1      39.702  24.675  27.194  1.00  0.00    -0.200 F 
ATOM     61  F   UNL A   1      41.205  25.513  25.077  1.00  0.00    -0.200 F 
ENDBRANCH  27  51
BRANCH  39  62
ATOM     62  C   UNL A   1      44.049  28.198  34.594  1.00  0.00     0.064 A 
ATOM     63  C   UNL A   1      43.800  26.981  35.242  1.00  0.00     0.173 A 
ATOM     64  C   UNL A   1      45.384  28.591  34.412  1.00  0.00     0.173 A 
ATOM     65  F   UNL A   1      42.539  26.570  35.445  1.00  0.00    -0.203 F 
ATOM     66  C   UNL A   1      44.850  26.182  35.684  1.00  0.00     0.198 A 
ATOM     67  C   UNL A   1      46.431  27.779  34.834  1.00  0.00     0.198 A 
ATOM     68  F   UNL A   1      45.669  29.743  33.787  1.00  0.00    -0.203 F 
ATOM     69  F   UNL A   1      44.592  25.026  36.311  1.00  0.00    -0.200 F 
ATOM     70  C   UNL A   1      46.164  26.575  35.468  1.00  0.00     0.200 A 
ATOM     71  F   UNL A   1      47.699  28.152  34.609  1.00  0.00    -0.200 F 
ATOM     72  F   UNL A   1      47.174  25.790  35.867  1.00  0.00    -0.200 F 
ENDBRANCH  39  62
ENDBRANCH  13  14
ENDBRANCH   6   8
ENDBRANCH   3   4
ENDBRANCH   2   3
ENDBRANCH   1   2
BRANCH   1  73
ATOM     73  C   UNL A   1      32.404  30.046  26.491  1.00  0.00     0.002 C 
BRANCH  73  74
ATOM     74  C   UNL A   1      31.847  28.779  27.149  1.00  0.00     0.021 C 
BRANCH  74  75
ATOM     75  C   UNL A   1      32.328  27.479  26.508  1.00  0.00     0.116 C 
BRANCH  75  76
ATOM     76  N   UNL A   1      31.290  26.468  26.448  1.00  0.00    -0.356 N 
ATOM     77  C   UNL A   1      30.584  25.851  25.477  1.00  0.00     0.223 C 
ATOM     78  H   UNL A   1      31.035  26.149  27.344  1.00  0.00     0.163 HD
ATOM     79  O   UNL A   1      29.852  24.933  25.877  1.00  0.00    -0.275 OA
BRANCH  77  80
ATOM     80  C   UNL A   1      30.560  26.183  23.976  1.00  0.00     0.091 C 
ATOM     81  C   UNL A   1      29.460  27.210  23.671  1.00  0.00     0.014 C 
ATOM     82  C   UNL A   1      31.878  26.426  23.237  1.00  0.00     0.091 C 
ATOM     83  C   UNL A   1      29.941  28.643  23.764  1.00  0.00     0.001 C 
ATOM     84  C   UNL A   1      32.263  27.919  23.096  1.00  0.00     0.014 C 
ATOM     85  C   UNL A   1      31.105  28.871  22.814  1.00  0.00     0.001 C 
BRANCH  82  86
ATOM     86  C   UNL A   1      31.881  25.772  21.849  1.00  0.00     0.228 C 
ATOM     87  O   UNL A   1      31.490  26.379  20.851  1.00  0.00    -0.274 OA
ATOM     88  N   UNL A   1      32.472  24.544  21.680  1.00  0.00    -0.326 N 
ATOM     89  H   UNL A   1      32.738  24.343  20.754  1.00  0.00     0.169 HD
BRANCH  88  90
ATOM     90  C   UNL A   1      32.758  23.525  22.603  1.00  0.00     0.042 A 
ATOM     91  C   UNL A   1      31.774  22.707  23.156  1.00  0.00     0.027 A 
ATOM     92  C   UNL A   1      34.097  23.268  22.907  1.00  0.00     0.047 A 
ATOM     93  C   UNL A   1      32.109  21.682  24.047  1.00  0.00     0.019 A 
ATOM     94  C   UNL A   1      34.440  22.258  23.817  1.00  0.00     0.057 A 
ATOM     95  C   UNL A   1      33.443  21.464  24.392  1.00  0.00     0.036 A 
ATOM     96  Cl  UNL A   1      36.115  22.059  24.193  1.00  0.00    -0.083 Cl
ATOM     97  Br  UNL A   1      33.810  20.067  25.622  1.00  0.00    -0.049 Br
ENDBRANCH  88  90
ENDBRANCH  82  86
ENDBRANCH  77  80
ENDBRANCH  75  76
ENDBRANCH  74  75
ENDBRANCH  73  74
ENDBRANCH   1  73
TORSDOF 15
ENDMDL
