MODEL 1
REMARK VINA RESULT:     -10.6      0.000      0.000
REMARK SMILES O=C(CSc1ccc(Br)cn1)NCCCCCCNC(=O)c1ccc(-c2c3nc(c(-c4c(F)c(F)c(F)c(F)c4F)c4ccc([nH]4)c(-c4c(F)c(F)c(F)c(F)c4F)c4nc(c(-c5c(F)c(F)c(F)c(F)c5F)c5ccc2[nH]5)C=C4)C=C3)cc1
REMARK SMILES IDX 15 1 14 2 13 3 12 4 1 5 2 6 3 8 4 9 5 10 6 11 11 12 7 13
REMARK SMILES IDX 10 14 8 15 9 16 16 17 17 18 18 19 19 20 20 21 21 23 22 24
REMARK SMILES IDX 23 25 84 26 24 27 83 28 25 29 26 30 27 31 77 32 28 33 82 34
REMARK SMILES IDX 76 35 78 36 29 37 81 38 75 39 74 40 30 42 62 43 42 44 61 45
REMARK SMILES IDX 43 46 46 47 60 48 79 49 44 50 45 51 59 53 80 54 47 55 31 56
REMARK SMILES IDX 32 57 40 58 33 59 34 60 38 61 41 62 35 63 36 64 39 65 37 66
REMARK SMILES IDX 63 67 64 68 72 69 65 70 66 71 70 72 73 73 67 74 68 75 71 76
REMARK SMILES IDX 69 77 48 78 49 79 57 80 50 81 51 82 55 83 58 84 52 85 53 86
REMARK SMILES IDX 56 87 54 88
REMARK H PARENT 12 7 19 22 78 41 46 52
REMARK Flexibility Score: inf
ROOT
ATOM      1  C   UNL A   1      35.313  33.671  28.758  1.00  0.00     0.002 C 
ENDROOT
BRANCH   1   2
ATOM      2  C   UNL A   1      34.665  32.344  29.169  1.00  0.00     0.021 C 
BRANCH   2   3
ATOM      3  C   UNL A   1      34.914  31.182  28.208  1.00  0.00     0.116 C 
BRANCH   3   4
ATOM      4  N   UNL A   1      33.731  30.372  28.027  1.00  0.00    -0.355 N 
ATOM      5  O   UNL A   1      34.705  28.790  26.682  1.00  0.00    -0.274 OA
ATOM      6  C   UNL A   1      33.723  29.206  27.296  1.00  0.00     0.230 C 
ATOM      7  H   UNL A   1      32.891  30.669  28.446  1.00  0.00     0.163 HD
BRANCH   6   8
ATOM      8  C   UNL A   1      32.368  28.529  27.160  1.00  0.00     0.176 C 
BRANCH   8   9
ATOM      9  S   UNL A   1      32.305  27.228  25.890  1.00  0.00    -0.096 SA
BRANCH   9  10
ATOM     10  C   UNL A   1      31.105  27.958  24.803  1.00  0.00     0.097 A 
ATOM     11  C   UNL A   1      30.222  27.153  24.091  1.00  0.00     0.037 A 
ATOM     12  N   UNL A   1      31.135  29.302  24.683  1.00  0.00    -0.249 NA
ATOM     13  C   UNL A   1      29.315  27.757  23.221  1.00  0.00     0.020 A 
ATOM     14  C   UNL A   1      30.242  29.865  23.833  1.00  0.00     0.128 A 
ATOM     15  C   UNL A   1      29.326  29.141  23.089  1.00  0.00     0.036 A 
ATOM     16  Br  UNL A   1      28.129  30.005  21.918  1.00  0.00    -0.049 Br
ENDBRANCH   9  10
ENDBRANCH   8   9
ENDBRANCH   6   8
ENDBRANCH   3   4
ENDBRANCH   2   3
ENDBRANCH   1   2
BRANCH   1  17
ATOM     17  C   UNL A   1      34.397  34.657  28.024  1.00  0.00     0.002 C 
BRANCH  17  18
ATOM     18  C   UNL A   1      33.165  35.117  28.805  1.00  0.00     0.021 C 
BRANCH  18  19
ATOM     19  C   UNL A   1      33.380  36.334  29.700  1.00  0.00     0.116 C 
BRANCH  19  20
ATOM     20  N   UNL A   1      32.442  36.389  30.810  1.00  0.00    -0.352 N 
ATOM     21  C   UNL A   1      32.507  35.780  32.037  1.00  0.00     0.251 C 
ATOM     22  H   UNL A   1      31.642  36.943  30.659  1.00  0.00     0.163 HD
ATOM     23  O   UNL A   1      31.540  35.823  32.799  1.00  0.00    -0.269 OA
BRANCH  21  24
ATOM     24  C   UNL A   1      33.725  35.047  32.449  1.00  0.00     0.039 A 
ATOM     25  C   UNL A   1      33.599  33.737  32.917  1.00  0.00     0.014 A 
ATOM     26  C   UNL A   1      34.985  35.651  32.397  1.00  0.00     0.014 A 
ATOM     27  C   UNL A   1      34.738  33.013  33.281  1.00  0.00     0.010 A 
ATOM     28  C   UNL A   1      36.125  34.907  32.693  1.00  0.00     0.010 A 
ATOM     29  C   UNL A   1      36.014  33.582  33.145  1.00  0.00    -0.014 A 
BRANCH  29  30
ATOM     30  C   UNL A   1      37.241  32.818  33.492  1.00  0.00     0.031 A 
ATOM     31  C   UNL A   1      37.979  33.121  34.768  1.00  0.00     0.074 A 
ATOM     32  C   UNL A   1      37.722  31.894  32.638  1.00  0.00     0.049 A 
ATOM     33  N   UNL A   1      39.114  32.635  35.205  1.00  0.00    -0.248 NA
ATOM     34  C   UNL A   1      37.372  34.119  35.662  1.00  0.00     0.031 C 
ATOM     35  C   UNL A   1      37.122  31.534  31.353  1.00  0.00     0.029 A 
ATOM     36  N   UNL A   1      38.839  31.098  32.716  1.00  0.00    -0.354 N 
ATOM     37  C   UNL A   1      39.359  33.274  36.414  1.00  0.00     0.074 A 
ATOM     38  C   UNL A   1      38.285  34.222  36.616  1.00  0.00     0.031 C 
ATOM     39  C   UNL A   1      37.869  30.583  30.769  1.00  0.00     0.029 A 
ATOM     40  C   UNL A   1      39.019  30.291  31.619  1.00  0.00     0.049 A 
ATOM     41  H   UNL A   1      39.452  31.104  33.487  1.00  0.00     0.167 HD
ATOM     42  C   UNL A   1      40.371  33.069  37.290  1.00  0.00     0.037 A 
ATOM     43  C   UNL A   1      40.009  29.424  31.326  1.00  0.00     0.037 A 
ATOM     44  C   UNL A   1      41.429  32.110  37.100  1.00  0.00     0.049 A 
ATOM     45  C   UNL A   1      41.127  29.225  32.315  1.00  0.00     0.074 A 
ATOM     46  C   UNL A   1      42.487  31.815  37.940  1.00  0.00     0.029 A 
ATOM     47  N   UNL A   1      41.554  31.286  35.992  1.00  0.00    -0.354 N 
ATOM     48  N   UNL A   1      41.321  29.802  33.476  1.00  0.00    -0.248 NA
ATOM     49  C   UNL A   1      42.160  28.241  31.958  1.00  0.00     0.031 C 
ATOM     50  C   UNL A   1      43.272  30.834  37.327  1.00  0.00     0.029 A 
ATOM     51  C   UNL A   1      42.676  30.483  36.127  1.00  0.00     0.049 A 
ATOM     52  H   UNL A   1      40.938  31.271  35.225  1.00  0.00     0.167 HD
ATOM     53  C   UNL A   1      42.471  29.227  34.001  1.00  0.00     0.074 A 
ATOM     54  C   UNL A   1      42.925  28.246  33.039  1.00  0.00     0.031 C 
ATOM     55  C   UNL A   1      43.097  29.491  35.174  1.00  0.00     0.037 A 
BRANCH  42  56
ATOM     56  C   UNL A   1      40.378  33.885  38.550  1.00  0.00     0.064 A 
ATOM     57  C   UNL A   1      41.079  35.097  38.629  1.00  0.00     0.173 A 
ATOM     58  C   UNL A   1      39.630  33.485  39.668  1.00  0.00     0.173 A 
ATOM     59  F   UNL A   1      41.818  35.518  37.592  1.00  0.00    -0.203 F 
ATOM     60  C   UNL A   1      41.049  35.869  39.787  1.00  0.00     0.198 A 
ATOM     61  C   UNL A   1      39.578  34.274  40.814  1.00  0.00     0.198 A 
ATOM     62  F   UNL A   1      38.936  32.337  39.643  1.00  0.00    -0.203 F 
ATOM     63  F   UNL A   1      41.759  37.004  39.853  1.00  0.00    -0.200 F 
ATOM     64  C   UNL A   1      40.292  35.462  40.875  1.00  0.00     0.200 A 
ATOM     65  F   UNL A   1      38.834  33.886  41.860  1.00  0.00    -0.200 F 
ATOM     66  F   UNL A   1      40.251  36.213  41.984  1.00  0.00    -0.200 F 
ENDBRANCH  42  56
BRANCH  43  67
ATOM     67  C   UNL A   1      39.989  28.667  30.047  1.00  0.00     0.064 A 
ATOM     68  C   UNL A   1      39.406  27.394  29.969  1.00  0.00     0.173 A 
ATOM     69  C   UNL A   1      40.588  29.180  28.886  1.00  0.00     0.173 A 
ATOM     70  F   UNL A   1      38.839  26.851  31.057  1.00  0.00    -0.203 F 
ATOM     71  C   UNL A   1      39.455  26.649  28.792  1.00  0.00     0.198 A 
ATOM     72  C   UNL A   1      40.608  28.447  27.701  1.00  0.00     0.198 A 
ATOM     73  F   UNL A   1      41.156  30.394  28.904  1.00  0.00    -0.203 F 
ATOM     74  F   UNL A   1      38.947  25.409  28.767  1.00  0.00    -0.200 F 
ATOM     75  C   UNL A   1      40.053  27.177  27.659  1.00  0.00     0.200 A 
ATOM     76  F   UNL A   1      41.175  28.966  26.604  1.00  0.00    -0.200 F 
ATOM     77  F   UNL A   1      40.106  26.457  26.530  1.00  0.00    -0.200 F 
ENDBRANCH  43  67
BRANCH  55  78
ATOM     78  C   UNL A   1      44.303  28.664  35.513  1.00  0.00     0.064 A 
ATOM     79  C   UNL A   1      45.597  29.060  35.149  1.00  0.00     0.173 A 
ATOM     80  C   UNL A   1      44.160  27.478  36.250  1.00  0.00     0.173 A 
ATOM     81  F   UNL A   1      45.785  30.179  34.433  1.00  0.00    -0.203 F 
ATOM     82  C   UNL A   1      46.704  28.284  35.485  1.00  0.00     0.198 A 
ATOM     83  C   UNL A   1      45.271  26.721  36.611  1.00  0.00     0.198 A 
ATOM     84  F   UNL A   1      42.944  27.059  36.630  1.00  0.00    -0.203 F 
ATOM     85  F   UNL A   1      47.927  28.656  35.084  1.00  0.00    -0.200 F 
ATOM     86  C   UNL A   1      46.540  27.120  36.221  1.00  0.00     0.200 A 
ATOM     87  F   UNL A   1      45.113  25.604  37.334  1.00  0.00    -0.200 F 
ATOM     88  F   UNL A   1      47.608  26.378  36.549  1.00  0.00    -0.200 F 
ENDBRANCH  55  78
ENDBRANCH  29  30
ENDBRANCH  21  24
ENDBRANCH  19  20
ENDBRANCH  18  19
ENDBRANCH  17  18
ENDBRANCH   1  17
TORSDOF 15
ENDMDL
MODEL 2
REMARK VINA RESULT:     -10.3      1.917      7.980
REMARK SMILES O=C(CSc1ccc(Br)cn1)NCCCCCCNC(=O)c1ccc(-c2c3nc(c(-c4c(F)c(F)c(F)c(F)c4F)c4ccc([nH]4)c(-c4c(F)c(F)c(F)c(F)c4F)c4nc(c(-c5c(F)c(F)c(F)c(F)c5F)c5ccc2[nH]5)C=C4)C=C3)cc1
REMARK SMILES IDX 15 1 14 2 13 3 12 4 1 5 2 6 3 8 4 9 5 10 6 11 11 12 7 13
REMARK SMILES IDX 10 14 8 15 9 16 16 17 17 18 18 19 19 20 20 21 21 23 22 24
REMARK SMILES IDX 23 25 84 26 24 27 83 28 25 29 26 30 27 31 77 32 28 33 82 34
REMARK SMILES IDX 76 35 78 36 29 37 81 38 75 39 74 40 30 42 62 43 42 44 61 45
REMARK SMILES IDX 43 46 46 47 60 48 79 49 44 50 45 51 59 53 80 54 47 55 31 56
REMARK SMILES IDX 32 57 40 58 33 59 34 60 38 61 41 62 35 63 36 64 39 65 37 66
REMARK SMILES IDX 63 67 64 68 72 69 65 70 66 71 70 72 73 73 67 74 68 75 71 76
REMARK SMILES IDX 69 77 48 78 49 79 57 80 50 81 51 82 55 83 58 84 52 85 53 86
REMARK SMILES IDX 56 87 54 88
REMARK H PARENT 12 7 19 22 78 41 46 52
REMARK Flexibility Score: inf
ROOT
ATOM      1  C   UNL A   1      32.588  29.836  25.906  1.00  0.00     0.002 C 
ENDROOT
BRANCH   1   2
ATOM      2  C   UNL A   1      32.477  28.317  25.735  1.00  0.00     0.021 C 
BRANCH   2   3
ATOM      3  C   UNL A   1      32.074  27.556  26.998  1.00  0.00     0.116 C 
BRANCH   3   4
ATOM      4  N   UNL A   1      31.349  26.344  26.687  1.00  0.00    -0.355 N 
ATOM      5  O   UNL A   1      33.186  25.060  26.205  1.00  0.00    -0.274 OA
ATOM      6  C   UNL A   1      31.968  25.165  26.342  1.00  0.00     0.230 C 
ATOM      7  H   UNL A   1      30.365  26.364  26.723  1.00  0.00     0.163 HD
BRANCH   6   8
ATOM      8  C   UNL A   1      31.036  24.019  25.982  1.00  0.00     0.176 C 
BRANCH   8   9
ATOM      9  S   UNL A   1      30.958  23.649  24.202  1.00  0.00    -0.096 SA
BRANCH   9  10
ATOM     10  C   UNL A   1      30.662  25.289  23.590  1.00  0.00     0.097 A 
ATOM     11  C   UNL A   1      31.583  25.901  22.746  1.00  0.00     0.037 A 
ATOM     12  N   UNL A   1      29.540  25.903  24.021  1.00  0.00    -0.249 NA
ATOM     13  C   UNL A   1      31.335  27.202  22.312  1.00  0.00     0.020 A 
ATOM     14  C   UNL A   1      29.320  27.166  23.582  1.00  0.00     0.128 A 
ATOM     15  C   UNL A   1      30.181  27.848  22.739  1.00  0.00     0.036 A 
ATOM     16  Br  UNL A   1      29.806  29.612  22.190  1.00  0.00    -0.049 Br
ENDBRANCH   9  10
ENDBRANCH   8   9
ENDBRANCH   6   8
ENDBRANCH   3   4
ENDBRANCH   2   3
ENDBRANCH   1   2
BRANCH   1  17
ATOM     17  C   UNL A   1      31.314  30.632  25.600  1.00  0.00     0.002 C 
BRANCH  17  18
ATOM     18  C   UNL A   1      31.159  31.947  26.369  1.00  0.00     0.021 C 
BRANCH  18  19
ATOM     19  C   UNL A   1      32.438  32.482  27.005  1.00  0.00     0.116 C 
BRANCH  19  20
ATOM     20  N   UNL A   1      32.305  33.857  27.462  1.00  0.00    -0.352 N 
ATOM     21  C   UNL A   1      33.023  34.531  28.417  1.00  0.00     0.251 C 
ATOM     22  H   UNL A   1      31.597  34.380  27.022  1.00  0.00     0.163 HD
ATOM     23  O   UNL A   1      32.667  35.654  28.777  1.00  0.00    -0.269 OA
BRANCH  21  24
ATOM     24  C   UNL A   1      34.212  33.910  29.042  1.00  0.00     0.039 A 
ATOM     25  C   UNL A   1      35.479  34.404  28.719  1.00  0.00     0.014 A 
ATOM     26  C   UNL A   1      34.087  32.833  29.923  1.00  0.00     0.014 A 
ATOM     27  C   UNL A   1      36.615  33.855  29.321  1.00  0.00     0.010 A 
ATOM     28  C   UNL A   1      35.213  32.333  30.575  1.00  0.00     0.010 A 
ATOM     29  C   UNL A   1      36.490  32.834  30.276  1.00  0.00    -0.014 A 
BRANCH  29  30
ATOM     30  C   UNL A   1      37.681  32.262  30.955  1.00  0.00     0.031 A 
ATOM     31  C   UNL A   1      38.467  31.161  30.293  1.00  0.00     0.074 A 
ATOM     32  C   UNL A   1      38.025  32.688  32.186  1.00  0.00     0.049 A 
ATOM     33  N   UNL A   1      39.476  30.468  30.757  1.00  0.00    -0.248 NA
ATOM     34  C   UNL A   1      38.048  30.774  28.937  1.00  0.00     0.031 C 
ATOM     35  C   UNL A   1      37.325  33.721  32.950  1.00  0.00     0.029 A 
ATOM     36  N   UNL A   1      39.045  32.295  33.018  1.00  0.00    -0.354 N 
ATOM     37  C   UNL A   1      39.804  29.561  29.758  1.00  0.00     0.074 A 
ATOM     38  C   UNL A   1      38.853  29.752  28.685  1.00  0.00     0.031 C 
ATOM     39  C   UNL A   1      37.939  33.887  34.133  1.00  0.00     0.029 A 
ATOM     40  C   UNL A   1      39.054  32.949  34.226  1.00  0.00     0.049 A 
ATOM     41  H   UNL A   1      39.707  31.608  32.771  1.00  0.00     0.167 HD
ATOM     42  C   UNL A   1      40.822  28.668  29.725  1.00  0.00     0.037 A 
ATOM     43  C   UNL A   1      39.863  32.798  35.293  1.00  0.00     0.037 A 
ATOM     44  C   UNL A   1      41.782  28.491  30.784  1.00  0.00     0.049 A 
ATOM     45  C   UNL A   1      40.981  31.791  35.232  1.00  0.00     0.074 A 
ATOM     46  C   UNL A   1      42.861  27.628  30.835  1.00  0.00     0.029 A 
ATOM     47  N   UNL A   1      41.779  29.200  31.975  1.00  0.00    -0.354 N 
ATOM     48  N   UNL A   1      41.307  30.971  34.262  1.00  0.00    -0.248 NA
ATOM     49  C   UNL A   1      41.852  31.696  36.412  1.00  0.00     0.031 C 
ATOM     50  C   UNL A   1      43.494  27.791  32.071  1.00  0.00     0.029 A 
ATOM     51  C   UNL A   1      42.838  28.790  32.770  1.00  0.00     0.049 A 
ATOM     52  H   UNL A   1      41.124  29.893  32.221  1.00  0.00     0.167 HD
ATOM     53  C   UNL A   1      42.438  30.294  34.698  1.00  0.00     0.074 A 
ATOM     54  C   UNL A   1      42.751  30.806  36.015  1.00  0.00     0.031 C 
ATOM     55  C   UNL A   1      43.153  29.332  34.065  1.00  0.00     0.037 A 
BRANCH  42  56
ATOM     56  C   UNL A   1      40.966  27.821  28.494  1.00  0.00     0.064 A 
ATOM     57  C   UNL A   1      40.299  26.594  28.372  1.00  0.00     0.173 A 
ATOM     58  C   UNL A   1      41.729  28.264  27.403  1.00  0.00     0.173 A 
ATOM     59  F   UNL A   1      39.566  26.119  29.392  1.00  0.00    -0.203 F 
ATOM     60  C   UNL A   1      40.405  25.831  27.212  1.00  0.00     0.198 A 
ATOM     61  C   UNL A   1      41.809  27.514  26.233  1.00  0.00     0.198 A 
ATOM     62  F   UNL A   1      42.383  29.435  27.466  1.00  0.00    -0.203 F 
ATOM     63  F   UNL A   1      39.790  24.643  27.134  1.00  0.00    -0.200 F 
ATOM     64  C   UNL A   1      41.152  26.296  26.141  1.00  0.00     0.200 A 
ATOM     65  F   UNL A   1      42.520  27.971  25.193  1.00  0.00    -0.200 F 
ATOM     66  F   UNL A   1      41.242  25.569  25.019  1.00  0.00    -0.200 F 
ENDBRANCH  42  56
BRANCH  43  67
ATOM     67  C   UNL A   1      39.660  33.626  36.512  1.00  0.00     0.064 A 
ATOM     68  C   UNL A   1      38.861  33.170  37.570  1.00  0.00     0.173 A 
ATOM     69  C   UNL A   1      40.224  34.906  36.627  1.00  0.00     0.173 A 
ATOM     70  F   UNL A   1      38.282  31.962  37.499  1.00  0.00    -0.203 F 
ATOM     71  C   UNL A   1      38.604  33.975  38.679  1.00  0.00     0.198 A 
ATOM     72  C   UNL A   1      39.992  35.697  37.750  1.00  0.00     0.198 A 
ATOM     73  F   UNL A   1      41.000  35.388  35.646  1.00  0.00    -0.203 F 
ATOM     74  F   UNL A   1      37.784  33.538  39.644  1.00  0.00    -0.200 F 
ATOM     75  C   UNL A   1      39.172  35.236  38.769  1.00  0.00     0.200 A 
ATOM     76  F   UNL A   1      40.554  36.909  37.841  1.00  0.00    -0.200 F 
ATOM     77  F   UNL A   1      38.919  36.012  39.832  1.00  0.00    -0.200 F 
ENDBRANCH  43  67
BRANCH  55  78
ATOM     78  C   UNL A   1      44.378  28.813  34.760  1.00  0.00     0.064 A 
ATOM     79  C   UNL A   1      45.630  29.425  34.608  1.00  0.00     0.173 A 
ATOM     80  C   UNL A   1      44.286  27.711  35.624  1.00  0.00     0.173 A 
ATOM     81  F   UNL A   1      45.772  30.474  33.783  1.00  0.00    -0.203 F 
ATOM     82  C   UNL A   1      46.752  28.935  35.271  1.00  0.00     0.198 A 
ATOM     83  C   UNL A   1      45.402  27.242  36.310  1.00  0.00     0.198 A 
ATOM     84  F   UNL A   1      43.109  27.094  35.811  1.00  0.00    -0.203 F 
ATOM     85  F   UNL A   1      47.948  29.505  35.073  1.00  0.00    -0.200 F 
ATOM     86  C   UNL A   1      46.635  27.849  36.127  1.00  0.00     0.200 A 
ATOM     87  F   UNL A   1      45.286  26.202  37.147  1.00  0.00    -0.200 F 
ATOM     88  F   UNL A   1      47.715  27.384  36.770  1.00  0.00    -0.200 F 
ENDBRANCH  55  78
ENDBRANCH  29  30
ENDBRANCH  21  24
ENDBRANCH  19  20
ENDBRANCH  18  19
ENDBRANCH  17  18
ENDBRANCH   1  17
TORSDOF 15
ENDMDL
MODEL 3
REMARK VINA RESULT:     -10.2      7.888     13.286
REMARK SMILES O=C(CSc1ccc(Br)cn1)NCCCCCCNC(=O)c1ccc(-c2c3nc(c(-c4c(F)c(F)c(F)c(F)c4F)c4ccc([nH]4)c(-c4c(F)c(F)c(F)c(F)c4F)c4nc(c(-c5c(F)c(F)c(F)c(F)c5F)c5ccc2[nH]5)C=C4)C=C3)cc1
REMARK SMILES IDX 15 1 14 2 13 3 12 4 1 5 2 6 3 8 4 9 5 10 6 11 11 12 7 13
REMARK SMILES IDX 10 14 8 15 9 16 16 17 17 18 18 19 19 20 20 21 21 23 22 24
REMARK SMILES IDX 23 25 84 26 24 27 83 28 25 29 26 30 27 31 77 32 28 33 82 34
REMARK SMILES IDX 76 35 78 36 29 37 81 38 75 39 74 40 30 42 62 43 42 44 61 45
REMARK SMILES IDX 43 46 46 47 60 48 79 49 44 50 45 51 59 53 80 54 47 55 31 56
REMARK SMILES IDX 32 57 40 58 33 59 34 60 38 61 41 62 35 63 36 64 39 65 37 66
REMARK SMILES IDX 63 67 64 68 72 69 65 70 66 71 70 72 73 73 67 74 68 75 71 76
REMARK SMILES IDX 69 77 48 78 49 79 57 80 50 81 51 82 55 83 58 84 52 85 53 86
REMARK SMILES IDX 56 87 54 88
REMARK H PARENT 12 7 19 22 78 41 46 52
REMARK Flexibility Score: inf
ROOT
ATOM      1  C   UNL A   1      41.443  21.537  26.449  1.00  0.00     0.002 C 
ENDROOT
BRANCH   1   2
ATOM      2  C   UNL A   1      40.040  21.934  26.924  1.00  0.00     0.021 C 
BRANCH   2   3
ATOM      3  C   UNL A   1      39.041  22.224  25.805  1.00  0.00     0.116 C 
BRANCH   3   4
ATOM      4  N   UNL A   1      37.691  21.877  26.187  1.00  0.00    -0.355 N 
ATOM      5  O   UNL A   1      36.799  21.946  24.076  1.00  0.00    -0.274 OA
ATOM      6  C   UNL A   1      36.667  21.731  25.280  1.00  0.00     0.230 C 
ATOM      7  H   UNL A   1      37.495  21.740  27.142  1.00  0.00     0.163 HD
BRANCH   6   8
ATOM      8  C   UNL A   1      35.301  21.432  25.878  1.00  0.00     0.176 C 
BRANCH   8   9
ATOM      9  S   UNL A   1      33.983  21.186  24.648  1.00  0.00    -0.096 SA
BRANCH   9  10
ATOM     10  C   UNL A   1      33.718  19.444  24.871  1.00  0.00     0.097 A 
ATOM     11  C   UNL A   1      34.714  18.533  24.536  1.00  0.00     0.037 A 
ATOM     12  N   UNL A   1      32.504  19.070  25.328  1.00  0.00    -0.249 NA
ATOM     13  C   UNL A   1      34.459  17.171  24.691  1.00  0.00     0.020 A 
ATOM     14  C   UNL A   1      32.282  17.741  25.473  1.00  0.00     0.128 A 
ATOM     15  C   UNL A   1      33.218  16.767  25.169  1.00  0.00     0.036 A 
ATOM     16  Br  UNL A   1      32.819  14.938  25.384  1.00  0.00    -0.049 Br
ENDBRANCH   9  10
ENDBRANCH   8   9
ENDBRANCH   6   8
ENDBRANCH   3   4
ENDBRANCH   2   3
ENDBRANCH   1   2
BRANCH   1  17
ATOM     17  C   UNL A   1      42.226  20.615  27.391  1.00  0.00     0.002 C 
BRANCH  17  18
ATOM     18  C   UNL A   1      42.617  19.256  26.807  1.00  0.00     0.021 C 
BRANCH  18  19
ATOM     19  C   UNL A   1      42.536  19.154  25.287  1.00  0.00     0.116 C 
BRANCH  19  20
ATOM     20  N   UNL A   1      43.804  18.778  24.681  1.00  0.00    -0.352 N 
ATOM     21  C   UNL A   1      44.895  19.555  24.388  1.00  0.00     0.251 C 
ATOM     22  H   UNL A   1      43.892  17.826  24.446  1.00  0.00     0.163 HD
ATOM     23  O   UNL A   1      45.829  19.086  23.735  1.00  0.00    -0.269 OA
BRANCH  21  24
ATOM     24  C   UNL A   1      44.953  20.966  24.830  1.00  0.00     0.039 A 
ATOM     25  C   UNL A   1      45.482  21.259  26.090  1.00  0.00     0.014 A 
ATOM     26  C   UNL A   1      44.469  21.998  24.020  1.00  0.00     0.014 A 
ATOM     27  C   UNL A   1      45.577  22.586  26.516  1.00  0.00     0.010 A 
ATOM     28  C   UNL A   1      44.628  23.325  24.415  1.00  0.00     0.010 A 
ATOM     29  C   UNL A   1      45.177  23.633  25.670  1.00  0.00    -0.014 A 
BRANCH  29  30
ATOM     30  C   UNL A   1      45.303  25.054  26.088  1.00  0.00     0.031 A 
ATOM     31  C   UNL A   1      46.641  25.741  26.025  1.00  0.00     0.074 A 
ATOM     32  C   UNL A   1      44.232  25.710  26.575  1.00  0.00     0.049 A 
ATOM     33  N   UNL A   1      46.979  26.940  26.429  1.00  0.00    -0.248 NA
ATOM     34  C   UNL A   1      47.754  24.968  25.451  1.00  0.00     0.031 C 
ATOM     35  C   UNL A   1      42.889  25.147  26.723  1.00  0.00     0.029 A 
ATOM     36  N   UNL A   1      44.107  26.992  27.052  1.00  0.00    -0.354 N 
ATOM     37  C   UNL A   1      48.337  27.059  26.168  1.00  0.00     0.074 A 
ATOM     38  C   UNL A   1      48.776  25.793  25.623  1.00  0.00     0.031 C 
ATOM     39  C   UNL A   1      42.075  26.080  27.243  1.00  0.00     0.029 A 
ATOM     40  C   UNL A   1      42.843  27.294  27.499  1.00  0.00     0.049 A 
ATOM     41  H   UNL A   1      44.853  27.635  27.070  1.00  0.00     0.167 HD
ATOM     42  C   UNL A   1      49.141  28.135  26.341  1.00  0.00     0.037 A 
ATOM     43  C   UNL A   1      42.364  28.419  28.065  1.00  0.00     0.037 A 
ATOM     44  C   UNL A   1      48.701  29.402  26.864  1.00  0.00     0.049 A 
ATOM     45  C   UNL A   1      43.284  29.596  28.253  1.00  0.00     0.074 A 
ATOM     46  C   UNL A   1      49.435  30.559  27.057  1.00  0.00     0.029 A 
ATOM     47  N   UNL A   1      47.404  29.679  27.270  1.00  0.00    -0.354 N 
ATOM     48  N   UNL A   1      44.556  29.711  27.959  1.00  0.00    -0.248 NA
ATOM     49  C   UNL A   1      42.696  30.809  28.843  1.00  0.00     0.031 C 
ATOM     50  C   UNL A   1      48.591  31.527  27.610  1.00  0.00     0.029 A 
ATOM     51  C   UNL A   1      47.320  30.989  27.716  1.00  0.00     0.049 A 
ATOM     52  H   UNL A   1      46.655  29.041  27.245  1.00  0.00     0.167 HD
ATOM     53  C   UNL A   1      44.910  31.012  28.291  1.00  0.00     0.074 A 
ATOM     54  C   UNL A   1      43.716  31.654  28.797  1.00  0.00     0.031 C 
ATOM     55  C   UNL A   1      46.117  31.621  28.189  1.00  0.00     0.037 A 
BRANCH  42  56
ATOM     56  C   UNL A   1      50.582  27.999  25.942  1.00  0.00     0.064 A 
ATOM     57  C   UNL A   1      51.579  27.738  26.894  1.00  0.00     0.173 A 
ATOM     58  C   UNL A   1      50.964  28.071  24.595  1.00  0.00     0.173 A 
ATOM     59  F   UNL A   1      51.268  27.672  28.197  1.00  0.00    -0.203 F 
ATOM     60  C   UNL A   1      52.908  27.574  26.514  1.00  0.00     0.198 A 
ATOM     61  C   UNL A   1      52.289  27.876  24.214  1.00  0.00     0.198 A 
ATOM     62  F   UNL A   1      50.048  28.313  23.644  1.00  0.00    -0.203 F 
ATOM     63  F   UNL A   1      53.849  27.364  27.444  1.00  0.00    -0.200 F 
ATOM     64  C   UNL A   1      53.260  27.634  25.174  1.00  0.00     0.200 A 
ATOM     65  F   UNL A   1      52.626  27.921  22.918  1.00  0.00    -0.200 F 
ATOM     66  F   UNL A   1      54.537  27.461  24.807  1.00  0.00    -0.200 F 
ENDBRANCH  42  56
BRANCH  43  67
ATOM     67  C   UNL A   1      40.940  28.499  28.486  1.00  0.00     0.064 A 
ATOM     68  C   UNL A   1      39.957  28.995  27.619  1.00  0.00     0.173 A 
ATOM     69  C   UNL A   1      40.540  28.121  29.777  1.00  0.00     0.173 A 
ATOM     70  F   UNL A   1      40.293  29.389  26.382  1.00  0.00    -0.203 F 
ATOM     71  C   UNL A   1      38.635  29.144  28.037  1.00  0.00     0.198 A 
ATOM     72  C   UNL A   1      39.212  28.241  30.184  1.00  0.00     0.198 A 
ATOM     73  F   UNL A   1      41.439  27.636  30.644  1.00  0.00    -0.203 F 
ATOM     74  F   UNL A   1      37.730  29.683  27.208  1.00  0.00    -0.200 F 
ATOM     75  C   UNL A   1      38.263  28.765  29.318  1.00  0.00     0.200 A 
ATOM     76  F   UNL A   1      38.854  27.860  31.416  1.00  0.00    -0.200 F 
ATOM     77  F   UNL A   1      36.995  28.916  29.721  1.00  0.00    -0.200 F 
ENDBRANCH  43  67
BRANCH  55  78
ATOM     78  C   UNL A   1      46.193  33.070  28.573  1.00  0.00     0.064 A 
ATOM     79  C   UNL A   1      45.963  34.094  27.645  1.00  0.00     0.173 A 
ATOM     80  C   UNL A   1      46.462  33.433  29.901  1.00  0.00     0.173 A 
ATOM     81  F   UNL A   1      45.715  33.798  26.359  1.00  0.00    -0.203 F 
ATOM     82  C   UNL A   1      46.027  35.432  28.025  1.00  0.00     0.198 A 
ATOM     83  C   UNL A   1      46.495  34.771  30.285  1.00  0.00     0.198 A 
ATOM     84  F   UNL A   1      46.682  32.491  30.830  1.00  0.00    -0.203 F 
ATOM     85  F   UNL A   1      45.853  36.397  27.111  1.00  0.00    -0.200 F 
ATOM     86  C   UNL A   1      46.286  35.768  29.346  1.00  0.00     0.200 A 
ATOM     87  F   UNL A   1      46.731  35.094  31.565  1.00  0.00    -0.200 F 
ATOM     88  F   UNL A   1      46.340  37.057  29.712  1.00  0.00    -0.200 F 
ENDBRANCH  55  78
ENDBRANCH  29  30
ENDBRANCH  21  24
ENDBRANCH  19  20
ENDBRANCH  18  19
ENDBRANCH  17  18
ENDBRANCH   1  17
TORSDOF 15
ENDMDL
