MODEL 1
REMARK VINA RESULT:     -12.6      0.000      0.000
REMARK SMILES Cc1ccc(/C=C2/SC(=O)N(CC(=O)NCCCCCCNC(=O)c3ccc(-c4c5nc(c(-c6c(F)c(F)c(F)c(F)c6F)c6ccc([nH]6)c(-c6c(F)c(F)c(F)c(F)c6F)c6nc(c(-c7c(F)c(F)c(F)c(F)c7F)c7ccc4[nH]7)C=C6)C=C5)cc3)C2=O)cc1
REMARK SMILES IDX 18 1 17 2 16 3 15 4 13 5 14 6 12 8 11 9 6 10 7 11 8 12 88 13
REMARK SMILES IDX 9 14 89 15 10 16 5 17 1 18 2 19 3 20 91 21 4 22 90 23 19 24
REMARK SMILES IDX 20 25 21 26 22 27 23 28 24 30 25 31 26 32 87 33 27 34 86 35
REMARK SMILES IDX 28 36 29 37 30 38 80 39 31 40 85 41 79 42 81 43 32 44 84 45
REMARK SMILES IDX 78 46 77 47 33 49 65 50 45 51 64 52 46 53 49 54 63 55 82 56
REMARK SMILES IDX 47 57 48 58 62 60 83 61 50 62 34 63 35 64 43 65 36 66 37 67
REMARK SMILES IDX 41 68 44 69 38 70 39 71 42 72 40 73 66 74 67 75 75 76 68 77
REMARK SMILES IDX 69 78 73 79 76 80 70 81 71 82 74 83 72 84 51 85 52 86 60 87
REMARK SMILES IDX 53 88 54 89 58 90 61 91 55 92 56 93 59 94 57 95
REMARK H PARENT 15 7 22 29 81 48 49 59
REMARK Flexibility Score: inf
ROOT
ATOM      1  C   UNL A   1      35.031  23.424  26.132  1.00  0.00     0.002 C 
ENDROOT
BRANCH   1   2
ATOM      2  C   UNL A   1      34.656  22.366  27.181  1.00  0.00     0.021 C 
BRANCH   2   3
ATOM      3  C   UNL A   1      33.315  21.675  26.938  1.00  0.00     0.116 C 
BRANCH   3   4
ATOM      4  N   UNL A   1      32.207  22.460  27.427  1.00  0.00    -0.355 N 
ATOM      5  C   UNL A   1      31.056  22.830  26.795  1.00  0.00     0.240 C 
ATOM      6  O   UNL A   1      30.132  23.234  27.504  1.00  0.00    -0.273 OA
ATOM      7  H   UNL A   1      32.294  22.775  28.355  1.00  0.00     0.163 HD
BRANCH   5   8
ATOM      8  C   UNL A   1      30.863  22.607  25.291  1.00  0.00     0.229 C 
BRANCH   8   9
ATOM      9  N   UNL A   1      31.812  23.351  24.483  1.00  0.00    -0.259 N 
ATOM     10  C   UNL A   1      33.383  26.521  23.631  1.00  0.00     0.029 C 
ATOM     11  C   UNL A   1      32.940  25.257  23.695  1.00  0.00     0.083 C 
ATOM     12  S   UNL A   1      33.579  23.978  22.729  1.00  0.00    -0.022 SA
ATOM     13  C   UNL A   1      31.868  24.719  24.584  1.00  0.00     0.268 C 
ATOM     14  C   UNL A   1      32.552  22.774  23.488  1.00  0.00     0.294 C 
ATOM     15  O   UNL A   1      31.129  25.385  25.293  1.00  0.00    -0.268 OA
ATOM     16  O   UNL A   1      32.544  21.609  23.145  1.00  0.00    -0.261 OA
BRANCH  10  17
ATOM     17  C   UNL A   1      32.850  27.598  24.466  1.00  0.00    -0.024 A 
ATOM     18  C   UNL A   1      31.740  31.125  26.666  1.00  0.00     0.044 C 
ATOM     19  C   UNL A   1      32.074  29.864  25.926  1.00  0.00    -0.051 A 
ATOM     20  C   UNL A   1      33.057  29.001  26.426  1.00  0.00     0.004 A 
ATOM     21  C   UNL A   1      31.441  29.553  24.718  1.00  0.00     0.004 A 
ATOM     22  C   UNL A   1      33.445  27.873  25.700  1.00  0.00     0.008 A 
ATOM     23  C   UNL A   1      31.820  28.420  23.996  1.00  0.00     0.008 A 
ENDBRANCH  10  17
ENDBRANCH   8   9
ENDBRANCH   5   8
ENDBRANCH   3   4
ENDBRANCH   2   3
ENDBRANCH   1   2
BRANCH   1  24
ATOM     24  C   UNL A   1      36.515  23.492  25.736  1.00  0.00     0.002 C 
BRANCH  24  25
ATOM     25  C   UNL A   1      37.330  22.227  25.990  1.00  0.00     0.021 C 
BRANCH  25  26
ATOM     26  C   UNL A   1      38.700  22.224  25.337  1.00  0.00     0.116 C 
BRANCH  26  27
ATOM     27  N   UNL A   1      39.797  22.170  26.298  1.00  0.00    -0.352 N 
ATOM     28  C   UNL A   1      40.429  23.191  26.990  1.00  0.00     0.251 C 
ATOM     29  H   UNL A   1      40.143  21.268  26.485  1.00  0.00     0.163 HD
ATOM     30  O   UNL A   1      41.413  22.956  27.684  1.00  0.00    -0.269 OA
BRANCH  28  31
ATOM     31  C   UNL A   1      39.788  24.524  27.053  1.00  0.00     0.039 A 
ATOM     32  C   UNL A   1      40.427  25.536  26.323  1.00  0.00     0.014 A 
ATOM     33  C   UNL A   1      38.948  24.833  28.112  1.00  0.00     0.014 A 
ATOM     34  C   UNL A   1      40.522  26.799  26.880  1.00  0.00     0.010 A 
ATOM     35  C   UNL A   1      39.163  26.028  28.746  1.00  0.00     0.010 A 
ATOM     36  C   UNL A   1      40.022  26.964  28.163  1.00  0.00    -0.014 A 
BRANCH  36  37
ATOM     37  C   UNL A   1      40.299  28.107  29.000  1.00  0.00     0.031 A 
ATOM     38  C   UNL A   1      39.361  29.230  28.900  1.00  0.00     0.074 A 
ATOM     39  C   UNL A   1      41.256  27.978  29.943  1.00  0.00     0.049 A 
ATOM     40  N   UNL A   1      39.575  30.402  29.368  1.00  0.00    -0.248 NA
ATOM     41  C   UNL A   1      38.091  29.121  28.183  1.00  0.00     0.031 C 
ATOM     42  C   UNL A   1      41.512  28.809  31.114  1.00  0.00     0.029 A 
ATOM     43  N   UNL A   1      42.358  27.104  29.899  1.00  0.00    -0.354 N 
ATOM     44  C   UNL A   1      38.379  31.084  29.318  1.00  0.00     0.074 A 
ATOM     45  C   UNL A   1      37.544  30.308  28.444  1.00  0.00     0.031 C 
ATOM     46  C   UNL A   1      42.796  28.650  31.486  1.00  0.00     0.029 A 
ATOM     47  C   UNL A   1      43.432  27.834  30.462  1.00  0.00     0.049 A 
ATOM     48  H   UNL A   1      42.379  26.183  29.553  1.00  0.00     0.167 HD
ATOM     49  C   UNL A   1      38.218  32.125  30.182  1.00  0.00     0.037 A 
ATOM     50  C   UNL A   1      44.456  28.256  29.659  1.00  0.00     0.037 A 
ATOM     51  C   UNL A   1      39.520  32.461  30.770  1.00  0.00     0.049 A 
ATOM     52  C   UNL A   1      44.515  29.766  29.574  1.00  0.00     0.074 A 
ATOM     53  C   UNL A   1      40.106  32.144  31.984  1.00  0.00     0.029 A 
ATOM     54  N   UNL A   1      40.558  32.857  29.924  1.00  0.00    -0.354 N 
ATOM     55  N   UNL A   1      43.476  30.548  29.709  1.00  0.00    -0.248 NA
ATOM     56  C   UNL A   1      45.760  30.501  29.389  1.00  0.00     0.031 C 
ATOM     57  C   UNL A   1      41.517  32.227  31.816  1.00  0.00     0.029 A 
ATOM     58  C   UNL A   1      41.787  32.634  30.517  1.00  0.00     0.049 A 
ATOM     59  H   UNL A   1      40.431  33.243  29.027  1.00  0.00     0.167 HD
ATOM     60  C   UNL A   1      43.887  31.854  29.664  1.00  0.00     0.074 A 
ATOM     61  C   UNL A   1      45.324  31.770  29.464  1.00  0.00     0.031 C 
ATOM     62  C   UNL A   1      43.032  32.913  29.809  1.00  0.00     0.037 A 
BRANCH  49  63
ATOM     63  C   UNL A   1      36.890  32.640  30.716  1.00  0.00     0.064 A 
ATOM     64  C   UNL A   1      36.129  33.540  29.934  1.00  0.00     0.173 A 
ATOM     65  C   UNL A   1      36.357  32.407  32.003  1.00  0.00     0.173 A 
ATOM     66  F   UNL A   1      36.482  33.837  28.676  1.00  0.00    -0.203 F 
ATOM     67  C   UNL A   1      34.986  34.188  30.419  1.00  0.00     0.198 A 
ATOM     68  C   UNL A   1      35.208  33.045  32.482  1.00  0.00     0.198 A 
ATOM     69  F   UNL A   1      36.915  31.568  32.874  1.00  0.00    -0.203 F 
ATOM     70  F   UNL A   1      34.339  35.066  29.640  1.00  0.00    -0.200 F 
ATOM     71  C   UNL A   1      34.529  33.946  31.697  1.00  0.00     0.200 A 
ATOM     72  F   UNL A   1      34.780  32.785  33.727  1.00  0.00    -0.200 F 
ATOM     73  F   UNL A   1      33.445  34.575  32.169  1.00  0.00    -0.200 F 
ENDBRANCH  49  63
BRANCH  50  74
ATOM     74  C   UNL A   1      44.721  27.300  28.539  1.00  0.00     0.064 A 
ATOM     75  C   UNL A   1      45.084  25.980  28.889  1.00  0.00     0.173 A 
ATOM     76  C   UNL A   1      44.214  27.504  27.251  1.00  0.00     0.173 A 
ATOM     77  F   UNL A   1      45.600  25.729  30.105  1.00  0.00    -0.203 F 
ATOM     78  C   UNL A   1      44.772  24.898  28.070  1.00  0.00     0.198 A 
ATOM     79  C   UNL A   1      43.947  26.417  26.411  1.00  0.00     0.198 A 
ATOM     80  F   UNL A   1      43.860  28.730  26.845  1.00  0.00    -0.203 F 
ATOM     81  F   UNL A   1      44.962  23.647  28.513  1.00  0.00    -0.200 F 
ATOM     82  C   UNL A   1      44.173  25.116  26.843  1.00  0.00     0.200 A 
ATOM     83  F   UNL A   1      43.359  26.622  25.224  1.00  0.00    -0.200 F 
ATOM     84  F   UNL A   1      43.771  24.077  26.098  1.00  0.00    -0.200 F 
ENDBRANCH  50  74
BRANCH  62  85
ATOM     85  C   UNL A   1      43.354  34.336  29.405  1.00  0.00     0.064 A 
ATOM     86  C   UNL A   1      43.538  35.384  30.323  1.00  0.00     0.173 A 
ATOM     87  C   UNL A   1      43.625  34.666  28.055  1.00  0.00     0.173 A 
ATOM     88  F   UNL A   1      43.492  35.176  31.646  1.00  0.00    -0.203 F 
ATOM     89  C   UNL A   1      43.841  36.685  29.916  1.00  0.00     0.198 A 
ATOM     90  C   UNL A   1      44.010  35.946  27.660  1.00  0.00     0.198 A 
ATOM     91  F   UNL A   1      43.559  33.752  27.076  1.00  0.00    -0.203 F 
ATOM     92  F   UNL A   1      43.922  37.661  30.830  1.00  0.00    -0.200 F 
ATOM     93  C   UNL A   1      44.084  36.965  28.586  1.00  0.00     0.200 A 
ATOM     94  F   UNL A   1      44.325  36.180  26.379  1.00  0.00    -0.200 F 
ATOM     95  F   UNL A   1      44.414  38.204  28.203  1.00  0.00    -0.200 F 
ENDBRANCH  62  85
ENDBRANCH  36  37
ENDBRANCH  28  31
ENDBRANCH  26  27
ENDBRANCH  25  26
ENDBRANCH  24  25
ENDBRANCH   1  24
TORSDOF 15
ENDMDL
MODEL 2
REMARK VINA RESULT:     -12.4      1.374      1.890
REMARK SMILES Cc1ccc(/C=C2/SC(=O)N(CC(=O)NCCCCCCNC(=O)c3ccc(-c4c5nc(c(-c6c(F)c(F)c(F)c(F)c6F)c6ccc([nH]6)c(-c6c(F)c(F)c(F)c(F)c6F)c6nc(c(-c7c(F)c(F)c(F)c(F)c7F)c7ccc4[nH]7)C=C6)C=C5)cc3)C2=O)cc1
REMARK SMILES IDX 18 1 17 2 16 3 15 4 13 5 14 6 12 8 11 9 6 10 7 11 8 12 88 13
REMARK SMILES IDX 9 14 89 15 10 16 5 17 1 18 2 19 3 20 91 21 4 22 90 23 19 24
REMARK SMILES IDX 20 25 21 26 22 27 23 28 24 30 25 31 26 32 87 33 27 34 86 35
REMARK SMILES IDX 28 36 29 37 30 38 80 39 31 40 85 41 79 42 81 43 32 44 84 45
REMARK SMILES IDX 78 46 77 47 33 49 65 50 45 51 64 52 46 53 49 54 63 55 82 56
REMARK SMILES IDX 47 57 48 58 62 60 83 61 50 62 34 63 35 64 43 65 36 66 37 67
REMARK SMILES IDX 41 68 44 69 38 70 39 71 42 72 40 73 66 74 67 75 75 76 68 77
REMARK SMILES IDX 69 78 73 79 76 80 70 81 71 82 74 83 72 84 51 85 52 86 60 87
REMARK SMILES IDX 53 88 54 89 58 90 61 91 55 92 56 93 59 94 57 95
REMARK H PARENT 15 7 22 29 81 48 49 59
REMARK Flexibility Score: inf
ROOT
ATOM      1  C   UNL A   1      36.983  22.275  24.013  1.00  0.00     0.002 C 
ENDROOT
BRANCH   1   2
ATOM      2  C   UNL A   1      35.475  22.533  23.873  1.00  0.00     0.021 C 
BRANCH   2   3
ATOM      3  C   UNL A   1      34.725  22.666  25.198  1.00  0.00     0.116 C 
BRANCH   3   4
ATOM      4  N   UNL A   1      33.708  21.653  25.347  1.00  0.00    -0.355 N 
ATOM      5  C   UNL A   1      32.365  21.789  25.537  1.00  0.00     0.240 C 
ATOM      6  O   UNL A   1      31.666  20.795  25.331  1.00  0.00    -0.273 OA
ATOM      7  H   UNL A   1      34.033  20.725  25.306  1.00  0.00     0.163 HD
BRANCH   5   8
ATOM      8  C   UNL A   1      31.735  23.154  25.837  1.00  0.00     0.229 C 
BRANCH   8   9
ATOM      9  N   UNL A   1      31.929  24.114  24.766  1.00  0.00    -0.259 N 
ATOM     10  C   UNL A   1      32.668  27.518  23.713  1.00  0.00     0.029 C 
ATOM     11  C   UNL A   1      32.323  26.226  23.812  1.00  0.00     0.083 C 
ATOM     12  S   UNL A   1      32.086  25.200  22.445  1.00  0.00    -0.022 SA
ATOM     13  C   UNL A   1      32.103  25.442  25.064  1.00  0.00     0.268 C 
ATOM     14  C   UNL A   1      31.780  23.790  23.445  1.00  0.00     0.294 C 
ATOM     15  O   UNL A   1      32.064  25.902  26.195  1.00  0.00    -0.268 OA
ATOM     16  O   UNL A   1      31.489  22.707  22.981  1.00  0.00    -0.261 OA
BRANCH  10  17
ATOM     17  C   UNL A   1      32.886  28.378  24.876  1.00  0.00    -0.024 A 
ATOM     18  C   UNL A   1      33.796  31.314  27.888  1.00  0.00     0.044 C 
ATOM     19  C   UNL A   1      33.448  30.253  26.886  1.00  0.00    -0.051 A 
ATOM     20  C   UNL A   1      34.398  29.289  26.531  1.00  0.00     0.004 A 
ATOM     21  C   UNL A   1      32.193  30.237  26.268  1.00  0.00     0.004 A 
ATOM     22  C   UNL A   1      34.120  28.356  25.530  1.00  0.00     0.008 A 
ATOM     23  C   UNL A   1      31.909  29.297  25.276  1.00  0.00     0.008 A 
ENDBRANCH  10  17
ENDBRANCH   8   9
ENDBRANCH   5   8
ENDBRANCH   3   4
ENDBRANCH   2   3
ENDBRANCH   1   2
BRANCH   1  24
ATOM     24  C   UNL A   1      37.400  21.248  25.078  1.00  0.00     0.002 C 
BRANCH  24  25
ATOM     25  C   UNL A   1      38.756  21.487  25.737  1.00  0.00     0.021 C 
BRANCH  25  26
ATOM     26  C   UNL A   1      38.953  22.895  26.271  1.00  0.00     0.116 C 
BRANCH  26  27
ATOM     27  N   UNL A   1      40.202  23.063  27.008  1.00  0.00    -0.352 N 
ATOM     28  C   UNL A   1      40.817  24.215  27.470  1.00  0.00     0.251 C 
ATOM     29  H   UNL A   1      40.682  22.228  27.208  1.00  0.00     0.163 HD
ATOM     30  O   UNL A   1      41.930  24.162  27.983  1.00  0.00    -0.269 OA
BRANCH  28  31
ATOM     31  C   UNL A   1      40.041  25.475  27.530  1.00  0.00     0.039 A 
ATOM     32  C   UNL A   1      40.505  26.509  26.705  1.00  0.00     0.014 A 
ATOM     33  C   UNL A   1      39.258  25.746  28.642  1.00  0.00     0.014 A 
ATOM     34  C   UNL A   1      40.504  27.803  27.197  1.00  0.00     0.010 A 
ATOM     35  C   UNL A   1      39.391  26.989  29.203  1.00  0.00     0.010 A 
ATOM     36  C   UNL A   1      40.092  27.980  28.510  1.00  0.00    -0.014 A 
BRANCH  36  37
ATOM     37  C   UNL A   1      40.308  29.188  29.271  1.00  0.00     0.031 A 
ATOM     38  C   UNL A   1      39.239  30.190  29.217  1.00  0.00     0.074 A 
ATOM     39  C   UNL A   1      41.356  29.216  30.121  1.00  0.00     0.049 A 
ATOM     40  N   UNL A   1      39.355  31.401  29.616  1.00  0.00    -0.248 NA
ATOM     41  C   UNL A   1      37.930  29.901  28.630  1.00  0.00     0.031 C 
ATOM     42  C   UNL A   1      41.617  30.129  31.228  1.00  0.00     0.029 A 
ATOM     43  N   UNL A   1      42.544  28.472  30.006  1.00  0.00    -0.354 N 
ATOM     44  C   UNL A   1      38.087  31.939  29.654  1.00  0.00     0.074 A 
ATOM     45  C   UNL A   1      37.273  31.029  28.896  1.00  0.00     0.031 C 
ATOM     46  C   UNL A   1      42.939  30.136  31.481  1.00  0.00     0.029 A 
ATOM     47  C   UNL A   1      43.571  29.347  30.433  1.00  0.00     0.049 A 
ATOM     48  H   UNL A   1      42.641  27.543  29.696  1.00  0.00     0.167 HD
ATOM     49  C   UNL A   1      37.883  32.997  30.487  1.00  0.00     0.037 A 
ATOM     50  C   UNL A   1      44.460  29.842  29.520  1.00  0.00     0.037 A 
ATOM     51  C   UNL A   1      39.185  33.509  30.934  1.00  0.00     0.049 A 
ATOM     52  C   UNL A   1      44.333  31.342  29.370  1.00  0.00     0.074 A 
ATOM     53  C   UNL A   1      39.912  33.322  32.098  1.00  0.00     0.029 A 
ATOM     54  N   UNL A   1      40.087  33.977  29.977  1.00  0.00    -0.354 N 
ATOM     55  N   UNL A   1      43.225  32.006  29.574  1.00  0.00    -0.248 NA
ATOM     56  C   UNL A   1      45.460  32.204  29.037  1.00  0.00     0.031 C 
ATOM     57  C   UNL A   1      41.282  33.556  31.791  1.00  0.00     0.029 A 
ATOM     58  C   UNL A   1      41.383  33.925  30.458  1.00  0.00     0.049 A 
ATOM     59  H   UNL A   1      39.835  34.299  29.081  1.00  0.00     0.167 HD
ATOM     60  C   UNL A   1      43.474  33.347  29.437  1.00  0.00     0.074 A 
ATOM     61  C   UNL A   1      44.886  33.417  29.104  1.00  0.00     0.031 C 
ATOM     62  C   UNL A   1      42.516  34.308  29.622  1.00  0.00     0.037 A 
BRANCH  49  63
ATOM     63  C   UNL A   1      36.558  33.383  31.126  1.00  0.00     0.064 A 
ATOM     64  C   UNL A   1      35.575  34.036  30.346  1.00  0.00     0.173 A 
ATOM     65  C   UNL A   1      36.221  33.268  32.493  1.00  0.00     0.173 A 
ATOM     66  F   UNL A   1      35.729  34.193  29.024  1.00  0.00    -0.203 F 
ATOM     67  C   UNL A   1      34.404  34.573  30.894  1.00  0.00     0.198 A 
ATOM     68  C   UNL A   1      35.044  33.794  33.037  1.00  0.00     0.198 A 
ATOM     69  F   UNL A   1      37.005  32.658  33.381  1.00  0.00    -0.203 F 
ATOM     70  F   UNL A   1      33.536  35.220  30.104  1.00  0.00    -0.200 F 
ATOM     71  C   UNL A   1      34.141  34.458  32.242  1.00  0.00     0.200 A 
ATOM     72  F   UNL A   1      34.809  33.660  34.352  1.00  0.00    -0.200 F 
ATOM     73  F   UNL A   1      33.028  34.983  32.772  1.00  0.00    -0.200 F 
ENDBRANCH  49  63
BRANCH  50  74
ATOM     74  C   UNL A   1      44.734  28.867  28.418  1.00  0.00     0.064 A 
ATOM     75  C   UNL A   1      45.271  27.612  28.785  1.00  0.00     0.173 A 
ATOM     76  C   UNL A   1      44.098  28.951  27.175  1.00  0.00     0.173 A 
ATOM     77  F   UNL A   1      45.915  27.478  29.957  1.00  0.00    -0.203 F 
ATOM     78  C   UNL A   1      45.013  26.464  28.039  1.00  0.00     0.198 A 
ATOM     79  C   UNL A   1      43.883  27.803  26.405  1.00  0.00     0.198 A 
ATOM     80  F   UNL A   1      43.574  30.111  26.755  1.00  0.00    -0.203 F 
ATOM     81  F   UNL A   1      45.380  25.264  28.512  1.00  0.00    -0.200 F 
ATOM     82  C   UNL A   1      44.290  26.556  26.865  1.00  0.00     0.200 A 
ATOM     83  F   UNL A   1      43.174  27.885  25.270  1.00  0.00    -0.200 F 
ATOM     84  F   UNL A   1      43.944  25.445  26.200  1.00  0.00    -0.200 F 
ENDBRANCH  50  74
BRANCH  62  85
ATOM     85  C   UNL A   1      42.630  35.735  29.133  1.00  0.00     0.064 A 
ATOM     86  C   UNL A   1      41.935  36.236  28.019  1.00  0.00     0.173 A 
ATOM     87  C   UNL A   1      43.357  36.702  29.870  1.00  0.00     0.173 A 
ATOM     88  F   UNL A   1      41.066  35.481  27.334  1.00  0.00    -0.203 F 
ATOM     89  C   UNL A   1      42.059  37.563  27.600  1.00  0.00     0.198 A 
ATOM     90  C   UNL A   1      43.411  38.043  29.497  1.00  0.00     0.198 A 
ATOM     91  F   UNL A   1      44.013  36.386  30.996  1.00  0.00    -0.203 F 
ATOM     92  F   UNL A   1      41.438  37.963  26.481  1.00  0.00    -0.200 F 
ATOM     93  C   UNL A   1      42.791  38.468  28.342  1.00  0.00     0.200 A 
ATOM     94  F   UNL A   1      44.054  38.924  30.276  1.00  0.00    -0.200 F 
ATOM     95  F   UNL A   1      42.875  39.748  27.960  1.00  0.00    -0.200 F 
ENDBRANCH  62  85
ENDBRANCH  36  37
ENDBRANCH  28  31
ENDBRANCH  26  27
ENDBRANCH  25  26
ENDBRANCH  24  25
ENDBRANCH   1  24
TORSDOF 15
ENDMDL
MODEL 3
REMARK VINA RESULT:     -12.1      1.908      2.769
REMARK SMILES Cc1ccc(/C=C2/SC(=O)N(CC(=O)NCCCCCCNC(=O)c3ccc(-c4c5nc(c(-c6c(F)c(F)c(F)c(F)c6F)c6ccc([nH]6)c(-c6c(F)c(F)c(F)c(F)c6F)c6nc(c(-c7c(F)c(F)c(F)c(F)c7F)c7ccc4[nH]7)C=C6)C=C5)cc3)C2=O)cc1
REMARK SMILES IDX 18 1 17 2 16 3 15 4 13 5 14 6 12 8 11 9 6 10 7 11 8 12 88 13
REMARK SMILES IDX 9 14 89 15 10 16 5 17 1 18 2 19 3 20 91 21 4 22 90 23 19 24
REMARK SMILES IDX 20 25 21 26 22 27 23 28 24 30 25 31 26 32 87 33 27 34 86 35
REMARK SMILES IDX 28 36 29 37 30 38 80 39 31 40 85 41 79 42 81 43 32 44 84 45
REMARK SMILES IDX 78 46 77 47 33 49 65 50 45 51 64 52 46 53 49 54 63 55 82 56
REMARK SMILES IDX 47 57 48 58 62 60 83 61 50 62 34 63 35 64 43 65 36 66 37 67
REMARK SMILES IDX 41 68 44 69 38 70 39 71 42 72 40 73 66 74 67 75 75 76 68 77
REMARK SMILES IDX 69 78 73 79 76 80 70 81 71 82 74 83 72 84 51 85 52 86 60 87
REMARK SMILES IDX 53 88 54 89 58 90 61 91 55 92 56 93 59 94 57 95
REMARK H PARENT 15 7 22 29 81 48 49 59
REMARK Flexibility Score: inf
ROOT
ATOM      1  C   UNL A   1      35.346  22.606  24.221  1.00  0.00     0.002 C 
ENDROOT
BRANCH   1   2
ATOM      2  C   UNL A   1      34.430  22.845  23.011  1.00  0.00     0.021 C 
BRANCH   2   3
ATOM      3  C   UNL A   1      33.486  24.039  23.152  1.00  0.00     0.116 C 
BRANCH   3   4
ATOM      4  N   UNL A   1      33.932  25.174  22.381  1.00  0.00    -0.355 N 
ATOM      5  C   UNL A   1      33.257  26.304  22.026  1.00  0.00     0.240 C 
ATOM      6  O   UNL A   1      33.930  27.260  21.633  1.00  0.00    -0.273 OA
ATOM      7  H   UNL A   1      34.862  25.126  22.064  1.00  0.00     0.163 HD
BRANCH   5   8
ATOM      8  C   UNL A   1      31.747  26.438  22.253  1.00  0.00     0.229 C 
BRANCH   8   9
ATOM      9  N   UNL A   1      31.376  26.344  23.654  1.00  0.00    -0.259 N 
ATOM     10  C   UNL A   1      31.627  27.633  27.047  1.00  0.00     0.029 C 
ATOM     11  C   UNL A   1      31.402  26.924  25.931  1.00  0.00     0.083 C 
ATOM     12  S   UNL A   1      30.358  25.552  25.873  1.00  0.00    -0.022 SA
ATOM     13  C   UNL A   1      31.967  27.176  24.572  1.00  0.00     0.268 C 
ATOM     14  C   UNL A   1      30.582  25.344  24.145  1.00  0.00     0.294 C 
ATOM     15  O   UNL A   1      32.839  27.987  24.302  1.00  0.00    -0.268 OA
ATOM     16  O   UNL A   1      30.078  24.432  23.523  1.00  0.00    -0.261 OA
BRANCH  10  17
ATOM     17  C   UNL A   1      32.499  28.807  27.086  1.00  0.00    -0.024 A 
ATOM     18  C   UNL A   1      34.909  32.296  27.817  1.00  0.00     0.044 C 
ATOM     19  C   UNL A   1      34.092  31.079  27.499  1.00  0.00    -0.051 A 
ATOM     20  C   UNL A   1      32.739  31.213  27.167  1.00  0.00     0.004 A 
ATOM     21  C   UNL A   1      34.656  29.801  27.567  1.00  0.00     0.004 A 
ATOM     22  C   UNL A   1      31.944  30.083  26.962  1.00  0.00     0.008 A 
ATOM     23  C   UNL A   1      33.866  28.670  27.351  1.00  0.00     0.008 A 
ENDBRANCH  10  17
ENDBRANCH   8   9
ENDBRANCH   5   8
ENDBRANCH   3   4
ENDBRANCH   2   3
ENDBRANCH   1   2
BRANCH   1  24
ATOM     24  C   UNL A   1      36.850  22.820  23.987  1.00  0.00     0.002 C 
BRANCH  24  25
ATOM     25  C   UNL A   1      37.771  22.340  25.106  1.00  0.00     0.021 C 
BRANCH  25  26
ATOM     26  C   UNL A   1      37.955  23.338  26.236  1.00  0.00     0.116 C 
BRANCH  26  27
ATOM     27  N   UNL A   1      39.289  23.300  26.827  1.00  0.00    -0.352 N 
ATOM     28  C   UNL A   1      40.058  24.321  27.361  1.00  0.00     0.251 C 
ATOM     29  H   UNL A   1      39.708  22.410  26.851  1.00  0.00     0.163 HD
ATOM     30  O   UNL A   1      41.212  24.108  27.719  1.00  0.00    -0.269 OA
BRANCH  28  31
ATOM     31  C   UNL A   1      39.416  25.615  27.687  1.00  0.00     0.039 A 
ATOM     32  C   UNL A   1      39.728  26.677  26.827  1.00  0.00     0.014 A 
ATOM     33  C   UNL A   1      38.964  25.851  28.976  1.00  0.00     0.014 A 
ATOM     34  C   UNL A   1      39.945  27.931  27.372  1.00  0.00     0.010 A 
ATOM     35  C   UNL A   1      39.323  27.041  29.550  1.00  0.00     0.010 A 
ATOM     36  C   UNL A   1      39.895  28.038  28.754  1.00  0.00    -0.014 A 
BRANCH  36  37
ATOM     37  C   UNL A   1      40.383  29.175  29.497  1.00  0.00     0.031 A 
ATOM     38  C   UNL A   1      39.410  30.234  29.781  1.00  0.00     0.074 A 
ATOM     39  C   UNL A   1      41.615  29.086  30.044  1.00  0.00     0.049 A 
ATOM     40  N   UNL A   1      39.709  31.405  30.202  1.00  0.00    -0.248 NA
ATOM     41  C   UNL A   1      37.977  30.057  29.543  1.00  0.00     0.031 C 
ATOM     42  C   UNL A   1      42.216  29.903  31.092  1.00  0.00     0.029 A 
ATOM     43  N   UNL A   1      42.678  28.291  29.580  1.00  0.00    -0.354 N 
ATOM     44  C   UNL A   1      38.535  32.006  30.600  1.00  0.00     0.074 A 
ATOM     45  C   UNL A   1      37.491  31.197  30.033  1.00  0.00     0.031 C 
ATOM     46  C   UNL A   1      43.556  29.822  30.989  1.00  0.00     0.029 A 
ATOM     47  C   UNL A   1      43.839  29.077  29.771  1.00  0.00     0.049 A 
ATOM     48  H   UNL A   1      42.627  27.383  29.204  1.00  0.00     0.167 HD
ATOM     49  C   UNL A   1      38.627  33.011  31.515  1.00  0.00     0.037 A 
ATOM     50  C   UNL A   1      44.495  29.588  28.685  1.00  0.00     0.037 A 
ATOM     51  C   UNL A   1      40.033  33.419  31.632  1.00  0.00     0.049 A 
ATOM     52  C   UNL A   1      44.438  31.100  28.657  1.00  0.00     0.074 A 
ATOM     53  C   UNL A   1      41.021  33.111  32.553  1.00  0.00     0.029 A 
ATOM     54  N   UNL A   1      40.687  33.906  30.500  1.00  0.00    -0.354 N 
ATOM     55  N   UNL A   1      43.470  31.806  29.180  1.00  0.00    -0.248 NA
ATOM     56  C   UNL A   1      45.499  31.922  28.088  1.00  0.00     0.031 C 
ATOM     57  C   UNL A   1      42.278  33.294  31.911  1.00  0.00     0.029 A 
ATOM     58  C   UNL A   1      42.057  33.752  30.621  1.00  0.00     0.049 A 
ATOM     59  H   UNL A   1      40.236  34.305  29.721  1.00  0.00     0.167 HD
ATOM     60  C   UNL A   1      43.768  33.138  29.058  1.00  0.00     0.074 A 
ATOM     61  C   UNL A   1      45.048  33.156  28.370  1.00  0.00     0.031 C 
ATOM     62  C   UNL A   1      42.960  34.132  29.539  1.00  0.00     0.037 A 
BRANCH  49  63
ATOM     63  C   UNL A   1      37.542  33.420  32.499  1.00  0.00     0.064 A 
ATOM     64  C   UNL A   1      36.426  34.154  32.036  1.00  0.00     0.173 A 
ATOM     65  C   UNL A   1      37.573  33.249  33.901  1.00  0.00     0.173 A 
ATOM     66  F   UNL A   1      36.232  34.372  30.728  1.00  0.00    -0.203 F 
ATOM     67  C   UNL A   1      35.473  34.712  32.897  1.00  0.00     0.198 A 
ATOM     68  C   UNL A   1      36.614  33.796  34.760  1.00  0.00     0.198 A 
ATOM     69  F   UNL A   1      38.529  32.561  34.523  1.00  0.00    -0.203 F 
ATOM     70  F   UNL A   1      34.464  35.436  32.393  1.00  0.00    -0.200 F 
ATOM     71  C   UNL A   1      35.571  34.539  34.261  1.00  0.00     0.200 A 
ATOM     72  F   UNL A   1      36.728  33.605  36.083  1.00  0.00    -0.200 F 
ATOM     73  F   UNL A   1      34.669  35.083  35.089  1.00  0.00    -0.200 F 
ENDBRANCH  49  63
BRANCH  50  74
ATOM     74  C   UNL A   1      44.406  28.681  27.498  1.00  0.00     0.064 A 
ATOM     75  C   UNL A   1      44.970  27.392  27.627  1.00  0.00     0.173 A 
ATOM     76  C   UNL A   1      43.451  28.864  26.492  1.00  0.00     0.173 A 
ATOM     77  F   UNL A   1      45.911  27.164  28.560  1.00  0.00    -0.203 F 
ATOM     78  C   UNL A   1      44.464  26.302  26.922  1.00  0.00     0.198 A 
ATOM     79  C   UNL A   1      42.979  27.775  25.752  1.00  0.00     0.198 A 
ATOM     80  F   UNL A   1      42.881  30.062  26.303  1.00  0.00    -0.203 F 
ATOM     81  F   UNL A   1      44.896  25.065  27.203  1.00  0.00    -0.200 F 
ATOM     82  C   UNL A   1      43.445  26.490  26.007  1.00  0.00     0.200 A 
ATOM     83  F   UNL A   1      41.985  27.950  24.869  1.00  0.00    -0.200 F 
ATOM     84  F   UNL A   1      42.878  25.434  25.406  1.00  0.00    -0.200 F 
ENDBRANCH  50  74
BRANCH  62  85
ATOM     85  C   UNL A   1      43.043  35.583  29.118  1.00  0.00     0.064 A 
ATOM     86  C   UNL A   1      42.264  36.143  28.090  1.00  0.00     0.173 A 
ATOM     87  C   UNL A   1      43.833  36.508  29.843  1.00  0.00     0.173 A 
ATOM     88  F   UNL A   1      41.339  35.426  27.439  1.00  0.00    -0.203 F 
ATOM     89  C   UNL A   1      42.363  37.489  27.732  1.00  0.00     0.198 A 
ATOM     90  C   UNL A   1      43.866  37.867  29.537  1.00  0.00     0.198 A 
ATOM     91  F   UNL A   1      44.576  36.132  30.894  1.00  0.00    -0.203 F 
ATOM     92  F   UNL A   1      41.657  37.948  26.689  1.00  0.00    -0.200 F 
ATOM     93  C   UNL A   1      43.158  38.353  28.459  1.00  0.00     0.200 A 
ATOM     94  F   UNL A   1      44.575  38.705  30.306  1.00  0.00    -0.200 F 
ATOM     95  F   UNL A   1      43.219  39.651  28.138  1.00  0.00    -0.200 F 
ENDBRANCH  62  85
ENDBRANCH  36  37
ENDBRANCH  28  31
ENDBRANCH  26  27
ENDBRANCH  25  26
ENDBRANCH  24  25
ENDBRANCH   1  24
TORSDOF 15
ENDMDL
