MODEL 1
REMARK VINA RESULT:     -12.4      0.000      0.000
REMARK SMILES Cc1csc(CNC(=O)NC[C@H]2CC[C@@H](C(=O)NCCCCCCNC(=O)c3ccc(-c4c5nc(c(-c6c(F)c(F)c(F)c(F)c6F)c6ccc([nH]6)c(-c6c(F)c(F)c(F)c(F)c6F)c6nc(c(-c7c(F)c(F)c(F)c(F)c7F)c7ccc4[nH]7)C=C6)C=C5)cc3)CC2)n1
REMARK SMILES IDX 20 1 19 2 18 3 16 4 17 5 15 7 12 8 13 9 92 10 14 11 91 12
REMARK SMILES IDX 11 13 10 14 7 15 8 16 9 18 6 20 5 21 1 22 2 23 3 24 93 25
REMARK SMILES IDX 4 26 21 27 22 28 23 29 24 30 25 31 26 32 27 34 28 35 29 36
REMARK SMILES IDX 90 37 30 38 89 39 31 40 32 41 33 42 83 43 34 44 88 45 82 46
REMARK SMILES IDX 84 47 35 48 87 49 81 50 80 51 36 53 68 54 48 55 67 56 49 57
REMARK SMILES IDX 52 58 66 59 85 60 50 61 51 62 65 64 86 65 53 66 37 67 38 68
REMARK SMILES IDX 46 69 39 70 40 71 44 72 47 73 41 74 42 75 45 76 43 77 69 78
REMARK SMILES IDX 70 79 78 80 71 81 72 82 76 83 79 84 73 85 74 86 77 87 75 88
REMARK SMILES IDX 54 89 55 90 63 91 56 92 57 93 61 94 64 95 58 96 59 97 62 98
REMARK SMILES IDX 60 99
REMARK H PARENT 18 6 7 17 10 19 25 33 84 52 52 63
REMARK Flexibility Score: inf
ROOT
ATOM      1  C   UNL A   1      33.424  27.265  25.936  1.00  0.00     0.021 C 
ENDROOT
BRANCH   1   2
ATOM      2  C   UNL A   1      33.631  26.145  24.915  1.00  0.00     0.116 C 
BRANCH   2   3
ATOM      3  N   UNL A   1      34.034  26.584  23.604  1.00  0.00    -0.356 N 
ATOM      4  C   UNL A   1      33.303  26.926  22.511  1.00  0.00     0.223 C 
ATOM      5  O   UNL A   1      33.919  27.535  21.626  1.00  0.00    -0.275 OA
ATOM      6  H   UNL A   1      35.008  26.645  23.477  1.00  0.00     0.163 HD
BRANCH   4   7
ATOM      7  C   UNL A   1      31.812  26.598  22.291  1.00  0.00     0.078 C 
ATOM      8  C   UNL A   1      30.052  25.614  24.552  1.00  0.00     0.008 C 
ATOM      9  C   UNL A   1      30.270  27.123  24.306  1.00  0.00     0.006 C 
ATOM     10  C   UNL A   1      30.946  24.652  23.745  1.00  0.00     0.006 C 
ATOM     11  C   UNL A   1      30.775  27.519  22.925  1.00  0.00     0.014 C 
ATOM     12  C   UNL A   1      31.419  25.129  22.382  1.00  0.00     0.014 C 
BRANCH   8  13
ATOM     13  C   UNL A   1      30.220  25.296  26.059  1.00  0.00     0.121 C 
BRANCH  13  14
ATOM     14  N   UNL A   1      29.491  24.121  26.474  1.00  0.00    -0.338 N 
ATOM     15  N   UNL A   1      31.151  22.599  27.160  1.00  0.00    -0.332 N 
ATOM     16  C   UNL A   1      29.892  23.044  27.163  1.00  0.00     0.315 C 
ATOM     17  H   UNL A   1      31.331  21.927  27.856  1.00  0.00     0.165 HD
ATOM     18  O   UNL A   1      29.049  22.430  27.818  1.00  0.00    -0.249 OA
ATOM     19  H   UNL A   1      28.544  24.110  26.208  1.00  0.00     0.165 HD
BRANCH  15  20
ATOM     20  C   UNL A   1      32.308  22.905  26.340  1.00  0.00     0.185 C 
BRANCH  20  21
ATOM     21  C   UNL A   1      32.857  21.633  25.761  1.00  0.00     0.112 A 
ATOM     22  C   UNL A   1      32.322  18.585  23.961  1.00  0.00     0.067 C 
ATOM     23  C   UNL A   1      32.954  19.697  24.693  1.00  0.00     0.049 A 
ATOM     24  C   UNL A   1      34.306  19.918  24.851  1.00  0.00     0.090 A 
ATOM     25  N   UNL A   1      32.131  20.659  25.247  1.00  0.00    -0.245 NA
ATOM     26  S   UNL A   1      34.560  21.377  25.705  1.00  0.00    -0.125 S 
ENDBRANCH  20  21
ENDBRANCH  15  20
ENDBRANCH  13  14
ENDBRANCH   8  13
ENDBRANCH   4   7
ENDBRANCH   2   3
ENDBRANCH   1   2
BRANCH   1  27
ATOM     27  C   UNL A   1      33.995  28.624  25.523  1.00  0.00     0.002 C 
BRANCH  27  28
ATOM     28  C   UNL A   1      33.002  29.610  24.888  1.00  0.00     0.002 C 
BRANCH  28  29
ATOM     29  C   UNL A   1      31.853  30.107  25.776  1.00  0.00     0.021 C 
BRANCH  29  30
ATOM     30  C   UNL A   1      32.250  30.655  27.151  1.00  0.00     0.116 C 
BRANCH  30  31
ATOM     31  N   UNL A   1      32.412  32.103  27.163  1.00  0.00    -0.352 N 
ATOM     32  C   UNL A   1      33.458  32.873  27.609  1.00  0.00     0.251 C 
ATOM     33  H   UNL A   1      31.653  32.609  26.793  1.00  0.00     0.163 HD
ATOM     34  O   UNL A   1      33.360  34.100  27.648  1.00  0.00    -0.269 OA
BRANCH  32  35
ATOM     35  C   UNL A   1      34.716  32.234  28.038  1.00  0.00     0.039 A 
ATOM     36  C   UNL A   1      35.871  32.995  28.210  1.00  0.00     0.014 A 
ATOM     37  C   UNL A   1      34.753  30.863  28.264  1.00  0.00     0.014 A 
ATOM     38  C   UNL A   1      37.033  32.389  28.715  1.00  0.00     0.010 A 
ATOM     39  C   UNL A   1      35.887  30.285  28.849  1.00  0.00     0.010 A 
ATOM     40  C   UNL A   1      37.037  31.040  29.126  1.00  0.00    -0.014 A 
BRANCH  40  41
ATOM     41  C   UNL A   1      38.180  30.449  29.908  1.00  0.00     0.031 A 
ATOM     42  C   UNL A   1      38.435  30.804  31.359  1.00  0.00     0.074 A 
ATOM     43  C   UNL A   1      39.088  29.663  29.285  1.00  0.00     0.049 A 
ATOM     44  N   UNL A   1      39.446  30.469  32.132  1.00  0.00    -0.248 NA
ATOM     45  C   UNL A   1      37.469  31.697  32.013  1.00  0.00     0.031 C 
ATOM     46  C   UNL A   1      39.083  29.322  27.862  1.00  0.00     0.029 A 
ATOM     47  N   UNL A   1      40.201  29.010  29.768  1.00  0.00    -0.354 N 
ATOM     48  C   UNL A   1      39.260  31.150  33.330  1.00  0.00     0.074 A 
ATOM     49  C   UNL A   1      38.080  31.970  33.158  1.00  0.00     0.031 C 
ATOM     50  C   UNL A   1      40.088  28.474  27.602  1.00  0.00     0.029 A 
ATOM     51  C   UNL A   1      40.854  28.251  28.823  1.00  0.00     0.049 A 
ATOM     52  H   UNL A   1      40.502  29.080  30.703  1.00  0.00     0.167 HD
ATOM     53  C   UNL A   1      39.973  31.076  34.483  1.00  0.00     0.037 A 
ATOM     54  C   UNL A   1      41.946  27.465  28.912  1.00  0.00     0.037 A 
ATOM     55  C   UNL A   1      41.095  30.199  34.702  1.00  0.00     0.049 A 
ATOM     56  C   UNL A   1      42.675  27.335  30.222  1.00  0.00     0.074 A 
ATOM     57  C   UNL A   1      41.792  29.969  35.877  1.00  0.00     0.029 A 
ATOM     58  N   UNL A   1      41.678  29.397  33.733  1.00  0.00    -0.354 N 
ATOM     59  N   UNL A   1      42.422  27.910  31.370  1.00  0.00    -0.248 NA
ATOM     60  C   UNL A   1      43.848  26.447  30.244  1.00  0.00     0.031 C 
ATOM     61  C   UNL A   1      42.823  29.064  35.612  1.00  0.00     0.029 A 
ATOM     62  C   UNL A   1      42.737  28.687  34.282  1.00  0.00     0.049 A 
ATOM     63  H   UNL A   1      41.386  29.340  32.795  1.00  0.00     0.167 HD
ATOM     64  C   UNL A   1      43.382  27.436  32.254  1.00  0.00     0.074 A 
ATOM     65  C   UNL A   1      44.213  26.510  31.517  1.00  0.00     0.031 C 
ATOM     66  C   UNL A   1      43.559  27.752  33.559  1.00  0.00     0.037 A 
BRANCH  53  67
ATOM     67  C   UNL A   1      39.540  31.946  35.634  1.00  0.00     0.064 A 
ATOM     68  C   UNL A   1      40.062  33.235  35.821  1.00  0.00     0.173 A 
ATOM     69  C   UNL A   1      38.548  31.509  36.529  1.00  0.00     0.173 A 
ATOM     70  F   UNL A   1      41.008  33.706  34.994  1.00  0.00    -0.203 F 
ATOM     71  C   UNL A   1      39.647  34.033  36.883  1.00  0.00     0.198 A 
ATOM     72  C   UNL A   1      38.106  32.327  37.566  1.00  0.00     0.198 A 
ATOM     73  F   UNL A   1      37.996  30.295  36.388  1.00  0.00    -0.203 F 
ATOM     74  F   UNL A   1      40.210  35.235  37.076  1.00  0.00    -0.200 F 
ATOM     75  C   UNL A   1      38.664  33.582  37.751  1.00  0.00     0.200 A 
ATOM     76  F   UNL A   1      37.138  31.898  38.390  1.00  0.00    -0.200 F 
ATOM     77  F   UNL A   1      38.259  34.356  38.767  1.00  0.00    -0.200 F 
ENDBRANCH  53  67
BRANCH  54  78
ATOM     78  C   UNL A   1      42.405  26.696  27.724  1.00  0.00     0.064 A 
ATOM     79  C   UNL A   1      41.905  25.411  27.469  1.00  0.00     0.173 A 
ATOM     80  C   UNL A   1      43.360  27.212  26.837  1.00  0.00     0.173 A 
ATOM     81  F   UNL A   1      41.012  24.863  28.306  1.00  0.00    -0.203 F 
ATOM     82  C   UNL A   1      42.359  24.662  26.385  1.00  0.00     0.198 A 
ATOM     83  C   UNL A   1      43.790  26.475  25.734  1.00  0.00     0.198 A 
ATOM     84  F   UNL A   1      43.872  28.435  27.041  1.00  0.00    -0.203 F 
ATOM     85  F   UNL A   1      41.907  23.414  26.200  1.00  0.00    -0.200 F 
ATOM     86  C   UNL A   1      43.296  25.198  25.515  1.00  0.00     0.200 A 
ATOM     87  F   UNL A   1      44.689  26.998  24.890  1.00  0.00    -0.200 F 
ATOM     88  F   UNL A   1      43.734  24.476  24.474  1.00  0.00    -0.200 F 
ENDBRANCH  54  78
BRANCH  66  89
ATOM     89  C   UNL A   1      44.669  27.066  34.302  1.00  0.00     0.064 A 
ATOM     90  C   UNL A   1      44.484  25.822  34.923  1.00  0.00     0.173 A 
ATOM     91  C   UNL A   1      45.952  27.635  34.347  1.00  0.00     0.173 A 
ATOM     92  F   UNL A   1      43.275  25.241  34.922  1.00  0.00    -0.203 F 
ATOM     93  C   UNL A   1      45.536  25.180  35.574  1.00  0.00     0.198 A 
ATOM     94  C   UNL A   1      47.009  26.977  34.973  1.00  0.00     0.198 A 
ATOM     95  F   UNL A   1      46.186  28.821  33.767  1.00  0.00    -0.203 F 
ATOM     96  F   UNL A   1      45.325  24.010  36.192  1.00  0.00    -0.200 F 
ATOM     97  C   UNL A   1      46.798  25.753  35.590  1.00  0.00     0.200 A 
ATOM     98  F   UNL A   1      48.231  27.526  34.974  1.00  0.00    -0.200 F 
ATOM     99  F   UNL A   1      47.812  25.129  36.203  1.00  0.00    -0.200 F 
ENDBRANCH  66  89
ENDBRANCH  40  41
ENDBRANCH  32  35
ENDBRANCH  30  31
ENDBRANCH  29  30
ENDBRANCH  28  29
ENDBRANCH  27  28
ENDBRANCH   1  27
TORSDOF 17
ENDMDL
MODEL 2
REMARK VINA RESULT:     -12.4      4.148      9.300
REMARK SMILES Cc1csc(CNC(=O)NC[C@H]2CC[C@@H](C(=O)NCCCCCCNC(=O)c3ccc(-c4c5nc(c(-c6c(F)c(F)c(F)c(F)c6F)c6ccc([nH]6)c(-c6c(F)c(F)c(F)c(F)c6F)c6nc(c(-c7c(F)c(F)c(F)c(F)c7F)c7ccc4[nH]7)C=C6)C=C5)cc3)CC2)n1
REMARK SMILES IDX 20 1 19 2 18 3 16 4 17 5 15 7 12 8 13 9 92 10 14 11 91 12
REMARK SMILES IDX 11 13 10 14 7 15 8 16 9 18 6 20 5 21 1 22 2 23 3 24 93 25
REMARK SMILES IDX 4 26 21 27 22 28 23 29 24 30 25 31 26 32 27 34 28 35 29 36
REMARK SMILES IDX 90 37 30 38 89 39 31 40 32 41 33 42 83 43 34 44 88 45 82 46
REMARK SMILES IDX 84 47 35 48 87 49 81 50 80 51 36 53 68 54 48 55 67 56 49 57
REMARK SMILES IDX 52 58 66 59 85 60 50 61 51 62 65 64 86 65 53 66 37 67 38 68
REMARK SMILES IDX 46 69 39 70 40 71 44 72 47 73 41 74 42 75 45 76 43 77 69 78
REMARK SMILES IDX 70 79 78 80 71 81 72 82 76 83 79 84 73 85 74 86 77 87 75 88
REMARK SMILES IDX 54 89 55 90 63 91 56 92 57 93 61 94 64 95 58 96 59 97 62 98
REMARK SMILES IDX 60 99
REMARK H PARENT 18 6 7 17 10 19 25 33 84 52 52 63
REMARK Flexibility Score: inf
ROOT
ATOM      1  C   UNL A   1      33.822  23.877  22.756  1.00  0.00     0.021 C 
ENDROOT
BRANCH   1   2
ATOM      2  C   UNL A   1      32.813  25.028  22.754  1.00  0.00     0.116 C 
BRANCH   2   3
ATOM      3  N   UNL A   1      33.225  26.196  22.019  1.00  0.00    -0.356 N 
ATOM      4  C   UNL A   1      33.392  27.486  22.410  1.00  0.00     0.223 C 
ATOM      5  O   UNL A   1      34.029  28.203  21.626  1.00  0.00    -0.275 OA
ATOM      6  H   UNL A   1      33.418  26.031  21.068  1.00  0.00     0.163 HD
BRANCH   4   7
ATOM      7  C   UNL A   1      32.840  28.108  23.709  1.00  0.00     0.078 C 
ATOM      8  C   UNL A   1      32.167  26.405  26.124  1.00  0.00     0.008 C 
ATOM      9  C   UNL A   1      33.600  26.932  25.890  1.00  0.00     0.006 C 
ATOM     10  C   UNL A   1      31.170  26.595  24.963  1.00  0.00     0.006 C 
ATOM     11  C   UNL A   1      33.742  28.113  24.939  1.00  0.00     0.014 C 
ATOM     12  C   UNL A   1      31.391  27.791  24.052  1.00  0.00     0.014 C 
BRANCH   8  13
ATOM     13  C   UNL A   1      32.212  24.902  26.494  1.00  0.00     0.121 C 
BRANCH  13  14
ATOM     14  N   UNL A   1      30.911  24.353  26.792  1.00  0.00    -0.338 N 
ATOM     15  N   UNL A   1      31.071  22.080  26.201  1.00  0.00    -0.332 N 
ATOM     16  C   UNL A   1      30.499  23.081  26.875  1.00  0.00     0.315 C 
ATOM     17  H   UNL A   1      30.789  21.189  26.510  1.00  0.00     0.165 HD
ATOM     18  O   UNL A   1      29.533  22.832  27.598  1.00  0.00    -0.249 OA
ATOM     19  H   UNL A   1      30.212  25.024  26.961  1.00  0.00     0.165 HD
BRANCH  15  20
ATOM     20  C   UNL A   1      32.025  22.037  25.109  1.00  0.00     0.185 C 
BRANCH  20  21
ATOM     21  C   UNL A   1      32.297  20.607  24.743  1.00  0.00     0.112 A 
ATOM     22  C   UNL A   1      32.743  17.200  25.750  1.00  0.00     0.067 C 
ATOM     23  C   UNL A   1      32.612  18.425  24.941  1.00  0.00     0.049 A 
ATOM     24  C   UNL A   1      32.516  18.500  23.568  1.00  0.00     0.090 A 
ATOM     25  N   UNL A   1      32.525  19.634  25.605  1.00  0.00    -0.245 NA
ATOM     26  S   UNL A   1      32.296  20.127  23.089  1.00  0.00    -0.125 S 
ENDBRANCH  20  21
ENDBRANCH  15  20
ENDBRANCH  13  14
ENDBRANCH   8  13
ENDBRANCH   4   7
ENDBRANCH   2   3
ENDBRANCH   1   2
BRANCH   1  27
ATOM     27  C   UNL A   1      35.008  24.065  23.706  1.00  0.00     0.002 C 
BRANCH  27  28
ATOM     28  C   UNL A   1      36.179  23.086  23.525  1.00  0.00     0.002 C 
BRANCH  28  29
ATOM     29  C   UNL A   1      36.118  21.775  24.321  1.00  0.00     0.021 C 
BRANCH  29  30
ATOM     30  C   UNL A   1      36.810  21.781  25.687  1.00  0.00     0.116 C 
BRANCH  30  31
ATOM     31  N   UNL A   1      37.942  20.865  25.758  1.00  0.00    -0.352 N 
ATOM     32  C   UNL A   1      39.250  21.099  26.105  1.00  0.00     0.251 C 
ATOM     33  H   UNL A   1      37.737  19.932  25.519  1.00  0.00     0.163 HD
ATOM     34  O   UNL A   1      40.097  20.214  25.986  1.00  0.00    -0.269 OA
BRANCH  32  35
ATOM     35  C   UNL A   1      39.650  22.416  26.634  1.00  0.00     0.039 A 
ATOM     36  C   UNL A   1      40.624  22.513  27.626  1.00  0.00     0.014 A 
ATOM     37  C   UNL A   1      39.047  23.570  26.144  1.00  0.00     0.014 A 
ATOM     38  C   UNL A   1      41.065  23.777  28.046  1.00  0.00     0.010 A 
ATOM     39  C   UNL A   1      39.553  24.825  26.505  1.00  0.00     0.010 A 
ATOM     40  C   UNL A   1      40.599  24.958  27.431  1.00  0.00    -0.014 A 
BRANCH  40  41
ATOM     41  C   UNL A   1      41.247  26.295  27.679  1.00  0.00     0.031 A 
ATOM     42  C   UNL A   1      42.643  26.620  27.187  1.00  0.00     0.074 A 
ATOM     43  C   UNL A   1      40.629  27.208  28.462  1.00  0.00     0.049 A 
ATOM     44  N   UNL A   1      43.382  27.682  27.423  1.00  0.00    -0.248 NA
ATOM     45  C   UNL A   1      43.326  25.601  26.378  1.00  0.00     0.031 C 
ATOM     46  C   UNL A   1      39.343  27.020  29.135  1.00  0.00     0.029 A 
ATOM     47  N   UNL A   1      41.002  28.482  28.833  1.00  0.00    -0.354 N 
ATOM     48  C   UNL A   1      44.619  27.432  26.840  1.00  0.00     0.074 A 
ATOM     49  C   UNL A   1      44.555  26.091  26.301  1.00  0.00     0.031 C 
ATOM     50  C   UNL A   1      39.001  28.150  29.770  1.00  0.00     0.029 A 
ATOM     51  C   UNL A   1      40.068  29.132  29.607  1.00  0.00     0.049 A 
ATOM     52  H   UNL A   1      41.859  28.890  28.568  1.00  0.00     0.167 HD
ATOM     53  C   UNL A   1      45.698  28.248  26.724  1.00  0.00     0.037 A 
ATOM     54  C   UNL A   1      40.058  30.372  30.136  1.00  0.00     0.037 A 
ATOM     55  C   UNL A   1      45.748  29.616  27.174  1.00  0.00     0.049 A 
ATOM     56  C   UNL A   1      41.233  31.289  29.926  1.00  0.00     0.074 A 
ATOM     57  C   UNL A   1      46.753  30.550  26.982  1.00  0.00     0.029 A 
ATOM     58  N   UNL A   1      44.749  30.253  27.894  1.00  0.00    -0.354 N 
ATOM     59  N   UNL A   1      42.351  31.067  29.285  1.00  0.00    -0.248 NA
ATOM     60  C   UNL A   1      41.141  32.632  30.521  1.00  0.00     0.031 C 
ATOM     61  C   UNL A   1      46.385  31.737  27.621  1.00  0.00     0.029 A 
ATOM     62  C   UNL A   1      45.125  31.560  28.168  1.00  0.00     0.049 A 
ATOM     63  H   UNL A   1      43.901  29.839  28.171  1.00  0.00     0.167 HD
ATOM     64  C   UNL A   1      43.083  32.244  29.376  1.00  0.00     0.074 A 
ATOM     65  C   UNL A   1      42.275  33.187  30.117  1.00  0.00     0.031 C 
ATOM     66  C   UNL A   1      44.319  32.510  28.891  1.00  0.00     0.037 A 
BRANCH  53  67
ATOM     67  C   UNL A   1      46.923  27.700  26.039  1.00  0.00     0.064 A 
ATOM     68  C   UNL A   1      47.062  27.728  24.643  1.00  0.00     0.173 A 
ATOM     69  C   UNL A   1      47.998  27.195  26.790  1.00  0.00     0.173 A 
ATOM     70  F   UNL A   1      46.069  28.203  23.876  1.00  0.00    -0.203 F 
ATOM     71  C   UNL A   1      48.203  27.228  24.022  1.00  0.00     0.198 A 
ATOM     72  C   UNL A   1      49.155  26.734  26.167  1.00  0.00     0.198 A 
ATOM     73  F   UNL A   1      47.933  27.163  28.129  1.00  0.00    -0.203 F 
ATOM     74  F   UNL A   1      48.281  27.206  22.684  1.00  0.00    -0.200 F 
ATOM     75  C   UNL A   1      49.253  26.738  24.784  1.00  0.00     0.200 A 
ATOM     76  F   UNL A   1      50.179  26.282  26.907  1.00  0.00    -0.200 F 
ATOM     77  F   UNL A   1      50.353  26.266  24.185  1.00  0.00    -0.200 F 
ENDBRANCH  53  67
BRANCH  54  78
ATOM     78  C   UNL A   1      38.869  30.845  30.894  1.00  0.00     0.064 A 
ATOM     79  C   UNL A   1      38.808  30.703  32.288  1.00  0.00     0.173 A 
ATOM     80  C   UNL A   1      37.768  31.426  30.249  1.00  0.00     0.173 A 
ATOM     81  F   UNL A   1      39.824  30.127  32.947  1.00  0.00    -0.203 F 
ATOM     82  C   UNL A   1      37.681  31.102  33.005  1.00  0.00     0.198 A 
ATOM     83  C   UNL A   1      36.655  31.855  30.971  1.00  0.00     0.198 A 
ATOM     84  F   UNL A   1      37.777  31.580  28.917  1.00  0.00    -0.203 F 
ATOM     85  F   UNL A   1      37.626  30.899  34.328  1.00  0.00    -0.200 F 
ATOM     86  C   UNL A   1      36.609  31.683  32.347  1.00  0.00     0.200 A 
ATOM     87  F   UNL A   1      35.623  32.424  30.334  1.00  0.00    -0.200 F 
ATOM     88  F   UNL A   1      35.525  32.065  33.037  1.00  0.00    -0.200 F 
ENDBRANCH  54  78
BRANCH  66  89
ATOM     89  C   UNL A   1      44.875  33.888  29.106  1.00  0.00     0.064 A 
ATOM     90  C   UNL A   1      44.643  34.928  28.192  1.00  0.00     0.173 A 
ATOM     91  C   UNL A   1      45.602  34.190  30.269  1.00  0.00     0.173 A 
ATOM     92  F   UNL A   1      43.967  34.690  27.058  1.00  0.00    -0.203 F 
ATOM     93  C   UNL A   1      45.132  36.211  28.426  1.00  0.00     0.198 A 
ATOM     94  C   UNL A   1      46.064  35.481  30.513  1.00  0.00     0.198 A 
ATOM     95  F   UNL A   1      45.849  33.235  31.177  1.00  0.00    -0.203 F 
ATOM     96  F   UNL A   1      44.931  37.178  27.520  1.00  0.00    -0.200 F 
ATOM     97  C   UNL A   1      45.832  36.489  29.589  1.00  0.00     0.200 A 
ATOM     98  F   UNL A   1      46.727  35.750  31.646  1.00  0.00    -0.200 F 
ATOM     99  F   UNL A   1      46.289  37.727  29.820  1.00  0.00    -0.200 F 
ENDBRANCH  66  89
ENDBRANCH  40  41
ENDBRANCH  32  35
ENDBRANCH  30  31
ENDBRANCH  29  30
ENDBRANCH  28  29
ENDBRANCH  27  28
ENDBRANCH   1  27
TORSDOF 17
ENDMDL
MODEL 3
REMARK VINA RESULT:     -12.4      1.639      7.368
REMARK SMILES Cc1csc(CNC(=O)NC[C@H]2CC[C@@H](C(=O)NCCCCCCNC(=O)c3ccc(-c4c5nc(c(-c6c(F)c(F)c(F)c(F)c6F)c6ccc([nH]6)c(-c6c(F)c(F)c(F)c(F)c6F)c6nc(c(-c7c(F)c(F)c(F)c(F)c7F)c7ccc4[nH]7)C=C6)C=C5)cc3)CC2)n1
REMARK SMILES IDX 20 1 19 2 18 3 16 4 17 5 15 7 12 8 13 9 92 10 14 11 91 12
REMARK SMILES IDX 11 13 10 14 7 15 8 16 9 18 6 20 5 21 1 22 2 23 3 24 93 25
REMARK SMILES IDX 4 26 21 27 22 28 23 29 24 30 25 31 26 32 27 34 28 35 29 36
REMARK SMILES IDX 90 37 30 38 89 39 31 40 32 41 33 42 83 43 34 44 88 45 82 46
REMARK SMILES IDX 84 47 35 48 87 49 81 50 80 51 36 53 68 54 48 55 67 56 49 57
REMARK SMILES IDX 52 58 66 59 85 60 50 61 51 62 65 64 86 65 53 66 37 67 38 68
REMARK SMILES IDX 46 69 39 70 40 71 44 72 47 73 41 74 42 75 45 76 43 77 69 78
REMARK SMILES IDX 70 79 78 80 71 81 72 82 76 83 79 84 73 85 74 86 77 87 75 88
REMARK SMILES IDX 54 89 55 90 63 91 56 92 57 93 61 94 64 95 58 96 59 97 62 98
REMARK SMILES IDX 60 99
REMARK H PARENT 18 6 7 17 10 19 25 33 84 52 52 63
REMARK Flexibility Score: inf
ROOT
ATOM      1  C   UNL A   1      33.529  28.539  26.120  1.00  0.00     0.021 C 
ENDROOT
BRANCH   1   2
ATOM      2  C   UNL A   1      33.480  27.326  25.189  1.00  0.00     0.116 C 
BRANCH   2   3
ATOM      3  N   UNL A   1      34.008  27.551  23.868  1.00  0.00    -0.356 N 
ATOM      4  C   UNL A   1      33.398  27.593  22.655  1.00  0.00     0.223 C 
ATOM      5  O   UNL A   1      34.066  28.089  21.738  1.00  0.00    -0.275 OA
ATOM      6  H   UNL A   1      34.981  27.699  23.839  1.00  0.00     0.163 HD
BRANCH   4   7
ATOM      7  C   UNL A   1      31.984  27.059  22.344  1.00  0.00     0.078 C 
ATOM      8  C   UNL A   1      30.286  25.728  24.471  1.00  0.00     0.008 C 
ATOM      9  C   UNL A   1      30.288  27.262  24.292  1.00  0.00     0.006 C 
ATOM     10  C   UNL A   1      31.350  24.944  23.677  1.00  0.00     0.006 C 
ATOM     11  C   UNL A   1      30.793  27.789  22.956  1.00  0.00     0.014 C 
ATOM     12  C   UNL A   1      31.811  25.546  22.360  1.00  0.00     0.014 C 
BRANCH   8  13
ATOM     13  C   UNL A   1      30.428  25.371  25.971  1.00  0.00     0.121 C 
BRANCH  13  14
ATOM     14  N   UNL A   1      29.679  24.196  26.348  1.00  0.00    -0.338 N 
ATOM     15  N   UNL A   1      31.299  22.681  27.134  1.00  0.00    -0.332 N 
ATOM     16  C   UNL A   1      30.041  23.123  27.063  1.00  0.00     0.315 C 
ATOM     17  H   UNL A   1      31.439  22.011  27.843  1.00  0.00     0.165 HD
ATOM     18  O   UNL A   1      29.162  22.508  27.669  1.00  0.00    -0.249 OA
ATOM     19  H   UNL A   1      28.750  24.182  26.026  1.00  0.00     0.165 HD
BRANCH  15  20
ATOM     20  C   UNL A   1      32.502  22.986  26.383  1.00  0.00     0.185 C 
BRANCH  20  21
ATOM     21  C   UNL A   1      33.028  21.728  25.754  1.00  0.00     0.112 A 
ATOM     22  C   UNL A   1      32.481  18.850  23.696  1.00  0.00     0.067 C 
ATOM     23  C   UNL A   1      33.109  19.870  24.555  1.00  0.00     0.049 A 
ATOM     24  C   UNL A   1      34.453  20.000  24.832  1.00  0.00     0.090 A 
ATOM     25  N   UNL A   1      32.296  20.836  25.115  1.00  0.00    -0.245 NA
ATOM     26  S   UNL A   1      34.714  21.378  25.809  1.00  0.00    -0.125 S 
ENDBRANCH  20  21
ENDBRANCH  15  20
ENDBRANCH  13  14
ENDBRANCH   8  13
ENDBRANCH   4   7
ENDBRANCH   2   3
ENDBRANCH   1   2
BRANCH   1  27
ATOM     27  C   UNL A   1      32.783  29.774  25.606  1.00  0.00     0.002 C 
BRANCH  27  28
ATOM     28  C   UNL A   1      31.731  30.371  26.555  1.00  0.00     0.002 C 
BRANCH  28  29
ATOM     29  C   UNL A   1      31.619  31.902  26.591  1.00  0.00     0.021 C 
BRANCH  29  30
ATOM     30  C   UNL A   1      32.719  32.641  27.360  1.00  0.00     0.116 C 
BRANCH  30  31
ATOM     31  N   UNL A   1      32.395  34.040  27.614  1.00  0.00    -0.352 N 
ATOM     32  C   UNL A   1      32.929  34.921  28.523  1.00  0.00     0.251 C 
ATOM     33  H   UNL A   1      31.683  34.411  27.046  1.00  0.00     0.163 HD
ATOM     34  O   UNL A   1      32.436  36.039  28.674  1.00  0.00    -0.269 OA
BRANCH  32  35
ATOM     35  C   UNL A   1      34.107  34.536  29.322  1.00  0.00     0.039 A 
ATOM     36  C   UNL A   1      33.958  34.118  30.643  1.00  0.00     0.014 A 
ATOM     37  C   UNL A   1      35.375  34.598  28.756  1.00  0.00     0.014 A 
ATOM     38  C   UNL A   1      35.077  33.660  31.356  1.00  0.00     0.010 A 
ATOM     39  C   UNL A   1      36.470  34.058  29.443  1.00  0.00     0.010 A 
ATOM     40  C   UNL A   1      36.340  33.539  30.741  1.00  0.00    -0.014 A 
BRANCH  40  41
ATOM     41  C   UNL A   1      37.481  32.809  31.399  1.00  0.00     0.031 A 
ATOM     42  C   UNL A   1      38.185  31.644  30.734  1.00  0.00     0.074 A 
ATOM     43  C   UNL A   1      37.829  33.109  32.672  1.00  0.00     0.049 A 
ATOM     44  N   UNL A   1      39.105  30.839  31.222  1.00  0.00    -0.248 NA
ATOM     45  C   UNL A   1      37.766  31.295  29.370  1.00  0.00     0.031 C 
ATOM     46  C   UNL A   1      37.174  34.107  33.519  1.00  0.00     0.029 A 
ATOM     47  N   UNL A   1      38.819  32.598  33.483  1.00  0.00    -0.354 N 
ATOM     48  C   UNL A   1      39.327  29.870  30.250  1.00  0.00     0.074 A 
ATOM     49  C   UNL A   1      38.399  30.145  29.175  1.00  0.00     0.031 C 
ATOM     50  C   UNL A   1      37.818  34.188  34.693  1.00  0.00     0.029 A 
ATOM     51  C   UNL A   1      38.898  33.208  34.715  1.00  0.00     0.049 A 
ATOM     52  H   UNL A   1      39.416  31.866  33.207  1.00  0.00     0.167 HD
ATOM     53  C   UNL A   1      40.241  28.867  30.227  1.00  0.00     0.037 A 
ATOM     54  C   UNL A   1      39.732  33.008  35.755  1.00  0.00     0.037 A 
ATOM     55  C   UNL A   1      41.233  28.633  31.246  1.00  0.00     0.049 A 
ATOM     56  C   UNL A   1      40.792  31.943  35.675  1.00  0.00     0.074 A 
ATOM     57  C   UNL A   1      42.276  27.721  31.240  1.00  0.00     0.029 A 
ATOM     58  N   UNL A   1      41.317  29.321  32.447  1.00  0.00    -0.354 N 
ATOM     59  N   UNL A   1      41.050  31.104  34.705  1.00  0.00    -0.248 NA
ATOM     60  C   UNL A   1      41.675  31.796  36.843  1.00  0.00     0.031 C 
ATOM     61  C   UNL A   1      42.964  27.825  32.452  1.00  0.00     0.029 A 
ATOM     62  C   UNL A   1      42.383  28.839  33.194  1.00  0.00     0.049 A 
ATOM     63  H   UNL A   1      40.709  30.042  32.728  1.00  0.00     0.167 HD
ATOM     64  C   UNL A   1      42.136  30.350  35.131  1.00  0.00     0.074 A 
ATOM     65  C   UNL A   1      42.503  30.842  36.440  1.00  0.00     0.031 C 
ATOM     66  C   UNL A   1      42.764  29.335  34.491  1.00  0.00     0.037 A 
BRANCH  53  67
ATOM     67  C   UNL A   1      40.250  27.951  29.031  1.00  0.00     0.064 A 
ATOM     68  C   UNL A   1      40.995  28.249  27.879  1.00  0.00     0.173 A 
ATOM     69  C   UNL A   1      39.553  26.731  29.057  1.00  0.00     0.173 A 
ATOM     70  F   UNL A   1      41.684  29.398  27.800  1.00  0.00    -0.203 F 
ATOM     71  C   UNL A   1      41.004  27.390  26.784  1.00  0.00     0.198 A 
ATOM     72  C   UNL A   1      39.598  25.855  27.975  1.00  0.00     0.198 A 
ATOM     73  F   UNL A   1      38.842  26.381  30.139  1.00  0.00    -0.203 F 
ATOM     74  F   UNL A   1      41.671  27.732  25.673  1.00  0.00    -0.200 F 
ATOM     75  C   UNL A   1      40.311  26.190  26.835  1.00  0.00     0.200 A 
ATOM     76  F   UNL A   1      38.947  24.684  28.035  1.00  0.00    -0.200 F 
ATOM     77  F   UNL A   1      40.328  25.361  25.783  1.00  0.00    -0.200 F 
ENDBRANCH  53  67
BRANCH  54  78
ATOM     78  C   UNL A   1      39.629  33.868  36.964  1.00  0.00     0.064 A 
ATOM     79  C   UNL A   1      38.896  33.443  38.082  1.00  0.00     0.173 A 
ATOM     80  C   UNL A   1      40.236  35.130  37.024  1.00  0.00     0.173 A 
ATOM     81  F   UNL A   1      38.273  32.256  38.061  1.00  0.00    -0.203 F 
ATOM     82  C   UNL A   1      38.755  34.257  39.204  1.00  0.00     0.198 A 
ATOM     83  C   UNL A   1      40.122  35.930  38.160  1.00  0.00     0.198 A 
ATOM     84  F   UNL A   1      40.945  35.583  35.979  1.00  0.00    -0.203 F 
ATOM     85  F   UNL A   1      37.999  33.850  40.233  1.00  0.00    -0.200 F 
ATOM     86  C   UNL A   1      39.373  35.497  39.245  1.00  0.00     0.200 A 
ATOM     87  F   UNL A   1      40.727  37.124  38.201  1.00  0.00    -0.200 F 
ATOM     88  F   UNL A   1      39.236  36.280  40.323  1.00  0.00    -0.200 F 
ENDBRANCH  54  78
BRANCH  66  89
ATOM     89  C   UNL A   1      43.944  28.702  35.170  1.00  0.00     0.064 A 
ATOM     90  C   UNL A   1      45.250  29.177  34.977  1.00  0.00     0.173 A 
ATOM     91  C   UNL A   1      43.761  27.639  36.070  1.00  0.00     0.173 A 
ATOM     92  F   UNL A   1      45.481  30.181  34.117  1.00  0.00    -0.203 F 
ATOM     93  C   UNL A   1      46.329  28.604  35.645  1.00  0.00     0.198 A 
ATOM     94  C   UNL A   1      44.839  27.087  36.758  1.00  0.00     0.198 A 
ATOM     95  F   UNL A   1      42.534  27.148  36.295  1.00  0.00    -0.203 F 
ATOM     96  F   UNL A   1      47.572  29.050  35.415  1.00  0.00    -0.200 F 
ATOM     97  C   UNL A   1      46.122  27.567  36.542  1.00  0.00     0.200 A 
ATOM     98  F   UNL A   1      44.634  26.095  37.636  1.00  0.00    -0.200 F 
ATOM     99  F   UNL A   1      47.159  27.026  37.196  1.00  0.00    -0.200 F 
ENDBRANCH  66  89
ENDBRANCH  40  41
ENDBRANCH  32  35
ENDBRANCH  30  31
ENDBRANCH  29  30
ENDBRANCH  28  29
ENDBRANCH  27  28
ENDBRANCH   1  27
TORSDOF 17
ENDMDL
