MODEL 1
REMARK VINA RESULT:     -11.1      0.000      0.000
REMARK SMILES CC(C)[C@](C)(CC(=O)NC#N)C(=O)NCCCCCCNC(=O)c1ccc(-c2c3nc(c(-c4c(F)c(F)c(F)c(F)c4F)c4ccc([nH]4)c(-c4c(F)c(F)c(F)c(F)c4F)c4nc(c(-c5c(F)c(F)c(F)c(F)c5F)c5ccc2[nH]5)C=C4)C=C3)cc1
REMARK SMILES IDX 17 1 16 2 15 3 14 4 12 5 13 6 4 8 5 9 2 10 1 11 3 12 6 13
REMARK SMILES IDX 7 14 8 15 9 16 10 18 11 19 18 20 19 21 20 22 21 23 22 24
REMARK SMILES IDX 23 26 24 27 25 28 86 29 26 30 85 31 27 32 28 33 29 34 79 35
REMARK SMILES IDX 30 36 84 37 78 38 80 39 31 40 83 41 77 42 76 43 32 45 64 46
REMARK SMILES IDX 44 47 63 48 45 49 48 50 62 51 81 52 46 53 47 54 61 56 82 57
REMARK SMILES IDX 49 58 33 59 34 60 42 61 35 62 36 63 40 64 43 65 37 66 38 67
REMARK SMILES IDX 41 68 39 69 65 70 66 71 74 72 67 73 68 74 72 75 75 76 69 77
REMARK SMILES IDX 70 78 73 79 71 80 50 81 51 82 59 83 52 84 53 85 57 86 60 87
REMARK SMILES IDX 54 88 55 89 58 90 56 91
REMARK H PARENT 14 7 9 17 21 25 80 44 48 55
REMARK Flexibility Score: inf
ROOT
ATOM      1  C   UNL A   1      32.636  29.976  27.225  1.00  0.00     0.002 C 
ENDROOT
BRANCH   1   2
ATOM      2  C   UNL A   1      33.964  29.573  26.577  1.00  0.00     0.021 C 
BRANCH   2   3
ATOM      3  C   UNL A   1      34.167  28.065  26.489  1.00  0.00     0.116 C 
BRANCH   3   4
ATOM      4  N   UNL A   1      32.937  27.356  26.782  1.00  0.00    -0.356 N 
ATOM      5  C   UNL A   1      32.332  26.291  26.198  1.00  0.00     0.226 C 
ATOM      6  O   UNL A   1      31.217  25.990  26.636  1.00  0.00    -0.274 OA
ATOM      7  H   UNL A   1      32.445  27.717  27.554  1.00  0.00     0.163 HD
BRANCH   5   8
ATOM      8  C   UNL A   1      32.996  25.481  25.061  1.00  0.00     0.057 C 
ATOM      9  C   UNL A   1      31.915  24.524  24.492  1.00  0.00     0.022 C 
BRANCH   8  10
ATOM     10  C   UNL A   1      34.196  24.630  25.659  1.00  0.00    -0.002 C 
ATOM     11  C   UNL A   1      33.749  23.424  26.503  1.00  0.00     0.008 C 
ATOM     12  C   UNL A   1      35.216  24.161  24.617  1.00  0.00     0.008 C 
ENDBRANCH   8  10
BRANCH   8  13
ATOM     13  C   UNL A   1      33.439  26.435  23.912  1.00  0.00     0.118 C 
BRANCH  13  14
ATOM     14  C   UNL A   1      32.312  27.173  23.201  1.00  0.00     0.234 C 
ATOM     15  O   UNL A   1      31.680  28.075  23.746  1.00  0.00    -0.274 OA
ATOM     16  N   UNL A   1      32.041  26.837  21.907  1.00  0.00    -0.263 N 
ATOM     17  H   UNL A   1      31.301  27.354  21.513  1.00  0.00     0.182 HD
BRANCH  16  18
ATOM     18  C   UNL A   1      32.579  25.943  21.065  1.00  0.00     0.183 C 
ATOM     19  N   UNL A   1      33.057  25.171  20.351  1.00  0.00    -0.172 NA
ENDBRANCH  16  18
ENDBRANCH  13  14
ENDBRANCH   8  13
ENDBRANCH   5   8
ENDBRANCH   3   4
ENDBRANCH   2   3
ENDBRANCH   1   2
BRANCH   1  20
ATOM     20  C   UNL A   1      31.666  30.708  26.290  1.00  0.00     0.002 C 
BRANCH  20  21
ATOM     21  C   UNL A   1      31.444  32.182  26.633  1.00  0.00     0.021 C 
BRANCH  21  22
ATOM     22  C   UNL A   1      32.597  32.825  27.395  1.00  0.00     0.116 C 
BRANCH  22  23
ATOM     23  N   UNL A   1      32.347  34.231  27.665  1.00  0.00    -0.352 N 
ATOM     24  C   UNL A   1      32.929  35.058  28.592  1.00  0.00     0.251 C 
ATOM     25  H   UNL A   1      31.659  34.653  27.099  1.00  0.00     0.163 HD
ATOM     26  O   UNL A   1      32.437  36.153  28.841  1.00  0.00    -0.269 OA
BRANCH  24  27
ATOM     27  C   UNL A   1      34.139  34.611  29.312  1.00  0.00     0.039 A 
ATOM     28  C   UNL A   1      34.001  34.118  30.610  1.00  0.00     0.014 A 
ATOM     29  C   UNL A   1      35.398  34.661  28.706  1.00  0.00     0.014 A 
ATOM     30  C   UNL A   1      35.115  33.599  31.270  1.00  0.00     0.010 A 
ATOM     31  C   UNL A   1      36.491  34.071  29.335  1.00  0.00     0.010 A 
ATOM     32  C   UNL A   1      36.358  33.520  30.618  1.00  0.00    -0.014 A 
BRANCH  32  33
ATOM     33  C   UNL A   1      37.499  32.804  31.243  1.00  0.00     0.031 A 
ATOM     34  C   UNL A   1      38.138  31.629  30.557  1.00  0.00     0.074 A 
ATOM     35  C   UNL A   1      37.919  33.185  32.467  1.00  0.00     0.049 A 
ATOM     36  N   UNL A   1      39.109  30.857  30.980  1.00  0.00    -0.248 NA
ATOM     37  C   UNL A   1      37.613  31.259  29.234  1.00  0.00     0.031 C 
ATOM     38  C   UNL A   1      37.348  34.283  33.250  1.00  0.00     0.029 A 
ATOM     39  N   UNL A   1      38.916  32.691  33.272  1.00  0.00    -0.354 N 
ATOM     40  C   UNL A   1      39.302  29.911  29.983  1.00  0.00     0.074 A 
ATOM     41  C   UNL A   1      38.325  30.177  28.950  1.00  0.00     0.031 C 
ATOM     42  C   UNL A   1      38.016  34.393  34.409  1.00  0.00     0.029 A 
ATOM     43  C   UNL A   1      39.023  33.340  34.479  1.00  0.00     0.049 A 
ATOM     44  H   UNL A   1      39.499  31.942  33.009  1.00  0.00     0.167 HD
ATOM     45  C   UNL A   1      40.224  28.920  29.933  1.00  0.00     0.037 A 
ATOM     46  C   UNL A   1      39.821  33.097  35.537  1.00  0.00     0.037 A 
ATOM     47  C   UNL A   1      41.206  28.672  30.957  1.00  0.00     0.049 A 
ATOM     48  C   UNL A   1      40.807  31.960  35.459  1.00  0.00     0.074 A 
ATOM     49  C   UNL A   1      42.228  27.738  30.958  1.00  0.00     0.029 A 
ATOM     50  N   UNL A   1      41.280  29.346  32.166  1.00  0.00    -0.354 N 
ATOM     51  N   UNL A   1      41.045  31.136  34.469  1.00  0.00    -0.248 NA
ATOM     52  C   UNL A   1      41.637  31.721  36.648  1.00  0.00     0.031 C 
ATOM     53  C   UNL A   1      42.865  27.788  32.201  1.00  0.00     0.029 A 
ATOM     54  C   UNL A   1      42.295  28.809  32.943  1.00  0.00     0.049 A 
ATOM     55  H   UNL A   1      40.697  30.092  32.434  1.00  0.00     0.167 HD
ATOM     56  C   UNL A   1      42.066  30.302  34.905  1.00  0.00     0.074 A 
ATOM     57  C   UNL A   1      42.426  30.741  36.234  1.00  0.00     0.031 C 
ATOM     58  C   UNL A   1      42.648  29.258  34.265  1.00  0.00     0.037 A 
BRANCH  45  59
ATOM     59  C   UNL A   1      40.226  28.007  28.740  1.00  0.00     0.064 A 
ATOM     60  C   UNL A   1      40.962  28.302  27.584  1.00  0.00     0.173 A 
ATOM     61  C   UNL A   1      39.573  26.766  28.805  1.00  0.00     0.173 A 
ATOM     62  F   UNL A   1      41.600  29.477  27.469  1.00  0.00    -0.203 F 
ATOM     63  C   UNL A   1      41.038  27.390  26.533  1.00  0.00     0.198 A 
ATOM     64  C   UNL A   1      39.678  25.845  27.766  1.00  0.00     0.198 A 
ATOM     65  F   UNL A   1      38.862  26.431  29.892  1.00  0.00    -0.203 F 
ATOM     66  F   UNL A   1      41.727  27.704  25.426  1.00  0.00    -0.200 F 
ATOM     67  C   UNL A   1      40.409  26.159  26.630  1.00  0.00     0.200 A 
ATOM     68  F   UNL A   1      39.086  24.647  27.872  1.00  0.00    -0.200 F 
ATOM     69  F   UNL A   1      40.508  25.272  25.631  1.00  0.00    -0.200 F 
ENDBRANCH  45  59
BRANCH  46  70
ATOM     70  C   UNL A   1      39.707  33.914  36.777  1.00  0.00     0.064 A 
ATOM     71  C   UNL A   1      38.905  33.500  37.851  1.00  0.00     0.173 A 
ATOM     72  C   UNL A   1      40.344  35.160  36.888  1.00  0.00     0.173 A 
ATOM     73  F   UNL A   1      38.259  32.326  37.790  1.00  0.00    -0.203 F 
ATOM     74  C   UNL A   1      38.701  34.321  38.958  1.00  0.00     0.198 A 
ATOM     75  C   UNL A   1      40.177  35.960  38.016  1.00  0.00     0.198 A 
ATOM     76  F   UNL A   1      41.130  35.606  35.897  1.00  0.00    -0.203 F 
ATOM     77  F   UNL A   1      37.858  33.937  39.927  1.00  0.00    -0.200 F 
ATOM     78  C   UNL A   1      39.340  35.549  39.042  1.00  0.00     0.200 A 
ATOM     79  F   UNL A   1      40.814  37.135  38.101  1.00  0.00    -0.200 F 
ATOM     80  F   UNL A   1      39.135  36.343  40.101  1.00  0.00    -0.200 F 
ENDBRANCH  46  70
BRANCH  58  81
ATOM     81  C   UNL A   1      43.753  28.535  34.983  1.00  0.00     0.064 A 
ATOM     82  C   UNL A   1      43.506  27.386  35.749  1.00  0.00     0.173 A 
ATOM     83  C   UNL A   1      45.080  28.976  34.874  1.00  0.00     0.173 A 
ATOM     84  F   UNL A   1      42.253  26.928  35.898  1.00  0.00    -0.203 F 
ATOM     85  C   UNL A   1      44.542  26.727  36.406  1.00  0.00     0.198 A 
ATOM     86  C   UNL A   1      46.119  28.290  35.497  1.00  0.00     0.198 A 
ATOM     87  F   UNL A   1      45.376  30.064  34.146  1.00  0.00    -0.203 F 
ATOM     88  F   UNL A   1      44.272  25.667  37.182  1.00  0.00    -0.200 F 
ATOM     89  C   UNL A   1      45.847  27.173  36.271  1.00  0.00     0.200 A 
ATOM     90  F   UNL A   1      47.383  28.711  35.348  1.00  0.00    -0.200 F 
ATOM     91  F   UNL A   1      46.845  26.530  36.895  1.00  0.00    -0.200 F 
ENDBRANCH  58  81
ENDBRANCH  32  33
ENDBRANCH  24  27
ENDBRANCH  22  23
ENDBRANCH  21  22
ENDBRANCH  20  21
ENDBRANCH   1  20
TORSDOF 17
ENDMDL
MODEL 2
REMARK VINA RESULT:     -10.9      0.302      7.527
REMARK SMILES CC(C)[C@](C)(CC(=O)NC#N)C(=O)NCCCCCCNC(=O)c1ccc(-c2c3nc(c(-c4c(F)c(F)c(F)c(F)c4F)c4ccc([nH]4)c(-c4c(F)c(F)c(F)c(F)c4F)c4nc(c(-c5c(F)c(F)c(F)c(F)c5F)c5ccc2[nH]5)C=C4)C=C3)cc1
REMARK SMILES IDX 17 1 16 2 15 3 14 4 12 5 13 6 4 8 5 9 2 10 1 11 3 12 6 13
REMARK SMILES IDX 7 14 8 15 9 16 10 18 11 19 18 20 19 21 20 22 21 23 22 24
REMARK SMILES IDX 23 26 24 27 25 28 86 29 26 30 85 31 27 32 28 33 29 34 79 35
REMARK SMILES IDX 30 36 84 37 78 38 80 39 31 40 83 41 77 42 76 43 32 45 64 46
REMARK SMILES IDX 44 47 63 48 45 49 48 50 62 51 81 52 46 53 47 54 61 56 82 57
REMARK SMILES IDX 49 58 33 59 34 60 42 61 35 62 36 63 40 64 43 65 37 66 38 67
REMARK SMILES IDX 41 68 39 69 65 70 66 71 74 72 67 73 68 74 72 75 75 76 69 77
REMARK SMILES IDX 70 78 73 79 71 80 50 81 51 82 59 83 52 84 53 85 57 86 60 87
REMARK SMILES IDX 54 88 55 89 58 90 56 91
REMARK H PARENT 14 7 9 17 21 25 80 44 48 55
REMARK Flexibility Score: inf
ROOT
ATOM      1  C   UNL A   1      32.656  30.038  27.172  1.00  0.00     0.002 C 
ENDROOT
BRANCH   1   2
ATOM      2  C   UNL A   1      33.808  29.430  26.365  1.00  0.00     0.021 C 
BRANCH   2   3
ATOM      3  C   UNL A   1      33.969  27.928  26.569  1.00  0.00     0.116 C 
BRANCH   3   4
ATOM      4  N   UNL A   1      32.684  27.291  26.784  1.00  0.00    -0.356 N 
ATOM      5  C   UNL A   1      32.072  26.238  26.185  1.00  0.00     0.226 C 
ATOM      6  O   UNL A   1      30.913  26.007  26.542  1.00  0.00    -0.274 OA
ATOM      7  H   UNL A   1      32.153  27.701  27.503  1.00  0.00     0.163 HD
BRANCH   5   8
ATOM      8  C   UNL A   1      32.780  25.359  25.128  1.00  0.00     0.057 C 
ATOM      9  C   UNL A   1      31.703  24.419  24.524  1.00  0.00     0.022 C 
BRANCH   8  10
ATOM     10  C   UNL A   1      33.903  24.491  25.840  1.00  0.00    -0.002 C 
ATOM     11  C   UNL A   1      33.440  23.084  26.254  1.00  0.00     0.008 C 
ATOM     12  C   UNL A   1      35.207  24.375  25.044  1.00  0.00     0.008 C 
ENDBRANCH   8  10
BRANCH   8  13
ATOM     13  C   UNL A   1      33.335  26.249  23.976  1.00  0.00     0.118 C 
BRANCH  13  14
ATOM     14  C   UNL A   1      32.298  27.077  23.228  1.00  0.00     0.234 C 
ATOM     15  O   UNL A   1      31.697  28.004  23.764  1.00  0.00    -0.274 OA
ATOM     16  N   UNL A   1      32.076  26.790  21.913  1.00  0.00    -0.263 N 
ATOM     17  H   UNL A   1      31.393  27.364  21.495  1.00  0.00     0.182 HD
BRANCH  16  18
ATOM     18  C   UNL A   1      32.600  25.884  21.076  1.00  0.00     0.183 C 
ATOM     19  N   UNL A   1      33.065  25.116  20.348  1.00  0.00    -0.172 NA
ENDBRANCH  16  18
ENDBRANCH  13  14
ENDBRANCH   8  13
ENDBRANCH   5   8
ENDBRANCH   3   4
ENDBRANCH   2   3
ENDBRANCH   1   2
BRANCH   1  20
ATOM     20  C   UNL A   1      31.591  30.748  26.328  1.00  0.00     0.002 C 
BRANCH  20  21
ATOM     21  C   UNL A   1      31.437  32.241  26.624  1.00  0.00     0.021 C 
BRANCH  21  22
ATOM     22  C   UNL A   1      32.614  32.851  27.375  1.00  0.00     0.116 C 
BRANCH  22  23
ATOM     23  N   UNL A   1      32.407  34.265  27.643  1.00  0.00    -0.352 N 
ATOM     24  C   UNL A   1      32.988  35.066  28.593  1.00  0.00     0.251 C 
ATOM     25  H   UNL A   1      31.755  34.714  27.057  1.00  0.00     0.163 HD
ATOM     26  O   UNL A   1      32.529  36.178  28.830  1.00  0.00    -0.269 OA
BRANCH  24  27
ATOM     27  C   UNL A   1      34.155  34.572  29.352  1.00  0.00     0.039 A 
ATOM     28  C   UNL A   1      33.951  34.053  30.631  1.00  0.00     0.014 A 
ATOM     29  C   UNL A   1      35.439  34.604  28.800  1.00  0.00     0.014 A 
ATOM     30  C   UNL A   1      35.023  33.491  31.324  1.00  0.00     0.010 A 
ATOM     31  C   UNL A   1      36.491  33.972  29.459  1.00  0.00     0.010 A 
ATOM     32  C   UNL A   1      36.290  33.396  30.722  1.00  0.00    -0.014 A 
BRANCH  32  33
ATOM     33  C   UNL A   1      37.385  32.636  31.376  1.00  0.00     0.031 A 
ATOM     34  C   UNL A   1      37.908  33.046  32.724  1.00  0.00     0.074 A 
ATOM     35  C   UNL A   1      37.949  31.602  30.717  1.00  0.00     0.049 A 
ATOM     36  N   UNL A   1      38.892  32.529  33.418  1.00  0.00    -0.248 NA
ATOM     37  C   UNL A   1      37.258  34.195  33.373  1.00  0.00     0.031 C 
ATOM     38  C   UNL A   1      37.556  31.138  29.384  1.00  0.00     0.029 A 
ATOM     39  N   UNL A   1      38.976  30.761  31.068  1.00  0.00    -0.354 N 
ATOM     40  C   UNL A   1      38.981  33.291  34.575  1.00  0.00     0.074 A 
ATOM     41  C   UNL A   1      37.981  34.331  34.476  1.00  0.00     0.031 C 
ATOM     42  C   UNL A   1      38.315  30.084  29.043  1.00  0.00     0.029 A 
ATOM     43  C   UNL A   1      39.285  29.834  30.102  1.00  0.00     0.049 A 
ATOM     44  H   UNL A   1      39.445  30.816  31.932  1.00  0.00     0.167 HD
ATOM     45  C   UNL A   1      39.816  33.124  35.628  1.00  0.00     0.037 A 
ATOM     46  C   UNL A   1      40.261  28.906  30.059  1.00  0.00     0.037 A 
ATOM     47  C   UNL A   1      40.798  32.075  35.728  1.00  0.00     0.049 A 
ATOM     48  C   UNL A   1      41.196  28.776  31.234  1.00  0.00     0.074 A 
ATOM     49  C   UNL A   1      41.637  31.783  36.790  1.00  0.00     0.029 A 
ATOM     50  N   UNL A   1      41.086  31.160  34.728  1.00  0.00    -0.354 N 
ATOM     51  N   UNL A   1      41.204  29.440  32.363  1.00  0.00    -0.248 NA
ATOM     52  C   UNL A   1      42.257  27.765  31.128  1.00  0.00     0.031 C 
ATOM     53  C   UNL A   1      42.490  30.747  36.401  1.00  0.00     0.029 A 
ATOM     54  C   UNL A   1      42.128  30.338  35.128  1.00  0.00     0.049 A 
ATOM     55  H   UNL A   1      40.621  31.103  33.862  1.00  0.00     0.167 HD
ATOM     56  C   UNL A   1      42.249  28.911  33.108  1.00  0.00     0.074 A 
ATOM     57  C   UNL A   1      42.830  27.848  32.318  1.00  0.00     0.031 C 
ATOM     58  C   UNL A   1      42.695  29.278  34.334  1.00  0.00     0.037 A 
BRANCH  45  59
ATOM     59  C   UNL A   1      39.728  34.097  36.770  1.00  0.00     0.064 A 
ATOM     60  C   UNL A   1      38.930  33.847  37.894  1.00  0.00     0.173 A 
ATOM     61  C   UNL A   1      40.545  35.239  36.783  1.00  0.00     0.173 A 
ATOM     62  F   UNL A   1      38.127  32.773  37.929  1.00  0.00    -0.203 F 
ATOM     63  C   UNL A   1      38.947  34.709  38.990  1.00  0.00     0.198 A 
ATOM     64  C   UNL A   1      40.583  36.080  37.892  1.00  0.00     0.198 A 
ATOM     65  F   UNL A   1      41.334  35.519  35.735  1.00  0.00    -0.203 F 
ATOM     66  F   UNL A   1      38.157  34.464  40.044  1.00  0.00    -0.200 F 
ATOM     67  C   UNL A   1      39.783  35.815  38.993  1.00  0.00     0.200 A 
ATOM     68  F   UNL A   1      41.408  37.136  37.901  1.00  0.00    -0.200 F 
ATOM     69  F   UNL A   1      39.820  36.626  40.059  1.00  0.00    -0.200 F 
ENDBRANCH  45  59
BRANCH  46  70
ATOM     70  C   UNL A   1      40.437  28.045  28.856  1.00  0.00     0.064 A 
ATOM     71  C   UNL A   1      41.208  28.468  27.764  1.00  0.00     0.173 A 
ATOM     72  C   UNL A   1      39.780  26.809  28.744  1.00  0.00     0.173 A 
ATOM     73  F   UNL A   1      41.843  29.648  27.811  1.00  0.00    -0.203 F 
ATOM     74  C   UNL A   1      41.272  27.718  26.591  1.00  0.00     0.198 A 
ATOM     75  C   UNL A   1      39.882  26.037  27.588  1.00  0.00     0.198 A 
ATOM     76  F   UNL A   1      39.033  26.348  29.759  1.00  0.00    -0.203 F 
ATOM     77  F   UNL A   1      41.944  28.191  25.533  1.00  0.00    -0.200 F 
ATOM     78  C   UNL A   1      40.612  26.501  26.505  1.00  0.00     0.200 A 
ATOM     79  F   UNL A   1      39.260  24.853  27.520  1.00  0.00    -0.200 F 
ATOM     80  F   UNL A   1      40.664  25.787  25.374  1.00  0.00    -0.200 F 
ENDBRANCH  46  70
BRANCH  58  81
ATOM     81  C   UNL A   1      43.851  28.509  34.909  1.00  0.00     0.064 A 
ATOM     82  C   UNL A   1      43.660  27.332  35.649  1.00  0.00     0.173 A 
ATOM     83  C   UNL A   1      45.170  28.934  34.687  1.00  0.00     0.173 A 
ATOM     84  F   UNL A   1      42.419  26.888  35.903  1.00  0.00    -0.203 F 
ATOM     85  C   UNL A   1      44.742  26.630  36.172  1.00  0.00     0.198 A 
ATOM     86  C   UNL A   1      46.252  28.207  35.176  1.00  0.00     0.198 A 
ATOM     87  F   UNL A   1      45.413  30.048  33.979  1.00  0.00    -0.203 F 
ATOM     88  F   UNL A   1      44.530  25.543  36.928  1.00  0.00    -0.200 F 
ATOM     89  C   UNL A   1      46.036  27.062  35.927  1.00  0.00     0.200 A 
ATOM     90  F   UNL A   1      47.502  28.614  34.919  1.00  0.00    -0.200 F 
ATOM     91  F   UNL A   1      47.078  26.378  36.422  1.00  0.00    -0.200 F 
ENDBRANCH  58  81
ENDBRANCH  32  33
ENDBRANCH  24  27
ENDBRANCH  22  23
ENDBRANCH  21  22
ENDBRANCH  20  21
ENDBRANCH   1  20
TORSDOF 17
ENDMDL
MODEL 3
REMARK VINA RESULT:     -10.9      1.198      2.092
REMARK SMILES CC(C)[C@](C)(CC(=O)NC#N)C(=O)NCCCCCCNC(=O)c1ccc(-c2c3nc(c(-c4c(F)c(F)c(F)c(F)c4F)c4ccc([nH]4)c(-c4c(F)c(F)c(F)c(F)c4F)c4nc(c(-c5c(F)c(F)c(F)c(F)c5F)c5ccc2[nH]5)C=C4)C=C3)cc1
REMARK SMILES IDX 17 1 16 2 15 3 14 4 12 5 13 6 4 8 5 9 2 10 1 11 3 12 6 13
REMARK SMILES IDX 7 14 8 15 9 16 10 18 11 19 18 20 19 21 20 22 21 23 22 24
REMARK SMILES IDX 23 26 24 27 25 28 86 29 26 30 85 31 27 32 28 33 29 34 79 35
REMARK SMILES IDX 30 36 84 37 78 38 80 39 31 40 83 41 77 42 76 43 32 45 64 46
REMARK SMILES IDX 44 47 63 48 45 49 48 50 62 51 81 52 46 53 47 54 61 56 82 57
REMARK SMILES IDX 49 58 33 59 34 60 42 61 35 62 36 63 40 64 43 65 37 66 38 67
REMARK SMILES IDX 41 68 39 69 65 70 66 71 74 72 67 73 68 74 72 75 75 76 69 77
REMARK SMILES IDX 70 78 73 79 71 80 50 81 51 82 59 83 52 84 53 85 57 86 60 87
REMARK SMILES IDX 54 88 55 89 58 90 56 91
REMARK H PARENT 14 7 9 17 21 25 80 44 48 55
REMARK Flexibility Score: inf
ROOT
ATOM      1  C   UNL A   1      31.855  29.538  27.167  1.00  0.00     0.002 C 
ENDROOT
BRANCH   1   2
ATOM      2  C   UNL A   1      33.265  28.964  27.347  1.00  0.00     0.021 C 
BRANCH   2   3
ATOM      3  C   UNL A   1      33.995  28.716  26.032  1.00  0.00     0.116 C 
BRANCH   3   4
ATOM      4  N   UNL A   1      34.149  27.296  25.782  1.00  0.00    -0.356 N 
ATOM      5  C   UNL A   1      33.424  26.409  25.055  1.00  0.00     0.226 C 
ATOM      6  O   UNL A   1      33.773  25.228  25.132  1.00  0.00    -0.274 OA
ATOM      7  H   UNL A   1      34.932  26.898  26.226  1.00  0.00     0.163 HD
BRANCH   5   8
ATOM      8  C   UNL A   1      32.237  26.843  24.164  1.00  0.00     0.057 C 
ATOM      9  C   UNL A   1      31.990  25.697  23.147  1.00  0.00     0.022 C 
BRANCH   8  10
ATOM     10  C   UNL A   1      32.628  28.170  23.384  1.00  0.00    -0.002 C 
ATOM     11  C   UNL A   1      33.733  27.976  22.333  1.00  0.00     0.008 C 
ATOM     12  C   UNL A   1      31.442  28.892  22.738  1.00  0.00     0.008 C 
ENDBRANCH   8  10
BRANCH   8  13
ATOM     13  C   UNL A   1      30.949  26.999  25.026  1.00  0.00     0.118 C 
BRANCH  13  14
ATOM     14  C   UNL A   1      29.820  26.030  24.701  1.00  0.00     0.234 C 
ATOM     15  O   UNL A   1      28.999  26.261  23.817  1.00  0.00    -0.274 OA
ATOM     16  N   UNL A   1      29.762  24.857  25.396  1.00  0.00    -0.263 N 
ATOM     17  H   UNL A   1      29.006  24.281  25.133  1.00  0.00     0.182 HD
BRANCH  16  18
ATOM     18  C   UNL A   1      30.525  24.331  26.363  1.00  0.00     0.183 C 
ATOM     19  N   UNL A   1      31.194  23.868  27.184  1.00  0.00    -0.172 NA
ENDBRANCH  16  18
ENDBRANCH  13  14
ENDBRANCH   8  13
ENDBRANCH   5   8
ENDBRANCH   3   4
ENDBRANCH   2   3
ENDBRANCH   1   2
BRANCH   1  20
ATOM     20  C   UNL A   1      31.756  30.680  26.151  1.00  0.00     0.002 C 
BRANCH  20  21
ATOM     21  C   UNL A   1      31.440  32.047  26.759  1.00  0.00     0.021 C 
BRANCH  21  22
ATOM     22  C   UNL A   1      32.658  32.780  27.310  1.00  0.00     0.116 C 
BRANCH  22  23
ATOM     23  N   UNL A   1      32.363  34.174  27.597  1.00  0.00    -0.352 N 
ATOM     24  C   UNL A   1      32.911  35.005  28.541  1.00  0.00     0.251 C 
ATOM     25  H   UNL A   1      31.669  34.584  27.030  1.00  0.00     0.163 HD
ATOM     26  O   UNL A   1      32.385  36.081  28.800  1.00  0.00    -0.269 OA
BRANCH  24  27
ATOM     27  C   UNL A   1      34.126  34.583  29.268  1.00  0.00     0.039 A 
ATOM     28  C   UNL A   1      33.992  34.077  30.562  1.00  0.00     0.014 A 
ATOM     29  C   UNL A   1      35.389  34.670  28.672  1.00  0.00     0.014 A 
ATOM     30  C   UNL A   1      35.113  33.582  31.227  1.00  0.00     0.010 A 
ATOM     31  C   UNL A   1      36.492  34.103  29.305  1.00  0.00     0.010 A 
ATOM     32  C   UNL A   1      36.363  33.540  30.583  1.00  0.00    -0.014 A 
BRANCH  32  33
ATOM     33  C   UNL A   1      37.517  32.848  31.212  1.00  0.00     0.031 A 
ATOM     34  C   UNL A   1      38.137  31.642  30.564  1.00  0.00     0.074 A 
ATOM     35  C   UNL A   1      37.967  33.282  32.407  1.00  0.00     0.049 A 
ATOM     36  N   UNL A   1      39.116  30.887  30.997  1.00  0.00    -0.248 NA
ATOM     37  C   UNL A   1      37.580  31.215  29.271  1.00  0.00     0.031 C 
ATOM     38  C   UNL A   1      37.418  34.415  33.154  1.00  0.00     0.029 A 
ATOM     39  N   UNL A   1      38.981  32.820  33.210  1.00  0.00    -0.354 N 
ATOM     40  C   UNL A   1      39.284  29.897  30.039  1.00  0.00     0.074 A 
ATOM     41  C   UNL A   1      38.282  30.120  29.019  1.00  0.00     0.031 C 
ATOM     42  C   UNL A   1      38.113  34.574  34.291  1.00  0.00     0.029 A 
ATOM     43  C   UNL A   1      39.119  33.522  34.384  1.00  0.00     0.049 A 
ATOM     44  H   UNL A   1      39.557  32.059  32.967  1.00  0.00     0.167 HD
ATOM     45  C   UNL A   1      40.202  28.902  30.010  1.00  0.00     0.037 A 
ATOM     46  C   UNL A   1      39.941  33.323  35.432  1.00  0.00     0.037 A 
ATOM     47  C   UNL A   1      41.207  28.696  31.021  1.00  0.00     0.049 A 
ATOM     48  C   UNL A   1      40.923  32.181  35.382  1.00  0.00     0.074 A 
ATOM     49  C   UNL A   1      42.227  27.759  31.040  1.00  0.00     0.029 A 
ATOM     50  N   UNL A   1      41.311  29.422  32.198  1.00  0.00    -0.354 N 
ATOM     51  N   UNL A   1      41.135  31.313  34.424  1.00  0.00    -0.248 NA
ATOM     52  C   UNL A   1      41.781  31.992  36.560  1.00  0.00     0.031 C 
ATOM     53  C   UNL A   1      42.894  27.862  32.263  1.00  0.00     0.029 A 
ATOM     54  C   UNL A   1      42.344  28.917  32.972  1.00  0.00     0.049 A 
ATOM     55  H   UNL A   1      40.737  30.182  32.446  1.00  0.00     0.167 HD
ATOM     56  C   UNL A   1      42.165  30.496  34.871  1.00  0.00     0.074 A 
ATOM     57  C   UNL A   1      42.558  30.992  36.171  1.00  0.00     0.031 C 
ATOM     58  C   UNL A   1      42.729  29.423  34.265  1.00  0.00     0.037 A 
BRANCH  45  59
ATOM     59  C   UNL A   1      40.174  27.936  28.860  1.00  0.00     0.064 A 
ATOM     60  C   UNL A   1      40.901  28.167  27.684  1.00  0.00     0.173 A 
ATOM     61  C   UNL A   1      39.499  26.712  28.987  1.00  0.00     0.173 A 
ATOM     62  F   UNL A   1      41.558  29.323  27.510  1.00  0.00    -0.203 F 
ATOM     63  C   UNL A   1      40.948  27.208  26.673  1.00  0.00     0.198 A 
ATOM     64  C   UNL A   1      39.575  25.744  27.989  1.00  0.00     0.198 A 
ATOM     65  F   UNL A   1      38.796  26.439  30.096  1.00  0.00    -0.203 F 
ATOM     66  F   UNL A   1      41.629  27.459  25.546  1.00  0.00    -0.200 F 
ATOM     67  C   UNL A   1      40.298  25.994  26.832  1.00  0.00     0.200 A 
ATOM     68  F   UNL A   1      38.964  24.563  28.155  1.00  0.00    -0.200 F 
ATOM     69  F   UNL A   1      40.369  25.062  25.872  1.00  0.00    -0.200 F 
ENDBRANCH  45  59
BRANCH  46  70
ATOM     70  C   UNL A   1      39.859  34.194  36.638  1.00  0.00     0.064 A 
ATOM     71  C   UNL A   1      40.655  35.342  36.763  1.00  0.00     0.173 A 
ATOM     72  C   UNL A   1      39.030  33.860  37.722  1.00  0.00     0.173 A 
ATOM     73  F   UNL A   1      41.477  35.698  35.765  1.00  0.00    -0.203 F 
ATOM     74  C   UNL A   1      40.667  36.087  37.940  1.00  0.00     0.198 A 
ATOM     75  C   UNL A   1      39.009  34.632  38.880  1.00  0.00     0.198 A 
ATOM     76  F   UNL A   1      38.240  32.777  37.657  1.00  0.00    -0.203 F 
ATOM     77  F   UNL A   1      41.504  37.126  38.063  1.00  0.00    -0.200 F 
ATOM     78  C   UNL A   1      39.841  35.734  38.997  1.00  0.00     0.200 A 
ATOM     79  F   UNL A   1      38.193  34.298  39.889  1.00  0.00    -0.200 F 
ATOM     80  F   UNL A   1      39.862  36.444  40.133  1.00  0.00    -0.200 F 
ENDBRANCH  46  70
BRANCH  58  81
ATOM     81  C   UNL A   1      43.849  28.729  34.987  1.00  0.00     0.064 A 
ATOM     82  C   UNL A   1      43.604  27.734  35.946  1.00  0.00     0.173 A 
ATOM     83  C   UNL A   1      45.186  29.037  34.692  1.00  0.00     0.173 A 
ATOM     84  F   UNL A   1      42.345  27.409  36.276  1.00  0.00    -0.203 F 
ATOM     85  C   UNL A   1      44.653  27.099  36.604  1.00  0.00     0.198 A 
ATOM     86  C   UNL A   1      46.233  28.371  35.322  1.00  0.00     0.198 A 
ATOM     87  F   UNL A   1      45.480  29.974  33.777  1.00  0.00    -0.203 F 
ATOM     88  F   UNL A   1      44.392  26.196  37.560  1.00  0.00    -0.200 F 
ATOM     89  C   UNL A   1      45.966  27.410  36.285  1.00  0.00     0.200 A 
ATOM     90  F   UNL A   1      47.501  28.658  34.996  1.00  0.00    -0.200 F 
ATOM     91  F   UNL A   1      46.975  26.789  36.912  1.00  0.00    -0.200 F 
ENDBRANCH  58  81
ENDBRANCH  32  33
ENDBRANCH  24  27
ENDBRANCH  22  23
ENDBRANCH  21  22
ENDBRANCH  20  21
ENDBRANCH   1  20
TORSDOF 17
ENDMDL
