MODEL 1
REMARK VINA RESULT:     -12.1      0.000      0.000
REMARK SMILES O=C(NCCCCCCNC(=O)[C@@H](CCc1ccccc1)[C@@H]1CCS(=O)(=O)C1)c1ccc(-c2c3nc(c(-c4c(F)c(F)c(F)c(F)c4F)c4ccc([nH]4)c(-c4c(F)c(F)c(F)c(F)c4F)c4nc(c(-c5c(F)c(F)c(F)c(F)c5F)c5ccc2[nH]5)C=C4)C=C3)cc1
REMARK SMILES IDX 7 1 6 2 5 3 4 4 3 5 1 6 2 7 29 9 30 10 91 11 31 12 90 13
REMARK SMILES IDX 32 14 33 15 34 16 84 17 35 18 89 19 83 20 85 21 36 22 88 23
REMARK SMILES IDX 82 24 81 25 37 27 69 28 49 29 68 30 50 31 53 32 67 33 86 34
REMARK SMILES IDX 51 35 52 36 66 38 87 39 54 40 38 41 39 42 47 43 40 44 41 45
REMARK SMILES IDX 45 46 48 47 42 48 43 49 46 50 44 51 70 52 71 53 79 54 72 55
REMARK SMILES IDX 73 56 77 57 80 58 74 59 75 60 78 61 76 62 55 63 56 64 64 65
REMARK SMILES IDX 57 66 58 67 62 68 65 69 59 70 60 71 63 72 61 73 8 74 9 75
REMARK SMILES IDX 10 76 11 77 12 79 13 80 14 81 15 82 16 83 17 84 21 85 18 86
REMARK SMILES IDX 20 87 19 88 22 89 23 90 28 91 24 92 25 93 26 94 27 95
REMARK H PARENT 3 8 85 26 53 37 10 78
REMARK Flexibility Score: inf
ROOT
ATOM      1  C   UNL A   1      32.593  29.982  27.184  1.00  0.00     0.002 C 
ENDROOT
BRANCH   1   2
ATOM      2  C   UNL A   1      31.416  30.730  26.548  1.00  0.00     0.002 C 
BRANCH   2   3
ATOM      3  C   UNL A   1      31.463  32.258  26.610  1.00  0.00     0.021 C 
BRANCH   3   4
ATOM      4  C   UNL A   1      32.709  32.862  27.253  1.00  0.00     0.116 C 
BRANCH   4   5
ATOM      5  N   UNL A   1      32.502  34.253  27.602  1.00  0.00    -0.352 N 
ATOM      6  O   UNL A   1      32.519  36.058  28.943  1.00  0.00    -0.269 OA
ATOM      7  C   UNL A   1      33.026  34.982  28.636  1.00  0.00     0.251 C 
ATOM      8  H   UNL A   1      31.894  34.748  27.007  1.00  0.00     0.163 HD
BRANCH   7   9
ATOM      9  C   UNL A   1      34.204  34.496  29.386  1.00  0.00     0.039 A 
ATOM     10  C   UNL A   1      34.060  33.799  30.592  1.00  0.00     0.014 A 
ATOM     11  C   UNL A   1      35.469  34.642  28.811  1.00  0.00     0.014 A 
ATOM     12  C   UNL A   1      35.186  33.299  31.248  1.00  0.00     0.010 A 
ATOM     13  C   UNL A   1      36.590  34.101  29.444  1.00  0.00     0.010 A 
ATOM     14  C   UNL A   1      36.458  33.427  30.668  1.00  0.00    -0.014 A 
BRANCH  14  15
ATOM     15  C   UNL A   1      37.646  32.794  31.293  1.00  0.00     0.031 A 
ATOM     16  C   UNL A   1      38.327  31.631  30.636  1.00  0.00     0.074 A 
ATOM     17  C   UNL A   1      38.066  33.230  32.496  1.00  0.00     0.049 A 
ATOM     18  N   UNL A   1      39.304  30.883  31.082  1.00  0.00    -0.248 NA
ATOM     19  C   UNL A   1      37.837  31.251  29.305  1.00  0.00     0.031 C 
ATOM     20  C   UNL A   1      37.471  34.339  33.242  1.00  0.00     0.029 A 
ATOM     21  N   UNL A   1      39.071  32.778  33.314  1.00  0.00    -0.354 N 
ATOM     22  C   UNL A   1      39.533  29.931  30.099  1.00  0.00     0.074 A 
ATOM     23  C   UNL A   1      38.576  30.182  29.040  1.00  0.00     0.031 C 
ATOM     24  C   UNL A   1      38.115  34.479  34.409  1.00  0.00     0.029 A 
ATOM     25  C   UNL A   1      39.135  33.438  34.516  1.00  0.00     0.049 A 
ATOM     26  H   UNL A   1      39.686  32.052  33.063  1.00  0.00     0.167 HD
ATOM     27  C   UNL A   1      40.457  28.941  30.083  1.00  0.00     0.037 A 
ATOM     28  C   UNL A   1      39.901  33.211  35.600  1.00  0.00     0.037 A 
ATOM     29  C   UNL A   1      41.408  28.701  31.139  1.00  0.00     0.049 A 
ATOM     30  C   UNL A   1      40.902  32.092  35.572  1.00  0.00     0.074 A 
ATOM     31  C   UNL A   1      42.421  27.760  31.192  1.00  0.00     0.029 A 
ATOM     32  N   UNL A   1      41.452  29.402  32.336  1.00  0.00    -0.354 N 
ATOM     33  N   UNL A   1      41.147  31.230  34.616  1.00  0.00    -0.248 NA
ATOM     34  C   UNL A   1      41.732  31.912  36.770  1.00  0.00     0.031 C 
ATOM     35  C   UNL A   1      43.045  27.858  32.441  1.00  0.00     0.029 A 
ATOM     36  C   UNL A   1      42.456  28.895  33.146  1.00  0.00     0.049 A 
ATOM     37  H   UNL A   1      40.857  30.150  32.575  1.00  0.00     0.167 HD
ATOM     38  C   UNL A   1      42.172  30.421  35.083  1.00  0.00     0.074 A 
ATOM     39  C   UNL A   1      42.507  30.897  36.410  1.00  0.00     0.031 C 
ATOM     40  C   UNL A   1      42.782  29.382  34.463  1.00  0.00     0.037 A 
BRANCH  27  41
ATOM     41  C   UNL A   1      40.465  28.021  28.896  1.00  0.00     0.064 A 
ATOM     42  C   UNL A   1      39.724  26.829  28.878  1.00  0.00     0.173 A 
ATOM     43  C   UNL A   1      41.214  28.345  27.755  1.00  0.00     0.173 A 
ATOM     44  F   UNL A   1      38.999  26.468  29.947  1.00  0.00    -0.203 F 
ATOM     45  C   UNL A   1      39.761  25.980  27.775  1.00  0.00     0.198 A 
ATOM     46  C   UNL A   1      41.226  27.506  26.642  1.00  0.00     0.198 A 
ATOM     47  F   UNL A   1      41.935  29.475  27.716  1.00  0.00    -0.203 F 
ATOM     48  F   UNL A   1      39.091  24.819  27.803  1.00  0.00    -0.200 F 
ATOM     49  C   UNL A   1      40.508  26.320  26.658  1.00  0.00     0.200 A 
ATOM     50  F   UNL A   1      41.939  27.842  25.558  1.00  0.00    -0.200 F 
ATOM     51  F   UNL A   1      40.546  25.499  25.599  1.00  0.00    -0.200 F 
ENDBRANCH  27  41
BRANCH  28  52
ATOM     52  C   UNL A   1      39.730  34.071  36.798  1.00  0.00     0.064 A 
ATOM     53  C   UNL A   1      38.906  33.677  37.858  1.00  0.00     0.173 A 
ATOM     54  C   UNL A   1      40.436  35.277  36.929  1.00  0.00     0.173 A 
ATOM     55  F   UNL A   1      38.198  32.541  37.770  1.00  0.00    -0.203 F 
ATOM     56  C   UNL A   1      38.796  34.455  39.009  1.00  0.00     0.198 A 
ATOM     57  C   UNL A   1      40.345  36.041  38.089  1.00  0.00     0.198 A 
ATOM     58  F   UNL A   1      41.243  35.693  35.942  1.00  0.00    -0.203 F 
ATOM     59  F   UNL A   1      37.986  34.066  40.003  1.00  0.00    -0.200 F 
ATOM     60  C   UNL A   1      39.523  35.630  39.128  1.00  0.00     0.200 A 
ATOM     61  F   UNL A   1      41.062  37.166  38.207  1.00  0.00    -0.200 F 
ATOM     62  F   UNL A   1      39.432  36.367  40.243  1.00  0.00    -0.200 F 
ENDBRANCH  28  52
BRANCH  40  63
ATOM     63  C   UNL A   1      43.901  28.701  35.193  1.00  0.00     0.064 A 
ATOM     64  C   UNL A   1      43.683  27.560  35.977  1.00  0.00     0.173 A 
ATOM     65  C   UNL A   1      45.221  29.156  35.045  1.00  0.00     0.173 A 
ATOM     66  F   UNL A   1      42.437  27.096  36.161  1.00  0.00    -0.203 F 
ATOM     67  C   UNL A   1      44.745  26.901  36.592  1.00  0.00     0.198 A 
ATOM     68  C   UNL A   1      46.282  28.482  35.642  1.00  0.00     0.198 A 
ATOM     69  F   UNL A   1      45.481  30.242  34.302  1.00  0.00    -0.203 F 
ATOM     70  F   UNL A   1      44.512  25.827  37.359  1.00  0.00    -0.200 F 
ATOM     71  C   UNL A   1      46.043  27.357  36.416  1.00  0.00     0.200 A 
ATOM     72  F   UNL A   1      47.537  28.916  35.460  1.00  0.00    -0.200 F 
ATOM     73  F   UNL A   1      47.065  26.712  36.995  1.00  0.00    -0.200 F 
ENDBRANCH  40  63
ENDBRANCH  14  15
ENDBRANCH   7   9
ENDBRANCH   4   5
ENDBRANCH   3   4
ENDBRANCH   2   3
ENDBRANCH   1   2
BRANCH   1  74
ATOM     74  C   UNL A   1      32.608  28.459  27.024  1.00  0.00     0.021 C 
BRANCH  74  75
ATOM     75  C   UNL A   1      33.777  27.892  26.218  1.00  0.00     0.116 C 
BRANCH  75  76
ATOM     76  N   UNL A   1      33.963  28.597  24.977  1.00  0.00    -0.356 N 
ATOM     77  C   UNL A   1      33.256  28.586  23.827  1.00  0.00     0.223 C 
ATOM     78  H   UNL A   1      34.746  29.195  24.964  1.00  0.00     0.163 HD
ATOM     79  O   UNL A   1      33.633  29.390  22.962  1.00  0.00    -0.275 OA
BRANCH  77  80
ATOM     80  C   UNL A   1      32.029  27.685  23.517  1.00  0.00     0.083 C 
BRANCH  80  81
ATOM     81  C   UNL A   1      30.604  28.130  23.963  1.00  0.00     0.018 C 
BRANCH  81  82
ATOM     82  C   UNL A   1      29.311  28.564  23.207  1.00  0.00     0.036 C 
BRANCH  82  83
ATOM     83  C   UNL A   1      28.903  29.949  22.764  1.00  0.00    -0.048 A 
ATOM     84  C   UNL A   1      29.028  31.053  23.615  1.00  0.00     0.004 A 
ATOM     85  C   UNL A   1      28.575  30.222  21.430  1.00  0.00     0.004 A 
ATOM     86  C   UNL A   1      28.665  32.343  23.214  1.00  0.00     0.000 A 
ATOM     87  C   UNL A   1      28.237  31.515  21.008  1.00  0.00     0.000 A 
ATOM     88  C   UNL A   1      28.250  32.571  21.911  1.00  0.00     0.000 A 
ENDBRANCH  82  83
ENDBRANCH  81  82
ENDBRANCH  80  81
BRANCH  80  89
ATOM     89  C   UNL A   1      32.397  26.764  22.302  1.00  0.00     0.017 C 
ATOM     90  C   UNL A   1      31.501  25.587  21.957  1.00  0.00     0.021 C 
ATOM     91  C   UNL A   1      33.805  26.131  22.414  1.00  0.00     0.141 C 
ATOM     92  C   UNL A   1      31.830  24.436  22.897  1.00  0.00     0.137 C 
ATOM     93  S   UNL A   1      33.573  24.559  23.223  1.00  0.00     0.150 S 
ATOM     94  O   UNL A   1      33.752  24.743  24.652  1.00  0.00    -0.229 OA
ATOM     95  O   UNL A   1      34.258  23.529  22.481  1.00  0.00    -0.229 OA
ENDBRANCH  80  89
ENDBRANCH  77  80
ENDBRANCH  75  76
ENDBRANCH  74  75
ENDBRANCH   1  74
TORSDOF 17
ENDMDL
MODEL 2
REMARK VINA RESULT:     -12.1      1.412      2.362
REMARK SMILES O=C(NCCCCCCNC(=O)[C@@H](CCc1ccccc1)[C@@H]1CCS(=O)(=O)C1)c1ccc(-c2c3nc(c(-c4c(F)c(F)c(F)c(F)c4F)c4ccc([nH]4)c(-c4c(F)c(F)c(F)c(F)c4F)c4nc(c(-c5c(F)c(F)c(F)c(F)c5F)c5ccc2[nH]5)C=C4)C=C3)cc1
REMARK SMILES IDX 7 1 6 2 5 3 4 4 3 5 1 6 2 7 29 9 30 10 91 11 31 12 90 13
REMARK SMILES IDX 32 14 33 15 34 16 84 17 35 18 89 19 83 20 85 21 36 22 88 23
REMARK SMILES IDX 82 24 81 25 37 27 69 28 49 29 68 30 50 31 53 32 67 33 86 34
REMARK SMILES IDX 51 35 52 36 66 38 87 39 54 40 38 41 39 42 47 43 40 44 41 45
REMARK SMILES IDX 45 46 48 47 42 48 43 49 46 50 44 51 70 52 71 53 79 54 72 55
REMARK SMILES IDX 73 56 77 57 80 58 74 59 75 60 78 61 76 62 55 63 56 64 64 65
REMARK SMILES IDX 57 66 58 67 62 68 65 69 59 70 60 71 63 72 61 73 8 74 9 75
REMARK SMILES IDX 10 76 11 77 12 79 13 80 14 81 15 82 16 83 17 84 21 85 18 86
REMARK SMILES IDX 20 87 19 88 22 89 23 90 28 91 24 92 25 93 26 94 27 95
REMARK H PARENT 3 8 85 26 53 37 10 78
REMARK Flexibility Score: inf
ROOT
ATOM      1  C   UNL A   1      32.205  29.688  26.499  1.00  0.00     0.002 C 
ENDROOT
BRANCH   1   2
ATOM      2  C   UNL A   1      31.520  30.900  25.858  1.00  0.00     0.002 C 
BRANCH   2   3
ATOM      3  C   UNL A   1      31.351  32.137  26.742  1.00  0.00     0.021 C 
BRANCH   3   4
ATOM      4  C   UNL A   1      32.640  32.755  27.279  1.00  0.00     0.116 C 
BRANCH   4   5
ATOM      5  N   UNL A   1      32.460  34.157  27.598  1.00  0.00    -0.352 N 
ATOM      6  O   UNL A   1      32.528  35.992  28.895  1.00  0.00    -0.269 OA
ATOM      7  C   UNL A   1      33.013  34.902  28.605  1.00  0.00     0.251 C 
ATOM      8  H   UNL A   1      31.850  34.647  27.002  1.00  0.00     0.163 HD
BRANCH   7   9
ATOM      9  C   UNL A   1      34.196  34.414  29.348  1.00  0.00     0.039 A 
ATOM     10  C   UNL A   1      34.059  33.704  30.546  1.00  0.00     0.014 A 
ATOM     11  C   UNL A   1      35.459  34.575  28.771  1.00  0.00     0.014 A 
ATOM     12  C   UNL A   1      35.190  33.204  31.194  1.00  0.00     0.010 A 
ATOM     13  C   UNL A   1      36.584  34.034  29.395  1.00  0.00     0.010 A 
ATOM     14  C   UNL A   1      36.459  33.346  30.613  1.00  0.00    -0.014 A 
BRANCH  14  15
ATOM     15  C   UNL A   1      37.653  32.713  31.228  1.00  0.00     0.031 A 
ATOM     16  C   UNL A   1      38.351  31.574  30.547  1.00  0.00     0.074 A 
ATOM     17  C   UNL A   1      38.062  33.126  32.442  1.00  0.00     0.049 A 
ATOM     18  N   UNL A   1      39.335  30.828  30.980  1.00  0.00    -0.248 NA
ATOM     19  C   UNL A   1      37.871  31.219  29.205  1.00  0.00     0.031 C 
ATOM     20  C   UNL A   1      37.450  34.210  33.211  1.00  0.00     0.029 A 
ATOM     21  N   UNL A   1      39.069  32.668  33.254  1.00  0.00    -0.354 N 
ATOM     22  C   UNL A   1      39.580  29.902  29.975  1.00  0.00     0.074 A 
ATOM     23  C   UNL A   1      38.624  30.166  28.919  1.00  0.00     0.031 C 
ATOM     24  C   UNL A   1      38.088  34.330  34.385  1.00  0.00     0.029 A 
ATOM     25  C   UNL A   1      39.120  33.300  34.471  1.00  0.00     0.049 A 
ATOM     26  H   UNL A   1      39.695  31.955  32.989  1.00  0.00     0.167 HD
ATOM     27  C   UNL A   1      40.517  28.924  29.941  1.00  0.00     0.037 A 
ATOM     28  C   UNL A   1      39.884  33.057  35.553  1.00  0.00     0.037 A 
ATOM     29  C   UNL A   1      41.466  28.672  30.995  1.00  0.00     0.049 A 
ATOM     30  C   UNL A   1      40.899  31.951  35.504  1.00  0.00     0.074 A 
ATOM     31  C   UNL A   1      42.491  27.743  31.030  1.00  0.00     0.029 A 
ATOM     32  N   UNL A   1      41.497  29.345  32.208  1.00  0.00    -0.354 N 
ATOM     33  N   UNL A   1      41.159  31.115  34.529  1.00  0.00    -0.248 NA
ATOM     34  C   UNL A   1      41.726  31.754  36.701  1.00  0.00     0.031 C 
ATOM     35  C   UNL A   1      43.108  27.819  32.284  1.00  0.00     0.029 A 
ATOM     36  C   UNL A   1      42.503  28.832  33.011  1.00  0.00     0.049 A 
ATOM     37  H   UNL A   1      40.891  30.080  32.462  1.00  0.00     0.167 HD
ATOM     38  C   UNL A   1      42.192  30.309  34.982  1.00  0.00     0.074 A 
ATOM     39  C   UNL A   1      42.515  30.757  36.321  1.00  0.00     0.031 C 
ATOM     40  C   UNL A   1      42.818  29.291  34.340  1.00  0.00     0.037 A 
BRANCH  27  41
ATOM     41  C   UNL A   1      40.541  28.032  28.733  1.00  0.00     0.064 A 
ATOM     42  C   UNL A   1      41.283  28.359  27.587  1.00  0.00     0.173 A 
ATOM     43  C   UNL A   1      39.825  26.826  28.728  1.00  0.00     0.173 A 
ATOM     44  F   UNL A   1      41.978  29.505  27.536  1.00  0.00    -0.203 F 
ATOM     45  C   UNL A   1      41.277  27.528  26.469  1.00  0.00     0.198 A 
ATOM     46  C   UNL A   1      39.844  25.984  27.618  1.00  0.00     0.198 A 
ATOM     47  F   UNL A   1      39.105  26.462  29.800  1.00  0.00    -0.203 F 
ATOM     48  F   UNL A   1      41.946  27.890  25.365  1.00  0.00    -0.200 F 
ATOM     49  C   UNL A   1      40.561  26.341  26.487  1.00  0.00     0.200 A 
ATOM     50  F   UNL A   1      39.160  24.831  27.641  1.00  0.00    -0.200 F 
ATOM     51  F   UNL A   1      40.553  25.546  25.408  1.00  0.00    -0.200 F 
ENDBRANCH  27  41
BRANCH  28  52
ATOM     52  C   UNL A   1      39.697  33.887  36.770  1.00  0.00     0.064 A 
ATOM     53  C   UNL A   1      40.296  35.147  36.885  1.00  0.00     0.173 A 
ATOM     54  C   UNL A   1      38.865  33.459  37.816  1.00  0.00     0.173 A 
ATOM     55  F   UNL A   1      41.112  35.590  35.918  1.00  0.00    -0.203 F 
ATOM     56  C   UNL A   1      40.068  35.951  37.999  1.00  0.00     0.198 A 
ATOM     57  C   UNL A   1      38.618  34.273  38.918  1.00  0.00     0.198 A 
ATOM     58  F   UNL A   1      38.264  32.262  37.749  1.00  0.00    -0.203 F 
ATOM     59  F   UNL A   1      40.668  37.145  38.094  1.00  0.00    -0.200 F 
ATOM     60  C   UNL A   1      39.222  35.519  39.009  1.00  0.00     0.200 A 
ATOM     61  F   UNL A   1      37.787  33.859  39.883  1.00  0.00    -0.200 F 
ATOM     62  F   UNL A   1      38.988  36.301  40.072  1.00  0.00    -0.200 F 
ENDBRANCH  28  52
BRANCH  40  63
ATOM     63  C   UNL A   1      43.942  28.608  35.059  1.00  0.00     0.064 A 
ATOM     64  C   UNL A   1      43.729  27.467  35.846  1.00  0.00     0.173 A 
ATOM     65  C   UNL A   1      45.261  29.060  34.898  1.00  0.00     0.173 A 
ATOM     66  F   UNL A   1      42.483  27.007  36.043  1.00  0.00    -0.203 F 
ATOM     67  C   UNL A   1      44.795  26.806  36.450  1.00  0.00     0.198 A 
ATOM     68  C   UNL A   1      46.327  28.382  35.484  1.00  0.00     0.198 A 
ATOM     69  F   UNL A   1      45.518  30.145  34.151  1.00  0.00    -0.203 F 
ATOM     70  F   UNL A   1      44.567  25.733  37.219  1.00  0.00    -0.200 F 
ATOM     71  C   UNL A   1      46.093  27.259  36.261  1.00  0.00     0.200 A 
ATOM     72  F   UNL A   1      47.581  28.813  35.289  1.00  0.00    -0.200 F 
ATOM     73  F   UNL A   1      47.119  26.611  36.829  1.00  0.00    -0.200 F 
ENDBRANCH  40  63
ENDBRANCH  14  15
ENDBRANCH   7   9
ENDBRANCH   4   5
ENDBRANCH   3   4
ENDBRANCH   2   3
ENDBRANCH   1   2
BRANCH   1  74
ATOM     74  C   UNL A   1      31.461  28.353  26.417  1.00  0.00     0.021 C 
BRANCH  74  75
ATOM     75  C   UNL A   1      32.342  27.118  26.225  1.00  0.00     0.116 C 
BRANCH  75  76
ATOM     76  N   UNL A   1      31.773  25.952  26.849  1.00  0.00    -0.356 N 
ATOM     77  C   UNL A   1      31.376  24.768  26.337  1.00  0.00     0.223 C 
ATOM     78  H   UNL A   1      31.651  26.032  27.823  1.00  0.00     0.163 HD
ATOM     79  O   UNL A   1      31.008  23.925  27.169  1.00  0.00    -0.275 OA
BRANCH  77  80
ATOM     80  C   UNL A   1      31.366  24.380  24.833  1.00  0.00     0.083 C 
BRANCH  80  81
ATOM     81  C   UNL A   1      30.283  24.974  23.883  1.00  0.00     0.018 C 
BRANCH  81  82
ATOM     82  C   UNL A   1      29.257  26.143  23.996  1.00  0.00     0.036 C 
BRANCH  82  83
ATOM     83  C   UNL A   1      29.334  27.523  23.385  1.00  0.00    -0.048 A 
ATOM     84  C   UNL A   1      30.524  28.010  22.833  1.00  0.00     0.004 A 
ATOM     85  C   UNL A   1      28.183  28.289  23.163  1.00  0.00     0.004 A 
ATOM     86  C   UNL A   1      30.608  29.279  22.253  1.00  0.00     0.000 A 
ATOM     87  C   UNL A   1      28.247  29.551  22.557  1.00  0.00     0.000 A 
ATOM     88  C   UNL A   1      29.469  30.061  22.133  1.00  0.00     0.000 A 
ENDBRANCH  82  83
ENDBRANCH  81  82
ENDBRANCH  80  81
BRANCH  80  89
ATOM     89  C   UNL A   1      32.809  23.903  24.444  1.00  0.00     0.017 C 
ATOM     90  C   UNL A   1      33.063  23.342  23.056  1.00  0.00     0.021 C 
ATOM     91  C   UNL A   1      33.372  22.814  25.388  1.00  0.00     0.141 C 
ATOM     92  C   UNL A   1      32.604  21.891  23.029  1.00  0.00     0.137 C 
ATOM     93  S   UNL A   1      32.922  21.252  24.656  1.00  0.00     0.150 S 
ATOM     94  O   UNL A   1      31.658  20.820  25.227  1.00  0.00    -0.229 OA
ATOM     95  O   UNL A   1      34.080  20.394  24.600  1.00  0.00    -0.229 OA
ENDBRANCH  80  89
ENDBRANCH  77  80
ENDBRANCH  75  76
ENDBRANCH  74  75
ENDBRANCH   1  74
TORSDOF 17
ENDMDL
MODEL 3
REMARK VINA RESULT:     -12.1      1.785      3.892
REMARK SMILES O=C(NCCCCCCNC(=O)[C@@H](CCc1ccccc1)[C@@H]1CCS(=O)(=O)C1)c1ccc(-c2c3nc(c(-c4c(F)c(F)c(F)c(F)c4F)c4ccc([nH]4)c(-c4c(F)c(F)c(F)c(F)c4F)c4nc(c(-c5c(F)c(F)c(F)c(F)c5F)c5ccc2[nH]5)C=C4)C=C3)cc1
REMARK SMILES IDX 7 1 6 2 5 3 4 4 3 5 1 6 2 7 29 9 30 10 91 11 31 12 90 13
REMARK SMILES IDX 32 14 33 15 34 16 84 17 35 18 89 19 83 20 85 21 36 22 88 23
REMARK SMILES IDX 82 24 81 25 37 27 69 28 49 29 68 30 50 31 53 32 67 33 86 34
REMARK SMILES IDX 51 35 52 36 66 38 87 39 54 40 38 41 39 42 47 43 40 44 41 45
REMARK SMILES IDX 45 46 48 47 42 48 43 49 46 50 44 51 70 52 71 53 79 54 72 55
REMARK SMILES IDX 73 56 77 57 80 58 74 59 75 60 78 61 76 62 55 63 56 64 64 65
REMARK SMILES IDX 57 66 58 67 62 68 65 69 59 70 60 71 63 72 61 73 8 74 9 75
REMARK SMILES IDX 10 76 11 77 12 79 13 80 14 81 15 82 16 83 17 84 21 85 18 86
REMARK SMILES IDX 20 87 19 88 22 89 23 90 28 91 24 92 25 93 26 94 27 95
REMARK H PARENT 3 8 85 26 53 37 10 78
REMARK Flexibility Score: inf
ROOT
ATOM      1  C   UNL A   1      32.665  29.930  26.588  1.00  0.00     0.002 C 
ENDROOT
BRANCH   1   2
ATOM      2  C   UNL A   1      31.506  30.759  26.025  1.00  0.00     0.002 C 
BRANCH   2   3
ATOM      3  C   UNL A   1      31.406  32.209  26.502  1.00  0.00     0.021 C 
BRANCH   3   4
ATOM      4  C   UNL A   1      32.575  32.715  27.345  1.00  0.00     0.116 C 
BRANCH   4   5
ATOM      5  N   UNL A   1      32.448  34.132  27.625  1.00  0.00    -0.352 N 
ATOM      6  O   UNL A   1      32.587  35.998  28.870  1.00  0.00    -0.269 OA
ATOM      7  C   UNL A   1      33.031  34.882  28.611  1.00  0.00     0.251 C 
ATOM      8  H   UNL A   1      31.856  34.628  27.015  1.00  0.00     0.163 HD
BRANCH   7   9
ATOM      9  C   UNL A   1      34.195  34.371  29.366  1.00  0.00     0.039 A 
ATOM     10  C   UNL A   1      34.029  33.622  30.537  1.00  0.00     0.014 A 
ATOM     11  C   UNL A   1      35.472  34.551  28.826  1.00  0.00     0.014 A 
ATOM     12  C   UNL A   1      35.144  33.102  31.197  1.00  0.00     0.010 A 
ATOM     13  C   UNL A   1      36.582  33.990  29.460  1.00  0.00     0.010 A 
ATOM     14  C   UNL A   1      36.427  33.263  30.652  1.00  0.00    -0.014 A 
BRANCH  14  15
ATOM     15  C   UNL A   1      37.606  32.611  31.275  1.00  0.00     0.031 A 
ATOM     16  C   UNL A   1      38.284  31.454  30.604  1.00  0.00     0.074 A 
ATOM     17  C   UNL A   1      38.019  33.023  32.488  1.00  0.00     0.049 A 
ATOM     18  N   UNL A   1      39.252  30.691  31.046  1.00  0.00    -0.248 NA
ATOM     19  C   UNL A   1      37.802  31.099  29.263  1.00  0.00     0.031 C 
ATOM     20  C   UNL A   1      37.426  34.124  33.248  1.00  0.00     0.029 A 
ATOM     21  N   UNL A   1      39.014  32.551  33.306  1.00  0.00    -0.354 N 
ATOM     22  C   UNL A   1      39.481  29.754  30.048  1.00  0.00     0.074 A 
ATOM     23  C   UNL A   1      38.535  30.030  28.987  1.00  0.00     0.031 C 
ATOM     24  C   UNL A   1      38.062  34.240  34.423  1.00  0.00     0.029 A 
ATOM     25  C   UNL A   1      39.073  33.190  34.520  1.00  0.00     0.049 A 
ATOM     26  H   UNL A   1      39.627  31.824  33.049  1.00  0.00     0.167 HD
ATOM     27  C   UNL A   1      40.399  28.757  30.024  1.00  0.00     0.037 A 
ATOM     28  C   UNL A   1      39.829  32.939  35.606  1.00  0.00     0.037 A 
ATOM     29  C   UNL A   1      41.339  28.493  31.083  1.00  0.00     0.049 A 
ATOM     30  C   UNL A   1      40.822  31.813  35.567  1.00  0.00     0.074 A 
ATOM     31  C   UNL A   1      42.345  27.544  31.128  1.00  0.00     0.029 A 
ATOM     32  N   UNL A   1      41.379  29.174  32.292  1.00  0.00    -0.354 N 
ATOM     33  N   UNL A   1      41.068  30.966  34.599  1.00  0.00    -0.248 NA
ATOM     34  C   UNL A   1      41.641  31.608  36.769  1.00  0.00     0.031 C 
ATOM     35  C   UNL A   1      42.959  27.616  32.383  1.00  0.00     0.029 A 
ATOM     36  C   UNL A   1      42.372  28.646  33.101  1.00  0.00     0.049 A 
ATOM     37  H   UNL A   1      40.788  29.922  32.538  1.00  0.00     0.167 HD
ATOM     38  C   UNL A   1      42.084  30.142  35.061  1.00  0.00     0.074 A 
ATOM     39  C   UNL A   1      42.411  30.593  36.399  1.00  0.00     0.031 C 
ATOM     40  C   UNL A   1      42.691  29.108  34.429  1.00  0.00     0.037 A 
BRANCH  27  41
ATOM     41  C   UNL A   1      40.410  27.857  28.821  1.00  0.00     0.064 A 
ATOM     42  C   UNL A   1      41.176  28.152  27.683  1.00  0.00     0.173 A 
ATOM     43  C   UNL A   1      39.655  26.675  28.815  1.00  0.00     0.173 A 
ATOM     44  F   UNL A   1      41.908  29.275  27.634  1.00  0.00    -0.203 F 
ATOM     45  C   UNL A   1      41.157  27.315  26.571  1.00  0.00     0.198 A 
ATOM     46  C   UNL A   1      39.661  25.825  27.711  1.00  0.00     0.198 A 
ATOM     47  F   UNL A   1      38.910  26.341  29.880  1.00  0.00    -0.203 F 
ATOM     48  F   UNL A   1      41.852  27.647  25.473  1.00  0.00    -0.200 F 
ATOM     49  C   UNL A   1      40.403  26.151  26.586  1.00  0.00     0.200 A 
ATOM     50  F   UNL A   1      38.941  24.695  27.732  1.00  0.00    -0.200 F 
ATOM     51  F   UNL A   1      40.383  25.349  25.512  1.00  0.00    -0.200 F 
ENDBRANCH  27  41
BRANCH  28  52
ATOM     52  C   UNL A   1      39.654  33.781  36.817  1.00  0.00     0.064 A 
ATOM     53  C   UNL A   1      40.275  35.031  36.924  1.00  0.00     0.173 A 
ATOM     54  C   UNL A   1      38.813  33.374  37.864  1.00  0.00     0.173 A 
ATOM     55  F   UNL A   1      41.100  35.453  35.955  1.00  0.00    -0.203 F 
ATOM     56  C   UNL A   1      40.059  35.847  38.032  1.00  0.00     0.198 A 
ATOM     57  C   UNL A   1      38.578  34.201  38.959  1.00  0.00     0.198 A 
ATOM     58  F   UNL A   1      38.192  32.187  37.804  1.00  0.00    -0.203 F 
ATOM     59  F   UNL A   1      40.679  37.031  38.120  1.00  0.00    -0.200 F 
ATOM     60  C   UNL A   1      39.203  35.436  39.044  1.00  0.00     0.200 A 
ATOM     61  F   UNL A   1      37.738  33.808  39.926  1.00  0.00    -0.200 F 
ATOM     62  F   UNL A   1      38.981  36.230  40.100  1.00  0.00    -0.200 F 
ENDBRANCH  28  52
BRANCH  40  63
ATOM     63  C   UNL A   1      43.800  28.407  35.156  1.00  0.00     0.064 A 
ATOM     64  C   UNL A   1      43.559  27.284  35.959  1.00  0.00     0.173 A 
ATOM     65  C   UNL A   1      45.129  28.824  34.986  1.00  0.00     0.173 A 
ATOM     66  F   UNL A   1      42.303  26.858  36.164  1.00  0.00    -0.203 F 
ATOM     67  C   UNL A   1      44.610  26.605  36.572  1.00  0.00     0.198 A 
ATOM     68  C   UNL A   1      46.178  28.128  35.581  1.00  0.00     0.198 A 
ATOM     69  F   UNL A   1      45.411  29.891  34.224  1.00  0.00    -0.203 F 
ATOM     70  F   UNL A   1      44.356  25.549  37.357  1.00  0.00    -0.200 F 
ATOM     71  C   UNL A   1      45.918  27.022  36.375  1.00  0.00     0.200 A 
ATOM     72  F   UNL A   1      47.443  28.525  35.379  1.00  0.00    -0.200 F 
ATOM     73  F   UNL A   1      46.928  26.357  36.951  1.00  0.00    -0.200 F 
ENDBRANCH  40  63
ENDBRANCH  14  15
ENDBRANCH   7   9
ENDBRANCH   4   5
ENDBRANCH   3   4
ENDBRANCH   2   3
ENDBRANCH   1   2
BRANCH   1  74
ATOM     74  C   UNL A   1      32.300  28.607  27.268  1.00  0.00     0.021 C 
BRANCH  74  75
ATOM     75  C   UNL A   1      32.280  27.380  26.355  1.00  0.00     0.116 C 
BRANCH  75  76
ATOM     76  N   UNL A   1      31.033  26.667  26.443  1.00  0.00    -0.356 N 
ATOM     77  C   UNL A   1      30.732  25.365  26.258  1.00  0.00     0.223 C 
ATOM     78  H   UNL A   1      30.260  27.231  26.679  1.00  0.00     0.163 HD
ATOM     79  O   UNL A   1      29.559  25.049  26.503  1.00  0.00    -0.275 OA
BRANCH  77  80
ATOM     80  C   UNL A   1      31.718  24.256  25.797  1.00  0.00     0.083 C 
BRANCH  80  81
ATOM     81  C   UNL A   1      32.374  23.311  26.849  1.00  0.00     0.018 C 
BRANCH  81  82
ATOM     82  C   UNL A   1      33.845  22.952  27.224  1.00  0.00     0.036 C 
BRANCH  82  83
ATOM     83  C   UNL A   1      35.008  22.675  26.300  1.00  0.00    -0.048 A 
ATOM     84  C   UNL A   1      35.987  23.643  26.049  1.00  0.00     0.004 A 
ATOM     85  C   UNL A   1      35.267  21.386  25.818  1.00  0.00     0.004 A 
ATOM     86  C   UNL A   1      37.075  23.397  25.207  1.00  0.00     0.000 A 
ATOM     87  C   UNL A   1      36.370  21.118  24.996  1.00  0.00     0.000 A 
ATOM     88  C   UNL A   1      37.256  22.135  24.663  1.00  0.00     0.000 A 
ENDBRANCH  82  83
ENDBRANCH  81  82
ENDBRANCH  80  81
BRANCH  80  89
ATOM     89  C   UNL A   1      31.417  23.935  24.292  1.00  0.00     0.017 C 
ATOM     90  C   UNL A   1      32.225  22.863  23.580  1.00  0.00     0.021 C 
ATOM     91  C   UNL A   1      31.544  25.166  23.363  1.00  0.00     0.141 C 
ATOM     92  C   UNL A   1      33.560  23.462  23.160  1.00  0.00     0.137 C 
ATOM     93  S   UNL A   1      33.228  25.165  22.776  1.00  0.00     0.150 S 
ATOM     94  O   UNL A   1      34.029  25.991  23.662  1.00  0.00    -0.229 OA
ATOM     95  O   UNL A   1      33.239  25.328  21.342  1.00  0.00    -0.229 OA
ENDBRANCH  80  89
ENDBRANCH  77  80
ENDBRANCH  75  76
ENDBRANCH  74  75
ENDBRANCH   1  74
TORSDOF 17
ENDMDL
