MODEL 1
REMARK VINA RESULT:     -12.4      0.000      0.000
REMARK SMILES O=C(NCCCCCCNC(=O)[C@H]1CSCN1C(=O)c1cccc2cccnc12)c1ccc(-c2c3nc(c(-c4c(F)c(F)c(F)c(F)c4F)c4ccc([nH]4)c(-c4c(F)c(F)c(F)c(F)c4F)c4nc(c(-c5c(F)c(F)c(F)c(F)c5F)c5ccc2[nH]5)C=C4)C=C3)cc1
REMARK SMILES IDX 6 1 5 2 4 3 3 4 1 5 2 6 30 8 31 9 92 10 32 11 91 12 33 13
REMARK SMILES IDX 34 14 35 15 85 16 36 17 90 18 84 19 86 20 37 21 89 22 83 23
REMARK SMILES IDX 82 24 38 26 70 27 50 28 69 29 51 30 54 31 68 32 87 33 52 34
REMARK SMILES IDX 53 35 67 37 88 38 55 39 39 40 40 41 48 42 41 43 42 44 46 45
REMARK SMILES IDX 49 46 43 47 44 48 47 49 45 50 71 51 72 52 80 53 73 54 74 55
REMARK SMILES IDX 78 56 81 57 75 58 76 59 79 60 77 61 56 62 57 63 65 64 58 65
REMARK SMILES IDX 59 66 63 67 66 68 60 69 61 70 64 71 62 72 7 73 8 74 9 75
REMARK SMILES IDX 10 76 11 77 12 79 13 80 14 81 17 82 15 83 16 84 18 85 19 86
REMARK SMILES IDX 20 87 21 88 29 89 22 90 24 91 28 92 23 93 25 94 27 95 26 96
REMARK H PARENT 3 7 86 25 54 36 10 78
REMARK Flexibility Score: inf
ROOT
ATOM      1  C   UNL A   1      31.489  30.467  25.755  1.00  0.00     0.002 C 
ENDROOT
BRANCH   1   2
ATOM      2  C   UNL A   1      31.295  31.797  26.482  1.00  0.00     0.021 C 
BRANCH   2   3
ATOM      3  C   UNL A   1      32.581  32.464  26.958  1.00  0.00     0.116 C 
BRANCH   3   4
ATOM      4  N   UNL A   1      32.362  33.829  27.410  1.00  0.00    -0.352 N 
ATOM      5  O   UNL A   1      32.553  35.617  28.771  1.00  0.00    -0.269 OA
ATOM      6  C   UNL A   1      32.992  34.529  28.406  1.00  0.00     0.251 C 
ATOM      7  H   UNL A   1      31.659  34.322  26.929  1.00  0.00     0.163 HD
BRANCH   6   8
ATOM      8  C   UNL A   1      34.190  33.968  29.060  1.00  0.00     0.039 A 
ATOM      9  C   UNL A   1      35.469  34.440  28.745  1.00  0.00     0.014 A 
ATOM     10  C   UNL A   1      34.027  32.969  30.022  1.00  0.00     0.014 A 
ATOM     11  C   UNL A   1      36.590  33.829  29.301  1.00  0.00     0.010 A 
ATOM     12  C   UNL A   1      35.149  32.409  30.635  1.00  0.00     0.010 A 
ATOM     13  C   UNL A   1      36.439  32.817  30.260  1.00  0.00    -0.014 A 
BRANCH  13  14
ATOM     14  C   UNL A   1      37.630  32.213  30.908  1.00  0.00     0.031 A 
ATOM     15  C   UNL A   1      38.405  31.127  30.222  1.00  0.00     0.074 A 
ATOM     16  C   UNL A   1      37.983  32.623  32.140  1.00  0.00     0.049 A 
ATOM     17  N   UNL A   1      39.402  30.409  30.674  1.00  0.00    -0.248 NA
ATOM     18  C   UNL A   1      37.997  30.794  28.850  1.00  0.00     0.031 C 
ATOM     19  C   UNL A   1      37.307  33.673  32.903  1.00  0.00     0.029 A 
ATOM     20  N   UNL A   1      38.984  32.195  32.974  1.00  0.00    -0.354 N 
ATOM     21  C   UNL A   1      39.725  29.523  29.655  1.00  0.00     0.074 A 
ATOM     22  C   UNL A   1      38.799  29.776  28.571  1.00  0.00     0.031 C 
ATOM     23  C   UNL A   1      37.913  33.811  34.090  1.00  0.00     0.029 A 
ATOM     24  C   UNL A   1      38.975  32.817  34.199  1.00  0.00     0.049 A 
ATOM     25  H   UNL A   1      39.645  31.511  32.720  1.00  0.00     0.167 HD
ATOM     26  C   UNL A   1      40.707  28.589  29.629  1.00  0.00     0.037 A 
ATOM     27  C   UNL A   1      39.712  32.586  35.301  1.00  0.00     0.037 A 
ATOM     28  C   UNL A   1      41.620  28.347  30.718  1.00  0.00     0.049 A 
ATOM     29  C   UNL A   1      40.760  31.510  35.269  1.00  0.00     0.074 A 
ATOM     30  C   UNL A   1      42.672  27.451  30.780  1.00  0.00     0.029 A 
ATOM     31  N   UNL A   1      41.577  28.996  31.945  1.00  0.00    -0.354 N 
ATOM     32  N   UNL A   1      41.083  30.701  34.290  1.00  0.00    -0.248 NA
ATOM     33  C   UNL A   1      41.547  31.314  36.494  1.00  0.00     0.031 C 
ATOM     34  C   UNL A   1      43.222  27.508  32.064  1.00  0.00     0.029 A 
ATOM     35  C   UNL A   1      42.563  28.497  32.780  1.00  0.00     0.049 A 
ATOM     36  H   UNL A   1      40.939  29.706  32.186  1.00  0.00     0.167 HD
ATOM     37  C   UNL A   1      42.131  29.925  34.765  1.00  0.00     0.074 A 
ATOM     38  C   UNL A   1      42.389  30.360  36.123  1.00  0.00     0.031 C 
ATOM     39  C   UNL A   1      42.820  28.947  34.127  1.00  0.00     0.037 A 
BRANCH  26  40
ATOM     40  C   UNL A   1      40.816  27.731  28.399  1.00  0.00     0.064 A 
ATOM     41  C   UNL A   1      40.137  26.509  28.281  1.00  0.00     0.173 A 
ATOM     42  C   UNL A   1      41.608  28.143  27.315  1.00  0.00     0.173 A 
ATOM     43  F   UNL A   1      39.371  26.062  29.289  1.00  0.00    -0.203 F 
ATOM     44  C   UNL A   1      40.282  25.712  27.147  1.00  0.00     0.198 A 
ATOM     45  C   UNL A   1      41.721  27.362  26.167  1.00  0.00     0.198 A 
ATOM     46  F   UNL A   1      42.272  29.308  27.365  1.00  0.00    -0.203 F 
ATOM     47  F   UNL A   1      39.675  24.518  27.088  1.00  0.00    -0.200 F 
ATOM     48  C   UNL A   1      41.069  26.141  26.090  1.00  0.00     0.200 A 
ATOM     49  F   UNL A   1      42.470  27.787  25.140  1.00  0.00    -0.200 F 
ATOM     50  F   UNL A   1      41.209  25.372  25.001  1.00  0.00    -0.200 F 
ENDBRANCH  26  40
BRANCH  27  51
ATOM     51  C   UNL A   1      39.463  33.396  36.520  1.00  0.00     0.064 A 
ATOM     52  C   UNL A   1      40.071  34.646  36.693  1.00  0.00     0.173 A 
ATOM     53  C   UNL A   1      38.575  32.957  37.514  1.00  0.00     0.173 A 
ATOM     54  F   UNL A   1      40.939  35.100  35.777  1.00  0.00    -0.203 F 
ATOM     55  C   UNL A   1      39.803  35.426  37.816  1.00  0.00     0.198 A 
ATOM     56  C   UNL A   1      38.285  33.751  38.621  1.00  0.00     0.198 A 
ATOM     57  F   UNL A   1      37.961  31.771  37.391  1.00  0.00    -0.203 F 
ATOM     58  F   UNL A   1      40.419  36.605  37.970  1.00  0.00    -0.200 F 
ATOM     59  C   UNL A   1      38.903  34.982  38.774  1.00  0.00     0.200 A 
ATOM     60  F   UNL A   1      37.399  33.327  39.533  1.00  0.00    -0.200 F 
ATOM     61  F   UNL A   1      38.632  35.742  39.844  1.00  0.00    -0.200 F 
ENDBRANCH  27  51
BRANCH  39  62
ATOM     62  C   UNL A   1      43.967  28.313  34.861  1.00  0.00     0.064 A 
ATOM     63  C   UNL A   1      43.816  27.129  35.596  1.00  0.00     0.173 A 
ATOM     64  C   UNL A   1      45.254  28.867  34.762  1.00  0.00     0.173 A 
ATOM     65  F   UNL A   1      42.605  26.569  35.735  1.00  0.00    -0.203 F 
ATOM     66  C   UNL A   1      44.911  26.529  36.215  1.00  0.00     0.198 A 
ATOM     67  C   UNL A   1      46.349  28.246  35.355  1.00  0.00     0.198 A 
ATOM     68  F   UNL A   1      45.452  29.997  34.068  1.00  0.00    -0.203 F 
ATOM     69  F   UNL A   1      44.739  25.417  36.943  1.00  0.00    -0.200 F 
ATOM     70  C   UNL A   1      46.176  27.081  36.084  1.00  0.00     0.200 A 
ATOM     71  F   UNL A   1      47.573  28.773  35.213  1.00  0.00    -0.200 F 
ATOM     72  F   UNL A   1      47.230  26.490  36.664  1.00  0.00    -0.200 F 
ENDBRANCH  39  62
ENDBRANCH  13  14
ENDBRANCH   6   8
ENDBRANCH   3   4
ENDBRANCH   2   3
ENDBRANCH   1   2
BRANCH   1  73
ATOM     73  C   UNL A   1      32.204  29.375  26.557  1.00  0.00     0.002 C 
BRANCH  73  74
ATOM     74  C   UNL A   1      31.403  28.092  26.793  1.00  0.00     0.021 C 
BRANCH  74  75
ATOM     75  C   UNL A   1      32.177  26.793  26.593  1.00  0.00     0.116 C 
BRANCH  75  76
ATOM     76  N   UNL A   1      31.399  25.602  26.876  1.00  0.00    -0.354 N 
ATOM     77  C   UNL A   1      31.751  24.284  26.706  1.00  0.00     0.243 C 
ATOM     78  H   UNL A   1      30.496  25.758  27.238  1.00  0.00     0.163 HD
ATOM     79  O   UNL A   1      31.061  23.423  27.255  1.00  0.00    -0.273 OA
BRANCH  77  80
ATOM     80  C   UNL A   1      33.032  23.964  25.905  1.00  0.00     0.185 C 
ATOM     81  C   UNL A   1      34.025  23.261  26.841  1.00  0.00     0.106 C 
ATOM     82  N   UNL A   1      32.803  23.143  24.709  1.00  0.00    -0.316 N 
ATOM     83  S   UNL A   1      34.329  21.614  26.173  1.00  0.00    -0.138 SA
ATOM     84  C   UNL A   1      33.741  22.058  24.539  1.00  0.00     0.190 C 
BRANCH  82  85
ATOM     85  C   UNL A   1      31.990  23.660  23.697  1.00  0.00     0.257 C 
ATOM     86  O   UNL A   1      31.165  22.960  23.115  1.00  0.00    -0.269 OA
BRANCH  85  87
ATOM     87  C   UNL A   1      32.183  25.073  23.274  1.00  0.00     0.066 A 
ATOM     88  C   UNL A   1      33.418  25.434  22.704  1.00  0.00     0.016 A 
ATOM     89  C   UNL A   1      31.124  25.988  23.377  1.00  0.00     0.083 A 
ATOM     90  C   UNL A   1      33.653  26.746  22.313  1.00  0.00     0.002 A 
ATOM     91  C   UNL A   1      31.370  27.307  22.926  1.00  0.00     0.001 A 
ATOM     92  N   UNL A   1      29.911  25.656  23.883  1.00  0.00    -0.255 NA
ATOM     93  C   UNL A   1      32.631  27.681  22.429  1.00  0.00     0.010 A 
ATOM     94  C   UNL A   1      30.327  28.242  22.970  1.00  0.00     0.012 A 
ATOM     95  C   UNL A   1      28.918  26.570  23.877  1.00  0.00     0.112 A 
ATOM     96  C   UNL A   1      29.074  27.865  23.433  1.00  0.00     0.021 A 
ENDBRANCH  85  87
ENDBRANCH  82  85
ENDBRANCH  77  80
ENDBRANCH  75  76
ENDBRANCH  74  75
ENDBRANCH  73  74
ENDBRANCH   1  73
TORSDOF 15
ENDMDL
MODEL 2
REMARK VINA RESULT:     -12.3      0.220      1.237
REMARK SMILES O=C(NCCCCCCNC(=O)[C@H]1CSCN1C(=O)c1cccc2cccnc12)c1ccc(-c2c3nc(c(-c4c(F)c(F)c(F)c(F)c4F)c4ccc([nH]4)c(-c4c(F)c(F)c(F)c(F)c4F)c4nc(c(-c5c(F)c(F)c(F)c(F)c5F)c5ccc2[nH]5)C=C4)C=C3)cc1
REMARK SMILES IDX 6 1 5 2 4 3 3 4 1 5 2 6 30 8 31 9 92 10 32 11 91 12 33 13
REMARK SMILES IDX 34 14 35 15 85 16 36 17 90 18 84 19 86 20 37 21 89 22 83 23
REMARK SMILES IDX 82 24 38 26 70 27 50 28 69 29 51 30 54 31 68 32 87 33 52 34
REMARK SMILES IDX 53 35 67 37 88 38 55 39 39 40 40 41 48 42 41 43 42 44 46 45
REMARK SMILES IDX 49 46 43 47 44 48 47 49 45 50 71 51 72 52 80 53 73 54 74 55
REMARK SMILES IDX 78 56 81 57 75 58 76 59 79 60 77 61 56 62 57 63 65 64 58 65
REMARK SMILES IDX 59 66 63 67 66 68 60 69 61 70 64 71 62 72 7 73 8 74 9 75
REMARK SMILES IDX 10 76 11 77 12 79 13 80 14 81 17 82 15 83 16 84 18 85 19 86
REMARK SMILES IDX 20 87 21 88 29 89 22 90 24 91 28 92 23 93 25 94 27 95 26 96
REMARK H PARENT 3 7 86 25 54 36 10 78
REMARK Flexibility Score: inf
ROOT
ATOM      1  C   UNL A   1      31.498  30.468  25.783  1.00  0.00     0.002 C 
ENDROOT
BRANCH   1   2
ATOM      2  C   UNL A   1      31.339  31.807  26.503  1.00  0.00     0.021 C 
BRANCH   2   3
ATOM      3  C   UNL A   1      32.646  32.499  26.872  1.00  0.00     0.116 C 
BRANCH   3   4
ATOM      4  N   UNL A   1      32.434  33.835  27.404  1.00  0.00    -0.352 N 
ATOM      5  O   UNL A   1      32.633  35.539  28.869  1.00  0.00    -0.269 OA
ATOM      6  C   UNL A   1      33.066  34.472  28.440  1.00  0.00     0.251 C 
ATOM      7  H   UNL A   1      31.735  34.360  26.952  1.00  0.00     0.163 HD
BRANCH   6   8
ATOM      8  C   UNL A   1      34.261  33.865  29.062  1.00  0.00     0.039 A 
ATOM      9  C   UNL A   1      34.137  32.840  30.004  1.00  0.00     0.014 A 
ATOM     10  C   UNL A   1      35.524  34.317  28.675  1.00  0.00     0.014 A 
ATOM     11  C   UNL A   1      35.270  32.352  30.650  1.00  0.00     0.010 A 
ATOM     12  C   UNL A   1      36.664  33.773  29.268  1.00  0.00     0.010 A 
ATOM     13  C   UNL A   1      36.544  32.805  30.278  1.00  0.00    -0.014 A 
BRANCH  13  14
ATOM     14  C   UNL A   1      37.759  32.235  30.913  1.00  0.00     0.031 A 
ATOM     15  C   UNL A   1      38.547  31.159  30.226  1.00  0.00     0.074 A 
ATOM     16  C   UNL A   1      38.122  32.665  32.135  1.00  0.00     0.049 A 
ATOM     17  N   UNL A   1      39.567  30.468  30.669  1.00  0.00    -0.248 NA
ATOM     18  C   UNL A   1      38.125  30.802  28.864  1.00  0.00     0.031 C 
ATOM     19  C   UNL A   1      37.435  33.708  32.898  1.00  0.00     0.029 A 
ATOM     20  N   UNL A   1      39.146  32.269  32.957  1.00  0.00    -0.354 N 
ATOM     21  C   UNL A   1      39.894  29.580  29.654  1.00  0.00     0.074 A 
ATOM     22  C   UNL A   1      38.945  29.800  28.583  1.00  0.00     0.031 C 
ATOM     23  C   UNL A   1      38.057  33.872  34.074  1.00  0.00     0.029 A 
ATOM     24  C   UNL A   1      39.142  32.903  34.175  1.00  0.00     0.049 A 
ATOM     25  H   UNL A   1      39.817  31.597  32.699  1.00  0.00     0.167 HD
ATOM     26  C   UNL A   1      40.896  28.668  29.621  1.00  0.00     0.037 A 
ATOM     27  C   UNL A   1      39.902  32.701  35.267  1.00  0.00     0.037 A 
ATOM     28  C   UNL A   1      41.832  28.458  30.698  1.00  0.00     0.049 A 
ATOM     29  C   UNL A   1      40.973  31.648  35.230  1.00  0.00     0.074 A 
ATOM     30  C   UNL A   1      42.905  27.586  30.751  1.00  0.00     0.029 A 
ATOM     31  N   UNL A   1      41.794  29.119  31.919  1.00  0.00    -0.354 N 
ATOM     32  N   UNL A   1      41.299  30.837  34.254  1.00  0.00    -0.248 NA
ATOM     33  C   UNL A   1      41.784  31.484  36.444  1.00  0.00     0.031 C 
ATOM     34  C   UNL A   1      43.473  27.669  32.026  1.00  0.00     0.029 A 
ATOM     35  C   UNL A   1      42.805  28.650  32.743  1.00  0.00     0.049 A 
ATOM     36  H   UNL A   1      41.144  29.817  32.163  1.00  0.00     0.167 HD
ATOM     37  C   UNL A   1      42.371  30.089  34.719  1.00  0.00     0.074 A 
ATOM     38  C   UNL A   1      42.641  30.544  36.068  1.00  0.00     0.031 C 
ATOM     39  C   UNL A   1      43.072  29.121  34.081  1.00  0.00     0.037 A 
BRANCH  26  40
ATOM     40  C   UNL A   1      41.005  27.799  28.398  1.00  0.00     0.064 A 
ATOM     41  C   UNL A   1      40.328  26.575  28.292  1.00  0.00     0.173 A 
ATOM     42  C   UNL A   1      41.794  28.203  27.310  1.00  0.00     0.173 A 
ATOM     43  F   UNL A   1      39.564  26.135  29.305  1.00  0.00    -0.203 F 
ATOM     44  C   UNL A   1      40.473  25.769  27.165  1.00  0.00     0.198 A 
ATOM     45  C   UNL A   1      41.907  27.413  26.168  1.00  0.00     0.198 A 
ATOM     46  F   UNL A   1      42.456  29.370  27.349  1.00  0.00    -0.203 F 
ATOM     47  F   UNL A   1      39.868  24.573  27.117  1.00  0.00    -0.200 F 
ATOM     48  C   UNL A   1      41.258  26.190  26.103  1.00  0.00     0.200 A 
ATOM     49  F   UNL A   1      42.653  27.831  25.136  1.00  0.00    -0.200 F 
ATOM     50  F   UNL A   1      41.397  25.412  25.020  1.00  0.00    -0.200 F 
ENDBRANCH  26  40
BRANCH  27  51
ATOM     51  C   UNL A   1      39.654  33.517  36.482  1.00  0.00     0.064 A 
ATOM     52  C   UNL A   1      40.243  34.779  36.636  1.00  0.00     0.173 A 
ATOM     53  C   UNL A   1      38.786  33.073  37.491  1.00  0.00     0.173 A 
ATOM     54  F   UNL A   1      41.093  35.239  35.706  1.00  0.00    -0.203 F 
ATOM     55  C   UNL A   1      39.976  35.565  37.755  1.00  0.00     0.198 A 
ATOM     56  C   UNL A   1      38.495  33.872  38.594  1.00  0.00     0.198 A 
ATOM     57  F   UNL A   1      38.190  31.877  37.386  1.00  0.00    -0.203 F 
ATOM     58  F   UNL A   1      40.574  36.755  37.892  1.00  0.00    -0.200 F 
ATOM     59  C   UNL A   1      39.095  35.115  38.728  1.00  0.00     0.200 A 
ATOM     60  F   UNL A   1      37.628  33.443  39.521  1.00  0.00    -0.200 F 
ATOM     61  F   UNL A   1      38.824  35.880  39.795  1.00  0.00    -0.200 F 
ENDBRANCH  27  51
BRANCH  39  62
ATOM     62  C   UNL A   1      44.245  28.520  34.802  1.00  0.00     0.064 A 
ATOM     63  C   UNL A   1      45.518  29.105  34.767  1.00  0.00     0.173 A 
ATOM     64  C   UNL A   1      44.067  27.379  35.600  1.00  0.00     0.173 A 
ATOM     65  F   UNL A   1      45.745  30.187  34.006  1.00  0.00    -0.203 F 
ATOM     66  C   UNL A   1      46.575  28.562  35.495  1.00  0.00     0.198 A 
ATOM     67  C   UNL A   1      45.116  26.858  36.351  1.00  0.00     0.198 A 
ATOM     68  F   UNL A   1      42.868  26.783  35.671  1.00  0.00    -0.203 F 
ATOM     69  F   UNL A   1      47.792  29.115  35.420  1.00  0.00    -0.200 F 
ATOM     70  C   UNL A   1      46.370  27.448  36.295  1.00  0.00     0.200 A 
ATOM     71  F   UNL A   1      44.912  25.791  37.136  1.00  0.00    -0.200 F 
ATOM     72  F   UNL A   1      47.383  26.939  37.010  1.00  0.00    -0.200 F 
ENDBRANCH  39  62
ENDBRANCH  13  14
ENDBRANCH   6   8
ENDBRANCH   3   4
ENDBRANCH   2   3
ENDBRANCH   1   2
BRANCH   1  73
ATOM     73  C   UNL A   1      32.216  29.373  26.577  1.00  0.00     0.002 C 
BRANCH  73  74
ATOM     74  C   UNL A   1      31.415  28.089  26.812  1.00  0.00     0.021 C 
BRANCH  74  75
ATOM     75  C   UNL A   1      32.184  26.791  26.593  1.00  0.00     0.116 C 
BRANCH  75  76
ATOM     76  N   UNL A   1      31.411  25.599  26.887  1.00  0.00    -0.354 N 
ATOM     77  C   UNL A   1      31.770  24.281  26.732  1.00  0.00     0.243 C 
ATOM     78  H   UNL A   1      30.507  25.755  27.246  1.00  0.00     0.163 HD
ATOM     79  O   UNL A   1      31.083  23.423  27.289  1.00  0.00    -0.273 OA
BRANCH  77  80
ATOM     80  C   UNL A   1      33.054  23.959  25.937  1.00  0.00     0.185 C 
ATOM     81  C   UNL A   1      34.046  23.266  26.881  1.00  0.00     0.106 C 
ATOM     82  N   UNL A   1      32.830  23.127  24.747  1.00  0.00    -0.316 N 
ATOM     83  S   UNL A   1      34.357  21.614  26.226  1.00  0.00    -0.138 SA
ATOM     84  C   UNL A   1      33.772  22.044  24.587  1.00  0.00     0.190 C 
BRANCH  82  85
ATOM     85  C   UNL A   1      32.019  23.634  23.729  1.00  0.00     0.257 C 
ATOM     86  O   UNL A   1      31.190  22.929  23.156  1.00  0.00    -0.269 OA
BRANCH  85  87
ATOM     87  C   UNL A   1      32.216  25.041  23.286  1.00  0.00     0.066 A 
ATOM     88  C   UNL A   1      33.451  25.388  22.706  1.00  0.00     0.016 A 
ATOM     89  C   UNL A   1      31.162  25.962  23.382  1.00  0.00     0.083 A 
ATOM     90  C   UNL A   1      33.691  26.694  22.298  1.00  0.00     0.002 A 
ATOM     91  C   UNL A   1      31.414  27.274  22.912  1.00  0.00     0.001 A 
ATOM     92  N   UNL A   1      29.951  25.643  23.896  1.00  0.00    -0.255 NA
ATOM     93  C   UNL A   1      32.674  27.635  22.405  1.00  0.00     0.010 A 
ATOM     94  C   UNL A   1      30.375  28.215  22.949  1.00  0.00     0.012 A 
ATOM     95  C   UNL A   1      28.962  26.562  23.883  1.00  0.00     0.112 A 
ATOM     96  C   UNL A   1      29.123  27.851  23.422  1.00  0.00     0.021 A 
ENDBRANCH  85  87
ENDBRANCH  82  85
ENDBRANCH  77  80
ENDBRANCH  75  76
ENDBRANCH  74  75
ENDBRANCH  73  74
ENDBRANCH   1  73
TORSDOF 15
ENDMDL
MODEL 3
REMARK VINA RESULT:     -12.2      1.494      3.056
REMARK SMILES O=C(NCCCCCCNC(=O)[C@H]1CSCN1C(=O)c1cccc2cccnc12)c1ccc(-c2c3nc(c(-c4c(F)c(F)c(F)c(F)c4F)c4ccc([nH]4)c(-c4c(F)c(F)c(F)c(F)c4F)c4nc(c(-c5c(F)c(F)c(F)c(F)c5F)c5ccc2[nH]5)C=C4)C=C3)cc1
REMARK SMILES IDX 6 1 5 2 4 3 3 4 1 5 2 6 30 8 31 9 92 10 32 11 91 12 33 13
REMARK SMILES IDX 34 14 35 15 85 16 36 17 90 18 84 19 86 20 37 21 89 22 83 23
REMARK SMILES IDX 82 24 38 26 70 27 50 28 69 29 51 30 54 31 68 32 87 33 52 34
REMARK SMILES IDX 53 35 67 37 88 38 55 39 39 40 40 41 48 42 41 43 42 44 46 45
REMARK SMILES IDX 49 46 43 47 44 48 47 49 45 50 71 51 72 52 80 53 73 54 74 55
REMARK SMILES IDX 78 56 81 57 75 58 76 59 79 60 77 61 56 62 57 63 65 64 58 65
REMARK SMILES IDX 59 66 63 67 66 68 60 69 61 70 64 71 62 72 7 73 8 74 9 75
REMARK SMILES IDX 10 76 11 77 12 79 13 80 14 81 17 82 15 83 16 84 18 85 19 86
REMARK SMILES IDX 20 87 21 88 29 89 22 90 24 91 28 92 23 93 25 94 27 95 26 96
REMARK H PARENT 3 7 86 25 54 36 10 78
REMARK Flexibility Score: inf
ROOT
ATOM      1  C   UNL A   1      31.612  30.833  26.305  1.00  0.00     0.002 C 
ENDROOT
BRANCH   1   2
ATOM      2  C   UNL A   1      31.402  32.244  26.855  1.00  0.00     0.021 C 
BRANCH   2   3
ATOM      3  C   UNL A   1      32.672  33.077  26.991  1.00  0.00     0.116 C 
BRANCH   3   4
ATOM      4  N   UNL A   1      32.428  34.357  27.635  1.00  0.00    -0.352 N 
ATOM      5  O   UNL A   1      32.553  35.919  29.258  1.00  0.00    -0.269 OA
ATOM      6  C   UNL A   1      33.013  34.898  28.751  1.00  0.00     0.251 C 
ATOM      7  H   UNL A   1      31.742  34.918  27.207  1.00  0.00     0.163 HD
BRANCH   6   8
ATOM      8  C   UNL A   1      34.187  34.243  29.361  1.00  0.00     0.039 A 
ATOM      9  C   UNL A   1      34.034  33.304  30.386  1.00  0.00     0.014 A 
ATOM     10  C   UNL A   1      35.460  34.558  28.880  1.00  0.00     0.014 A 
ATOM     11  C   UNL A   1      35.158  32.773  31.014  1.00  0.00     0.010 A 
ATOM     12  C   UNL A   1      36.584  33.967  29.460  1.00  0.00     0.010 A 
ATOM     13  C   UNL A   1      36.442  33.090  30.548  1.00  0.00    -0.014 A 
BRANCH  13  14
ATOM     14  C   UNL A   1      37.640  32.470  31.167  1.00  0.00     0.031 A 
ATOM     15  C   UNL A   1      38.384  31.374  30.463  1.00  0.00     0.074 A 
ATOM     16  C   UNL A   1      38.027  32.875  32.391  1.00  0.00     0.049 A 
ATOM     17  N   UNL A   1      39.381  30.643  30.891  1.00  0.00    -0.248 NA
ATOM     18  C   UNL A   1      37.939  31.047  29.101  1.00  0.00     0.031 C 
ATOM     19  C   UNL A   1      37.383  33.933  33.170  1.00  0.00     0.029 A 
ATOM     20  N   UNL A   1      39.042  32.434  33.201  1.00  0.00    -0.354 N 
ATOM     21  C   UNL A   1      39.669  29.754  29.864  1.00  0.00     0.074 A 
ATOM     22  C   UNL A   1      38.721  30.019  28.803  1.00  0.00     0.031 C 
ATOM     23  C   UNL A   1      38.019  34.062  34.342  1.00  0.00     0.029 A 
ATOM     24  C   UNL A   1      39.070  33.055  34.425  1.00  0.00     0.049 A 
ATOM     25  H   UNL A   1      39.687  31.740  32.931  1.00  0.00     0.167 HD
ATOM     26  C   UNL A   1      40.637  28.807  29.814  1.00  0.00     0.037 A 
ATOM     27  C   UNL A   1      39.830  32.813  35.510  1.00  0.00     0.037 A 
ATOM     28  C   UNL A   1      41.573  28.553  30.881  1.00  0.00     0.049 A 
ATOM     29  C   UNL A   1      40.862  31.723  35.453  1.00  0.00     0.074 A 
ATOM     30  C   UNL A   1      42.614  27.642  30.918  1.00  0.00     0.029 A 
ATOM     31  N   UNL A   1      41.567  29.201  32.110  1.00  0.00    -0.354 N 
ATOM     32  N   UNL A   1      41.152  30.911  34.466  1.00  0.00    -0.248 NA
ATOM     33  C   UNL A   1      41.675  31.517  36.659  1.00  0.00     0.031 C 
ATOM     34  C   UNL A   1      43.194  27.692  32.189  1.00  0.00     0.029 A 
ATOM     35  C   UNL A   1      42.567  28.688  32.921  1.00  0.00     0.049 A 
ATOM     36  H   UNL A   1      40.945  29.920  32.366  1.00  0.00     0.167 HD
ATOM     37  C   UNL A   1      42.200  30.121  34.916  1.00  0.00     0.074 A 
ATOM     38  C   UNL A   1      42.496  30.552  36.267  1.00  0.00     0.031 C 
ATOM     39  C   UNL A   1      42.861  29.135  34.262  1.00  0.00     0.037 A 
BRANCH  26  40
ATOM     40  C   UNL A   1      40.706  27.948  28.582  1.00  0.00     0.064 A 
ATOM     41  C   UNL A   1      41.493  28.297  27.474  1.00  0.00     0.173 A 
ATOM     42  C   UNL A   1      39.978  26.750  28.512  1.00  0.00     0.173 A 
ATOM     43  F   UNL A   1      42.205  29.435  27.482  1.00  0.00    -0.203 F 
ATOM     44  C   UNL A   1      41.512  27.504  26.328  1.00  0.00     0.198 A 
ATOM     45  C   UNL A   1      40.029  25.940  27.380  1.00  0.00     0.198 A 
ATOM     46  F   UNL A   1      39.217  26.358  29.546  1.00  0.00    -0.203 F 
ATOM     47  F   UNL A   1      42.220  27.895  25.258  1.00  0.00    -0.200 F 
ATOM     48  C   UNL A   1      40.785  26.326  26.284  1.00  0.00     0.200 A 
ATOM     49  F   UNL A   1      39.338  24.792  27.346  1.00  0.00    -0.200 F 
ATOM     50  F   UNL A   1      40.803  25.565  25.180  1.00  0.00    -0.200 F 
ENDBRANCH  26  40
BRANCH  27  51
ATOM     51  C   UNL A   1      39.621  33.625  36.735  1.00  0.00     0.064 A 
ATOM     52  C   UNL A   1      40.215  34.886  36.875  1.00  0.00     0.173 A 
ATOM     53  C   UNL A   1      38.783  33.178  37.768  1.00  0.00     0.173 A 
ATOM     54  F   UNL A   1      41.036  35.349  35.921  1.00  0.00    -0.203 F 
ATOM     55  C   UNL A   1      39.983  35.667  38.005  1.00  0.00     0.198 A 
ATOM     56  C   UNL A   1      38.528  33.973  38.883  1.00  0.00     0.198 A 
ATOM     57  F   UNL A   1      38.183  31.982  37.677  1.00  0.00    -0.203 F 
ATOM     58  F   UNL A   1      40.586  36.857  38.128  1.00  0.00    -0.200 F 
ATOM     59  C   UNL A   1      39.132  35.215  39.003  1.00  0.00     0.200 A 
ATOM     60  F   UNL A   1      37.689  33.540  39.834  1.00  0.00    -0.200 F 
ATOM     61  F   UNL A   1      38.895  35.976  40.080  1.00  0.00    -0.200 F 
ENDBRANCH  27  51
BRANCH  39  62
ATOM     62  C   UNL A   1      44.017  28.485  34.968  1.00  0.00     0.064 A 
ATOM     63  C   UNL A   1      45.293  29.064  34.993  1.00  0.00     0.173 A 
ATOM     64  C   UNL A   1      43.818  27.298  35.691  1.00  0.00     0.173 A 
ATOM     65  F   UNL A   1      45.539  30.189  34.305  1.00  0.00    -0.203 F 
ATOM     66  C   UNL A   1      46.332  28.471  35.707  1.00  0.00     0.198 A 
ATOM     67  C   UNL A   1      44.850  26.727  36.429  1.00  0.00     0.198 A 
ATOM     68  F   UNL A   1      42.615  26.705  35.701  1.00  0.00    -0.203 F 
ATOM     69  F   UNL A   1      47.553  29.022  35.690  1.00  0.00    -0.200 F 
ATOM     70  C   UNL A   1      46.107  27.312  36.433  1.00  0.00     0.200 A 
ATOM     71  F   UNL A   1      44.625  25.615  37.142  1.00  0.00    -0.200 F 
ATOM     72  F   UNL A   1      47.103  26.755  37.136  1.00  0.00    -0.200 F 
ENDBRANCH  39  62
ENDBRANCH  13  14
ENDBRANCH   6   8
ENDBRANCH   3   4
ENDBRANCH   2   3
ENDBRANCH   1   2
BRANCH   1  73
ATOM     73  C   UNL A   1      32.313  29.854  27.251  1.00  0.00     0.002 C 
BRANCH  73  74
ATOM     74  C   UNL A   1      33.823  29.700  27.047  1.00  0.00     0.021 C 
BRANCH  74  75
ATOM     75  C   UNL A   1      34.246  28.542  26.150  1.00  0.00     0.116 C 
BRANCH  75  76
ATOM     76  N   UNL A   1      34.122  28.827  24.733  1.00  0.00    -0.354 N 
ATOM     77  C   UNL A   1      33.197  28.345  23.837  1.00  0.00     0.243 C 
ATOM     78  H   UNL A   1      34.789  29.450  24.363  1.00  0.00     0.163 HD
ATOM     79  O   UNL A   1      33.094  28.913  22.747  1.00  0.00    -0.273 OA
BRANCH  77  80
ATOM     80  C   UNL A   1      32.291  27.174  24.276  1.00  0.00     0.185 C 
ATOM     81  C   UNL A   1      30.909  27.739  24.630  1.00  0.00     0.106 C 
ATOM     82  N   UNL A   1      32.155  26.112  23.270  1.00  0.00    -0.316 N 
ATOM     83  S   UNL A   1      29.713  27.001  23.500  1.00  0.00    -0.138 SA
ATOM     84  C   UNL A   1      30.804  25.644  23.072  1.00  0.00     0.190 C 
BRANCH  82  85
ATOM     85  C   UNL A   1      33.304  25.416  22.884  1.00  0.00     0.257 C 
ATOM     86  O   UNL A   1      33.818  25.587  21.781  1.00  0.00    -0.269 OA
BRANCH  85  87
ATOM     87  C   UNL A   1      33.871  24.397  23.807  1.00  0.00     0.066 A 
ATOM     88  C   UNL A   1      34.764  24.828  24.806  1.00  0.00     0.016 A 
ATOM     89  C   UNL A   1      33.454  23.059  23.719  1.00  0.00     0.083 A 
ATOM     90  C   UNL A   1      35.337  23.910  25.678  1.00  0.00     0.002 A 
ATOM     91  C   UNL A   1      34.013  22.152  24.651  1.00  0.00     0.001 A 
ATOM     92  N   UNL A   1      32.564  22.626  22.795  1.00  0.00    -0.255 NA
ATOM     93  C   UNL A   1      34.964  22.574  25.596  1.00  0.00     0.010 A 
ATOM     94  C   UNL A   1      33.593  20.814  24.626  1.00  0.00     0.012 A 
ATOM     95  C   UNL A   1      32.153  21.341  22.823  1.00  0.00     0.112 A 
ATOM     96  C   UNL A   1      32.633  20.404  23.712  1.00  0.00     0.021 A 
ENDBRANCH  85  87
ENDBRANCH  82  85
ENDBRANCH  77  80
ENDBRANCH  75  76
ENDBRANCH  74  75
ENDBRANCH  73  74
ENDBRANCH   1  73
TORSDOF 15
ENDMDL
