MODEL 1
REMARK VINA RESULT:     -12.4      0.000      0.000
REMARK SMILES Cn1cc(-c2cc(C(F)(F)F)c3c(C4CC4)nn(CC(=O)NCCCCCCNC(=O)c4ccc(-c5c6nc(c(-c7c(F)c(F)c(F)c(F)c7F)c7ccc([nH]7)c(-c7c(F)c(F)c(F)c(F)c7F)c7nc(c(-c8c(F)c(F)c(F)c(F)c8F)c8ccc5[nH]8)C=C7)C=C6)cc4)c3n2)cn1
REMARK SMILES IDX 25 1 24 2 23 3 22 4 20 5 21 6 19 8 18 9 5 10 6 11 96 12 7 13
REMARK SMILES IDX 95 14 12 15 13 16 17 17 4 18 1 19 2 20 3 21 98 22 97 23 8 24
REMARK SMILES IDX 9 25 10 26 11 27 14 28 15 29 16 30 26 31 27 32 28 33 29 34
REMARK SMILES IDX 30 35 31 37 32 38 33 39 94 40 34 41 93 42 35 43 36 44 37 45
REMARK SMILES IDX 87 46 38 47 92 48 86 49 88 50 39 51 91 52 85 53 84 54 40 56
REMARK SMILES IDX 72 57 52 58 71 59 53 60 56 61 70 62 89 63 54 64 55 65 69 67
REMARK SMILES IDX 90 68 57 69 41 70 42 71 50 72 43 73 44 74 48 75 51 76 45 77
REMARK SMILES IDX 46 78 49 79 47 80 73 81 74 82 82 83 75 84 76 85 80 86 83 87
REMARK SMILES IDX 77 88 78 89 81 90 79 91 58 92 59 93 67 94 60 95 61 96 65 97
REMARK SMILES IDX 68 98 62 99 63 100 66 101 64 102
REMARK H PARENT 22 7 29 36 88 55 56 66
REMARK Flexibility Score: inf
ROOT
ATOM      1  C   UNL A   1      39.775  21.661  26.490  1.00  0.00     0.002 C 
ENDROOT
BRANCH   1   2
ATOM      2  C   UNL A   1      39.243  23.091  26.530  1.00  0.00     0.021 C 
BRANCH   2   3
ATOM      3  C   UNL A   1      37.940  23.261  25.755  1.00  0.00     0.116 C 
BRANCH   3   4
ATOM      4  N   UNL A   1      36.841  22.615  26.434  1.00  0.00    -0.354 N 
ATOM      5  C   UNL A   1      35.547  22.566  26.003  1.00  0.00     0.241 C 
ATOM      6  O   UNL A   1      34.692  22.004  26.688  1.00  0.00    -0.273 OA
ATOM      7  H   UNL A   1      37.044  22.169  27.288  1.00  0.00     0.163 HD
BRANCH   5   8
ATOM      8  C   UNL A   1      35.249  23.111  24.643  1.00  0.00     0.246 C 
BRANCH   8   9
ATOM      9  N   UNL A   1      34.831  24.501  24.643  1.00  0.00    -0.237 N 
ATOM     10  C   UNL A   1      32.619  24.748  22.134  1.00  0.00     0.077 A 
ATOM     11  C   UNL A   1      32.235  26.085  22.180  1.00  0.00     0.043 A 
ATOM     12  N   UNL A   1      33.900  24.436  22.435  1.00  0.00    -0.228 NA
ATOM     13  C   UNL A   1      32.997  26.983  22.972  1.00  0.00     0.071 A 
ATOM     14  C   UNL A   1      34.238  25.082  23.564  1.00  0.00     0.159 A 
ATOM     15  C   UNL A   1      33.741  26.312  23.961  1.00  0.00     0.055 A 
ATOM     16  C   UNL A   1      33.940  26.292  25.368  1.00  0.00     0.076 A 
ATOM     17  N   UNL A   1      34.685  25.241  25.765  1.00  0.00    -0.175 NA
BRANCH  10  18
ATOM     18  C   UNL A   1      31.772  23.684  22.737  1.00  0.00     0.038 A 
ATOM     19  C   UNL A   1      31.061  22.976  26.161  1.00  0.00     0.173 C 
ATOM     20  N   UNL A   1      31.141  22.899  24.713  1.00  0.00    -0.275 N 
ATOM     21  C   UNL A   1      30.984  23.959  23.854  1.00  0.00     0.118 A 
ATOM     22  N   UNL A   1      31.733  21.843  24.126  1.00  0.00    -0.181 NA
ATOM     23  C   UNL A   1      32.173  22.338  22.962  1.00  0.00     0.145 A 
ENDBRANCH  10  18
BRANCH  13  24
ATOM     24  C   UNL A   1      33.210  28.418  22.583  1.00  0.00     0.417 C 
ATOM     25  F   UNL A   1      33.660  29.235  23.565  1.00  0.00    -0.166 F 
ATOM     26  F   UNL A   1      34.127  28.527  21.576  1.00  0.00    -0.166 F 
ATOM     27  F   UNL A   1      32.080  29.010  22.103  1.00  0.00    -0.166 F 
ENDBRANCH  13  24
BRANCH  16  28
ATOM     28  C   UNL A   1      33.203  27.081  26.454  1.00  0.00     0.041 C 
ATOM     29  C   UNL A   1      32.083  28.056  26.213  1.00  0.00     0.011 C 
ATOM     30  C   UNL A   1      31.756  26.707  26.748  1.00  0.00     0.011 C 
ENDBRANCH  16  28
ENDBRANCH   8   9
ENDBRANCH   5   8
ENDBRANCH   3   4
ENDBRANCH   2   3
ENDBRANCH   1   2
BRANCH   1  31
ATOM     31  C   UNL A   1      40.818  21.346  27.572  1.00  0.00     0.002 C 
BRANCH  31  32
ATOM     32  C   UNL A   1      41.781  20.188  27.255  1.00  0.00     0.021 C 
BRANCH  32  33
ATOM     33  C   UNL A   1      41.926  19.946  25.771  1.00  0.00     0.116 C 
BRANCH  33  34
ATOM     34  N   UNL A   1      43.331  19.937  25.390  1.00  0.00    -0.352 N 
ATOM     35  C   UNL A   1      44.167  21.005  25.172  1.00  0.00     0.251 C 
ATOM     36  H   UNL A   1      43.735  19.047  25.271  1.00  0.00     0.163 HD
ATOM     37  O   UNL A   1      45.189  20.882  24.522  1.00  0.00    -0.269 OA
BRANCH  35  38
ATOM     38  C   UNL A   1      43.815  22.298  25.777  1.00  0.00     0.039 A 
ATOM     39  C   UNL A   1      42.999  23.204  25.094  1.00  0.00     0.014 A 
ATOM     40  C   UNL A   1      44.371  22.618  27.016  1.00  0.00     0.014 A 
ATOM     41  C   UNL A   1      42.758  24.441  25.674  1.00  0.00     0.010 A 
ATOM     42  C   UNL A   1      43.993  23.756  27.663  1.00  0.00     0.010 A 
ATOM     43  C   UNL A   1      43.282  24.703  26.946  1.00  0.00    -0.014 A 
BRANCH  43  44
ATOM     44  C   UNL A   1      43.085  25.977  27.601  1.00  0.00     0.031 A 
ATOM     45  C   UNL A   1      44.040  27.019  27.168  1.00  0.00     0.074 A 
ATOM     46  C   UNL A   1      41.980  26.225  28.334  1.00  0.00     0.049 A 
ATOM     47  N   UNL A   1      45.006  27.532  27.852  1.00  0.00    -0.248 NA
ATOM     48  C   UNL A   1      44.029  27.420  25.751  1.00  0.00     0.031 C 
ATOM     49  C   UNL A   1      40.798  25.377  28.537  1.00  0.00     0.029 A 
ATOM     50  N   UNL A   1      41.650  27.358  29.000  1.00  0.00    -0.354 N 
ATOM     51  C   UNL A   1      45.593  28.476  27.018  1.00  0.00     0.074 A 
ATOM     52  C   UNL A   1      45.105  28.206  25.692  1.00  0.00     0.031 C 
ATOM     53  C   UNL A   1      39.808  26.106  29.103  1.00  0.00     0.029 A 
ATOM     54  C   UNL A   1      40.332  27.415  29.442  1.00  0.00     0.049 A 
ATOM     55  H   UNL A   1      42.293  28.086  29.159  1.00  0.00     0.167 HD
ATOM     56  C   UNL A   1      46.210  29.573  27.538  1.00  0.00     0.037 A 
ATOM     57  C   UNL A   1      39.739  28.498  30.007  1.00  0.00     0.037 A 
ATOM     58  C   UNL A   1      46.485  29.390  28.943  1.00  0.00     0.049 A 
ATOM     59  C   UNL A   1      40.838  29.380  30.488  1.00  0.00     0.074 A 
ATOM     60  C   UNL A   1      47.242  28.496  29.676  1.00  0.00     0.029 A 
ATOM     61  N   UNL A   1      45.608  29.953  29.839  1.00  0.00    -0.354 N 
ATOM     62  N   UNL A   1      41.651  29.063  31.457  1.00  0.00    -0.248 NA
ATOM     63  C   UNL A   1      41.319  30.403  29.573  1.00  0.00     0.031 C 
ATOM     64  C   UNL A   1      46.467  28.221  30.843  1.00  0.00     0.029 A 
ATOM     65  C   UNL A   1      45.318  29.012  30.794  1.00  0.00     0.049 A 
ATOM     66  H   UNL A   1      45.251  30.869  29.803  1.00  0.00     0.167 HD
ATOM     67  C   UNL A   1      42.892  29.522  31.041  1.00  0.00     0.074 A 
ATOM     68  C   UNL A   1      42.612  30.401  29.907  1.00  0.00     0.031 C 
ATOM     69  C   UNL A   1      44.040  28.916  31.463  1.00  0.00     0.037 A 
BRANCH  56  70
ATOM     70  C   UNL A   1      46.208  30.934  26.886  1.00  0.00     0.064 A 
ATOM     71  C   UNL A   1      47.410  31.666  26.834  1.00  0.00     0.173 A 
ATOM     72  C   UNL A   1      45.041  31.663  26.565  1.00  0.00     0.173 A 
ATOM     73  F   UNL A   1      48.578  31.085  27.145  1.00  0.00    -0.203 F 
ATOM     74  C   UNL A   1      47.430  33.035  26.549  1.00  0.00     0.198 A 
ATOM     75  C   UNL A   1      45.072  33.014  26.224  1.00  0.00     0.198 A 
ATOM     76  F   UNL A   1      43.814  31.143  26.678  1.00  0.00    -0.203 F 
ATOM     77  F   UNL A   1      48.582  33.714  26.635  1.00  0.00    -0.200 F 
ATOM     78  C   UNL A   1      46.261  33.707  26.245  1.00  0.00     0.200 A 
ATOM     79  F   UNL A   1      43.923  33.651  25.955  1.00  0.00    -0.200 F 
ATOM     80  F   UNL A   1      46.270  35.028  26.027  1.00  0.00    -0.200 F 
ENDBRANCH  56  70
BRANCH  57  81
ATOM     81  C   UNL A   1      38.361  29.018  29.811  1.00  0.00     0.064 A 
ATOM     82  C   UNL A   1      37.562  29.337  30.925  1.00  0.00     0.173 A 
ATOM     83  C   UNL A   1      37.933  29.526  28.571  1.00  0.00     0.173 A 
ATOM     84  F   UNL A   1      37.915  28.915  32.149  1.00  0.00    -0.203 F 
ATOM     85  C   UNL A   1      36.445  30.170  30.816  1.00  0.00     0.198 A 
ATOM     86  C   UNL A   1      36.812  30.354  28.462  1.00  0.00     0.198 A 
ATOM     87  F   UNL A   1      38.649  29.321  27.457  1.00  0.00    -0.203 F 
ATOM     88  F   UNL A   1      35.764  30.523  31.915  1.00  0.00    -0.200 F 
ATOM     89  C   UNL A   1      36.082  30.694  29.588  1.00  0.00     0.200 A 
ATOM     90  F   UNL A   1      36.488  30.882  27.273  1.00  0.00    -0.200 F 
ATOM     91  F   UNL A   1      35.063  31.559  29.494  1.00  0.00    -0.200 F 
ENDBRANCH  57  81
BRANCH  69  92
ATOM     92  C   UNL A   1      43.925  27.905  32.573  1.00  0.00     0.064 A 
ATOM     93  C   UNL A   1      43.861  26.513  32.374  1.00  0.00     0.173 A 
ATOM     94  C   UNL A   1      44.024  28.356  33.894  1.00  0.00     0.173 A 
ATOM     95  F   UNL A   1      43.856  25.993  31.142  1.00  0.00    -0.203 F 
ATOM     96  C   UNL A   1      43.859  25.623  33.448  1.00  0.00     0.198 A 
ATOM     97  C   UNL A   1      44.058  27.465  34.964  1.00  0.00     0.198 A 
ATOM     98  F   UNL A   1      44.138  29.669  34.146  1.00  0.00    -0.203 F 
ATOM     99  F   UNL A   1      43.788  24.302  33.229  1.00  0.00    -0.200 F 
ATOM    100  C   UNL A   1      43.967  26.101  34.742  1.00  0.00     0.200 A 
ATOM    101  F   UNL A   1      44.208  27.930  36.212  1.00  0.00    -0.200 F 
ATOM    102  F   UNL A   1      44.009  25.246  35.775  1.00  0.00    -0.200 F 
ENDBRANCH  69  92
ENDBRANCH  43  44
ENDBRANCH  35  38
ENDBRANCH  33  34
ENDBRANCH  32  33
ENDBRANCH  31  32
ENDBRANCH   1  31
TORSDOF 17
ENDMDL
MODEL 2
REMARK VINA RESULT:     -12.3      2.419      3.756
REMARK SMILES Cn1cc(-c2cc(C(F)(F)F)c3c(C4CC4)nn(CC(=O)NCCCCCCNC(=O)c4ccc(-c5c6nc(c(-c7c(F)c(F)c(F)c(F)c7F)c7ccc([nH]7)c(-c7c(F)c(F)c(F)c(F)c7F)c7nc(c(-c8c(F)c(F)c(F)c(F)c8F)c8ccc5[nH]8)C=C7)C=C6)cc4)c3n2)cn1
REMARK SMILES IDX 25 1 24 2 23 3 22 4 20 5 21 6 19 8 18 9 5 10 6 11 96 12 7 13
REMARK SMILES IDX 95 14 12 15 13 16 17 17 4 18 1 19 2 20 3 21 98 22 97 23 8 24
REMARK SMILES IDX 9 25 10 26 11 27 14 28 15 29 16 30 26 31 27 32 28 33 29 34
REMARK SMILES IDX 30 35 31 37 32 38 33 39 94 40 34 41 93 42 35 43 36 44 37 45
REMARK SMILES IDX 87 46 38 47 92 48 86 49 88 50 39 51 91 52 85 53 84 54 40 56
REMARK SMILES IDX 72 57 52 58 71 59 53 60 56 61 70 62 89 63 54 64 55 65 69 67
REMARK SMILES IDX 90 68 57 69 41 70 42 71 50 72 43 73 44 74 48 75 51 76 45 77
REMARK SMILES IDX 46 78 49 79 47 80 73 81 74 82 82 83 75 84 76 85 80 86 83 87
REMARK SMILES IDX 77 88 78 89 81 90 79 91 58 92 59 93 67 94 60 95 61 96 65 97
REMARK SMILES IDX 68 98 62 99 63 100 66 101 64 102
REMARK H PARENT 22 7 29 36 88 55 56 66
REMARK Flexibility Score: inf
ROOT
ATOM      1  C   UNL A   1      34.455  21.490  26.732  1.00  0.00     0.002 C 
ENDROOT
BRANCH   1   2
ATOM      2  C   UNL A   1      34.074  20.645  25.519  1.00  0.00     0.021 C 
BRANCH   2   3
ATOM      3  C   UNL A   1      32.822  21.154  24.812  1.00  0.00     0.116 C 
BRANCH   3   4
ATOM      4  N   UNL A   1      31.757  21.409  25.755  1.00  0.00    -0.354 N 
ATOM      5  C   UNL A   1      30.903  22.473  25.736  1.00  0.00     0.241 C 
ATOM      6  O   UNL A   1      30.050  22.592  26.615  1.00  0.00    -0.273 OA
ATOM      7  H   UNL A   1      31.636  20.753  26.479  1.00  0.00     0.163 HD
BRANCH   5   8
ATOM      8  C   UNL A   1      30.979  23.400  24.566  1.00  0.00     0.246 C 
BRANCH   8   9
ATOM      9  N   UNL A   1      30.780  24.797  24.905  1.00  0.00    -0.237 N 
ATOM     10  C   UNL A   1      33.855  26.005  25.480  1.00  0.00     0.077 A 
ATOM     11  C   UNL A   1      33.618  27.343  25.784  1.00  0.00     0.043 A 
ATOM     12  N   UNL A   1      32.950  25.084  25.882  1.00  0.00    -0.228 NA
ATOM     13  C   UNL A   1      32.286  27.752  26.048  1.00  0.00     0.071 A 
ATOM     14  C   UNL A   1      31.723  25.528  25.559  1.00  0.00     0.159 A 
ATOM     15  C   UNL A   1      31.343  26.859  25.508  1.00  0.00     0.055 A 
ATOM     16  C   UNL A   1      30.224  26.832  24.631  1.00  0.00     0.076 A 
ATOM     17  N   UNL A   1      29.826  25.577  24.346  1.00  0.00    -0.175 NA
BRANCH  10  18
ATOM     18  C   UNL A   1      34.302  25.593  24.121  1.00  0.00     0.038 A 
ATOM     19  C   UNL A   1      32.528  25.573  21.026  1.00  0.00     0.173 C 
ATOM     20  N   UNL A   1      33.541  25.382  22.049  1.00  0.00    -0.275 N 
ATOM     21  C   UNL A   1      33.893  26.311  22.998  1.00  0.00     0.118 A 
ATOM     22  N   UNL A   1      33.955  24.142  22.363  1.00  0.00    -0.181 NA
ATOM     23  C   UNL A   1      34.351  24.257  23.638  1.00  0.00     0.145 A 
ENDBRANCH  10  18
BRANCH  13  24
ATOM     24  C   UNL A   1      31.958  28.828  27.045  1.00  0.00     0.417 C 
ATOM     25  F   UNL A   1      31.403  29.954  26.537  1.00  0.00    -0.166 F 
ATOM     26  F   UNL A   1      31.069  28.381  27.981  1.00  0.00    -0.166 F 
ATOM     27  F   UNL A   1      33.045  29.244  27.754  1.00  0.00    -0.166 F 
ENDBRANCH  13  24
BRANCH  16  28
ATOM     28  C   UNL A   1      29.647  27.963  23.776  1.00  0.00     0.041 C 
ATOM     29  C   UNL A   1      30.279  29.314  23.576  1.00  0.00     0.011 C 
ATOM     30  C   UNL A   1      30.365  28.313  22.479  1.00  0.00     0.011 C 
ENDBRANCH  16  28
ENDBRANCH   8   9
ENDBRANCH   5   8
ENDBRANCH   3   4
ENDBRANCH   2   3
ENDBRANCH   1   2
BRANCH   1  31
ATOM     31  C   UNL A   1      35.544  22.536  26.453  1.00  0.00     0.002 C 
BRANCH  31  32
ATOM     32  C   UNL A   1      36.763  22.036  25.657  1.00  0.00     0.021 C 
BRANCH  32  33
ATOM     33  C   UNL A   1      37.937  22.985  25.740  1.00  0.00     0.116 C 
BRANCH  33  34
ATOM     34  N   UNL A   1      39.138  22.275  26.157  1.00  0.00    -0.352 N 
ATOM     35  C   UNL A   1      40.313  22.791  26.645  1.00  0.00     0.251 C 
ATOM     36  H   UNL A   1      39.102  21.294  26.077  1.00  0.00     0.163 HD
ATOM     37  O   UNL A   1      41.345  22.144  26.615  1.00  0.00    -0.269 OA
BRANCH  35  38
ATOM     38  C   UNL A   1      40.288  24.135  27.241  1.00  0.00     0.039 A 
ATOM     39  C   UNL A   1      39.223  25.004  26.992  1.00  0.00     0.014 A 
ATOM     40  C   UNL A   1      41.385  24.537  28.003  1.00  0.00     0.014 A 
ATOM     41  C   UNL A   1      39.282  26.287  27.514  1.00  0.00     0.010 A 
ATOM     42  C   UNL A   1      41.363  25.731  28.660  1.00  0.00     0.010 A 
ATOM     43  C   UNL A   1      40.369  26.636  28.325  1.00  0.00    -0.014 A 
BRANCH  43  44
ATOM     44  C   UNL A   1      40.503  27.961  28.888  1.00  0.00     0.031 A 
ATOM     45  C   UNL A   1      41.623  28.737  28.313  1.00  0.00     0.074 A 
ATOM     46  C   UNL A   1      39.539  28.492  29.667  1.00  0.00     0.049 A 
ATOM     47  N   UNL A   1      42.728  29.066  28.891  1.00  0.00    -0.248 NA
ATOM     48  C   UNL A   1      41.585  29.039  26.872  1.00  0.00     0.031 C 
ATOM     49  C   UNL A   1      38.223  27.941  30.012  1.00  0.00     0.029 A 
ATOM     50  N   UNL A   1      39.515  29.711  30.260  1.00  0.00    -0.354 N 
ATOM     51  C   UNL A   1      43.436  29.803  27.949  1.00  0.00     0.074 A 
ATOM     52  C   UNL A   1      42.798  29.562  26.682  1.00  0.00     0.031 C 
ATOM     53  C   UNL A   1      37.460  28.905  30.579  1.00  0.00     0.029 A 
ATOM     54  C   UNL A   1      38.280  30.085  30.779  1.00  0.00     0.049 A 
ATOM     55  H   UNL A   1      40.311  30.288  30.320  1.00  0.00     0.167 HD
ATOM     56  C   UNL A   1      44.314  30.767  28.339  1.00  0.00     0.037 A 
ATOM     57  C   UNL A   1      37.980  31.305  31.292  1.00  0.00     0.037 A 
ATOM     58  C   UNL A   1      44.653  30.619  29.734  1.00  0.00     0.049 A 
ATOM     59  C   UNL A   1      39.277  31.953  31.631  1.00  0.00     0.074 A 
ATOM     60  C   UNL A   1      45.256  29.629  30.487  1.00  0.00     0.029 A 
ATOM     61  N   UNL A   1      43.992  31.417  30.636  1.00  0.00    -0.354 N 
ATOM     62  N   UNL A   1      40.078  31.527  32.568  1.00  0.00    -0.248 NA
ATOM     63  C   UNL A   1      39.893  32.784  30.608  1.00  0.00     0.031 C 
ATOM     64  C   UNL A   1      44.535  29.607  31.719  1.00  0.00     0.029 A 
ATOM     65  C   UNL A   1      43.584  30.627  31.680  1.00  0.00     0.049 A 
ATOM     66  H   UNL A   1      43.839  32.385  30.550  1.00  0.00     0.167 HD
ATOM     67  C   UNL A   1      41.351  31.673  32.039  1.00  0.00     0.074 A 
ATOM     68  C   UNL A   1      41.178  32.519  30.859  1.00  0.00     0.031 C 
ATOM     69  C   UNL A   1      42.372  30.858  32.434  1.00  0.00     0.037 A 
BRANCH  56  70
ATOM     70  C   UNL A   1      44.553  32.051  27.582  1.00  0.00     0.064 A 
ATOM     71  C   UNL A   1      45.763  32.212  26.879  1.00  0.00     0.173 A 
ATOM     72  C   UNL A   1      43.785  33.226  27.742  1.00  0.00     0.173 A 
ATOM     73  F   UNL A   1      46.587  31.171  26.690  1.00  0.00    -0.203 F 
ATOM     74  C   UNL A   1      46.197  33.463  26.432  1.00  0.00     0.198 A 
ATOM     75  C   UNL A   1      44.193  34.462  27.243  1.00  0.00     0.198 A 
ATOM     76  F   UNL A   1      42.671  33.262  28.481  1.00  0.00    -0.203 F 
ATOM     77  F   UNL A   1      47.411  33.586  25.880  1.00  0.00    -0.200 F 
ATOM     78  C   UNL A   1      45.413  34.587  26.616  1.00  0.00     0.200 A 
ATOM     79  F   UNL A   1      43.427  35.542  27.453  1.00  0.00    -0.200 F 
ATOM     80  F   UNL A   1      45.851  35.794  26.239  1.00  0.00    -0.200 F 
ENDBRANCH  56  70
BRANCH  57  81
ATOM     81  C   UNL A   1      36.736  32.103  31.143  1.00  0.00     0.064 A 
ATOM     82  C   UNL A   1      36.006  32.492  32.282  1.00  0.00     0.173 A 
ATOM     83  C   UNL A   1      36.428  32.776  29.946  1.00  0.00     0.173 A 
ATOM     84  F   UNL A   1      36.257  31.921  33.470  1.00  0.00    -0.203 F 
ATOM     85  C   UNL A   1      35.078  33.538  32.242  1.00  0.00     0.198 A 
ATOM     86  C   UNL A   1      35.495  33.816  29.906  1.00  0.00     0.198 A 
ATOM     87  F   UNL A   1      37.098  32.514  28.816  1.00  0.00    -0.203 F 
ATOM     88  F   UNL A   1      34.472  33.938  33.368  1.00  0.00    -0.200 F 
ATOM     89  C   UNL A   1      34.838  34.212  31.057  1.00  0.00     0.200 A 
ATOM     90  F   UNL A   1      35.294  34.483  28.760  1.00  0.00    -0.200 F 
ATOM     91  F   UNL A   1      34.013  35.267  31.034  1.00  0.00    -0.200 F 
ENDBRANCH  57  81
BRANCH  69  92
ATOM     92  C   UNL A   1      42.131  29.970  33.626  1.00  0.00     0.064 A 
ATOM     93  C   UNL A   1      41.678  28.639  33.545  1.00  0.00     0.173 A 
ATOM     94  C   UNL A   1      42.505  30.440  34.890  1.00  0.00     0.173 A 
ATOM     95  F   UNL A   1      41.387  28.082  32.366  1.00  0.00    -0.203 F 
ATOM     96  C   UNL A   1      41.572  27.836  34.680  1.00  0.00     0.198 A 
ATOM     97  C   UNL A   1      42.433  29.625  36.018  1.00  0.00     0.198 A 
ATOM     98  F   UNL A   1      42.991  31.684  35.025  1.00  0.00    -0.203 F 
ATOM     99  F   UNL A   1      41.130  26.574  34.575  1.00  0.00    -0.200 F 
ATOM    100  C   UNL A   1      41.960  28.328  35.915  1.00  0.00     0.200 A 
ATOM    101  F   UNL A   1      42.851  30.092  37.203  1.00  0.00    -0.200 F 
ATOM    102  F   UNL A   1      41.900  27.544  37.002  1.00  0.00    -0.200 F 
ENDBRANCH  69  92
ENDBRANCH  43  44
ENDBRANCH  35  38
ENDBRANCH  33  34
ENDBRANCH  32  33
ENDBRANCH  31  32
ENDBRANCH   1  31
TORSDOF 17
ENDMDL
MODEL 3
REMARK VINA RESULT:     -12.2      3.145      8.529
REMARK SMILES Cn1cc(-c2cc(C(F)(F)F)c3c(C4CC4)nn(CC(=O)NCCCCCCNC(=O)c4ccc(-c5c6nc(c(-c7c(F)c(F)c(F)c(F)c7F)c7ccc([nH]7)c(-c7c(F)c(F)c(F)c(F)c7F)c7nc(c(-c8c(F)c(F)c(F)c(F)c8F)c8ccc5[nH]8)C=C7)C=C6)cc4)c3n2)cn1
REMARK SMILES IDX 25 1 24 2 23 3 22 4 20 5 21 6 19 8 18 9 5 10 6 11 96 12 7 13
REMARK SMILES IDX 95 14 12 15 13 16 17 17 4 18 1 19 2 20 3 21 98 22 97 23 8 24
REMARK SMILES IDX 9 25 10 26 11 27 14 28 15 29 16 30 26 31 27 32 28 33 29 34
REMARK SMILES IDX 30 35 31 37 32 38 33 39 94 40 34 41 93 42 35 43 36 44 37 45
REMARK SMILES IDX 87 46 38 47 92 48 86 49 88 50 39 51 91 52 85 53 84 54 40 56
REMARK SMILES IDX 72 57 52 58 71 59 53 60 56 61 70 62 89 63 54 64 55 65 69 67
REMARK SMILES IDX 90 68 57 69 41 70 42 71 50 72 43 73 44 74 48 75 51 76 45 77
REMARK SMILES IDX 46 78 49 79 47 80 73 81 74 82 82 83 75 84 76 85 80 86 83 87
REMARK SMILES IDX 77 88 78 89 81 90 79 91 58 92 59 93 67 94 60 95 61 96 65 97
REMARK SMILES IDX 68 98 62 99 63 100 66 101 64 102
REMARK H PARENT 22 7 29 36 88 55 56 66
REMARK Flexibility Score: inf
ROOT
ATOM      1  C   UNL A   1      31.492  29.255  25.210  1.00  0.00     0.002 C 
ENDROOT
BRANCH   1   2
ATOM      2  C   UNL A   1      32.130  28.877  23.876  1.00  0.00     0.021 C 
BRANCH   2   3
ATOM      3  C   UNL A   1      31.345  27.804  23.127  1.00  0.00     0.116 C 
BRANCH   3   4
ATOM      4  N   UNL A   1      32.089  27.309  21.992  1.00  0.00    -0.354 N 
ATOM      5  C   UNL A   1      32.400  26.004  21.742  1.00  0.00     0.241 C 
ATOM      6  O   UNL A   1      33.065  25.711  20.749  1.00  0.00    -0.273 OA
ATOM      7  H   UNL A   1      32.401  27.975  21.338  1.00  0.00     0.163 HD
BRANCH   5   8
ATOM      8  C   UNL A   1      31.813  24.967  22.645  1.00  0.00     0.246 C 
BRANCH   8   9
ATOM      9  N   UNL A   1      32.691  23.841  22.901  1.00  0.00    -0.237 N 
ATOM     10  C   UNL A   1      34.471  24.715  25.605  1.00  0.00     0.077 A 
ATOM     11  C   UNL A   1      35.284  23.606  25.822  1.00  0.00     0.043 A 
ATOM     12  N   UNL A   1      34.180  25.060  24.331  1.00  0.00    -0.228 NA
ATOM     13  C   UNL A   1      35.377  22.624  24.802  1.00  0.00     0.071 A 
ATOM     14  C   UNL A   1      33.811  23.950  23.667  1.00  0.00     0.159 A 
ATOM     15  C   UNL A   1      34.281  22.673  23.922  1.00  0.00     0.055 A 
ATOM     16  C   UNL A   1      33.249  21.849  23.397  1.00  0.00     0.076 A 
ATOM     17  N   UNL A   1      32.338  22.552  22.696  1.00  0.00    -0.175 NA
BRANCH  10  18
ATOM     18  C   UNL A   1      33.226  24.922  26.394  1.00  0.00     0.038 A 
ATOM     19  C   UNL A   1      30.233  22.983  26.513  1.00  0.00     0.173 C 
ATOM     20  N   UNL A   1      31.218  24.034  26.703  1.00  0.00    -0.275 N 
ATOM     21  C   UNL A   1      32.554  23.832  26.947  1.00  0.00     0.118 A 
ATOM     22  N   UNL A   1      30.952  25.288  26.296  1.00  0.00    -0.181 NA
ATOM     23  C   UNL A   1      32.164  25.799  26.045  1.00  0.00     0.145 A 
ENDBRANCH  10  18
BRANCH  13  24
ATOM     24  C   UNL A   1      36.643  21.858  24.536  1.00  0.00     0.417 C 
ATOM     25  F   UNL A   1      36.585  20.525  24.766  1.00  0.00    -0.166 F 
ATOM     26  F   UNL A   1      37.030  21.981  23.232  1.00  0.00    -0.166 F 
ATOM     27  F   UNL A   1      37.700  22.311  25.267  1.00  0.00    -0.166 F 
ENDBRANCH  13  24
BRANCH  16  28
ATOM     28  C   UNL A   1      32.891  20.406  23.766  1.00  0.00     0.041 C 
ATOM     29  C   UNL A   1      33.759  19.470  24.561  1.00  0.00     0.011 C 
ATOM     30  C   UNL A   1      32.587  20.099  25.226  1.00  0.00     0.011 C 
ENDBRANCH  16  28
ENDBRANCH   8   9
ENDBRANCH   5   8
ENDBRANCH   3   4
ENDBRANCH   2   3
ENDBRANCH   1   2
BRANCH   1  31
ATOM     31  C   UNL A   1      32.180  30.426  25.927  1.00  0.00     0.002 C 
BRANCH  31  32
ATOM     32  C   UNL A   1      32.832  30.091  27.281  1.00  0.00     0.021 C 
BRANCH  32  33
ATOM     33  C   UNL A   1      34.268  30.554  27.361  1.00  0.00     0.116 C 
BRANCH  33  34
ATOM     34  N   UNL A   1      34.392  31.679  28.277  1.00  0.00    -0.352 N 
ATOM     35  C   UNL A   1      35.235  31.821  29.352  1.00  0.00     0.251 C 
ATOM     36  H   UNL A   1      33.788  32.437  28.104  1.00  0.00     0.163 HD
ATOM     37  O   UNL A   1      34.999  32.626  30.235  1.00  0.00    -0.269 OA
BRANCH  35  38
ATOM     38  C   UNL A   1      36.455  31.001  29.392  1.00  0.00     0.039 A 
ATOM     39  C   UNL A   1      36.378  29.621  29.599  1.00  0.00     0.014 A 
ATOM     40  C   UNL A   1      37.686  31.648  29.283  1.00  0.00     0.014 A 
ATOM     41  C   UNL A   1      37.560  28.903  29.704  1.00  0.00     0.010 A 
ATOM     42  C   UNL A   1      38.837  30.922  29.210  1.00  0.00     0.010 A 
ATOM     43  C   UNL A   1      38.776  29.576  29.529  1.00  0.00    -0.014 A 
BRANCH  43  44
ATOM     44  C   UNL A   1      40.044  28.893  29.643  1.00  0.00     0.031 A 
ATOM     45  C   UNL A   1      40.519  28.754  31.037  1.00  0.00     0.074 A 
ATOM     46  C   UNL A   1      40.586  28.241  28.594  1.00  0.00     0.049 A 
ATOM     47  N   UNL A   1      41.512  29.361  31.592  1.00  0.00    -0.248 NA
ATOM     48  C   UNL A   1      39.689  27.977  31.974  1.00  0.00     0.031 C 
ATOM     49  C   UNL A   1      40.025  28.017  27.256  1.00  0.00     0.029 A 
ATOM     50  N   UNL A   1      41.755  27.556  28.543  1.00  0.00    -0.354 N 
ATOM     51  C   UNL A   1      41.563  28.879  32.895  1.00  0.00     0.074 A 
ATOM     52  C   UNL A   1      40.306  28.219  33.132  1.00  0.00     0.031 C 
ATOM     53  C   UNL A   1      40.760  27.086  26.604  1.00  0.00     0.029 A 
ATOM     54  C   UNL A   1      41.923  26.767  27.409  1.00  0.00     0.049 A 
ATOM     55  H   UNL A   1      42.435  27.613  29.253  1.00  0.00     0.167 HD
ATOM     56  C   UNL A   1      42.744  28.822  33.569  1.00  0.00     0.037 A 
ATOM     57  C   UNL A   1      42.942  25.895  27.203  1.00  0.00     0.037 A 
ATOM     58  C   UNL A   1      43.742  29.642  32.925  1.00  0.00     0.049 A 
ATOM     59  C   UNL A   1      44.034  26.290  28.134  1.00  0.00     0.074 A 
ATOM     60  C   UNL A   1      43.856  30.990  32.644  1.00  0.00     0.029 A 
ATOM     61  N   UNL A   1      44.642  29.015  32.098  1.00  0.00    -0.354 N 
ATOM     62  N   UNL A   1      44.699  27.408  28.038  1.00  0.00    -0.248 NA
ATOM     63  C   UNL A   1      44.055  25.657  29.443  1.00  0.00     0.031 C 
ATOM     64  C   UNL A   1      44.452  31.050  31.347  1.00  0.00     0.029 A 
ATOM     65  C   UNL A   1      44.733  29.745  30.941  1.00  0.00     0.049 A 
ATOM     66  H   UNL A   1      45.135  28.187  32.300  1.00  0.00     0.167 HD
ATOM     67  C   UNL A   1      44.864  27.834  29.348  1.00  0.00     0.074 A 
ATOM     68  C   UNL A   1      44.510  26.679  30.171  1.00  0.00     0.031 C 
ATOM     69  C   UNL A   1      44.983  29.162  29.642  1.00  0.00     0.037 A 
BRANCH  56  70
ATOM     70  C   UNL A   1      43.103  27.740  34.558  1.00  0.00     0.064 A 
ATOM     71  C   UNL A   1      43.356  28.097  35.897  1.00  0.00     0.173 A 
ATOM     72  C   UNL A   1      43.480  26.426  34.201  1.00  0.00     0.173 A 
ATOM     73  F   UNL A   1      43.064  29.329  36.342  1.00  0.00    -0.203 F 
ATOM     74  C   UNL A   1      43.997  27.230  36.785  1.00  0.00     0.198 A 
ATOM     75  C   UNL A   1      44.065  25.542  35.106  1.00  0.00     0.198 A 
ATOM     76  F   UNL A   1      43.410  25.974  32.944  1.00  0.00    -0.203 F 
ATOM     77  F   UNL A   1      44.328  27.659  38.010  1.00  0.00    -0.200 F 
ATOM     78  C   UNL A   1      44.352  25.954  36.389  1.00  0.00     0.200 A 
ATOM     79  F   UNL A   1      44.422  24.318  34.693  1.00  0.00    -0.200 F 
ATOM     80  F   UNL A   1      45.015  25.140  37.219  1.00  0.00    -0.200 F 
ENDBRANCH  56  70
BRANCH  57  81
ATOM     81  C   UNL A   1      42.905  24.543  26.587  1.00  0.00     0.064 A 
ATOM     82  C   UNL A   1      43.642  24.281  25.416  1.00  0.00     0.173 A 
ATOM     83  C   UNL A   1      42.442  23.419  27.296  1.00  0.00     0.173 A 
ATOM     84  F   UNL A   1      44.144  25.296  24.696  1.00  0.00    -0.203 F 
ATOM     85  C   UNL A   1      43.956  22.978  25.020  1.00  0.00     0.198 A 
ATOM     86  C   UNL A   1      42.751  22.117  26.894  1.00  0.00     0.198 A 
ATOM     87  F   UNL A   1      41.772  23.560  28.448  1.00  0.00    -0.203 F 
ATOM     88  F   UNL A   1      44.736  22.774  23.949  1.00  0.00    -0.200 F 
ATOM     89  C   UNL A   1      43.527  21.897  25.770  1.00  0.00     0.200 A 
ATOM     90  F   UNL A   1      42.357  21.079  27.646  1.00  0.00    -0.200 F 
ATOM     91  F   UNL A   1      43.896  20.653  25.439  1.00  0.00    -0.200 F 
ENDBRANCH  57  81
BRANCH  69  92
ATOM     92  C   UNL A   1      45.175  30.115  28.492  1.00  0.00     0.064 A 
ATOM     93  C   UNL A   1      44.123  30.732  27.790  1.00  0.00     0.173 A 
ATOM     94  C   UNL A   1      46.476  30.524  28.180  1.00  0.00     0.173 A 
ATOM     95  F   UNL A   1      42.847  30.467  28.088  1.00  0.00    -0.203 F 
ATOM     96  C   UNL A   1      44.368  31.685  26.801  1.00  0.00     0.198 A 
ATOM     97  C   UNL A   1      46.718  31.502  27.217  1.00  0.00     0.198 A 
ATOM     98  F   UNL A   1      47.519  30.008  28.849  1.00  0.00    -0.203 F 
ATOM     99  F   UNL A   1      43.346  32.251  26.142  1.00  0.00    -0.200 F 
ATOM    100  C   UNL A   1      45.666  32.075  26.522  1.00  0.00     0.200 A 
ATOM    101  F   UNL A   1      47.974  31.908  26.983  1.00  0.00    -0.200 F 
ATOM    102  F   UNL A   1      45.902  33.021  25.602  1.00  0.00    -0.200 F 
ENDBRANCH  69  92
ENDBRANCH  43  44
ENDBRANCH  35  38
ENDBRANCH  33  34
ENDBRANCH  32  33
ENDBRANCH  31  32
ENDBRANCH   1  31
TORSDOF 17
ENDMDL
