MODEL 1
REMARK VINA RESULT:     -13.3      0.000      0.000
REMARK SMILES Cc1c(CC(=O)NCCCCCCNC(=O)c2ccc(-c3c4nc(c(-c5c(F)c(F)c(F)c(F)c5F)c5ccc([nH]5)c(-c5c(F)c(F)c(F)c(F)c5F)c5nc(c(-c6c(F)c(F)c(F)c(F)c6F)c6ccc3[nH]6)C=C5)C=C4)cc2)c2ccccc2n1C(=O)c1ccc(Cl)cc1
REMARK SMILES IDX 10 1 9 2 8 3 7 4 5 5 6 6 4 8 3 9 1 10 2 11 86 12 80 13 85 14
REMARK SMILES IDX 81 15 84 16 82 17 83 18 87 19 88 20 89 21 90 22 95 23 91 24
REMARK SMILES IDX 94 25 92 26 93 27 11 28 12 29 13 30 14 31 15 32 16 34 17 35
REMARK SMILES IDX 18 36 79 37 19 38 78 39 20 40 21 41 22 42 72 43 23 44 77 45
REMARK SMILES IDX 71 46 73 47 24 48 76 49 70 50 69 51 25 53 57 54 37 55 56 56
REMARK SMILES IDX 38 57 41 58 55 59 74 60 39 61 40 62 54 64 75 65 42 66 26 67
REMARK SMILES IDX 27 68 35 69 28 70 29 71 33 72 36 73 30 74 31 75 34 76 32 77
REMARK SMILES IDX 58 78 59 79 67 80 60 81 61 82 65 83 68 84 62 85 63 86 66 87
REMARK SMILES IDX 64 88 43 89 44 90 52 91 45 92 46 93 50 94 53 95 47 96 48 97
REMARK SMILES IDX 51 98 49 99
REMARK H PARENT 7 7 14 33 73 52 41 63
REMARK Flexibility Score: inf
ROOT
ATOM      1  C   UNL A   1      31.356  29.719  24.860  1.00  0.00     0.002 C 
ENDROOT
BRANCH   1   2
ATOM      2  C   UNL A   1      31.310  28.912  23.557  1.00  0.00     0.021 C 
BRANCH   2   3
ATOM      3  C   UNL A   1      32.627  28.932  22.781  1.00  0.00     0.116 C 
BRANCH   3   4
ATOM      4  N   UNL A   1      32.859  27.670  22.110  1.00  0.00    -0.356 N 
ATOM      5  C   UNL A   1      33.549  26.580  22.557  1.00  0.00     0.224 C 
ATOM      6  O   UNL A   1      33.698  25.628  21.789  1.00  0.00    -0.275 OA
ATOM      7  H   UNL A   1      32.465  27.586  21.210  1.00  0.00     0.163 HD
BRANCH   5   8
ATOM      8  C   UNL A   1      34.054  26.531  23.991  1.00  0.00     0.138 C 
BRANCH   8   9
ATOM      9  C   UNL A   1      33.584  25.330  24.765  1.00  0.00    -0.010 A 
ATOM     10  C   UNL A   1      35.801  23.981  24.949  1.00  0.00     0.065 C 
ATOM     11  C   UNL A   1      34.341  24.236  25.168  1.00  0.00     0.028 A 
ATOM     12  N   UNL A   1      33.507  23.328  25.838  1.00  0.00    -0.280 N 
ATOM     13  C   UNL A   1      32.270  25.141  25.278  1.00  0.00     0.004 A 
ATOM     14  C   UNL A   1      32.255  23.943  26.000  1.00  0.00     0.056 A 
ATOM     15  C   UNL A   1      31.092  25.922  25.210  1.00  0.00     0.010 A 
ATOM     16  C   UNL A   1      31.096  23.570  26.716  1.00  0.00     0.027 A 
ATOM     17  C   UNL A   1      29.933  25.510  25.866  1.00  0.00     0.001 A 
ATOM     18  C   UNL A   1      29.942  24.352  26.622  1.00  0.00     0.002 A 
BRANCH  12  19
ATOM     19  C   UNL A   1      33.887  22.021  26.273  1.00  0.00     0.262 C 
ATOM     20  O   UNL A   1      34.325  21.869  27.403  1.00  0.00    -0.268 OA
BRANCH  19  21
ATOM     21  C   UNL A   1      33.786  20.799  25.455  1.00  0.00     0.040 A 
ATOM     22  C   UNL A   1      32.545  20.331  25.009  1.00  0.00     0.015 A 
ATOM     23  C   UNL A   1      34.964  20.104  25.165  1.00  0.00     0.015 A 
ATOM     24  C   UNL A   1      32.481  19.105  24.340  1.00  0.00     0.021 A 
ATOM     25  C   UNL A   1      34.893  18.884  24.492  1.00  0.00     0.021 A 
ATOM     26  C   UNL A   1      33.651  18.381  24.099  1.00  0.00     0.041 A 
ATOM     27  Cl  UNL A   1      33.561  16.844  23.335  1.00  0.00    -0.084 Cl
ENDBRANCH  19  21
ENDBRANCH  12  19
ENDBRANCH   8   9
ENDBRANCH   5   8
ENDBRANCH   3   4
ENDBRANCH   2   3
ENDBRANCH   1   2
BRANCH   1  28
ATOM     28  C   UNL A   1      32.635  29.542  25.683  1.00  0.00     0.002 C 
BRANCH  28  29
ATOM     29  C   UNL A   1      32.697  30.362  26.977  1.00  0.00     0.021 C 
BRANCH  29  30
ATOM     30  C   UNL A   1      34.111  30.781  27.386  1.00  0.00     0.116 C 
BRANCH  30  31
ATOM     31  N   UNL A   1      34.143  31.606  28.576  1.00  0.00    -0.352 N 
ATOM     32  C   UNL A   1      35.056  31.828  29.569  1.00  0.00     0.251 C 
ATOM     33  H   UNL A   1      33.316  32.125  28.699  1.00  0.00     0.163 HD
ATOM     34  O   UNL A   1      34.734  32.651  30.430  1.00  0.00    -0.269 OA
BRANCH  32  35
ATOM     35  C   UNL A   1      36.368  31.134  29.703  1.00  0.00     0.039 A 
ATOM     36  C   UNL A   1      37.621  31.715  29.509  1.00  0.00     0.014 A 
ATOM     37  C   UNL A   1      36.317  29.766  30.040  1.00  0.00     0.014 A 
ATOM     38  C   UNL A   1      38.780  30.948  29.572  1.00  0.00     0.010 A 
ATOM     39  C   UNL A   1      37.476  29.000  30.134  1.00  0.00     0.010 A 
ATOM     40  C   UNL A   1      38.711  29.585  29.863  1.00  0.00    -0.014 A 
BRANCH  40  41
ATOM     41  C   UNL A   1      39.972  28.849  29.934  1.00  0.00     0.031 A 
ATOM     42  C   UNL A   1      40.596  28.718  31.285  1.00  0.00     0.074 A 
ATOM     43  C   UNL A   1      40.523  28.209  28.885  1.00  0.00     0.049 A 
ATOM     44  N   UNL A   1      41.793  29.048  31.661  1.00  0.00    -0.248 NA
ATOM     45  C   UNL A   1      39.758  28.172  32.364  1.00  0.00     0.031 C 
ATOM     46  C   UNL A   1      39.936  27.965  27.567  1.00  0.00     0.029 A 
ATOM     47  N   UNL A   1      41.717  27.548  28.826  1.00  0.00    -0.354 N 
ATOM     48  C   UNL A   1      41.912  28.622  32.983  1.00  0.00     0.074 A 
ATOM     49  C   UNL A   1      40.608  28.161  33.390  1.00  0.00     0.031 C 
ATOM     50  C   UNL A   1      40.676  27.039  26.918  1.00  0.00     0.029 A 
ATOM     51  C   UNL A   1      41.851  26.731  27.717  1.00  0.00     0.049 A 
ATOM     52  H   UNL A   1      42.419  27.644  29.510  1.00  0.00     0.167 HD
ATOM     53  C   UNL A   1      43.110  28.519  33.621  1.00  0.00     0.037 A 
ATOM     54  C   UNL A   1      42.820  25.812  27.503  1.00  0.00     0.037 A 
ATOM     55  C   UNL A   1      44.140  29.298  32.998  1.00  0.00     0.049 A 
ATOM     56  C   UNL A   1      43.976  26.150  28.365  1.00  0.00     0.074 A 
ATOM     57  C   UNL A   1      44.339  30.644  32.767  1.00  0.00     0.029 A 
ATOM     58  N   UNL A   1      45.085  28.653  32.244  1.00  0.00    -0.354 N 
ATOM     59  N   UNL A   1      44.750  27.186  28.199  1.00  0.00    -0.248 NA
ATOM     60  C   UNL A   1      44.098  25.482  29.651  1.00  0.00     0.031 C 
ATOM     61  C   UNL A   1      45.064  30.712  31.541  1.00  0.00     0.029 A 
ATOM     62  C   UNL A   1      45.266  29.401  31.109  1.00  0.00     0.049 A 
ATOM     63  H   UNL A   1      45.545  27.814  32.473  1.00  0.00     0.167 HD
ATOM     64  C   UNL A   1      45.148  27.537  29.479  1.00  0.00     0.074 A 
ATOM     65  C   UNL A   1      44.835  26.381  30.305  1.00  0.00     0.031 C 
ATOM     66  C   UNL A   1      45.435  28.834  29.792  1.00  0.00     0.037 A 
BRANCH  53  67
ATOM     67  C   UNL A   1      43.410  27.476  34.662  1.00  0.00     0.064 A 
ATOM     68  C   UNL A   1      43.668  27.850  35.995  1.00  0.00     0.173 A 
ATOM     69  C   UNL A   1      43.720  26.141  34.328  1.00  0.00     0.173 A 
ATOM     70  F   UNL A   1      43.459  29.110  36.402  1.00  0.00    -0.203 F 
ATOM     71  C   UNL A   1      44.222  26.955  36.916  1.00  0.00     0.198 A 
ATOM     72  C   UNL A   1      44.224  25.237  35.261  1.00  0.00     0.198 A 
ATOM     73  F   UNL A   1      43.642  25.699  33.065  1.00  0.00    -0.203 F 
ATOM     74  F   UNL A   1      44.543  27.378  38.146  1.00  0.00    -0.200 F 
ATOM     75  C   UNL A   1      44.497  25.649  36.549  1.00  0.00     0.200 A 
ATOM     76  F   UNL A   1      44.511  23.984  34.879  1.00  0.00    -0.200 F 
ATOM     77  F   UNL A   1      45.066  24.804  37.418  1.00  0.00    -0.200 F 
ENDBRANCH  53  67
BRANCH  54  78
ATOM     78  C   UNL A   1      42.708  24.511  26.806  1.00  0.00     0.064 A 
ATOM     79  C   UNL A   1      43.303  24.311  25.550  1.00  0.00     0.173 A 
ATOM     80  C   UNL A   1      42.252  23.358  27.476  1.00  0.00     0.173 A 
ATOM     81  F   UNL A   1      43.803  25.350  24.867  1.00  0.00    -0.203 F 
ATOM     82  C   UNL A   1      43.460  23.031  25.011  1.00  0.00     0.198 A 
ATOM     83  C   UNL A   1      42.396  22.083  26.931  1.00  0.00     0.198 A 
ATOM     84  F   UNL A   1      41.746  23.435  28.715  1.00  0.00    -0.203 F 
ATOM     85  F   UNL A   1      44.096  22.872  23.843  1.00  0.00    -0.200 F 
ATOM     86  C   UNL A   1      43.015  21.918  25.706  1.00  0.00     0.200 A 
ATOM     87  F   UNL A   1      41.991  21.014  27.629  1.00  0.00    -0.200 F 
ATOM     88  F   UNL A   1      43.219  20.686  25.218  1.00  0.00    -0.200 F 
ENDBRANCH  54  78
BRANCH  66  89
ATOM     89  C   UNL A   1      45.646  29.795  28.660  1.00  0.00     0.064 A 
ATOM     90  C   UNL A   1      44.598  30.434  27.977  1.00  0.00     0.173 A 
ATOM     91  C   UNL A   1      46.955  30.188  28.351  1.00  0.00     0.173 A 
ATOM     92  F   UNL A   1      43.320  30.190  28.291  1.00  0.00    -0.203 F 
ATOM     93  C   UNL A   1      44.855  31.387  26.993  1.00  0.00     0.198 A 
ATOM     94  C   UNL A   1      47.207  31.167  27.394  1.00  0.00     0.198 A 
ATOM     95  F   UNL A   1      47.992  29.656  29.016  1.00  0.00    -0.203 F 
ATOM     96  F   UNL A   1      43.838  31.976  26.345  1.00  0.00    -0.200 F 
ATOM     97  C   UNL A   1      46.158  31.758  26.707  1.00  0.00     0.200 A 
ATOM     98  F   UNL A   1      48.467  31.561  27.158  1.00  0.00    -0.200 F 
ATOM     99  F   UNL A   1      46.403  32.706  25.793  1.00  0.00    -0.200 F 
ENDBRANCH  66  89
ENDBRANCH  40  41
ENDBRANCH  32  35
ENDBRANCH  30  31
ENDBRANCH  29  30
ENDBRANCH  28  29
ENDBRANCH   1  28
TORSDOF 16
ENDMDL
MODEL 2
REMARK VINA RESULT:     -13.3      0.954      1.497
REMARK SMILES Cc1c(CC(=O)NCCCCCCNC(=O)c2ccc(-c3c4nc(c(-c5c(F)c(F)c(F)c(F)c5F)c5ccc([nH]5)c(-c5c(F)c(F)c(F)c(F)c5F)c5nc(c(-c6c(F)c(F)c(F)c(F)c6F)c6ccc3[nH]6)C=C5)C=C4)cc2)c2ccccc2n1C(=O)c1ccc(Cl)cc1
REMARK SMILES IDX 10 1 9 2 8 3 7 4 5 5 6 6 4 8 3 9 1 10 2 11 86 12 80 13 85 14
REMARK SMILES IDX 81 15 84 16 82 17 83 18 87 19 88 20 89 21 90 22 95 23 91 24
REMARK SMILES IDX 94 25 92 26 93 27 11 28 12 29 13 30 14 31 15 32 16 34 17 35
REMARK SMILES IDX 18 36 79 37 19 38 78 39 20 40 21 41 22 42 72 43 23 44 77 45
REMARK SMILES IDX 71 46 73 47 24 48 76 49 70 50 69 51 25 53 57 54 37 55 56 56
REMARK SMILES IDX 38 57 41 58 55 59 74 60 39 61 40 62 54 64 75 65 42 66 26 67
REMARK SMILES IDX 27 68 35 69 28 70 29 71 33 72 36 73 30 74 31 75 34 76 32 77
REMARK SMILES IDX 58 78 59 79 67 80 60 81 61 82 65 83 68 84 62 85 63 86 66 87
REMARK SMILES IDX 64 88 43 89 44 90 52 91 45 92 46 93 50 94 53 95 47 96 48 97
REMARK SMILES IDX 51 98 49 99
REMARK H PARENT 7 7 14 33 73 52 41 63
REMARK Flexibility Score: inf
ROOT
ATOM      1  C   UNL A   1      30.643  29.557  24.273  1.00  0.00     0.002 C 
ENDROOT
BRANCH   1   2
ATOM      2  C   UNL A   1      30.953  28.907  22.920  1.00  0.00     0.021 C 
BRANCH   2   3
ATOM      3  C   UNL A   1      32.449  28.759  22.643  1.00  0.00     0.116 C 
BRANCH   3   4
ATOM      4  N   UNL A   1      32.735  27.511  21.964  1.00  0.00    -0.356 N 
ATOM      5  C   UNL A   1      33.492  26.460  22.395  1.00  0.00     0.224 C 
ATOM      6  O   UNL A   1      33.677  25.518  21.622  1.00  0.00    -0.275 OA
ATOM      7  H   UNL A   1      32.328  27.408  21.073  1.00  0.00     0.163 HD
BRANCH   5   8
ATOM      8  C   UNL A   1      34.028  26.437  23.818  1.00  0.00     0.138 C 
BRANCH   8   9
ATOM      9  C   UNL A   1      33.577  25.249  24.623  1.00  0.00    -0.010 A 
ATOM     10  C   UNL A   1      35.789  23.885  24.747  1.00  0.00     0.065 C 
ATOM     11  C   UNL A   1      34.339  24.155  25.014  1.00  0.00     0.028 A 
ATOM     12  N   UNL A   1      33.522  23.261  25.723  1.00  0.00    -0.280 N 
ATOM     13  C   UNL A   1      32.280  25.077  25.185  1.00  0.00     0.004 A 
ATOM     14  C   UNL A   1      32.281  23.888  25.921  1.00  0.00     0.056 A 
ATOM     15  C   UNL A   1      31.107  25.866  25.147  1.00  0.00     0.010 A 
ATOM     16  C   UNL A   1      31.146  23.534  26.683  1.00  0.00     0.027 A 
ATOM     17  C   UNL A   1      29.968  25.471  25.848  1.00  0.00     0.001 A 
ATOM     18  C   UNL A   1      29.994  24.322  26.618  1.00  0.00     0.002 A 
BRANCH  12  19
ATOM     19  C   UNL A   1      33.908  21.957  26.162  1.00  0.00     0.262 C 
ATOM     20  O   UNL A   1      34.356  21.811  27.288  1.00  0.00    -0.268 OA
BRANCH  19  21
ATOM     21  C   UNL A   1      33.802  20.731  25.350  1.00  0.00     0.040 A 
ATOM     22  C   UNL A   1      32.578  20.337  24.797  1.00  0.00     0.015 A 
ATOM     23  C   UNL A   1      34.953  19.957  25.178  1.00  0.00     0.015 A 
ATOM     24  C   UNL A   1      32.495  19.107  24.136  1.00  0.00     0.021 A 
ATOM     25  C   UNL A   1      34.864  18.733  24.514  1.00  0.00     0.021 A 
ATOM     26  C   UNL A   1      33.632  18.305  24.013  1.00  0.00     0.041 A 
ATOM     27  Cl  UNL A   1      33.511  16.765  23.260  1.00  0.00    -0.084 Cl
ENDBRANCH  19  21
ENDBRANCH  12  19
ENDBRANCH   8   9
ENDBRANCH   5   8
ENDBRANCH   3   4
ENDBRANCH   2   3
ENDBRANCH   1   2
BRANCH   1  28
ATOM     28  C   UNL A   1      31.680  29.289  25.369  1.00  0.00     0.002 C 
BRANCH  28  29
ATOM     29  C   UNL A   1      32.062  30.508  26.217  1.00  0.00     0.021 C 
BRANCH  29  30
ATOM     30  C   UNL A   1      33.407  30.375  26.935  1.00  0.00     0.116 C 
BRANCH  30  31
ATOM     31  N   UNL A   1      33.631  31.404  27.930  1.00  0.00    -0.352 N 
ATOM     32  C   UNL A   1      34.682  31.760  28.727  1.00  0.00     0.251 C 
ATOM     33  H   UNL A   1      32.842  31.978  28.063  1.00  0.00     0.163 HD
ATOM     34  O   UNL A   1      34.508  32.744  29.450  1.00  0.00    -0.269 OA
BRANCH  32  35
ATOM     35  C   UNL A   1      35.984  31.037  28.809  1.00  0.00     0.039 A 
ATOM     36  C   UNL A   1      36.156  29.657  28.714  1.00  0.00     0.014 A 
ATOM     37  C   UNL A   1      37.126  31.835  29.017  1.00  0.00     0.014 A 
ATOM     38  C   UNL A   1      37.409  29.081  28.895  1.00  0.00     0.010 A 
ATOM     39  C   UNL A   1      38.389  31.266  29.169  1.00  0.00     0.010 A 
ATOM     40  C   UNL A   1      38.525  29.880  29.144  1.00  0.00    -0.014 A 
BRANCH  40  41
ATOM     41  C   UNL A   1      39.813  29.205  29.302  1.00  0.00     0.031 A 
ATOM     42  C   UNL A   1      40.286  28.986  30.702  1.00  0.00     0.074 A 
ATOM     43  C   UNL A   1      40.517  28.691  28.276  1.00  0.00     0.049 A 
ATOM     44  N   UNL A   1      41.411  29.341  31.242  1.00  0.00    -0.248 NA
ATOM     45  C   UNL A   1      39.366  28.304  31.625  1.00  0.00     0.031 C 
ATOM     46  C   UNL A   1      40.099  28.536  26.882  1.00  0.00     0.029 A 
ATOM     47  N   UNL A   1      41.748  28.100  28.304  1.00  0.00    -0.354 N 
ATOM     48  C   UNL A   1      41.405  28.805  32.529  1.00  0.00     0.074 A 
ATOM     49  C   UNL A   1      40.094  28.244  32.740  1.00  0.00     0.031 C 
ATOM     50  C   UNL A   1      40.962  27.711  26.251  1.00  0.00     0.029 A 
ATOM     51  C   UNL A   1      42.056  27.392  27.154  1.00  0.00     0.049 A 
ATOM     52  H   UNL A   1      42.360  28.169  29.071  1.00  0.00     0.167 HD
ATOM     53  C   UNL A   1      42.527  28.706  33.294  1.00  0.00     0.037 A 
ATOM     54  C   UNL A   1      43.097  26.547  26.981  1.00  0.00     0.037 A 
ATOM     55  C   UNL A   1      43.571  29.589  32.864  1.00  0.00     0.049 A 
ATOM     56  C   UNL A   1      44.125  26.865  27.998  1.00  0.00     0.074 A 
ATOM     57  C   UNL A   1      43.713  30.959  32.770  1.00  0.00     0.029 A 
ATOM     58  N   UNL A   1      44.633  29.063  32.176  1.00  0.00    -0.354 N 
ATOM     59  N   UNL A   1      44.848  27.949  28.011  1.00  0.00    -0.248 NA
ATOM     60  C   UNL A   1      44.141  26.091  29.230  1.00  0.00     0.031 C 
ATOM     61  C   UNL A   1      44.567  31.173  31.648  1.00  0.00     0.029 A 
ATOM     62  C   UNL A   1      44.896  29.918  31.136  1.00  0.00     0.049 A 
ATOM     63  H   UNL A   1      45.115  28.231  32.387  1.00  0.00     0.167 HD
ATOM     64  C   UNL A   1      45.077  28.204  29.354  1.00  0.00     0.074 A 
ATOM     65  C   UNL A   1      44.743  26.964  30.039  1.00  0.00     0.031 C 
ATOM     66  C   UNL A   1      45.247  29.480  29.806  1.00  0.00     0.037 A 
BRANCH  53  67
ATOM     67  C   UNL A   1      42.770  27.590  34.273  1.00  0.00     0.064 A 
ATOM     68  C   UNL A   1      43.289  26.357  33.837  1.00  0.00     0.173 A 
ATOM     69  C   UNL A   1      42.248  27.609  35.584  1.00  0.00     0.173 A 
ATOM     70  F   UNL A   1      43.760  26.218  32.589  1.00  0.00    -0.203 F 
ATOM     71  C   UNL A   1      43.262  25.219  34.650  1.00  0.00     0.198 A 
ATOM     72  C   UNL A   1      42.268  26.486  36.409  1.00  0.00     0.198 A 
ATOM     73  F   UNL A   1      41.610  28.683  36.068  1.00  0.00    -0.203 F 
ATOM     74  F   UNL A   1      43.676  24.041  34.162  1.00  0.00    -0.200 F 
ATOM     75  C   UNL A   1      42.754  25.285  35.936  1.00  0.00     0.200 A 
ATOM     76  F   UNL A   1      41.746  26.564  37.642  1.00  0.00    -0.200 F 
ATOM     77  F   UNL A   1      42.688  24.187  36.699  1.00  0.00    -0.200 F 
ENDBRANCH  53  67
BRANCH  54  78
ATOM     78  C   UNL A   1      43.143  25.309  26.170  1.00  0.00     0.064 A 
ATOM     79  C   UNL A   1      44.183  25.086  25.253  1.00  0.00     0.173 A 
ATOM     80  C   UNL A   1      42.326  24.203  26.474  1.00  0.00     0.173 A 
ATOM     81  F   UNL A   1      45.034  26.074  24.943  1.00  0.00    -0.203 F 
ATOM     82  C   UNL A   1      44.409  23.823  24.697  1.00  0.00     0.198 A 
ATOM     83  C   UNL A   1      42.543  22.948  25.909  1.00  0.00     0.198 A 
ATOM     84  F   UNL A   1      41.360  24.292  27.400  1.00  0.00    -0.203 F 
ATOM     85  F   UNL A   1      45.454  23.630  23.880  1.00  0.00    -0.200 F 
ATOM     86  C   UNL A   1      43.595  22.753  25.032  1.00  0.00     0.200 A 
ATOM     87  F   UNL A   1      41.769  21.915  26.268  1.00  0.00    -0.200 F 
ATOM     88  F   UNL A   1      43.847  21.530  24.547  1.00  0.00    -0.200 F 
ENDBRANCH  54  78
BRANCH  66  89
ATOM     89  C   UNL A   1      45.526  30.548  28.791  1.00  0.00     0.064 A 
ATOM     90  C   UNL A   1      44.525  31.324  28.182  1.00  0.00     0.173 A 
ATOM     91  C   UNL A   1      46.860  30.892  28.530  1.00  0.00     0.173 A 
ATOM     92  F   UNL A   1      43.232  31.124  28.465  1.00  0.00    -0.203 F 
ATOM     93  C   UNL A   1      44.848  32.364  27.313  1.00  0.00     0.198 A 
ATOM     94  C   UNL A   1      47.179  31.956  27.691  1.00  0.00     0.198 A 
ATOM     95  F   UNL A   1      47.857  30.225  29.133  1.00  0.00    -0.203 F 
ATOM     96  F   UNL A   1      43.875  33.084  26.734  1.00  0.00    -0.200 F 
ATOM     97  C   UNL A   1      46.175  32.684  27.074  1.00  0.00     0.200 A 
ATOM     98  F   UNL A   1      48.463  32.295  27.503  1.00  0.00    -0.200 F 
ATOM     99  F   UNL A   1      46.485  33.712  26.273  1.00  0.00    -0.200 F 
ENDBRANCH  66  89
ENDBRANCH  40  41
ENDBRANCH  32  35
ENDBRANCH  30  31
ENDBRANCH  29  30
ENDBRANCH  28  29
ENDBRANCH   1  28
TORSDOF 16
ENDMDL
MODEL 3
REMARK VINA RESULT:     -13.1      1.337      2.387
REMARK SMILES Cc1c(CC(=O)NCCCCCCNC(=O)c2ccc(-c3c4nc(c(-c5c(F)c(F)c(F)c(F)c5F)c5ccc([nH]5)c(-c5c(F)c(F)c(F)c(F)c5F)c5nc(c(-c6c(F)c(F)c(F)c(F)c6F)c6ccc3[nH]6)C=C5)C=C4)cc2)c2ccccc2n1C(=O)c1ccc(Cl)cc1
REMARK SMILES IDX 10 1 9 2 8 3 7 4 5 5 6 6 4 8 3 9 1 10 2 11 86 12 80 13 85 14
REMARK SMILES IDX 81 15 84 16 82 17 83 18 87 19 88 20 89 21 90 22 95 23 91 24
REMARK SMILES IDX 94 25 92 26 93 27 11 28 12 29 13 30 14 31 15 32 16 34 17 35
REMARK SMILES IDX 18 36 79 37 19 38 78 39 20 40 21 41 22 42 72 43 23 44 77 45
REMARK SMILES IDX 71 46 73 47 24 48 76 49 70 50 69 51 25 53 57 54 37 55 56 56
REMARK SMILES IDX 38 57 41 58 55 59 74 60 39 61 40 62 54 64 75 65 42 66 26 67
REMARK SMILES IDX 27 68 35 69 28 70 29 71 33 72 36 73 30 74 31 75 34 76 32 77
REMARK SMILES IDX 58 78 59 79 67 80 60 81 61 82 65 83 68 84 62 85 63 86 66 87
REMARK SMILES IDX 64 88 43 89 44 90 52 91 45 92 46 93 50 94 53 95 47 96 48 97
REMARK SMILES IDX 51 98 49 99
REMARK H PARENT 7 7 14 33 73 52 41 63
REMARK Flexibility Score: inf
ROOT
ATOM      1  C   UNL A   1      33.797  28.325  26.739  1.00  0.00     0.002 C 
ENDROOT
BRANCH   1   2
ATOM      2  C   UNL A   1      33.751  28.221  25.210  1.00  0.00     0.021 C 
BRANCH   2   3
ATOM      3  C   UNL A   1      33.112  26.927  24.706  1.00  0.00     0.116 C 
BRANCH   3   4
ATOM      4  N   UNL A   1      31.819  26.708  25.321  1.00  0.00    -0.356 N 
ATOM      5  C   UNL A   1      31.442  25.718  26.182  1.00  0.00     0.224 C 
ATOM      6  O   UNL A   1      30.260  25.665  26.529  1.00  0.00    -0.275 OA
ATOM      7  H   UNL A   1      31.119  27.360  25.087  1.00  0.00     0.163 HD
BRANCH   5   8
ATOM      8  C   UNL A   1      32.478  24.758  26.744  1.00  0.00     0.138 C 
BRANCH   8   9
ATOM      9  C   UNL A   1      32.943  23.716  25.763  1.00  0.00    -0.010 A 
ATOM     10  C   UNL A   1      30.669  22.658  25.072  1.00  0.00     0.065 C 
ATOM     11  C   UNL A   1      32.159  22.814  25.053  1.00  0.00     0.028 A 
ATOM     12  N   UNL A   1      32.995  22.000  24.274  1.00  0.00    -0.280 N 
ATOM     13  C   UNL A   1      34.290  23.520  25.343  1.00  0.00     0.004 A 
ATOM     14  C   UNL A   1      34.299  22.513  24.372  1.00  0.00     0.056 A 
ATOM     15  C   UNL A   1      35.505  24.151  25.696  1.00  0.00     0.010 A 
ATOM     16  C   UNL A   1      35.500  22.198  23.700  1.00  0.00     0.027 A 
ATOM     17  C   UNL A   1      36.698  23.784  25.074  1.00  0.00     0.001 A 
ATOM     18  C   UNL A   1      36.690  22.826  24.076  1.00  0.00     0.002 A 
BRANCH  12  19
ATOM     19  C   UNL A   1      32.572  20.863  23.519  1.00  0.00     0.262 C 
ATOM     20  O   UNL A   1      32.126  21.022  22.394  1.00  0.00    -0.268 OA
BRANCH  19  21
ATOM     21  C   UNL A   1      32.638  19.468  23.991  1.00  0.00     0.040 A 
ATOM     22  C   UNL A   1      32.603  19.166  25.357  1.00  0.00     0.015 A 
ATOM     23  C   UNL A   1      32.769  18.457  23.033  1.00  0.00     0.015 A 
ATOM     24  C   UNL A   1      32.788  17.842  25.767  1.00  0.00     0.021 A 
ATOM     25  C   UNL A   1      32.949  17.137  23.449  1.00  0.00     0.021 A 
ATOM     26  C   UNL A   1      32.977  16.839  24.813  1.00  0.00     0.041 A 
ATOM     27  Cl  UNL A   1      33.271  15.224  25.322  1.00  0.00    -0.084 Cl
ENDBRANCH  19  21
ENDBRANCH  12  19
ENDBRANCH   8   9
ENDBRANCH   5   8
ENDBRANCH   3   4
ENDBRANCH   2   3
ENDBRANCH   1   2
BRANCH   1  28
ATOM     28  C   UNL A   1      34.587  29.520  27.280  1.00  0.00     0.002 C 
BRANCH  28  29
ATOM     29  C   UNL A   1      33.777  30.809  27.463  1.00  0.00     0.021 C 
BRANCH  29  30
ATOM     30  C   UNL A   1      34.591  31.990  27.996  1.00  0.00     0.116 C 
BRANCH  30  31
ATOM     31  N   UNL A   1      34.423  32.208  29.418  1.00  0.00    -0.352 N 
ATOM     32  C   UNL A   1      35.179  31.951  30.527  1.00  0.00     0.251 C 
ATOM     33  H   UNL A   1      33.565  32.639  29.636  1.00  0.00     0.163 HD
ATOM     34  O   UNL A   1      34.707  32.319  31.606  1.00  0.00    -0.269 OA
BRANCH  32  35
ATOM     35  C   UNL A   1      36.490  31.239  30.529  1.00  0.00     0.039 A 
ATOM     36  C   UNL A   1      37.745  31.843  30.495  1.00  0.00     0.014 A 
ATOM     37  C   UNL A   1      36.432  29.831  30.553  1.00  0.00     0.014 A 
ATOM     38  C   UNL A   1      38.903  31.077  30.409  1.00  0.00     0.010 A 
ATOM     39  C   UNL A   1      37.590  29.058  30.498  1.00  0.00     0.010 A 
ATOM     40  C   UNL A   1      38.829  29.684  30.388  1.00  0.00    -0.014 A 
BRANCH  40  41
ATOM     41  C   UNL A   1      40.089  28.945  30.319  1.00  0.00     0.031 A 
ATOM     42  C   UNL A   1      40.839  28.780  31.600  1.00  0.00     0.074 A 
ATOM     43  C   UNL A   1      40.535  28.332  29.205  1.00  0.00     0.049 A 
ATOM     44  N   UNL A   1      42.068  29.098  31.867  1.00  0.00    -0.248 NA
ATOM     45  C   UNL A   1      40.107  28.206  32.740  1.00  0.00     0.031 C 
ATOM     46  C   UNL A   1      39.823  28.122  27.945  1.00  0.00     0.029 A 
ATOM     47  N   UNL A   1      41.715  27.672  29.016  1.00  0.00    -0.354 N 
ATOM     48  C   UNL A   1      42.312  28.639  33.161  1.00  0.00     0.074 A 
ATOM     49  C   UNL A   1      41.052  28.169  33.679  1.00  0.00     0.031 C 
ATOM     50  C   UNL A   1      40.494  27.212  27.204  1.00  0.00     0.029 A 
ATOM     51  C   UNL A   1      41.739  26.883  27.878  1.00  0.00     0.049 A 
ATOM     52  H   UNL A   1      42.480  27.750  29.631  1.00  0.00     0.167 HD
ATOM     53  C   UNL A   1      43.566  28.519  33.678  1.00  0.00     0.037 A 
ATOM     54  C   UNL A   1      42.681  25.970  27.549  1.00  0.00     0.037 A 
ATOM     55  C   UNL A   1      44.533  29.313  32.979  1.00  0.00     0.049 A 
ATOM     56  C   UNL A   1      43.915  26.285  28.305  1.00  0.00     0.074 A 
ATOM     57  C   UNL A   1      44.713  30.664  32.764  1.00  0.00     0.029 A 
ATOM     58  N   UNL A   1      45.399  28.687  32.121  1.00  0.00    -0.354 N 
ATOM     59  N   UNL A   1      44.673  27.324  28.091  1.00  0.00    -0.248 NA
ATOM     60  C   UNL A   1      44.158  25.584  29.556  1.00  0.00     0.031 C 
ATOM     61  C   UNL A   1      45.317  30.763  31.476  1.00  0.00     0.029 A 
ATOM     62  C   UNL A   1      45.473  29.464  30.994  1.00  0.00     0.049 A 
ATOM     63  H   UNL A   1      45.877  27.842  32.283  1.00  0.00     0.167 HD
ATOM     64  C   UNL A   1      45.193  27.642  29.335  1.00  0.00     0.074 A 
ATOM     65  C   UNL A   1      44.957  26.466  30.158  1.00  0.00     0.031 C 
ATOM     66  C   UNL A   1      45.513  28.930  29.653  1.00  0.00     0.037 A 
BRANCH  53  67
ATOM     67  C   UNL A   1      43.961  27.449  34.659  1.00  0.00     0.064 A 
ATOM     68  C   UNL A   1      43.896  26.090  34.299  1.00  0.00     0.173 A 
ATOM     69  C   UNL A   1      44.139  27.713  36.033  1.00  0.00     0.173 A 
ATOM     70  F   UNL A   1      43.675  25.731  33.026  1.00  0.00    -0.203 F 
ATOM     71  C   UNL A   1      43.979  25.071  35.254  1.00  0.00     0.198 A 
ATOM     72  C   UNL A   1      44.271  26.695  36.976  1.00  0.00     0.198 A 
ATOM     73  F   UNL A   1      44.086  28.961  36.519  1.00  0.00    -0.203 F 
ATOM     74  F   UNL A   1      43.814  23.794  34.882  1.00  0.00    -0.200 F 
ATOM     75  C   UNL A   1      44.168  25.375  36.591  1.00  0.00     0.200 A 
ATOM     76  F   UNL A   1      44.426  27.010  38.270  1.00  0.00    -0.200 F 
ATOM     77  F   UNL A   1      44.204  24.402  37.511  1.00  0.00    -0.200 F 
ENDBRANCH  53  67
BRANCH  54  78
ATOM     78  C   UNL A   1      42.498  24.686  26.833  1.00  0.00     0.064 A 
ATOM     79  C   UNL A   1      43.154  24.439  25.617  1.00  0.00     0.173 A 
ATOM     80  C   UNL A   1      41.898  23.577  27.460  1.00  0.00     0.173 A 
ATOM     81  F   UNL A   1      43.789  25.431  24.978  1.00  0.00    -0.203 F 
ATOM     82  C   UNL A   1      43.231  23.152  25.076  1.00  0.00     0.198 A 
ATOM     83  C   UNL A   1      41.962  22.297  26.914  1.00  0.00     0.198 A 
ATOM     84  F   UNL A   1      41.321  23.694  28.665  1.00  0.00    -0.203 F 
ATOM     85  F   UNL A   1      43.926  22.941  23.950  1.00  0.00    -0.200 F 
ATOM     86  C   UNL A   1      42.643  22.081  25.730  1.00  0.00     0.200 A 
ATOM     87  F   UNL A   1      41.418  21.265  27.573  1.00  0.00    -0.200 F 
ATOM     88  F   UNL A   1      42.767  20.838  25.243  1.00  0.00    -0.200 F 
ENDBRANCH  54  78
BRANCH  66  89
ATOM     89  C   UNL A   1      45.617  29.920  28.530  1.00  0.00     0.064 A 
ATOM     90  C   UNL A   1      44.510  30.570  27.961  1.00  0.00     0.173 A 
ATOM     91  C   UNL A   1      46.891  30.327  28.114  1.00  0.00     0.173 A 
ATOM     92  F   UNL A   1      43.266  30.311  28.384  1.00  0.00    -0.203 F 
ATOM     93  C   UNL A   1      44.673  31.548  26.982  1.00  0.00     0.198 A 
ATOM     94  C   UNL A   1      47.053  31.330  27.162  1.00  0.00     0.198 A 
ATOM     95  F   UNL A   1      47.987  29.784  28.668  1.00  0.00    -0.203 F 
ATOM     96  F   UNL A   1      43.600  32.147  26.444  1.00  0.00    -0.200 F 
ATOM     97  C   UNL A   1      45.944  31.933  26.588  1.00  0.00     0.200 A 
ATOM     98  F   UNL A   1      48.285  31.736  26.823  1.00  0.00    -0.200 F 
ATOM     99  F   UNL A   1      46.102  32.904  25.680  1.00  0.00    -0.200 F 
ENDBRANCH  66  89
ENDBRANCH  40  41
ENDBRANCH  32  35
ENDBRANCH  30  31
ENDBRANCH  29  30
ENDBRANCH  28  29
ENDBRANCH   1  28
TORSDOF 16
ENDMDL
