MODEL 1
REMARK VINA RESULT:     -11.6      0.000      0.000
REMARK SMILES C[NH2+][C@]1(C(=O)NCCCCCCNC(=O)c2ccc(-c3c4nc(c(-c5c(F)c(F)c(F)c(F)c5F)c5ccc([nH]5)c(-c5c(F)c(F)c(F)c(F)c5F)c5nc(c(-c6c(F)c(F)c(F)c(F)c6F)c6ccc3[nH]6)C=C5)C=C4)cc2)CCC[C@@H](Sc2nncs2)C1
REMARK SMILES IDX 9 1 8 2 7 3 6 4 4 5 5 6 3 8 79 9 89 10 80 11 82 12 81 13
REMARK SMILES IDX 2 14 1 15 83 18 84 19 85 20 88 21 86 22 87 23 10 24 11 25
REMARK SMILES IDX 12 26 13 27 14 28 15 30 16 31 17 32 78 33 18 34 77 35 19 36
REMARK SMILES IDX 20 37 21 38 71 39 22 40 76 41 70 42 72 43 23 44 75 45 69 46
REMARK SMILES IDX 68 47 24 49 56 50 36 51 55 52 37 53 40 54 54 55 73 56 38 57
REMARK SMILES IDX 39 58 53 60 74 61 41 62 25 63 26 64 34 65 27 66 28 67 32 68
REMARK SMILES IDX 35 69 29 70 30 71 33 72 31 73 57 74 58 75 66 76 59 77 60 78
REMARK SMILES IDX 64 79 67 80 61 81 62 82 65 83 63 84 42 85 43 86 51 87 44 88
REMARK SMILES IDX 45 89 49 90 52 91 46 92 47 93 50 94 48 95
REMARK H PARENT 6 7 2 16 2 17 13 29 72 48 40 59
REMARK Flexibility Score: inf
ROOT
ATOM      1  C   UNL A   1      32.063  29.725  27.154  1.00  0.00     0.002 C 
ENDROOT
BRANCH   1   2
ATOM      2  C   UNL A   1      33.571  29.478  27.248  1.00  0.00     0.021 C 
BRANCH   2   3
ATOM      3  C   UNL A   1      34.111  28.410  26.304  1.00  0.00     0.116 C 
BRANCH   3   4
ATOM      4  N   UNL A   1      34.166  28.863  24.927  1.00  0.00    -0.351 N 
ATOM      5  C   UNL A   1      33.671  28.315  23.781  1.00  0.00     0.281 C 
ATOM      6  O   UNL A   1      33.889  28.950  22.739  1.00  0.00    -0.268 OA
ATOM      7  H   UNL A   1      34.642  29.715  24.797  1.00  0.00     0.163 HD
BRANCH   5   8
ATOM      8  C   UNL A   1      32.943  26.908  23.733  1.00  0.00     0.176 C 
ATOM      9  C   UNL A   1      32.527  26.684  22.256  1.00  0.00     0.079 C 
ATOM     10  C   UNL A   1      33.861  25.806  24.333  1.00  0.00     0.094 C 
ATOM     11  C   UNL A   1      32.257  25.236  21.859  1.00  0.00     0.008 C 
ATOM     12  C   UNL A   1      33.595  24.387  23.816  1.00  0.00     0.061 C 
ATOM     13  C   UNL A   1      33.382  24.313  22.303  1.00  0.00     0.015 C 
BRANCH   8  14
ATOM     14  N   UNL A   1      31.784  27.046  24.668  1.00  0.00    -0.336 N 
ATOM     15  C   UNL A   1      30.609  27.774  24.245  1.00  0.00     0.331 C 
ATOM     16  H   UNL A   1      31.478  26.102  24.903  1.00  0.00     0.346 HD
ATOM     17  H   UNL A   1      32.157  27.615  25.428  1.00  0.00     0.346 HD
ENDBRANCH   8  14
BRANCH  12  18
ATOM     18  S   UNL A   1      34.872  23.197  24.397  1.00  0.00    -0.090 SA
BRANCH  18  19
ATOM     19  C   UNL A   1      33.953  21.740  24.686  1.00  0.00     0.174 A 
ATOM     20  N   UNL A   1      32.638  21.713  24.700  1.00  0.00    -0.132 NA
ATOM     21  S   UNL A   1      34.690  20.223  25.001  1.00  0.00    -0.094 S 
ATOM     22  N   UNL A   1      32.139  20.459  25.000  1.00  0.00    -0.146 NA
ATOM     23  C   UNL A   1      33.108  19.585  25.173  1.00  0.00     0.203 A 
ENDBRANCH  18  19
ENDBRANCH  12  18
ENDBRANCH   5   8
ENDBRANCH   3   4
ENDBRANCH   2   3
ENDBRANCH   1   2
BRANCH   1  24
ATOM     24  C   UNL A   1      31.623  30.777  26.129  1.00  0.00     0.002 C 
BRANCH  24  25
ATOM     25  C   UNL A   1      31.401  32.187  26.680  1.00  0.00     0.021 C 
BRANCH  25  26
ATOM     26  C   UNL A   1      32.642  32.872  27.240  1.00  0.00     0.116 C 
BRANCH  26  27
ATOM     27  N   UNL A   1      32.389  34.245  27.644  1.00  0.00    -0.352 N 
ATOM     28  C   UNL A   1      32.976  34.984  28.641  1.00  0.00     0.251 C 
ATOM     29  H   UNL A   1      31.696  34.714  27.126  1.00  0.00     0.163 HD
ATOM     30  O   UNL A   1      32.528  36.086  28.939  1.00  0.00    -0.269 OA
BRANCH  28  31
ATOM     31  C   UNL A   1      34.137  34.442  29.378  1.00  0.00     0.039 A 
ATOM     32  C   UNL A   1      33.916  33.803  30.601  1.00  0.00     0.014 A 
ATOM     33  C   UNL A   1      35.436  34.570  28.878  1.00  0.00     0.014 A 
ATOM     34  C   UNL A   1      34.990  33.239  31.293  1.00  0.00     0.010 A 
ATOM     35  C   UNL A   1      36.495  33.947  29.533  1.00  0.00     0.010 A 
ATOM     36  C   UNL A   1      36.284  33.276  30.748  1.00  0.00    -0.014 A 
BRANCH  36  37
ATOM     37  C   UNL A   1      37.425  32.618  31.435  1.00  0.00     0.031 A 
ATOM     38  C   UNL A   1      38.132  31.459  30.789  1.00  0.00     0.074 A 
ATOM     39  C   UNL A   1      37.787  33.026  32.666  1.00  0.00     0.049 A 
ATOM     40  N   UNL A   1      39.103  30.716  31.257  1.00  0.00    -0.248 NA
ATOM     41  C   UNL A   1      37.669  31.066  29.449  1.00  0.00     0.031 C 
ATOM     42  C   UNL A   1      37.153  34.112  33.417  1.00  0.00     0.029 A 
ATOM     43  N   UNL A   1      38.770  32.571  33.509  1.00  0.00    -0.354 N 
ATOM     44  C   UNL A   1      39.358  29.766  30.277  1.00  0.00     0.074 A 
ATOM     45  C   UNL A   1      38.403  29.989  29.214  1.00  0.00     0.031 C 
ATOM     46  C   UNL A   1      37.777  34.254  34.596  1.00  0.00     0.029 A 
ATOM     47  C   UNL A   1      38.827  33.246  34.705  1.00  0.00     0.049 A 
ATOM     48  H   UNL A   1      39.377  31.832  33.279  1.00  0.00     0.167 HD
ATOM     49  C   UNL A   1      40.317  28.809  30.255  1.00  0.00     0.037 A 
ATOM     50  C   UNL A   1      39.630  33.066  35.770  1.00  0.00     0.037 A 
ATOM     51  C   UNL A   1      41.280  28.603  31.307  1.00  0.00     0.049 A 
ATOM     52  C   UNL A   1      40.677  31.985  35.728  1.00  0.00     0.074 A 
ATOM     53  C   UNL A   1      42.325  27.696  31.355  1.00  0.00     0.029 A 
ATOM     54  N   UNL A   1      41.313  29.313  32.498  1.00  0.00    -0.354 N 
ATOM     55  N   UNL A   1      40.950  31.135  34.769  1.00  0.00    -0.248 NA
ATOM     56  C   UNL A   1      41.532  31.845  36.915  1.00  0.00     0.031 C 
ATOM     57  C   UNL A   1      42.957  27.822  32.597  1.00  0.00     0.029 A 
ATOM     58  C   UNL A   1      42.343  28.847  33.300  1.00  0.00     0.049 A 
ATOM     59  H   UNL A   1      40.695  30.041  32.739  1.00  0.00     0.167 HD
ATOM     60  C   UNL A   1      42.025  30.381  35.221  1.00  0.00     0.074 A 
ATOM     61  C   UNL A   1      42.363  30.884  36.536  1.00  0.00     0.031 C 
ATOM     62  C   UNL A   1      42.673  29.363  34.604  1.00  0.00     0.037 A 
BRANCH  49  63
ATOM     63  C   UNL A   1      40.376  27.909  29.054  1.00  0.00     0.064 A 
ATOM     64  C   UNL A   1      39.643  26.713  28.992  1.00  0.00     0.173 A 
ATOM     65  C   UNL A   1      41.143  28.264  27.934  1.00  0.00     0.173 A 
ATOM     66  F   UNL A   1      38.902  26.322  30.039  1.00  0.00    -0.203 F 
ATOM     67  C   UNL A   1      39.702  25.893  27.870  1.00  0.00     0.198 A 
ATOM     68  C   UNL A   1      41.173  27.457  26.799  1.00  0.00     0.198 A 
ATOM     69  F   UNL A   1      41.858  29.399  27.935  1.00  0.00    -0.203 F 
ATOM     70  F   UNL A   1      39.035  24.730  27.855  1.00  0.00    -0.200 F 
ATOM     71  C   UNL A   1      40.461  26.268  26.772  1.00  0.00     0.200 A 
ATOM     72  F   UNL A   1      41.896  27.829  25.733  1.00  0.00    -0.200 F 
ATOM     73  F   UNL A   1      40.510  25.481  25.688  1.00  0.00    -0.200 F 
ENDBRANCH  49  63
BRANCH  50  74
ATOM     74  C   UNL A   1      39.490  33.943  36.964  1.00  0.00     0.064 A 
ATOM     75  C   UNL A   1      40.091  35.208  37.004  1.00  0.00     0.173 A 
ATOM     76  C   UNL A   1      38.763  33.530  38.090  1.00  0.00     0.173 A 
ATOM     77  F   UNL A   1      40.815  35.638  35.959  1.00  0.00    -0.203 F 
ATOM     78  C   UNL A   1      39.992  36.017  38.133  1.00  0.00     0.198 A 
ATOM     79  C   UNL A   1      38.638  34.354  39.207  1.00  0.00     0.198 A 
ATOM     80  F   UNL A   1      38.164  32.330  38.102  1.00  0.00    -0.203 F 
ATOM     81  F   UNL A   1      40.620  37.201  38.163  1.00  0.00    -0.200 F 
ATOM     82  C   UNL A   1      39.260  35.593  39.232  1.00  0.00     0.200 A 
ATOM     83  F   UNL A   1      37.917  33.946  40.261  1.00  0.00    -0.200 F 
ATOM     84  F   UNL A   1      39.163  36.373  40.317  1.00  0.00    -0.200 F 
ENDBRANCH  50  74
BRANCH  62  85
ATOM     85  C   UNL A   1      43.839  28.750  35.325  1.00  0.00     0.064 A 
ATOM     86  C   UNL A   1      45.151  29.209  35.133  1.00  0.00     0.173 A 
ATOM     87  C   UNL A   1      43.635  27.714  36.251  1.00  0.00     0.173 A 
ATOM     88  F   UNL A   1      45.401  30.186  34.249  1.00  0.00    -0.203 F 
ATOM     89  C   UNL A   1      46.217  28.636  35.821  1.00  0.00     0.198 A 
ATOM     90  C   UNL A   1      44.699  27.166  36.960  1.00  0.00     0.198 A 
ATOM     91  F   UNL A   1      42.400  27.243  36.477  1.00  0.00    -0.203 F 
ATOM     92  F   UNL A   1      47.468  29.056  35.583  1.00  0.00    -0.200 F 
ATOM     93  C   UNL A   1      45.990  27.621  36.738  1.00  0.00     0.200 A 
ATOM     94  F   UNL A   1      44.477  26.197  37.858  1.00  0.00    -0.200 F 
ATOM     95  F   UNL A   1      47.018  27.077  37.405  1.00  0.00    -0.200 F 
ENDBRANCH  62  85
ENDBRANCH  36  37
ENDBRANCH  28  31
ENDBRANCH  26  27
ENDBRANCH  25  26
ENDBRANCH  24  25
ENDBRANCH   1  24
TORSDOF 16
ENDMDL
MODEL 2
REMARK VINA RESULT:     -11.6      0.428      1.650
REMARK SMILES C[NH2+][C@]1(C(=O)NCCCCCCNC(=O)c2ccc(-c3c4nc(c(-c5c(F)c(F)c(F)c(F)c5F)c5ccc([nH]5)c(-c5c(F)c(F)c(F)c(F)c5F)c5nc(c(-c6c(F)c(F)c(F)c(F)c6F)c6ccc3[nH]6)C=C5)C=C4)cc2)CCC[C@@H](Sc2nncs2)C1
REMARK SMILES IDX 9 1 8 2 7 3 6 4 4 5 5 6 3 8 79 9 89 10 80 11 82 12 81 13
REMARK SMILES IDX 2 14 1 15 83 18 84 19 85 20 88 21 86 22 87 23 10 24 11 25
REMARK SMILES IDX 12 26 13 27 14 28 15 30 16 31 17 32 78 33 18 34 77 35 19 36
REMARK SMILES IDX 20 37 21 38 71 39 22 40 76 41 70 42 72 43 23 44 75 45 69 46
REMARK SMILES IDX 68 47 24 49 56 50 36 51 55 52 37 53 40 54 54 55 73 56 38 57
REMARK SMILES IDX 39 58 53 60 74 61 41 62 25 63 26 64 34 65 27 66 28 67 32 68
REMARK SMILES IDX 35 69 29 70 30 71 33 72 31 73 57 74 58 75 66 76 59 77 60 78
REMARK SMILES IDX 64 79 67 80 61 81 62 82 65 83 63 84 42 85 43 86 51 87 44 88
REMARK SMILES IDX 45 89 49 90 52 91 46 92 47 93 50 94 48 95
REMARK H PARENT 6 7 2 16 2 17 13 29 72 48 40 59
REMARK Flexibility Score: inf
ROOT
ATOM      1  C   UNL A   1      31.974  29.623  27.080  1.00  0.00     0.002 C 
ENDROOT
BRANCH   1   2
ATOM      2  C   UNL A   1      33.462  29.342  27.305  1.00  0.00     0.021 C 
BRANCH   2   3
ATOM      3  C   UNL A   1      34.068  28.292  26.381  1.00  0.00     0.116 C 
BRANCH   3   4
ATOM      4  N   UNL A   1      34.248  28.782  25.027  1.00  0.00    -0.351 N 
ATOM      5  C   UNL A   1      33.808  28.299  23.831  1.00  0.00     0.281 C 
ATOM      6  O   UNL A   1      34.136  28.950  22.830  1.00  0.00    -0.268 OA
ATOM      7  H   UNL A   1      34.780  29.607  24.961  1.00  0.00     0.163 HD
BRANCH   5   8
ATOM      8  C   UNL A   1      33.006  26.939  23.684  1.00  0.00     0.176 C 
ATOM      9  C   UNL A   1      33.354  26.379  22.281  1.00  0.00     0.079 C 
ATOM     10  C   UNL A   1      33.333  25.990  24.871  1.00  0.00     0.094 C 
ATOM     11  C   UNL A   1      33.113  24.885  22.088  1.00  0.00     0.008 C 
ATOM     12  C   UNL A   1      33.159  24.496  24.575  1.00  0.00     0.061 C 
ATOM     13  C   UNL A   1      33.720  24.067  23.218  1.00  0.00     0.015 C 
BRANCH   8  14
ATOM     14  N   UNL A   1      31.569  27.324  23.836  1.00  0.00    -0.336 N 
ATOM     15  C   UNL A   1      30.779  27.615  22.661  1.00  0.00     0.331 C 
ATOM     16  H   UNL A   1      31.106  26.556  24.322  1.00  0.00     0.346 HD
ATOM     17  H   UNL A   1      31.613  28.221  24.322  1.00  0.00     0.346 HD
ENDBRANCH   8  14
BRANCH  12  18
ATOM     18  S   UNL A   1      33.790  23.448  25.949  1.00  0.00    -0.090 SA
BRANCH  18  19
ATOM     19  C   UNL A   1      33.380  21.830  25.434  1.00  0.00     0.174 A 
ATOM     20  N   UNL A   1      32.140  21.404  25.324  1.00  0.00    -0.132 NA
ATOM     21  S   UNL A   1      34.564  20.648  25.049  1.00  0.00    -0.094 S 
ATOM     22  N   UNL A   1      32.069  20.076  24.950  1.00  0.00    -0.146 NA
ATOM     23  C   UNL A   1      33.268  19.563  24.766  1.00  0.00     0.203 A 
ENDBRANCH  18  19
ENDBRANCH  12  18
ENDBRANCH   5   8
ENDBRANCH   3   4
ENDBRANCH   2   3
ENDBRANCH   1   2
BRANCH   1  24
ATOM     24  C   UNL A   1      31.651  30.759  26.103  1.00  0.00     0.002 C 
BRANCH  24  25
ATOM     25  C   UNL A   1      31.417  32.132  26.735  1.00  0.00     0.021 C 
BRANCH  25  26
ATOM     26  C   UNL A   1      32.673  32.860  27.200  1.00  0.00     0.116 C 
BRANCH  26  27
ATOM     27  N   UNL A   1      32.406  34.227  27.615  1.00  0.00    -0.352 N 
ATOM     28  C   UNL A   1      32.992  34.966  28.613  1.00  0.00     0.251 C 
ATOM     29  H   UNL A   1      31.704  34.691  27.106  1.00  0.00     0.163 HD
ATOM     30  O   UNL A   1      32.533  36.060  28.922  1.00  0.00    -0.269 OA
BRANCH  28  31
ATOM     31  C   UNL A   1      34.165  34.433  29.338  1.00  0.00     0.039 A 
ATOM     32  C   UNL A   1      33.957  33.748  30.538  1.00  0.00     0.014 A 
ATOM     33  C   UNL A   1      35.462  34.613  28.849  1.00  0.00     0.014 A 
ATOM     34  C   UNL A   1      35.043  33.193  31.217  1.00  0.00     0.010 A 
ATOM     35  C   UNL A   1      36.535  33.998  29.489  1.00  0.00     0.010 A 
ATOM     36  C   UNL A   1      36.338  33.283  30.681  1.00  0.00    -0.014 A 
BRANCH  36  37
ATOM     37  C   UNL A   1      37.494  32.635  31.351  1.00  0.00     0.031 A 
ATOM     38  C   UNL A   1      38.224  31.505  30.681  1.00  0.00     0.074 A 
ATOM     39  C   UNL A   1      37.851  33.026  32.590  1.00  0.00     0.049 A 
ATOM     40  N   UNL A   1      39.211  30.772  31.132  1.00  0.00    -0.248 NA
ATOM     41  C   UNL A   1      37.765  31.129  29.334  1.00  0.00     0.031 C 
ATOM     42  C   UNL A   1      37.196  34.083  33.363  1.00  0.00     0.029 A 
ATOM     43  N   UNL A   1      38.846  32.575  33.421  1.00  0.00    -0.354 N 
ATOM     44  C   UNL A   1      39.483  29.847  30.132  1.00  0.00     0.074 A 
ATOM     45  C   UNL A   1      38.521  30.072  29.076  1.00  0.00     0.031 C 
ATOM     46  C   UNL A   1      37.820  34.215  34.544  1.00  0.00     0.029 A 
ATOM     47  C   UNL A   1      38.892  33.227  34.630  1.00  0.00     0.049 A 
ATOM     48  H   UNL A   1      39.467  31.853  33.175  1.00  0.00     0.167 HD
ATOM     49  C   UNL A   1      40.461  28.912  30.089  1.00  0.00     0.037 A 
ATOM     50  C   UNL A   1      39.701  33.042  35.690  1.00  0.00     0.037 A 
ATOM     51  C   UNL A   1      41.431  28.704  31.134  1.00  0.00     0.049 A 
ATOM     52  C   UNL A   1      40.770  31.984  35.623  1.00  0.00     0.074 A 
ATOM     53  C   UNL A   1      42.494  27.819  31.162  1.00  0.00     0.029 A 
ATOM     54  N   UNL A   1      41.452  29.391  32.339  1.00  0.00    -0.354 N 
ATOM     55  N   UNL A   1      41.058  31.159  34.647  1.00  0.00    -0.248 NA
ATOM     56  C   UNL A   1      41.631  31.838  36.806  1.00  0.00     0.031 C 
ATOM     57  C   UNL A   1      43.127  27.932  32.405  1.00  0.00     0.029 A 
ATOM     58  C   UNL A   1      42.494  28.930  33.129  1.00  0.00     0.049 A 
ATOM     59  H   UNL A   1      40.821  30.101  32.596  1.00  0.00     0.167 HD
ATOM     60  C   UNL A   1      42.149  30.419  35.082  1.00  0.00     0.074 A 
ATOM     61  C   UNL A   1      42.481  30.902  36.406  1.00  0.00     0.031 C 
ATOM     62  C   UNL A   1      42.817  29.427  34.443  1.00  0.00     0.037 A 
BRANCH  49  63
ATOM     63  C   UNL A   1      40.535  28.037  28.870  1.00  0.00     0.064 A 
ATOM     64  C   UNL A   1      39.813  26.837  28.778  1.00  0.00     0.173 A 
ATOM     65  C   UNL A   1      41.307  28.421  27.763  1.00  0.00     0.173 A 
ATOM     66  F   UNL A   1      39.067  26.419  29.812  1.00  0.00    -0.203 F 
ATOM     67  C   UNL A   1      39.885  26.040  27.639  1.00  0.00     0.198 A 
ATOM     68  C   UNL A   1      41.352  27.638  26.612  1.00  0.00     0.198 A 
ATOM     69  F   UNL A   1      42.013  29.561  27.793  1.00  0.00    -0.203 F 
ATOM     70  F   UNL A   1      39.228  24.873  27.596  1.00  0.00    -0.200 F 
ATOM     71  C   UNL A   1      40.649  26.444  26.555  1.00  0.00     0.200 A 
ATOM     72  F   UNL A   1      42.078  28.038  25.559  1.00  0.00    -0.200 F 
ATOM     73  F   UNL A   1      40.712  25.680  25.455  1.00  0.00    -0.200 F 
ENDBRANCH  49  63
BRANCH  50  74
ATOM     74  C   UNL A   1      39.546  33.892  36.901  1.00  0.00     0.064 A 
ATOM     75  C   UNL A   1      38.786  33.456  37.995  1.00  0.00     0.173 A 
ATOM     76  C   UNL A   1      40.143  35.158  36.984  1.00  0.00     0.173 A 
ATOM     77  F   UNL A   1      38.178  32.260  37.953  1.00  0.00    -0.203 F 
ATOM     78  C   UNL A   1      38.610  34.263  39.117  1.00  0.00     0.198 A 
ATOM     79  C   UNL A   1      39.992  35.951  38.121  1.00  0.00     0.198 A 
ATOM     80  F   UNL A   1      40.885  35.621  35.967  1.00  0.00    -0.203 F 
ATOM     81  F   UNL A   1      37.836  33.841  40.127  1.00  0.00    -0.200 F 
ATOM     82  C   UNL A   1      39.217  35.507  39.181  1.00  0.00     0.200 A 
ATOM     83  F   UNL A   1      40.593  37.148  38.185  1.00  0.00    -0.200 F 
ATOM     84  F   UNL A   1      39.049  36.282  40.261  1.00  0.00    -0.200 F 
ENDBRANCH  50  74
BRANCH  62  85
ATOM     85  C   UNL A   1      43.997  28.823  35.149  1.00  0.00     0.064 A 
ATOM     86  C   UNL A   1      43.865  27.701  35.981  1.00  0.00     0.173 A 
ATOM     87  C   UNL A   1      45.283  29.351  34.957  1.00  0.00     0.173 A 
ATOM     88  F   UNL A   1      42.656  27.168  36.208  1.00  0.00    -0.203 F 
ATOM     89  C   UNL A   1      44.974  27.148  36.617  1.00  0.00     0.198 A 
ATOM     90  C   UNL A   1      46.393  28.776  35.570  1.00  0.00     0.198 A 
ATOM     91  F   UNL A   1      45.466  30.418  34.166  1.00  0.00    -0.203 F 
ATOM     92  F   UNL A   1      44.816  26.109  37.448  1.00  0.00    -0.200 F 
ATOM     93  C   UNL A   1      46.236  27.681  36.405  1.00  0.00     0.200 A 
ATOM     94  F   UNL A   1      47.614  29.281  35.351  1.00  0.00    -0.200 F 
ATOM     95  F   UNL A   1      47.303  27.141  37.012  1.00  0.00    -0.200 F 
ENDBRANCH  62  85
ENDBRANCH  36  37
ENDBRANCH  28  31
ENDBRANCH  26  27
ENDBRANCH  25  26
ENDBRANCH  24  25
ENDBRANCH   1  24
TORSDOF 16
ENDMDL
MODEL 3
REMARK VINA RESULT:     -11.5      1.109      2.222
REMARK SMILES C[NH2+][C@]1(C(=O)NCCCCCCNC(=O)c2ccc(-c3c4nc(c(-c5c(F)c(F)c(F)c(F)c5F)c5ccc([nH]5)c(-c5c(F)c(F)c(F)c(F)c5F)c5nc(c(-c6c(F)c(F)c(F)c(F)c6F)c6ccc3[nH]6)C=C5)C=C4)cc2)CCC[C@@H](Sc2nncs2)C1
REMARK SMILES IDX 9 1 8 2 7 3 6 4 4 5 5 6 3 8 79 9 89 10 80 11 82 12 81 13
REMARK SMILES IDX 2 14 1 15 83 18 84 19 85 20 88 21 86 22 87 23 10 24 11 25
REMARK SMILES IDX 12 26 13 27 14 28 15 30 16 31 17 32 78 33 18 34 77 35 19 36
REMARK SMILES IDX 20 37 21 38 71 39 22 40 76 41 70 42 72 43 23 44 75 45 69 46
REMARK SMILES IDX 68 47 24 49 56 50 36 51 55 52 37 53 40 54 54 55 73 56 38 57
REMARK SMILES IDX 39 58 53 60 74 61 41 62 25 63 26 64 34 65 27 66 28 67 32 68
REMARK SMILES IDX 35 69 29 70 30 71 33 72 31 73 57 74 58 75 66 76 59 77 60 78
REMARK SMILES IDX 64 79 67 80 61 81 62 82 65 83 63 84 42 85 43 86 51 87 44 88
REMARK SMILES IDX 45 89 49 90 52 91 46 92 47 93 50 94 48 95
REMARK H PARENT 6 7 2 16 2 17 13 29 72 48 40 59
REMARK Flexibility Score: inf
ROOT
ATOM      1  C   UNL A   1      32.222  29.833  27.068  1.00  0.00     0.002 C 
ENDROOT
BRANCH   1   2
ATOM      2  C   UNL A   1      32.032  28.342  26.777  1.00  0.00     0.021 C 
BRANCH   2   3
ATOM      3  C   UNL A   1      33.315  27.572  26.488  1.00  0.00     0.116 C 
BRANCH   3   4
ATOM      4  N   UNL A   1      33.463  27.251  25.081  1.00  0.00    -0.351 N 
ATOM      5  C   UNL A   1      33.431  26.057  24.423  1.00  0.00     0.281 C 
ATOM      6  O   UNL A   1      33.598  26.109  23.196  1.00  0.00    -0.268 OA
ATOM      7  H   UNL A   1      33.611  28.031  24.499  1.00  0.00     0.163 HD
BRANCH   5   8
ATOM      8  C   UNL A   1      33.289  24.661  25.162  1.00  0.00     0.176 C 
ATOM      9  C   UNL A   1      32.029  24.771  26.060  1.00  0.00     0.079 C 
ATOM     10  C   UNL A   1      33.259  23.504  24.125  1.00  0.00     0.094 C 
ATOM     11  C   UNL A   1      31.406  23.446  26.486  1.00  0.00     0.008 C 
ATOM     12  C   UNL A   1      32.532  22.236  24.587  1.00  0.00     0.061 C 
ATOM     13  C   UNL A   1      31.208  22.511  25.303  1.00  0.00     0.015 C 
BRANCH   8  14
ATOM     14  N   UNL A   1      34.562  24.505  25.931  1.00  0.00    -0.336 N 
ATOM     15  C   UNL A   1      35.750  24.031  25.257  1.00  0.00     0.331 C 
ATOM     16  H   UNL A   1      34.787  25.420  26.320  1.00  0.00     0.346 HD
ATOM     17  H   UNL A   1      34.350  23.759  26.594  1.00  0.00     0.346 HD
ENDBRANCH   8  14
BRANCH  12  18
ATOM     18  S   UNL A   1      32.343  21.018  23.221  1.00  0.00    -0.090 SA
BRANCH  18  19
ATOM     19  C   UNL A   1      32.439  19.481  24.044  1.00  0.00     0.174 A 
ATOM     20  N   UNL A   1      32.307  19.356  25.348  1.00  0.00    -0.132 NA
ATOM     21  S   UNL A   1      32.738  18.003  23.225  1.00  0.00    -0.094 S 
ATOM     22  N   UNL A   1      32.472  18.051  25.772  1.00  0.00    -0.146 NA
ATOM     23  C   UNL A   1      32.696  17.240  24.759  1.00  0.00     0.203 A 
ENDBRANCH  18  19
ENDBRANCH  12  18
ENDBRANCH   5   8
ENDBRANCH   3   4
ENDBRANCH   2   3
ENDBRANCH   1   2
BRANCH   1  24
ATOM     24  C   UNL A   1      31.553  30.795  26.081  1.00  0.00     0.002 C 
BRANCH  24  25
ATOM     25  C   UNL A   1      31.356  32.228  26.580  1.00  0.00     0.021 C 
BRANCH  25  26
ATOM     26  C   UNL A   1      32.562  32.850  27.273  1.00  0.00     0.116 C 
BRANCH  26  27
ATOM     27  N   UNL A   1      32.340  34.237  27.645  1.00  0.00    -0.352 N 
ATOM     28  C   UNL A   1      32.969  34.996  28.600  1.00  0.00     0.251 C 
ATOM     29  H   UNL A   1      31.637  34.701  27.136  1.00  0.00     0.163 HD
ATOM     30  O   UNL A   1      32.545  36.112  28.881  1.00  0.00    -0.269 OA
BRANCH  28  31
ATOM     31  C   UNL A   1      34.146  34.458  29.316  1.00  0.00     0.039 A 
ATOM     32  C   UNL A   1      33.952  33.830  30.549  1.00  0.00     0.014 A 
ATOM     33  C   UNL A   1      35.433  34.580  28.785  1.00  0.00     0.014 A 
ATOM     34  C   UNL A   1      35.041  33.271  31.221  1.00  0.00     0.010 A 
ATOM     35  C   UNL A   1      36.507  33.962  29.422  1.00  0.00     0.010 A 
ATOM     36  C   UNL A   1      36.323  33.302  30.647  1.00  0.00    -0.014 A 
BRANCH  36  37
ATOM     37  C   UNL A   1      37.478  32.648  31.313  1.00  0.00     0.031 A 
ATOM     38  C   UNL A   1      38.189  31.504  30.646  1.00  0.00     0.074 A 
ATOM     39  C   UNL A   1      37.850  33.047  32.544  1.00  0.00     0.049 A 
ATOM     40  N   UNL A   1      39.173  30.765  31.095  1.00  0.00    -0.248 NA
ATOM     41  C   UNL A   1      37.715  31.120  29.307  1.00  0.00     0.031 C 
ATOM     42  C   UNL A   1      37.214  34.117  33.313  1.00  0.00     0.029 A 
ATOM     43  N   UNL A   1      38.848  32.593  33.370  1.00  0.00    -0.354 N 
ATOM     44  C   UNL A   1      39.427  29.828  30.101  1.00  0.00     0.074 A 
ATOM     45  C   UNL A   1      38.457  30.053  29.052  1.00  0.00     0.031 C 
ATOM     46  C   UNL A   1      37.850  34.253  34.487  1.00  0.00     0.029 A 
ATOM     47  C   UNL A   1      38.912  33.255  34.573  1.00  0.00     0.049 A 
ATOM     48  H   UNL A   1      39.460  31.862  33.125  1.00  0.00     0.167 HD
ATOM     49  C   UNL A   1      40.395  28.882  30.058  1.00  0.00     0.037 A 
ATOM     50  C   UNL A   1      39.730  33.072  35.626  1.00  0.00     0.037 A 
ATOM     51  C   UNL A   1      41.372  28.674  31.096  1.00  0.00     0.049 A 
ATOM     52  C   UNL A   1      40.787  32.002  35.560  1.00  0.00     0.074 A 
ATOM     53  C   UNL A   1      42.426  27.778  31.122  1.00  0.00     0.029 A 
ATOM     54  N   UNL A   1      41.412  29.372  32.294  1.00  0.00    -0.354 N 
ATOM     55  N   UNL A   1      41.057  31.166  34.589  1.00  0.00    -0.248 NA
ATOM     56  C   UNL A   1      41.657  31.858  36.735  1.00  0.00     0.031 C 
ATOM     57  C   UNL A   1      43.072  27.897  32.358  1.00  0.00     0.029 A 
ATOM     58  C   UNL A   1      42.456  28.908  33.079  1.00  0.00     0.049 A 
ATOM     59  H   UNL A   1      40.790  30.091  32.550  1.00  0.00     0.167 HD
ATOM     60  C   UNL A   1      42.145  30.418  35.020  1.00  0.00     0.074 A 
ATOM     61  C   UNL A   1      42.494  30.910  36.337  1.00  0.00     0.031 C 
ATOM     62  C   UNL A   1      42.796  29.413  34.384  1.00  0.00     0.037 A 
BRANCH  49  63
ATOM     63  C   UNL A   1      40.448  27.996  28.846  1.00  0.00     0.064 A 
ATOM     64  C   UNL A   1      41.230  28.324  27.727  1.00  0.00     0.173 A 
ATOM     65  C   UNL A   1      39.741  26.784  28.817  1.00  0.00     0.173 A 
ATOM     66  F   UNL A   1      41.918  29.474  27.699  1.00  0.00    -0.203 F 
ATOM     67  C   UNL A   1      41.275  27.489  26.614  1.00  0.00     0.198 A 
ATOM     68  C   UNL A   1      39.814  25.936  27.715  1.00  0.00     0.198 A 
ATOM     69  F   UNL A   1      38.983  26.418  29.861  1.00  0.00    -0.203 F 
ATOM     70  F   UNL A   1      41.987  27.849  25.537  1.00  0.00    -0.200 F 
ATOM     71  C   UNL A   1      40.573  26.293  26.611  1.00  0.00     0.200 A 
ATOM     72  F   UNL A   1      39.147  24.774  27.721  1.00  0.00    -0.200 F 
ATOM     73  F   UNL A   1      40.624  25.487  25.542  1.00  0.00    -0.200 F 
ENDBRANCH  49  63
BRANCH  50  74
ATOM     74  C   UNL A   1      39.595  33.934  36.831  1.00  0.00     0.064 A 
ATOM     75  C   UNL A   1      40.259  35.165  36.915  1.00  0.00     0.173 A 
ATOM     76  C   UNL A   1      38.809  33.541  37.925  1.00  0.00     0.173 A 
ATOM     77  F   UNL A   1      41.040  35.574  35.903  1.00  0.00    -0.203 F 
ATOM     78  C   UNL A   1      40.164  35.959  38.055  1.00  0.00     0.198 A 
ATOM     79  C   UNL A   1      38.689  34.352  39.052  1.00  0.00     0.198 A 
ATOM     80  F   UNL A   1      38.148  32.375  37.894  1.00  0.00    -0.203 F 
ATOM     81  F   UNL A   1      40.851  37.108  38.128  1.00  0.00    -0.200 F 
ATOM     82  C   UNL A   1      39.374  35.555  39.121  1.00  0.00     0.200 A 
ATOM     83  F   UNL A   1      37.912  33.964  40.074  1.00  0.00    -0.200 F 
ATOM     84  F   UNL A   1      39.280  36.321  40.216  1.00  0.00    -0.200 F 
ENDBRANCH  50  74
BRANCH  62  85
ATOM     85  C   UNL A   1      43.977  28.804  35.085  1.00  0.00     0.064 A 
ATOM     86  C   UNL A   1      43.843  27.684  35.919  1.00  0.00     0.173 A 
ATOM     87  C   UNL A   1      45.265  29.325  34.886  1.00  0.00     0.173 A 
ATOM     88  F   UNL A   1      42.632  27.158  36.153  1.00  0.00    -0.203 F 
ATOM     89  C   UNL A   1      44.952  27.126  36.551  1.00  0.00     0.198 A 
ATOM     90  C   UNL A   1      46.375  28.744  35.494  1.00  0.00     0.198 A 
ATOM     91  F   UNL A   1      45.449  30.390  34.093  1.00  0.00    -0.203 F 
ATOM     92  F   UNL A   1      44.793  26.088  37.384  1.00  0.00    -0.200 F 
ATOM     93  C   UNL A   1      46.216  27.651  36.331  1.00  0.00     0.200 A 
ATOM     94  F   UNL A   1      47.598  29.243  35.268  1.00  0.00    -0.200 F 
ATOM     95  F   UNL A   1      47.283  27.106  36.934  1.00  0.00    -0.200 F 
ENDBRANCH  62  85
ENDBRANCH  36  37
ENDBRANCH  28  31
ENDBRANCH  26  27
ENDBRANCH  25  26
ENDBRANCH  24  25
ENDBRANCH   1  24
TORSDOF 16
ENDMDL
