MODEL 1
REMARK VINA RESULT:     -10.6      0.000      0.000
REMARK SMILES CC[C@@](O)(C(=O)NCCCCCCNC(=O)c1ccc(-c2c3nc(c(-c4c(F)c(F)c(F)c(F)c4F)c4ccc([nH]4)c(-c4c(F)c(F)c(F)c(F)c4F)c4nc(c(-c5c(F)c(F)c(F)c(F)c5F)c5ccc2[nH]5)C=C4)C=C3)cc1)[C@@H](C)c1ccc(OC)c(OC)c1
REMARK SMILES IDX 10 1 9 2 8 3 7 4 5 5 6 6 3 8 2 9 1 10 4 11 80 13 81 14 82 15
REMARK SMILES IDX 83 16 91 17 84 18 88 19 85 20 89 21 90 22 86 23 87 24 11 25
REMARK SMILES IDX 12 26 13 27 14 28 15 29 16 31 17 32 18 33 79 34 19 35 78 36
REMARK SMILES IDX 20 37 21 38 22 39 72 40 23 41 77 42 71 43 73 44 24 45 76 46
REMARK SMILES IDX 70 47 69 48 25 50 57 51 37 52 56 53 38 54 41 55 55 56 74 57
REMARK SMILES IDX 39 58 40 59 54 61 75 62 42 63 26 64 27 65 35 66 28 67 29 68
REMARK SMILES IDX 33 69 36 70 30 71 31 72 34 73 32 74 58 75 59 76 67 77 60 78
REMARK SMILES IDX 61 79 65 80 68 81 62 82 63 83 66 84 64 85 43 86 44 87 52 88
REMARK SMILES IDX 45 89 46 90 50 91 53 92 47 93 48 94 51 95 49 96
REMARK H PARENT 7 7 4 12 14 30 73 49 41 60
REMARK Flexibility Score: inf
ROOT
ATOM      1  C   UNL A   1      35.173  33.110  27.965  1.00  0.00     0.002 C 
ENDROOT
BRANCH   1   2
ATOM      2  C   UNL A   1      35.593  31.654  28.186  1.00  0.00     0.021 C 
BRANCH   2   3
ATOM      3  C   UNL A   1      34.619  30.619  27.618  1.00  0.00     0.116 C 
BRANCH   3   4
ATOM      4  N   UNL A   1      33.342  31.224  27.292  1.00  0.00    -0.354 N 
ATOM      5  C   UNL A   1      32.322  30.776  26.497  1.00  0.00     0.252 C 
ATOM      6  O   UNL A   1      31.316  31.492  26.461  1.00  0.00    -0.272 OA
ATOM      7  H   UNL A   1      33.182  32.101  27.710  1.00  0.00     0.163 HD
BRANCH   5   8
ATOM      8  C   UNL A   1      32.425  29.421  25.719  1.00  0.00     0.149 C 
BRANCH   8   9
ATOM      9  C   UNL A   1      31.200  29.200  24.790  1.00  0.00     0.043 C 
ATOM     10  C   UNL A   1      31.496  28.959  23.308  1.00  0.00     0.007 C 
ENDBRANCH   8   9
BRANCH   8  11
ATOM     11  O   UNL A   1      33.623  29.608  24.927  1.00  0.00    -0.379 OA
ATOM     12  H   UNL A   1      34.195  28.830  25.017  1.00  0.00     0.212 HD
ENDBRANCH   8  11
BRANCH   8  13
ATOM     13  C   UNL A   1      32.648  28.240  26.756  1.00  0.00     0.058 C 
ATOM     14  C   UNL A   1      31.534  28.076  27.808  1.00  0.00     0.016 C 
BRANCH  13  15
ATOM     15  C   UNL A   1      32.919  26.890  26.085  1.00  0.00    -0.038 A 
ATOM     16  C   UNL A   1      33.890  26.739  25.091  1.00  0.00     0.008 A 
ATOM     17  C   UNL A   1      32.209  25.747  26.490  1.00  0.00     0.054 A 
ATOM     18  C   UNL A   1      34.231  25.474  24.618  1.00  0.00     0.051 A 
ATOM     19  C   UNL A   1      32.497  24.476  25.958  1.00  0.00     0.160 A 
ATOM     20  C   UNL A   1      33.564  24.329  25.062  1.00  0.00     0.160 A 
BRANCH  19  21
ATOM     21  O   UNL A   1      31.785  23.374  26.353  1.00  0.00    -0.493 OA
ATOM     22  C   UNL A   1      30.390  23.603  26.546  1.00  0.00     0.278 C 
ENDBRANCH  19  21
BRANCH  20  23
ATOM     23  O   UNL A   1      34.076  23.189  24.506  1.00  0.00    -0.493 OA
ATOM     24  C   UNL A   1      35.146  23.302  23.583  1.00  0.00     0.278 C 
ENDBRANCH  20  23
ENDBRANCH  13  15
ENDBRANCH   8  13
ENDBRANCH   5   8
ENDBRANCH   3   4
ENDBRANCH   2   3
ENDBRANCH   1   2
BRANCH   1  25
ATOM     25  C   UNL A   1      35.278  34.009  29.200  1.00  0.00     0.002 C 
BRANCH  25  26
ATOM     26  C   UNL A   1      34.336  35.212  29.199  1.00  0.00     0.021 C 
BRANCH  26  27
ATOM     27  C   UNL A   1      32.938  34.917  29.730  1.00  0.00     0.116 C 
BRANCH  27  28
ATOM     28  N   UNL A   1      32.502  35.906  30.705  1.00  0.00    -0.352 N 
ATOM     29  C   UNL A   1      32.871  36.028  32.022  1.00  0.00     0.251 C 
ATOM     30  H   UNL A   1      31.860  36.577  30.377  1.00  0.00     0.163 HD
ATOM     31  O   UNL A   1      32.283  36.795  32.775  1.00  0.00    -0.269 OA
BRANCH  29  32
ATOM     32  C   UNL A   1      33.983  35.200  32.528  1.00  0.00     0.039 A 
ATOM     33  C   UNL A   1      33.727  33.897  32.961  1.00  0.00     0.014 A 
ATOM     34  C   UNL A   1      35.283  35.710  32.537  1.00  0.00     0.014 A 
ATOM     35  C   UNL A   1      34.790  33.079  33.350  1.00  0.00     0.010 A 
ATOM     36  C   UNL A   1      36.345  34.873  32.850  1.00  0.00     0.010 A 
ATOM     37  C   UNL A   1      36.109  33.552  33.268  1.00  0.00    -0.014 A 
BRANCH  37  38
ATOM     38  C   UNL A   1      37.274  32.713  33.640  1.00  0.00     0.031 A 
ATOM     39  C   UNL A   1      38.014  33.009  34.913  1.00  0.00     0.074 A 
ATOM     40  C   UNL A   1      37.733  31.775  32.791  1.00  0.00     0.049 A 
ATOM     41  N   UNL A   1      39.158  32.538  35.340  1.00  0.00    -0.248 NA
ATOM     42  C   UNL A   1      37.400  34.003  35.806  1.00  0.00     0.031 C 
ATOM     43  C   UNL A   1      37.119  31.419  31.512  1.00  0.00     0.029 A 
ATOM     44  N   UNL A   1      38.844  30.973  32.864  1.00  0.00    -0.354 N 
ATOM     45  C   UNL A   1      39.416  33.204  36.530  1.00  0.00     0.074 A 
ATOM     46  C   UNL A   1      38.336  34.146  36.732  1.00  0.00     0.031 C 
ATOM     47  C   UNL A   1      37.862  30.472  30.918  1.00  0.00     0.029 A 
ATOM     48  C   UNL A   1      39.029  30.189  31.752  1.00  0.00     0.049 A 
ATOM     49  H   UNL A   1      39.451  30.961  33.639  1.00  0.00     0.167 HD
ATOM     50  C   UNL A   1      40.452  33.034  37.385  1.00  0.00     0.037 A 
ATOM     51  C   UNL A   1      40.038  29.357  31.429  1.00  0.00     0.037 A 
ATOM     52  C   UNL A   1      41.505  32.075  37.187  1.00  0.00     0.049 A 
ATOM     53  C   UNL A   1      41.183  29.182  32.389  1.00  0.00     0.074 A 
ATOM     54  C   UNL A   1      42.567  31.774  38.021  1.00  0.00     0.029 A 
ATOM     55  N   UNL A   1      41.633  31.264  36.067  1.00  0.00    -0.354 N 
ATOM     56  N   UNL A   1      41.393  29.773  33.540  1.00  0.00    -0.248 NA
ATOM     57  C   UNL A   1      42.228  28.221  32.010  1.00  0.00     0.031 C 
ATOM     58  C   UNL A   1      43.366  30.821  37.382  1.00  0.00     0.029 A 
ATOM     59  C   UNL A   1      42.769  30.480  36.180  1.00  0.00     0.049 A 
ATOM     60  H   UNL A   1      41.008  31.248  35.306  1.00  0.00     0.167 HD
ATOM     61  C   UNL A   1      42.571  29.233  34.039  1.00  0.00     0.074 A 
ATOM     62  C   UNL A   1      43.032  28.268  33.064  1.00  0.00     0.031 C 
ATOM     63  C   UNL A   1      43.205  29.507  35.206  1.00  0.00     0.037 A 
BRANCH  50  64
ATOM     64  C   UNL A   1      40.498  33.919  38.597  1.00  0.00     0.064 A 
ATOM     65  C   UNL A   1      41.202  35.135  38.603  1.00  0.00     0.173 A 
ATOM     66  C   UNL A   1      39.834  33.545  39.775  1.00  0.00     0.173 A 
ATOM     67  F   UNL A   1      41.863  35.537  37.507  1.00  0.00    -0.203 F 
ATOM     68  C   UNL A   1      41.282  35.912  39.755  1.00  0.00     0.198 A 
ATOM     69  C   UNL A   1      39.885  34.344  40.915  1.00  0.00     0.198 A 
ATOM     70  F   UNL A   1      39.139  32.398  39.826  1.00  0.00    -0.203 F 
ATOM     71  F   UNL A   1      42.023  37.030  39.756  1.00  0.00    -0.200 F 
ATOM     72  C   UNL A   1      40.620  35.519  40.907  1.00  0.00     0.200 A 
ATOM     73  F   UNL A   1      39.232  33.969  42.023  1.00  0.00    -0.200 F 
ATOM     74  F   UNL A   1      40.701  36.267  42.017  1.00  0.00    -0.200 F 
ENDBRANCH  50  64
BRANCH  51  75
ATOM     75  C   UNL A   1      39.990  28.620  30.140  1.00  0.00     0.064 A 
ATOM     76  C   UNL A   1      40.566  29.159  28.982  1.00  0.00     0.173 A 
ATOM     77  C   UNL A   1      39.405  27.348  30.047  1.00  0.00     0.173 A 
ATOM     78  F   UNL A   1      41.121  30.379  29.016  1.00  0.00    -0.203 F 
ATOM     79  C   UNL A   1      40.555  28.456  27.778  1.00  0.00     0.198 A 
ATOM     80  C   UNL A   1      39.417  26.636  28.850  1.00  0.00     0.198 A 
ATOM     81  F   UNL A   1      38.847  26.786  31.129  1.00  0.00    -0.203 F 
ATOM     82  F   UNL A   1      41.087  29.006  26.679  1.00  0.00    -0.200 F 
ATOM     83  C   UNL A   1      39.987  27.192  27.716  1.00  0.00     0.200 A 
ATOM     84  F   UNL A   1      38.884  25.407  28.798  1.00  0.00    -0.200 F 
ATOM     85  F   UNL A   1      39.991  26.510  26.562  1.00  0.00    -0.200 F 
ENDBRANCH  51  75
BRANCH  63  86
ATOM     86  C   UNL A   1      44.439  28.720  35.533  1.00  0.00     0.064 A 
ATOM     87  C   UNL A   1      45.717  29.152  35.154  1.00  0.00     0.173 A 
ATOM     88  C   UNL A   1      44.342  27.559  36.318  1.00  0.00     0.173 A 
ATOM     89  F   UNL A   1      45.862  30.246  34.393  1.00  0.00    -0.203 F 
ATOM     90  C   UNL A   1      46.854  28.447  35.545  1.00  0.00     0.198 A 
ATOM     91  C   UNL A   1      45.481  26.875  36.730  1.00  0.00     0.198 A 
ATOM     92  F   UNL A   1      43.142  27.108  36.711  1.00  0.00    -0.203 F 
ATOM     93  F   UNL A   1      48.066  28.863  35.149  1.00  0.00    -0.200 F 
ATOM     94  C   UNL A   1      46.736  27.318  36.341  1.00  0.00     0.200 A 
ATOM     95  F   UNL A   1      45.366  25.793  37.513  1.00  0.00    -0.200 F 
ATOM     96  F   UNL A   1      47.832  26.656  36.734  1.00  0.00    -0.200 F 
ENDBRANCH  63  86
ENDBRANCH  37  38
ENDBRANCH  29  32
ENDBRANCH  27  28
ENDBRANCH  26  27
ENDBRANCH  25  26
ENDBRANCH   1  25
TORSDOF 19
ENDMDL
MODEL 2
REMARK VINA RESULT:     -10.6      0.565      1.520
REMARK SMILES CC[C@@](O)(C(=O)NCCCCCCNC(=O)c1ccc(-c2c3nc(c(-c4c(F)c(F)c(F)c(F)c4F)c4ccc([nH]4)c(-c4c(F)c(F)c(F)c(F)c4F)c4nc(c(-c5c(F)c(F)c(F)c(F)c5F)c5ccc2[nH]5)C=C4)C=C3)cc1)[C@@H](C)c1ccc(OC)c(OC)c1
REMARK SMILES IDX 10 1 9 2 8 3 7 4 5 5 6 6 3 8 2 9 1 10 4 11 80 13 81 14 82 15
REMARK SMILES IDX 83 16 91 17 84 18 88 19 85 20 89 21 90 22 86 23 87 24 11 25
REMARK SMILES IDX 12 26 13 27 14 28 15 29 16 31 17 32 18 33 79 34 19 35 78 36
REMARK SMILES IDX 20 37 21 38 22 39 72 40 23 41 77 42 71 43 73 44 24 45 76 46
REMARK SMILES IDX 70 47 69 48 25 50 57 51 37 52 56 53 38 54 41 55 55 56 74 57
REMARK SMILES IDX 39 58 40 59 54 61 75 62 42 63 26 64 27 65 35 66 28 67 29 68
REMARK SMILES IDX 33 69 36 70 30 71 31 72 34 73 32 74 58 75 59 76 67 77 60 78
REMARK SMILES IDX 61 79 65 80 68 81 62 82 63 83 66 84 64 85 43 86 44 87 52 88
REMARK SMILES IDX 45 89 46 90 50 91 53 92 47 93 48 94 51 95 49 96
REMARK H PARENT 7 7 4 12 14 30 73 49 41 60
REMARK Flexibility Score: inf
ROOT
ATOM      1  C   UNL A   1      35.334  33.065  28.053  1.00  0.00     0.002 C 
ENDROOT
BRANCH   1   2
ATOM      2  C   UNL A   1      34.796  31.749  28.625  1.00  0.00     0.021 C 
BRANCH   2   3
ATOM      3  C   UNL A   1      34.339  30.739  27.570  1.00  0.00     0.116 C 
BRANCH   3   4
ATOM      4  N   UNL A   1      33.056  31.112  27.007  1.00  0.00    -0.354 N 
ATOM      5  C   UNL A   1      32.238  30.444  26.137  1.00  0.00     0.252 C 
ATOM      6  O   UNL A   1      31.162  30.993  25.882  1.00  0.00    -0.272 OA
ATOM      7  H   UNL A   1      32.717  31.990  27.297  1.00  0.00     0.163 HD
BRANCH   5   8
ATOM      8  C   UNL A   1      32.641  29.053  25.538  1.00  0.00     0.149 C 
BRANCH   8   9
ATOM      9  C   UNL A   1      31.729  28.659  24.344  1.00  0.00     0.043 C 
ATOM     10  C   UNL A   1      32.380  28.639  22.959  1.00  0.00     0.007 C 
ENDBRANCH   8   9
BRANCH   8  11
ATOM     11  O   UNL A   1      33.992  29.294  25.075  1.00  0.00    -0.379 OA
ATOM     12  H   UNL A   1      34.395  28.454  24.804  1.00  0.00     0.212 HD
ENDBRANCH   8  11
BRANCH   8  13
ATOM     13  C   UNL A   1      32.658  27.972  26.700  1.00  0.00     0.058 C 
ATOM     14  C   UNL A   1      31.549  28.132  27.758  1.00  0.00     0.016 C 
BRANCH  13  15
ATOM     15  C   UNL A   1      32.666  26.530  26.182  1.00  0.00    -0.038 A 
ATOM     16  C   UNL A   1      31.512  25.742  26.170  1.00  0.00     0.008 A 
ATOM     17  C   UNL A   1      33.847  25.974  25.664  1.00  0.00     0.054 A 
ATOM     18  C   UNL A   1      31.508  24.498  25.542  1.00  0.00     0.051 A 
ATOM     19  C   UNL A   1      33.867  24.686  25.097  1.00  0.00     0.160 A 
ATOM     20  C   UNL A   1      32.670  23.967  24.976  1.00  0.00     0.160 A 
BRANCH  19  21
ATOM     21  O   UNL A   1      35.032  24.153  24.611  1.00  0.00    -0.493 OA
ATOM     22  C   UNL A   1      36.112  24.129  25.542  1.00  0.00     0.278 C 
ENDBRANCH  19  21
BRANCH  20  23
ATOM     23  O   UNL A   1      32.444  22.759  24.378  1.00  0.00    -0.493 OA
ATOM     24  C   UNL A   1      31.960  21.686  25.169  1.00  0.00     0.278 C 
ENDBRANCH  20  23
ENDBRANCH  13  15
ENDBRANCH   8  13
ENDBRANCH   5   8
ENDBRANCH   3   4
ENDBRANCH   2   3
ENDBRANCH   1   2
BRANCH   1  25
ATOM     25  C   UNL A   1      35.400  34.226  29.048  1.00  0.00     0.002 C 
BRANCH  25  26
ATOM     26  C   UNL A   1      34.311  35.283  28.874  1.00  0.00     0.021 C 
BRANCH  26  27
ATOM     27  C   UNL A   1      32.977  34.925  29.520  1.00  0.00     0.116 C 
BRANCH  27  28
ATOM     28  N   UNL A   1      32.545  35.930  30.479  1.00  0.00    -0.352 N 
ATOM     29  C   UNL A   1      32.904  36.064  31.797  1.00  0.00     0.251 C 
ATOM     30  H   UNL A   1      31.913  36.604  30.137  1.00  0.00     0.163 HD
ATOM     31  O   UNL A   1      32.319  36.847  32.536  1.00  0.00    -0.269 OA
BRANCH  29  32
ATOM     32  C   UNL A   1      34.003  35.229  32.322  1.00  0.00     0.039 A 
ATOM     33  C   UNL A   1      33.734  33.924  32.741  1.00  0.00     0.014 A 
ATOM     34  C   UNL A   1      35.304  35.736  32.364  1.00  0.00     0.014 A 
ATOM     35  C   UNL A   1      34.786  33.101  33.147  1.00  0.00     0.010 A 
ATOM     36  C   UNL A   1      36.356  34.894  32.696  1.00  0.00     0.010 A 
ATOM     37  C   UNL A   1      36.107  33.572  33.099  1.00  0.00    -0.014 A 
BRANCH  37  38
ATOM     38  C   UNL A   1      37.261  32.727  33.492  1.00  0.00     0.031 A 
ATOM     39  C   UNL A   1      37.989  33.027  34.770  1.00  0.00     0.074 A 
ATOM     40  C   UNL A   1      37.724  31.779  32.654  1.00  0.00     0.049 A 
ATOM     41  N   UNL A   1      39.124  32.551  35.215  1.00  0.00    -0.248 NA
ATOM     42  C   UNL A   1      37.371  34.033  35.649  1.00  0.00     0.031 C 
ATOM     43  C   UNL A   1      37.123  31.418  31.372  1.00  0.00     0.029 A 
ATOM     44  N   UNL A   1      38.829  30.970  32.747  1.00  0.00    -0.354 N 
ATOM     45  C   UNL A   1      39.372  33.225  36.403  1.00  0.00     0.074 A 
ATOM     46  C   UNL A   1      38.297  34.176  36.585  1.00  0.00     0.031 C 
ATOM     47  C   UNL A   1      37.866  30.461  30.794  1.00  0.00     0.029 A 
ATOM     48  C   UNL A   1      39.021  30.176  31.643  1.00  0.00     0.049 A 
ATOM     49  H   UNL A   1      39.426  30.959  33.530  1.00  0.00     0.167 HD
ATOM     50  C   UNL A   1      40.396  33.053  37.271  1.00  0.00     0.037 A 
ATOM     51  C   UNL A   1      40.028  29.334  31.339  1.00  0.00     0.037 A 
ATOM     52  C   UNL A   1      41.446  32.085  37.093  1.00  0.00     0.049 A 
ATOM     53  C   UNL A   1      41.160  29.158  32.314  1.00  0.00     0.074 A 
ATOM     54  C   UNL A   1      42.495  31.783  37.943  1.00  0.00     0.029 A 
ATOM     55  N   UNL A   1      41.580  31.265  35.981  1.00  0.00    -0.354 N 
ATOM     56  N   UNL A   1      41.360  29.756  33.463  1.00  0.00    -0.248 NA
ATOM     57  C   UNL A   1      42.203  28.187  31.955  1.00  0.00     0.031 C 
ATOM     58  C   UNL A   1      43.295  30.819  37.321  1.00  0.00     0.029 A 
ATOM     59  C   UNL A   1      42.710  30.473  36.114  1.00  0.00     0.049 A 
ATOM     60  H   UNL A   1      40.965  31.248  35.213  1.00  0.00     0.167 HD
ATOM     61  C   UNL A   1      42.528  29.212  33.981  1.00  0.00     0.074 A 
ATOM     62  C   UNL A   1      42.994  28.236  33.018  1.00  0.00     0.031 C 
ATOM     63  C   UNL A   1      43.150  29.491  35.153  1.00  0.00     0.037 A 
BRANCH  50  64
ATOM     64  C   UNL A   1      40.435  33.948  38.478  1.00  0.00     0.064 A 
ATOM     65  C   UNL A   1      41.145  35.159  38.481  1.00  0.00     0.173 A 
ATOM     66  C   UNL A   1      39.756  33.585  39.651  1.00  0.00     0.173 A 
ATOM     67  F   UNL A   1      41.820  35.550  37.390  1.00  0.00    -0.203 F 
ATOM     68  C   UNL A   1      41.218  35.945  39.628  1.00  0.00     0.198 A 
ATOM     69  C   UNL A   1      39.799  34.393  40.785  1.00  0.00     0.198 A 
ATOM     70  F   UNL A   1      39.055  32.443  39.703  1.00  0.00    -0.203 F 
ATOM     71  F   UNL A   1      41.964  37.058  39.629  1.00  0.00    -0.200 F 
ATOM     72  C   UNL A   1      40.541  35.564  40.777  1.00  0.00     0.200 A 
ATOM     73  F   UNL A   1      39.133  34.030  41.889  1.00  0.00    -0.200 F 
ATOM     74  F   UNL A   1      40.614  36.320  41.881  1.00  0.00    -0.200 F 
ENDBRANCH  50  64
BRANCH  51  75
ATOM     75  C   UNL A   1      39.990  28.588  30.055  1.00  0.00     0.064 A 
ATOM     76  C   UNL A   1      40.573  29.119  28.897  1.00  0.00     0.173 A 
ATOM     77  C   UNL A   1      39.407  27.315  29.967  1.00  0.00     0.173 A 
ATOM     78  F   UNL A   1      41.127  30.340  28.927  1.00  0.00    -0.203 F 
ATOM     79  C   UNL A   1      40.572  28.407  27.698  1.00  0.00     0.198 A 
ATOM     80  C   UNL A   1      39.428  26.593  28.775  1.00  0.00     0.198 A 
ATOM     81  F   UNL A   1      38.841  26.760  31.049  1.00  0.00    -0.203 F 
ATOM     82  F   UNL A   1      41.112  28.949  26.599  1.00  0.00    -0.200 F 
ATOM     83  C   UNL A   1      40.006  27.142  27.642  1.00  0.00     0.200 A 
ATOM     84  F   UNL A   1      38.896  25.364  28.729  1.00  0.00    -0.200 F 
ATOM     85  F   UNL A   1      40.019  26.451  26.492  1.00  0.00    -0.200 F 
ENDBRANCH  51  75
BRANCH  63  86
ATOM     86  C   UNL A   1      44.375  28.696  35.500  1.00  0.00     0.064 A 
ATOM     87  C   UNL A   1      44.299  27.482  36.195  1.00  0.00     0.173 A 
ATOM     88  C   UNL A   1      45.635  29.119  35.046  1.00  0.00     0.173 A 
ATOM     89  F   UNL A   1      43.122  27.042  36.661  1.00  0.00    -0.203 F 
ATOM     90  C   UNL A   1      45.443  26.721  36.430  1.00  0.00     0.198 A 
ATOM     91  C   UNL A   1      46.770  28.343  35.257  1.00  0.00     0.198 A 
ATOM     92  F   UNL A   1      45.759  30.271  34.371  1.00  0.00    -0.203 F 
ATOM     93  F   UNL A   1      45.353  25.576  37.120  1.00  0.00    -0.200 F 
ATOM     94  C   UNL A   1      46.673  27.146  35.951  1.00  0.00     0.200 A 
ATOM     95  F   UNL A   1      47.955  28.746  34.780  1.00  0.00    -0.200 F 
ATOM     96  F   UNL A   1      47.768  26.401  36.158  1.00  0.00    -0.200 F 
ENDBRANCH  63  86
ENDBRANCH  37  38
ENDBRANCH  29  32
ENDBRANCH  27  28
ENDBRANCH  26  27
ENDBRANCH  25  26
ENDBRANCH   1  25
TORSDOF 19
ENDMDL
MODEL 3
REMARK VINA RESULT:     -10.6      1.873      7.752
REMARK SMILES CC[C@@](O)(C(=O)NCCCCCCNC(=O)c1ccc(-c2c3nc(c(-c4c(F)c(F)c(F)c(F)c4F)c4ccc([nH]4)c(-c4c(F)c(F)c(F)c(F)c4F)c4nc(c(-c5c(F)c(F)c(F)c(F)c5F)c5ccc2[nH]5)C=C4)C=C3)cc1)[C@@H](C)c1ccc(OC)c(OC)c1
REMARK SMILES IDX 10 1 9 2 8 3 7 4 5 5 6 6 3 8 2 9 1 10 4 11 80 13 81 14 82 15
REMARK SMILES IDX 83 16 91 17 84 18 88 19 85 20 89 21 90 22 86 23 87 24 11 25
REMARK SMILES IDX 12 26 13 27 14 28 15 29 16 31 17 32 18 33 79 34 19 35 78 36
REMARK SMILES IDX 20 37 21 38 22 39 72 40 23 41 77 42 71 43 73 44 24 45 76 46
REMARK SMILES IDX 70 47 69 48 25 50 57 51 37 52 56 53 38 54 41 55 55 56 74 57
REMARK SMILES IDX 39 58 40 59 54 61 75 62 42 63 26 64 27 65 35 66 28 67 29 68
REMARK SMILES IDX 33 69 36 70 30 71 31 72 34 73 32 74 58 75 59 76 67 77 60 78
REMARK SMILES IDX 61 79 65 80 68 81 62 82 63 83 66 84 64 85 43 86 44 87 52 88
REMARK SMILES IDX 45 89 46 90 50 91 53 92 47 93 48 94 51 95 49 96
REMARK H PARENT 7 7 4 12 14 30 73 49 41 60
REMARK Flexibility Score: inf
ROOT
ATOM      1  C   UNL A   1      33.205  29.977  25.980  1.00  0.00     0.002 C 
ENDROOT
BRANCH   1   2
ATOM      2  C   UNL A   1      33.284  29.213  24.655  1.00  0.00     0.021 C 
BRANCH   2   3
ATOM      3  C   UNL A   1      33.537  27.711  24.804  1.00  0.00     0.116 C 
BRANCH   3   4
ATOM      4  N   UNL A   1      33.886  27.108  23.532  1.00  0.00    -0.354 N 
ATOM      5  C   UNL A   1      33.291  26.090  22.838  1.00  0.00     0.252 C 
ATOM      6  O   UNL A   1      33.784  25.833  21.735  1.00  0.00    -0.272 OA
ATOM      7  H   UNL A   1      34.681  27.493  23.097  1.00  0.00     0.163 HD
BRANCH   5   8
ATOM      8  C   UNL A   1      32.041  25.333  23.402  1.00  0.00     0.149 C 
BRANCH   8   9
ATOM      9  C   UNL A   1      30.765  26.216  23.348  1.00  0.00     0.043 C 
ATOM     10  C   UNL A   1      30.765  27.363  22.335  1.00  0.00     0.007 C 
ENDBRANCH   8   9
BRANCH   8  11
ATOM     11  O   UNL A   1      31.915  24.217  22.488  1.00  0.00    -0.379 OA
ATOM     12  H   UNL A   1      32.783  23.805  22.358  1.00  0.00     0.212 HD
ENDBRANCH   8  11
BRANCH   8  13
ATOM     13  C   UNL A   1      32.373  24.796  24.859  1.00  0.00     0.058 C 
ATOM     14  C   UNL A   1      31.164  24.251  25.645  1.00  0.00     0.016 C 
BRANCH  13  15
ATOM     15  C   UNL A   1      33.502  23.761  24.878  1.00  0.00    -0.038 A 
ATOM     16  C   UNL A   1      34.826  24.115  25.154  1.00  0.00     0.008 A 
ATOM     17  C   UNL A   1      33.218  22.404  24.652  1.00  0.00     0.054 A 
ATOM     18  C   UNL A   1      35.800  23.135  25.330  1.00  0.00     0.051 A 
ATOM     19  C   UNL A   1      34.216  21.417  24.752  1.00  0.00     0.160 A 
ATOM     20  C   UNL A   1      35.506  21.780  25.161  1.00  0.00     0.160 A 
BRANCH  19  21
ATOM     21  O   UNL A   1      33.925  20.099  24.513  1.00  0.00    -0.493 OA
ATOM     22  C   UNL A   1      32.786  19.603  25.214  1.00  0.00     0.278 C 
ENDBRANCH  19  21
BRANCH  20  23
ATOM     23  O   UNL A   1      36.588  20.984  25.417  1.00  0.00    -0.493 OA
ATOM     24  C   UNL A   1      37.888  21.521  25.236  1.00  0.00     0.278 C 
ENDBRANCH  20  23
ENDBRANCH  13  15
ENDBRANCH   8  13
ENDBRANCH   5   8
ENDBRANCH   3   4
ENDBRANCH   2   3
ENDBRANCH   1   2
BRANCH   1  25
ATOM     25  C   UNL A   1      31.790  30.344  26.433  1.00  0.00     0.002 C 
BRANCH  25  26
ATOM     26  C   UNL A   1      31.558  31.836  26.669  1.00  0.00     0.021 C 
BRANCH  26  27
ATOM     27  C   UNL A   1      32.715  32.552  27.355  1.00  0.00     0.116 C 
BRANCH  27  28
ATOM     28  N   UNL A   1      32.430  33.960  27.584  1.00  0.00    -0.352 N 
ATOM     29  C   UNL A   1      32.994  34.807  28.506  1.00  0.00     0.251 C 
ATOM     30  H   UNL A   1      31.744  34.359  27.000  1.00  0.00     0.163 HD
ATOM     31  O   UNL A   1      32.525  35.920  28.712  1.00  0.00    -0.269 OA
BRANCH  29  32
ATOM     32  C   UNL A   1      34.172  34.346  29.267  1.00  0.00     0.039 A 
ATOM     33  C   UNL A   1      33.987  33.629  30.451  1.00  0.00     0.014 A 
ATOM     34  C   UNL A   1      35.457  34.599  28.782  1.00  0.00     0.014 A 
ATOM     35  C   UNL A   1      35.095  33.110  31.122  1.00  0.00     0.010 A 
ATOM     36  C   UNL A   1      36.551  34.018  29.408  1.00  0.00     0.010 A 
ATOM     37  C   UNL A   1      36.383  33.275  30.588  1.00  0.00    -0.014 A 
BRANCH  37  38
ATOM     38  C   UNL A   1      37.589  32.717  31.247  1.00  0.00     0.031 A 
ATOM     39  C   UNL A   1      38.310  31.569  30.603  1.00  0.00     0.074 A 
ATOM     40  C   UNL A   1      37.961  33.156  32.464  1.00  0.00     0.049 A 
ATOM     41  N   UNL A   1      39.260  30.807  31.084  1.00  0.00    -0.248 NA
ATOM     42  C   UNL A   1      37.873  31.204  29.247  1.00  0.00     0.031 C 
ATOM     43  C   UNL A   1      37.320  34.242  33.204  1.00  0.00     0.029 A 
ATOM     44  N   UNL A   1      38.952  32.716  33.306  1.00  0.00    -0.354 N 
ATOM     45  C   UNL A   1      39.506  29.853  30.105  1.00  0.00     0.074 A 
ATOM     46  C   UNL A   1      38.574  30.102  29.027  1.00  0.00     0.031 C 
ATOM     47  C   UNL A   1      37.931  34.384  34.391  1.00  0.00     0.029 A 
ATOM     48  C   UNL A   1      38.975  33.368  34.514  1.00  0.00     0.049 A 
ATOM     49  H   UNL A   1      39.586  32.002  33.066  1.00  0.00     0.167 HD
ATOM     50  C   UNL A   1      40.435  28.870  30.101  1.00  0.00     0.037 A 
ATOM     51  C   UNL A   1      39.732  33.153  35.608  1.00  0.00     0.037 A 
ATOM     52  C   UNL A   1      41.375  28.649  31.168  1.00  0.00     0.049 A 
ATOM     53  C   UNL A   1      40.759  32.053  35.587  1.00  0.00     0.074 A 
ATOM     54  C   UNL A   1      42.401  27.724  31.237  1.00  0.00     0.029 A 
ATOM     55  N   UNL A   1      41.396  29.362  32.359  1.00  0.00    -0.354 N 
ATOM     56  N   UNL A   1      41.025  31.191  34.636  1.00  0.00    -0.248 NA
ATOM     57  C   UNL A   1      41.594  31.899  36.785  1.00  0.00     0.031 C 
ATOM     58  C   UNL A   1      43.008  27.840  32.492  1.00  0.00     0.029 A 
ATOM     59  C   UNL A   1      42.403  28.880  33.179  1.00  0.00     0.049 A 
ATOM     60  H   UNL A   1      40.786  30.100  32.587  1.00  0.00     0.167 HD
ATOM     61  C   UNL A   1      42.079  30.417  35.104  1.00  0.00     0.074 A 
ATOM     62  C   UNL A   1      42.401  30.910  36.427  1.00  0.00     0.031 C 
ATOM     63  C   UNL A   1      42.725  29.397  34.487  1.00  0.00     0.037 A 
BRANCH  50  64
ATOM     64  C   UNL A   1      40.463  27.951  28.912  1.00  0.00     0.064 A 
ATOM     65  C   UNL A   1      41.220  28.243  27.766  1.00  0.00     0.173 A 
ATOM     66  C   UNL A   1      39.715  26.765  28.915  1.00  0.00     0.173 A 
ATOM     67  F   UNL A   1      41.946  29.370  27.705  1.00  0.00    -0.203 F 
ATOM     68  C   UNL A   1      41.185  27.409  26.651  1.00  0.00     0.198 A 
ATOM     69  C   UNL A   1      39.712  25.913  27.813  1.00  0.00     0.198 A 
ATOM     70  F   UNL A   1      38.978  26.431  29.986  1.00  0.00    -0.203 F 
ATOM     71  F   UNL A   1      41.857  27.749  25.542  1.00  0.00    -0.200 F 
ATOM     72  C   UNL A   1      40.436  26.244  26.678  1.00  0.00     0.200 A 
ATOM     73  F   UNL A   1      38.999  24.780  27.847  1.00  0.00    -0.200 F 
ATOM     74  F   UNL A   1      40.401  25.443  25.603  1.00  0.00    -0.200 F 
ENDBRANCH  50  64
BRANCH  51  75
ATOM     75  C   UNL A   1      39.548  34.016  36.802  1.00  0.00     0.064 A 
ATOM     76  C   UNL A   1      38.763  33.590  37.883  1.00  0.00     0.173 A 
ATOM     77  C   UNL A   1      40.181  35.263  36.908  1.00  0.00     0.173 A 
ATOM     78  F   UNL A   1      38.123  32.413  37.821  1.00  0.00    -0.203 F 
ATOM     79  C   UNL A   1      38.615  34.380  39.021  1.00  0.00     0.198 A 
ATOM     80  C   UNL A   1      40.053  36.041  38.056  1.00  0.00     0.198 A 
ATOM     81  F   UNL A   1      40.948  35.713  35.903  1.00  0.00    -0.203 F 
ATOM     82  F   UNL A   1      37.838  33.962  40.028  1.00  0.00    -0.200 F 
ATOM     83  C   UNL A   1      39.268  35.601  39.110  1.00  0.00     0.200 A 
ATOM     84  F   UNL A   1      40.699  37.212  38.145  1.00  0.00    -0.200 F 
ATOM     85  F   UNL A   1      39.138  36.354  40.212  1.00  0.00    -0.200 F 
ENDBRANCH  51  75
BRANCH  63  86
ATOM     86  C   UNL A   1      43.887  28.771  35.202  1.00  0.00     0.064 A 
ATOM     87  C   UNL A   1      45.194  29.251  35.054  1.00  0.00     0.173 A 
ATOM     88  C   UNL A   1      43.666  27.732  36.121  1.00  0.00     0.173 A 
ATOM     89  F   UNL A   1      45.459  30.233  34.180  1.00  0.00    -0.203 F 
ATOM     90  C   UNL A   1      46.243  28.709  35.795  1.00  0.00     0.198 A 
ATOM     91  C   UNL A   1      44.710  27.212  36.880  1.00  0.00     0.198 A 
ATOM     92  F   UNL A   1      42.431  27.242  36.303  1.00  0.00    -0.203 F 
ATOM     93  F   UNL A   1      47.491  29.164  35.619  1.00  0.00    -0.200 F 
ATOM     94  C   UNL A   1      45.997  27.699  36.714  1.00  0.00     0.200 A 
ATOM     95  F   UNL A   1      44.469  26.249  37.779  1.00  0.00    -0.200 F 
ATOM     96  F   UNL A   1      47.003  27.195  37.442  1.00  0.00    -0.200 F 
ENDBRANCH  63  86
ENDBRANCH  37  38
ENDBRANCH  29  32
ENDBRANCH  27  28
ENDBRANCH  26  27
ENDBRANCH  25  26
ENDBRANCH   1  25
TORSDOF 19
ENDMDL
