MODEL 1
REMARK VINA RESULT:     -12.3      0.000      0.000
REMARK SMILES C[C@@H](C(=O)NCCCCCCNC(=O)c1ccc(-c2c3nc(c(-c4c(F)c(F)c(F)c(F)c4F)c4ccc([nH]4)c(-c4c(F)c(F)c(F)c(F)c4F)c4nc(c(-c5c(F)c(F)c(F)c(F)c5F)c5ccc2[nH]5)C=C4)C=C3)cc1)c1ccc(-c2ccn(C(F)F)c(=O)c2)cc1
REMARK SMILES IDX 8 1 7 2 6 3 5 4 3 5 4 6 2 8 1 9 78 10 79 11 93 12 80 13
REMARK SMILES IDX 92 14 81 15 82 16 83 17 91 18 84 19 89 20 85 21 90 22 86 23
REMARK SMILES IDX 87 24 88 25 9 26 10 27 11 28 12 29 13 30 14 32 15 33 16 34
REMARK SMILES IDX 77 35 17 36 76 37 18 38 19 39 20 40 70 41 21 42 75 43 69 44
REMARK SMILES IDX 71 45 22 46 74 47 68 48 67 49 23 51 55 52 35 53 54 54 36 55
REMARK SMILES IDX 39 56 53 57 72 58 37 59 38 60 52 62 73 63 40 64 24 65 25 66
REMARK SMILES IDX 33 67 26 68 27 69 31 70 34 71 28 72 29 73 32 74 30 75 56 76
REMARK SMILES IDX 57 77 65 78 58 79 59 80 63 81 66 82 60 83 61 84 64 85 62 86
REMARK SMILES IDX 41 87 42 88 50 89 43 90 44 91 48 92 51 93 45 94 46 95 49 96
REMARK SMILES IDX 47 97
REMARK H PARENT 5 7 12 31 71 50 39 61
REMARK Flexibility Score: inf
ROOT
ATOM      1  C   UNL A   1      33.623  26.867  25.433  1.00  0.00     0.002 C 
ENDROOT
BRANCH   1   2
ATOM      2  C   UNL A   1      34.530  25.838  26.123  1.00  0.00     0.021 C 
BRANCH   2   3
ATOM      3  C   UNL A   1      34.183  24.383  25.797  1.00  0.00     0.116 C 
BRANCH   3   4
ATOM      4  N   UNL A   1      34.845  23.969  24.581  1.00  0.00    -0.356 N 
ATOM      5  C   UNL A   1      34.379  23.259  23.516  1.00  0.00     0.227 C 
ATOM      6  O   UNL A   1      35.224  22.931  22.680  1.00  0.00    -0.274 OA
ATOM      7  H   UNL A   1      35.787  24.246  24.511  1.00  0.00     0.163 HD
BRANCH   5   8
ATOM      8  C   UNL A   1      32.874  22.960  23.383  1.00  0.00     0.105 C 
ATOM      9  C   UNL A   1      32.543  21.972  22.261  1.00  0.00     0.023 C 
BRANCH   8  10
ATOM     10  C   UNL A   1      32.026  24.212  23.174  1.00  0.00    -0.036 A 
ATOM     11  C   UNL A   1      30.844  24.418  23.902  1.00  0.00     0.005 A 
ATOM     12  C   UNL A   1      32.459  25.217  22.298  1.00  0.00     0.005 A 
ATOM     13  C   UNL A   1      30.101  25.587  23.749  1.00  0.00     0.009 A 
ATOM     14  C   UNL A   1      31.725  26.397  22.157  1.00  0.00     0.009 A 
ATOM     15  C   UNL A   1      30.546  26.593  22.887  1.00  0.00    -0.018 A 
BRANCH  15  16
ATOM     16  C   UNL A   1      29.805  27.862  22.769  1.00  0.00    -0.011 A 
ATOM     17  C   UNL A   1      30.422  29.100  22.340  1.00  0.00     0.027 A 
ATOM     18  C   UNL A   1      28.507  27.862  23.118  1.00  0.00     0.080 A 
ATOM     19  C   UNL A   1      29.717  30.238  22.324  1.00  0.00     0.095 A 
ATOM     20  C   UNL A   1      27.707  29.115  23.090  1.00  0.00     0.255 A 
ATOM     21  N   UNL A   1      28.387  30.257  22.702  1.00  0.00    -0.258 N 
ATOM     22  O   UNL A   1      26.526  29.061  23.418  1.00  0.00    -0.269 OA
BRANCH  21  23
ATOM     23  C   UNL A   1      27.650  31.491  22.731  1.00  0.00     0.451 C 
ATOM     24  F   UNL A   1      27.326  31.844  23.998  1.00  0.00    -0.185 F 
ATOM     25  F   UNL A   1      28.375  32.499  22.185  1.00  0.00    -0.185 F 
ENDBRANCH  21  23
ENDBRANCH  15  16
ENDBRANCH   8  10
ENDBRANCH   5   8
ENDBRANCH   3   4
ENDBRANCH   2   3
ENDBRANCH   1   2
BRANCH   1  26
ATOM     26  C   UNL A   1      32.295  27.143  26.145  1.00  0.00     0.002 C 
BRANCH  26  27
ATOM     27  C   UNL A   1      31.824  28.597  26.080  1.00  0.00     0.021 C 
BRANCH  27  28
ATOM     28  C   UNL A   1      32.921  29.602  25.746  1.00  0.00     0.116 C 
BRANCH  28  29
ATOM     29  N   UNL A   1      32.608  30.936  26.234  1.00  0.00    -0.352 N 
ATOM     30  C   UNL A   1      33.247  31.687  27.188  1.00  0.00     0.251 C 
ATOM     31  H   UNL A   1      31.823  31.363  25.820  1.00  0.00     0.163 HD
ATOM     32  O   UNL A   1      32.727  32.711  27.624  1.00  0.00    -0.269 OA
BRANCH  30  33
ATOM     33  C   UNL A   1      34.553  31.245  27.718  1.00  0.00     0.039 A 
ATOM     34  C   UNL A   1      35.598  32.168  27.791  1.00  0.00     0.014 A 
ATOM     35  C   UNL A   1      34.744  29.930  28.154  1.00  0.00     0.014 A 
ATOM     36  C   UNL A   1      36.808  31.797  28.383  1.00  0.00     0.010 A 
ATOM     37  C   UNL A   1      35.924  29.581  28.805  1.00  0.00     0.010 A 
ATOM     38  C   UNL A   1      36.963  30.516  28.940  1.00  0.00    -0.014 A 
BRANCH  38  39
ATOM     39  C   UNL A   1      38.175  30.164  29.723  1.00  0.00     0.031 A 
ATOM     40  C   UNL A   1      39.170  29.172  29.192  1.00  0.00     0.074 A 
ATOM     41  C   UNL A   1      38.334  30.688  30.956  1.00  0.00     0.049 A 
ATOM     42  N   UNL A   1      40.243  28.690  29.768  1.00  0.00    -0.248 NA
ATOM     43  C   UNL A   1      38.921  28.634  27.845  1.00  0.00     0.031 C 
ATOM     44  C   UNL A   1      37.409  31.623  31.603  1.00  0.00     0.029 A 
ATOM     45  N   UNL A   1      39.319  30.499  31.894  1.00  0.00    -0.354 N 
ATOM     46  C   UNL A   1      40.786  27.787  28.864  1.00  0.00     0.074 A 
ATOM     47  C   UNL A   1      39.907  27.758  27.715  1.00  0.00     0.031 C 
ATOM     48  C   UNL A   1      37.875  31.932  32.822  1.00  0.00     0.029 A 
ATOM     49  C   UNL A   1      39.104  31.186  33.066  1.00  0.00     0.049 A 
ATOM     50  H   UNL A   1      40.105  29.925  31.742  1.00  0.00     0.167 HD
ATOM     51  C   UNL A   1      41.923  27.061  28.982  1.00  0.00     0.037 A 
ATOM     52  C   UNL A   1      39.805  31.193  34.216  1.00  0.00     0.037 A 
ATOM     53  C   UNL A   1      42.810  27.117  30.115  1.00  0.00     0.049 A 
ATOM     54  C   UNL A   1      41.055  30.360  34.317  1.00  0.00     0.074 A 
ATOM     55  C   UNL A   1      44.032  26.490  30.282  1.00  0.00     0.029 A 
ATOM     56  N   UNL A   1      42.564  27.830  31.279  1.00  0.00    -0.354 N 
ATOM     57  N   UNL A   1      41.610  29.588  33.416  1.00  0.00    -0.248 NA
ATOM     58  C   UNL A   1      41.775  30.399  35.598  1.00  0.00     0.031 C 
ATOM     59  C   UNL A   1      44.496  26.769  31.570  1.00  0.00     0.029 A 
ATOM     60  C   UNL A   1      43.592  27.620  32.184  1.00  0.00     0.049 A 
ATOM     61  H   UNL A   1      41.778  28.400  31.437  1.00  0.00     0.167 HD
ATOM     62  C   UNL A   1      42.752  29.068  34.010  1.00  0.00     0.074 A 
ATOM     63  C   UNL A   1      42.827  29.635  35.339  1.00  0.00     0.031 C 
ATOM     64  C   UNL A   1      43.654  28.193  33.504  1.00  0.00     0.037 A 
BRANCH  51  65
ATOM     65  C   UNL A   1      42.294  26.135  27.860  1.00  0.00     0.064 A 
ATOM     66  C   UNL A   1      41.697  24.874  27.718  1.00  0.00     0.173 A 
ATOM     67  C   UNL A   1      43.179  26.560  26.858  1.00  0.00     0.173 A 
ATOM     68  F   UNL A   1      40.847  24.419  28.651  1.00  0.00    -0.203 F 
ATOM     69  C   UNL A   1      41.977  24.070  26.616  1.00  0.00     0.198 A 
ATOM     70  C   UNL A   1      43.437  25.765  25.745  1.00  0.00     0.198 A 
ATOM     71  F   UNL A   1      43.773  27.760  26.944  1.00  0.00    -0.203 F 
ATOM     72  F   UNL A   1      41.412  22.859  26.510  1.00  0.00    -0.200 F 
ATOM     73  C   UNL A   1      42.837  24.521  25.625  1.00  0.00     0.200 A 
ATOM     74  F   UNL A   1      44.255  26.209  24.780  1.00  0.00    -0.200 F 
ATOM     75  F   UNL A   1      43.086  23.756  24.552  1.00  0.00    -0.200 F 
ENDBRANCH  51  65
BRANCH  52  76
ATOM     76  C   UNL A   1      39.336  31.997  35.378  1.00  0.00     0.064 A 
ATOM     77  C   UNL A   1      38.527  31.428  36.373  1.00  0.00     0.173 A 
ATOM     78  C   UNL A   1      39.645  33.360  35.493  1.00  0.00     0.173 A 
ATOM     79  F   UNL A   1      38.185  30.134  36.299  1.00  0.00    -0.203 F 
ATOM     80  C   UNL A   1      38.014  32.201  37.413  1.00  0.00     0.198 A 
ATOM     81  C   UNL A   1      39.162  34.123  36.553  1.00  0.00     0.198 A 
ATOM     82  F   UNL A   1      40.419  33.955  34.573  1.00  0.00    -0.203 F 
ATOM     83  F   UNL A   1      37.185  31.647  38.309  1.00  0.00    -0.200 F 
ATOM     84  C   UNL A   1      38.334  33.547  37.504  1.00  0.00     0.200 A 
ATOM     85  F   UNL A   1      39.488  35.419  36.646  1.00  0.00    -0.200 F 
ATOM     86  F   UNL A   1      37.834  34.291  38.501  1.00  0.00    -0.200 F 
ENDBRANCH  52  76
BRANCH  64  87
ATOM     87  C   UNL A   1      44.808  27.806  34.384  1.00  0.00     0.064 A 
ATOM     88  C   UNL A   1      45.990  28.559  34.415  1.00  0.00     0.173 A 
ATOM     89  C   UNL A   1      44.715  26.693  35.235  1.00  0.00     0.173 A 
ATOM     90  F   UNL A   1      46.135  29.622  33.608  1.00  0.00    -0.203 F 
ATOM     91  C   UNL A   1      47.049  28.197  35.244  1.00  0.00     0.198 A 
ATOM     92  C   UNL A   1      45.761  26.355  36.088  1.00  0.00     0.198 A 
ATOM     93  F   UNL A   1      43.603  25.943  35.249  1.00  0.00    -0.203 F 
ATOM     94  F   UNL A   1      48.188  28.900  35.218  1.00  0.00    -0.200 F 
ATOM     95  C   UNL A   1      46.930  27.102  36.086  1.00  0.00     0.200 A 
ATOM     96  F   UNL A   1      45.639  25.305  36.912  1.00  0.00    -0.200 F 
ATOM     97  F   UNL A   1      47.946  26.760  36.891  1.00  0.00    -0.200 F 
ENDBRANCH  64  87
ENDBRANCH  38  39
ENDBRANCH  30  33
ENDBRANCH  28  29
ENDBRANCH  27  28
ENDBRANCH  26  27
ENDBRANCH   1  26
TORSDOF 16
ENDMDL
MODEL 2
REMARK VINA RESULT:     -12.3      3.781      7.715
REMARK SMILES C[C@@H](C(=O)NCCCCCCNC(=O)c1ccc(-c2c3nc(c(-c4c(F)c(F)c(F)c(F)c4F)c4ccc([nH]4)c(-c4c(F)c(F)c(F)c(F)c4F)c4nc(c(-c5c(F)c(F)c(F)c(F)c5F)c5ccc2[nH]5)C=C4)C=C3)cc1)c1ccc(-c2ccn(C(F)F)c(=O)c2)cc1
REMARK SMILES IDX 8 1 7 2 6 3 5 4 3 5 4 6 2 8 1 9 78 10 79 11 93 12 80 13
REMARK SMILES IDX 92 14 81 15 82 16 83 17 91 18 84 19 89 20 85 21 90 22 86 23
REMARK SMILES IDX 87 24 88 25 9 26 10 27 11 28 12 29 13 30 14 32 15 33 16 34
REMARK SMILES IDX 77 35 17 36 76 37 18 38 19 39 20 40 70 41 21 42 75 43 69 44
REMARK SMILES IDX 71 45 22 46 74 47 68 48 67 49 23 51 55 52 35 53 54 54 36 55
REMARK SMILES IDX 39 56 53 57 72 58 37 59 38 60 52 62 73 63 40 64 24 65 25 66
REMARK SMILES IDX 33 67 26 68 27 69 31 70 34 71 28 72 29 73 32 74 30 75 56 76
REMARK SMILES IDX 57 77 65 78 58 79 59 80 63 81 66 82 60 83 61 84 64 85 62 86
REMARK SMILES IDX 41 87 42 88 50 89 43 90 44 91 48 92 51 93 45 94 46 95 49 96
REMARK SMILES IDX 47 97
REMARK H PARENT 5 7 12 31 71 50 39 61
REMARK Flexibility Score: inf
ROOT
ATOM      1  C   UNL A   1      34.579  25.351  25.220  1.00  0.00     0.002 C 
ENDROOT
BRANCH   1   2
ATOM      2  C   UNL A   1      33.670  26.345  25.957  1.00  0.00     0.021 C 
BRANCH   2   3
ATOM      3  C   UNL A   1      32.716  27.115  25.041  1.00  0.00     0.116 C 
BRANCH   3   4
ATOM      4  N   UNL A   1      33.422  27.609  23.881  1.00  0.00    -0.356 N 
ATOM      5  C   UNL A   1      33.244  27.346  22.557  1.00  0.00     0.227 C 
ATOM      6  O   UNL A   1      34.099  27.808  21.799  1.00  0.00    -0.274 OA
ATOM      7  H   UNL A   1      34.151  28.240  24.081  1.00  0.00     0.163 HD
BRANCH   5   8
ATOM      8  C   UNL A   1      32.003  26.565  22.082  1.00  0.00     0.105 C 
ATOM      9  C   UNL A   1      30.685  27.120  22.628  1.00  0.00     0.023 C 
BRANCH   8  10
ATOM     10  C   UNL A   1      32.063  25.077  22.416  1.00  0.00    -0.036 A 
ATOM     11  C   UNL A   1      33.113  24.270  21.951  1.00  0.00     0.005 A 
ATOM     12  C   UNL A   1      31.100  24.506  23.259  1.00  0.00     0.005 A 
ATOM     13  C   UNL A   1      33.194  22.924  22.303  1.00  0.00     0.009 A 
ATOM     14  C   UNL A   1      31.190  23.161  23.627  1.00  0.00     0.009 A 
ATOM     15  C   UNL A   1      32.241  22.363  23.157  1.00  0.00    -0.018 A 
BRANCH  15  16
ATOM     16  C   UNL A   1      32.356  20.959  23.590  1.00  0.00    -0.011 A 
ATOM     17  C   UNL A   1      32.637  20.575  24.958  1.00  0.00     0.027 A 
ATOM     18  C   UNL A   1      32.231  20.004  22.653  1.00  0.00     0.080 A 
ATOM     19  C   UNL A   1      32.805  19.286  25.278  1.00  0.00     0.095 A 
ATOM     20  C   UNL A   1      32.399  18.568  22.996  1.00  0.00     0.255 A 
ATOM     21  N   UNL A   1      32.701  18.295  24.321  1.00  0.00    -0.258 N 
ATOM     22  O   UNL A   1      32.275  17.735  22.104  1.00  0.00    -0.269 OA
BRANCH  21  23
ATOM     23  C   UNL A   1      32.932  16.918  24.661  1.00  0.00     0.451 C 
ATOM     24  F   UNL A   1      34.246  16.599  24.570  1.00  0.00    -0.185 F 
ATOM     25  F   UNL A   1      32.523  16.659  25.928  1.00  0.00    -0.185 F 
ENDBRANCH  21  23
ENDBRANCH  15  16
ENDBRANCH   8  10
ENDBRANCH   5   8
ENDBRANCH   3   4
ENDBRANCH   2   3
ENDBRANCH   1   2
BRANCH   1  26
ATOM     26  C   UNL A   1      34.508  23.908  25.727  1.00  0.00     0.002 C 
BRANCH  26  27
ATOM     27  C   UNL A   1      35.638  23.000  25.235  1.00  0.00     0.021 C 
BRANCH  27  28
ATOM     28  C   UNL A   1      37.004  23.673  25.168  1.00  0.00     0.116 C 
BRANCH  28  29
ATOM     29  N   UNL A   1      38.079  22.768  25.546  1.00  0.00    -0.352 N 
ATOM     30  C   UNL A   1      39.249  23.035  26.210  1.00  0.00     0.251 C 
ATOM     31  H   UNL A   1      37.948  21.827  25.288  1.00  0.00     0.163 HD
ATOM     32  O   UNL A   1      40.138  22.189  26.266  1.00  0.00    -0.269 OA
BRANCH  30  33
ATOM     33  C   UNL A   1      39.454  24.358  26.835  1.00  0.00     0.039 A 
ATOM     34  C   UNL A   1      39.064  24.544  28.163  1.00  0.00     0.014 A 
ATOM     35  C   UNL A   1      40.043  25.406  26.121  1.00  0.00     0.014 A 
ATOM     36  C   UNL A   1      39.343  25.754  28.802  1.00  0.00     0.010 A 
ATOM     37  C   UNL A   1      40.382  26.586  26.778  1.00  0.00     0.010 A 
ATOM     38  C   UNL A   1      40.050  26.766  28.130  1.00  0.00    -0.014 A 
BRANCH  38  39
ATOM     39  C   UNL A   1      40.505  27.985  28.845  1.00  0.00     0.031 A 
ATOM     40  C   UNL A   1      41.898  28.073  29.403  1.00  0.00     0.074 A 
ATOM     41  C   UNL A   1      39.627  28.987  29.058  1.00  0.00     0.049 A 
ATOM     42  N   UNL A   1      42.442  29.026  30.118  1.00  0.00    -0.248 NA
ATOM     43  C   UNL A   1      42.793  26.935  29.141  1.00  0.00     0.031 C 
ATOM     44  C   UNL A   1      38.231  28.996  28.611  1.00  0.00     0.029 A 
ATOM     45  N   UNL A   1      39.768  30.183  29.718  1.00  0.00    -0.354 N 
ATOM     46  C   UNL A   1      43.732  28.598  30.402  1.00  0.00     0.074 A 
ATOM     47  C   UNL A   1      43.881  27.284  29.814  1.00  0.00     0.031 C 
ATOM     48  C   UNL A   1      37.651  30.141  28.999  1.00  0.00     0.029 A 
ATOM     49  C   UNL A   1      38.614  30.928  29.761  1.00  0.00     0.049 A 
ATOM     50  H   UNL A   1      40.615  30.477  30.124  1.00  0.00     0.167 HD
ATOM     51  C   UNL A   1      44.704  29.252  31.080  1.00  0.00     0.037 A 
ATOM     52  C   UNL A   1      38.354  32.103  30.368  1.00  0.00     0.037 A 
ATOM     53  C   UNL A   1      44.559  30.573  31.636  1.00  0.00     0.049 A 
ATOM     54  C   UNL A   1      39.454  32.794  31.127  1.00  0.00     0.074 A 
ATOM     55  C   UNL A   1      45.519  31.354  32.256  1.00  0.00     0.029 A 
ATOM     56  N   UNL A   1      43.380  31.301  31.652  1.00  0.00    -0.354 N 
ATOM     57  N   UNL A   1      40.700  32.424  31.301  1.00  0.00    -0.248 NA
ATOM     58  C   UNL A   1      39.113  34.068  31.777  1.00  0.00     0.031 C 
ATOM     59  C   UNL A   1      44.906  32.527  32.706  1.00  0.00     0.029 A 
ATOM     60  C   UNL A   1      43.578  32.503  32.312  1.00  0.00     0.049 A 
ATOM     61  H   UNL A   1      42.529  31.008  31.253  1.00  0.00     0.167 HD
ATOM     62  C   UNL A   1      41.293  33.425  32.058  1.00  0.00     0.074 A 
ATOM     63  C   UNL A   1      40.281  34.433  32.286  1.00  0.00     0.031 C 
ATOM     64  C   UNL A   1      42.561  33.498  32.531  1.00  0.00     0.037 A 
BRANCH  51  65
ATOM     65  C   UNL A   1      46.026  28.565  31.266  1.00  0.00     0.064 A 
ATOM     66  C   UNL A   1      47.094  28.770  30.381  1.00  0.00     0.173 A 
ATOM     67  C   UNL A   1      46.256  27.777  32.403  1.00  0.00     0.173 A 
ATOM     68  F   UNL A   1      46.923  29.511  29.276  1.00  0.00    -0.203 F 
ATOM     69  C   UNL A   1      48.343  28.205  30.625  1.00  0.00     0.198 A 
ATOM     70  C   UNL A   1      47.513  27.235  32.657  1.00  0.00     0.198 A 
ATOM     71  F   UNL A   1      45.269  27.555  33.285  1.00  0.00    -0.203 F 
ATOM     72  F   UNL A   1      49.344  28.395  29.754  1.00  0.00    -0.200 F 
ATOM     73  C   UNL A   1      48.555  27.448  31.768  1.00  0.00     0.200 A 
ATOM     74  F   UNL A   1      47.720  26.519  33.771  1.00  0.00    -0.200 F 
ATOM     75  F   UNL A   1      49.765  26.926  32.014  1.00  0.00    -0.200 F 
ENDBRANCH  51  65
BRANCH  52  76
ATOM     76  C   UNL A   1      36.990  32.697  30.307  1.00  0.00     0.064 A 
ATOM     77  C   UNL A   1      36.618  33.548  29.256  1.00  0.00     0.173 A 
ATOM     78  C   UNL A   1      36.049  32.467  31.321  1.00  0.00     0.173 A 
ATOM     79  F   UNL A   1      37.488  33.817  28.272  1.00  0.00    -0.203 F 
ATOM     80  C   UNL A   1      35.372  34.175  29.243  1.00  0.00     0.198 A 
ATOM     81  C   UNL A   1      34.792  33.065  31.289  1.00  0.00     0.198 A 
ATOM     82  F   UNL A   1      36.350  31.658  32.347  1.00  0.00    -0.203 F 
ATOM     83  F   UNL A   1      35.071  35.039  28.265  1.00  0.00    -0.200 F 
ATOM     84  C   UNL A   1      34.460  33.931  30.259  1.00  0.00     0.200 A 
ATOM     85  F   UNL A   1      33.907  32.812  32.263  1.00  0.00    -0.200 F 
ATOM     86  F   UNL A   1      33.266  34.540  30.250  1.00  0.00    -0.200 F 
ENDBRANCH  52  76
BRANCH  64  87
ATOM     87  C   UNL A   1      42.930  34.717  33.328  1.00  0.00     0.064 A 
ATOM     88  C   UNL A   1      42.879  34.718  34.729  1.00  0.00     0.173 A 
ATOM     89  C   UNL A   1      43.376  35.882  32.685  1.00  0.00     0.173 A 
ATOM     90  F   UNL A   1      42.443  33.635  35.391  1.00  0.00    -0.203 F 
ATOM     91  C   UNL A   1      43.236  35.850  35.458  1.00  0.00     0.198 A 
ATOM     92  C   UNL A   1      43.765  36.999  33.418  1.00  0.00     0.198 A 
ATOM     93  F   UNL A   1      43.450  35.931  31.347  1.00  0.00    -0.203 F 
ATOM     94  F   UNL A   1      43.129  35.846  36.793  1.00  0.00    -0.200 F 
ATOM     95  C   UNL A   1      43.687  36.985  34.802  1.00  0.00     0.200 A 
ATOM     96  F   UNL A   1      44.216  38.091  32.783  1.00  0.00    -0.200 F 
ATOM     97  F   UNL A   1      44.039  38.071  35.505  1.00  0.00    -0.200 F 
ENDBRANCH  64  87
ENDBRANCH  38  39
ENDBRANCH  30  33
ENDBRANCH  28  29
ENDBRANCH  27  28
ENDBRANCH  26  27
ENDBRANCH   1  26
TORSDOF 16
ENDMDL
MODEL 3
REMARK VINA RESULT:     -12.3      0.978      2.217
REMARK SMILES C[C@@H](C(=O)NCCCCCCNC(=O)c1ccc(-c2c3nc(c(-c4c(F)c(F)c(F)c(F)c4F)c4ccc([nH]4)c(-c4c(F)c(F)c(F)c(F)c4F)c4nc(c(-c5c(F)c(F)c(F)c(F)c5F)c5ccc2[nH]5)C=C4)C=C3)cc1)c1ccc(-c2ccn(C(F)F)c(=O)c2)cc1
REMARK SMILES IDX 8 1 7 2 6 3 5 4 3 5 4 6 2 8 1 9 78 10 79 11 93 12 80 13
REMARK SMILES IDX 92 14 81 15 82 16 83 17 91 18 84 19 89 20 85 21 90 22 86 23
REMARK SMILES IDX 87 24 88 25 9 26 10 27 11 28 12 29 13 30 14 32 15 33 16 34
REMARK SMILES IDX 77 35 17 36 76 37 18 38 19 39 20 40 70 41 21 42 75 43 69 44
REMARK SMILES IDX 71 45 22 46 74 47 68 48 67 49 23 51 55 52 35 53 54 54 36 55
REMARK SMILES IDX 39 56 53 57 72 58 37 59 38 60 52 62 73 63 40 64 24 65 25 66
REMARK SMILES IDX 33 67 26 68 27 69 31 70 34 71 28 72 29 73 32 74 30 75 56 76
REMARK SMILES IDX 57 77 65 78 58 79 59 80 63 81 66 82 60 83 61 84 64 85 62 86
REMARK SMILES IDX 41 87 42 88 50 89 43 90 44 91 48 92 51 93 45 94 46 95 49 96
REMARK SMILES IDX 47 97
REMARK H PARENT 5 7 12 31 71 50 39 61
REMARK Flexibility Score: inf
ROOT
ATOM      1  C   UNL A   1      33.543  26.920  24.658  1.00  0.00     0.002 C 
ENDROOT
BRANCH   1   2
ATOM      2  C   UNL A   1      34.018  26.043  25.825  1.00  0.00     0.021 C 
BRANCH   2   3
ATOM      3  C   UNL A   1      34.100  24.552  25.492  1.00  0.00     0.116 C 
BRANCH   3   4
ATOM      4  N   UNL A   1      33.744  23.758  26.647  1.00  0.00    -0.356 N 
ATOM      5  C   UNL A   1      32.657  22.972  26.881  1.00  0.00     0.227 C 
ATOM      6  O   UNL A   1      32.554  22.527  28.026  1.00  0.00    -0.274 OA
ATOM      7  H   UNL A   1      34.395  23.792  27.386  1.00  0.00     0.163 HD
BRANCH   5   8
ATOM      8  C   UNL A   1      31.679  22.643  25.737  1.00  0.00     0.105 C 
ATOM      9  C   UNL A   1      32.300  21.790  24.627  1.00  0.00     0.023 C 
BRANCH   8  10
ATOM     10  C   UNL A   1      31.064  23.882  25.093  1.00  0.00    -0.036 A 
ATOM     11  C   UNL A   1      30.491  24.898  25.873  1.00  0.00     0.005 A 
ATOM     12  C   UNL A   1      31.130  24.059  23.704  1.00  0.00     0.005 A 
ATOM     13  C   UNL A   1      29.980  26.053  25.285  1.00  0.00     0.009 A 
ATOM     14  C   UNL A   1      30.634  25.224  23.115  1.00  0.00     0.009 A 
ATOM     15  C   UNL A   1      30.063  26.232  23.902  1.00  0.00    -0.018 A 
BRANCH  15  16
ATOM     16  C   UNL A   1      29.588  27.479  23.277  1.00  0.00    -0.011 A 
ATOM     17  C   UNL A   1      30.441  28.340  22.483  1.00  0.00     0.027 A 
ATOM     18  C   UNL A   1      28.313  27.842  23.497  1.00  0.00     0.080 A 
ATOM     19  C   UNL A   1      29.975  29.499  22.003  1.00  0.00     0.095 A 
ATOM     20  C   UNL A   1      27.776  29.119  22.957  1.00  0.00     0.255 A 
ATOM     21  N   UNL A   1      28.672  29.895  22.240  1.00  0.00    -0.258 N 
ATOM     22  O   UNL A   1      26.604  29.403  23.186  1.00  0.00    -0.269 OA
BRANCH  21  23
ATOM     23  C   UNL A   1      28.192  31.165  21.765  1.00  0.00     0.451 C 
ATOM     24  F   UNL A   1      28.670  32.187  22.515  1.00  0.00    -0.185 F 
ATOM     25  F   UNL A   1      28.571  31.372  20.479  1.00  0.00    -0.185 F 
ENDBRANCH  21  23
ENDBRANCH  15  16
ENDBRANCH   8  10
ENDBRANCH   5   8
ENDBRANCH   3   4
ENDBRANCH   2   3
ENDBRANCH   1   2
BRANCH   1  26
ATOM     26  C   UNL A   1      33.755  28.425  24.848  1.00  0.00     0.002 C 
BRANCH  26  27
ATOM     27  C   UNL A   1      32.476  29.222  25.116  1.00  0.00     0.021 C 
BRANCH  27  28
ATOM     28  C   UNL A   1      32.316  29.694  26.558  1.00  0.00     0.116 C 
BRANCH  28  29
ATOM     29  N   UNL A   1      32.203  31.141  26.651  1.00  0.00    -0.352 N 
ATOM     30  C   UNL A   1      33.032  32.041  27.271  1.00  0.00     0.251 C 
ATOM     31  H   UNL A   1      31.417  31.531  26.205  1.00  0.00     0.163 HD
ATOM     32  O   UNL A   1      32.678  33.207  27.426  1.00  0.00    -0.269 OA
BRANCH  30  33
ATOM     33  C   UNL A   1      34.347  31.600  27.780  1.00  0.00     0.039 A 
ATOM     34  C   UNL A   1      35.351  32.552  27.969  1.00  0.00     0.014 A 
ATOM     35  C   UNL A   1      34.584  30.256  28.086  1.00  0.00     0.014 A 
ATOM     36  C   UNL A   1      36.565  32.171  28.545  1.00  0.00     0.010 A 
ATOM     37  C   UNL A   1      35.767  29.890  28.723  1.00  0.00     0.010 A 
ATOM     38  C   UNL A   1      36.763  30.847  28.974  1.00  0.00    -0.014 A 
BRANCH  38  39
ATOM     39  C   UNL A   1      37.975  30.465  29.743  1.00  0.00     0.031 A 
ATOM     40  C   UNL A   1      38.962  29.482  29.182  1.00  0.00     0.074 A 
ATOM     41  C   UNL A   1      38.142  30.954  30.989  1.00  0.00     0.049 A 
ATOM     42  N   UNL A   1      40.034  28.977  29.741  1.00  0.00    -0.248 NA
ATOM     43  C   UNL A   1      38.705  28.982  27.821  1.00  0.00     0.031 C 
ATOM     44  C   UNL A   1      37.225  31.877  31.664  1.00  0.00     0.029 A 
ATOM     45  N   UNL A   1      39.128  30.733  31.919  1.00  0.00    -0.354 N 
ATOM     46  C   UNL A   1      40.567  28.095  28.811  1.00  0.00     0.074 A 
ATOM     47  C   UNL A   1      39.685  28.103  27.664  1.00  0.00     0.031 C 
ATOM     48  C   UNL A   1      37.697  32.149  32.890  1.00  0.00     0.029 A 
ATOM     49  C   UNL A   1      38.921  31.389  33.110  1.00  0.00     0.049 A 
ATOM     50  H   UNL A   1      39.909  30.158  31.749  1.00  0.00     0.167 HD
ATOM     51  C   UNL A   1      41.700  27.358  28.905  1.00  0.00     0.037 A 
ATOM     52  C   UNL A   1      39.626  31.360  34.258  1.00  0.00     0.037 A 
ATOM     53  C   UNL A   1      42.590  27.377  30.037  1.00  0.00     0.049 A 
ATOM     54  C   UNL A   1      40.870  30.516  34.331  1.00  0.00     0.074 A 
ATOM     55  C   UNL A   1      43.809  26.737  30.182  1.00  0.00     0.029 A 
ATOM     56  N   UNL A   1      42.353  28.060  31.220  1.00  0.00    -0.354 N 
ATOM     57  N   UNL A   1      41.418  29.765  33.407  1.00  0.00    -0.248 NA
ATOM     58  C   UNL A   1      41.595  30.514  35.611  1.00  0.00     0.031 C 
ATOM     59  C   UNL A   1      44.279  26.979  31.476  1.00  0.00     0.029 A 
ATOM     60  C   UNL A   1      43.383  27.818  32.116  1.00  0.00     0.049 A 
ATOM     61  H   UNL A   1      41.571  28.631  31.397  1.00  0.00     0.167 HD
ATOM     62  C   UNL A   1      42.558  29.222  33.983  1.00  0.00     0.074 A 
ATOM     63  C   UNL A   1      42.640  29.751  35.328  1.00  0.00     0.031 C 
ATOM     64  C   UNL A   1      43.452  28.354  33.451  1.00  0.00     0.037 A 
BRANCH  51  65
ATOM     65  C   UNL A   1      42.061  26.461  27.757  1.00  0.00     0.064 A 
ATOM     66  C   UNL A   1      43.016  26.836  26.801  1.00  0.00     0.173 A 
ATOM     67  C   UNL A   1      41.521  25.169  27.675  1.00  0.00     0.173 A 
ATOM     68  F   UNL A   1      43.558  28.063  26.832  1.00  0.00    -0.203 F 
ATOM     69  C   UNL A   1      43.412  25.952  25.801  1.00  0.00     0.198 A 
ATOM     70  C   UNL A   1      41.939  24.278  26.690  1.00  0.00     0.198 A 
ATOM     71  F   UNL A   1      40.608  24.758  28.569  1.00  0.00    -0.203 F 
ATOM     72  F   UNL A   1      44.311  26.338  24.884  1.00  0.00    -0.200 F 
ATOM     73  C   UNL A   1      42.883  24.670  25.754  1.00  0.00     0.200 A 
ATOM     74  F   UNL A   1      41.439  23.035  26.657  1.00  0.00    -0.200 F 
ATOM     75  F   UNL A   1      43.285  23.811  24.806  1.00  0.00    -0.200 F 
ENDBRANCH  51  65
BRANCH  52  76
ATOM     76  C   UNL A   1      39.166  32.134  35.443  1.00  0.00     0.064 A 
ATOM     77  C   UNL A   1      39.517  33.482  35.607  1.00  0.00     0.173 A 
ATOM     78  C   UNL A   1      38.411  31.531  36.459  1.00  0.00     0.173 A 
ATOM     79  F   UNL A   1      40.256  34.100  34.675  1.00  0.00    -0.203 F 
ATOM     80  C   UNL A   1      39.163  34.183  36.759  1.00  0.00     0.198 A 
ATOM     81  C   UNL A   1      38.026  32.243  37.592  1.00  0.00     0.198 A 
ATOM     82  F   UNL A   1      38.043  30.245  36.352  1.00  0.00    -0.203 F 
ATOM     83  F   UNL A   1      39.573  35.448  36.921  1.00  0.00    -0.200 F 
ATOM     84  C   UNL A   1      38.416  33.564  37.749  1.00  0.00     0.200 A 
ATOM     85  F   UNL A   1      37.289  31.645  38.538  1.00  0.00    -0.200 F 
ATOM     86  F   UNL A   1      38.082  34.236  38.859  1.00  0.00    -0.200 F 
ENDBRANCH  52  76
BRANCH  64  87
ATOM     87  C   UNL A   1      44.606  27.935  34.316  1.00  0.00     0.064 A 
ATOM     88  C   UNL A   1      44.557  26.763  35.085  1.00  0.00     0.173 A 
ATOM     89  C   UNL A   1      45.787  28.693  34.347  1.00  0.00     0.173 A 
ATOM     90  F   UNL A   1      43.445  26.012  35.103  1.00  0.00    -0.203 F 
ATOM     91  C   UNL A   1      45.639  26.378  35.874  1.00  0.00     0.198 A 
ATOM     92  C   UNL A   1      46.878  28.287  35.110  1.00  0.00     0.198 A 
ATOM     93  F   UNL A   1      45.888  29.819  33.626  1.00  0.00    -0.203 F 
ATOM     94  F   UNL A   1      45.550  25.283  36.640  1.00  0.00    -0.200 F 
ATOM     95  C   UNL A   1      46.800  27.135  35.878  1.00  0.00     0.200 A 
ATOM     96  F   UNL A   1      48.006  29.011  35.101  1.00  0.00    -0.200 F 
ATOM     97  F   UNL A   1      47.844  26.759  36.630  1.00  0.00    -0.200 F 
ENDBRANCH  64  87
ENDBRANCH  38  39
ENDBRANCH  30  33
ENDBRANCH  28  29
ENDBRANCH  27  28
ENDBRANCH  26  27
ENDBRANCH   1  26
TORSDOF 16
ENDMDL
