MODEL 1
REMARK VINA RESULT:     -13.2      0.000      0.000
REMARK SMILES COc1cc2ccccc2cc1C(=O)Nc1cc(C(=O)NCCCCCCNC(=O)c2ccc(-c3c4nc(c(-c5c(F)c(F)c(F)c(F)c5F)c5ccc([nH]5)c(-c5c(F)c(F)c(F)c(F)c5F)c5nc(c(-c6c(F)c(F)c(F)c(F)c6F)c6ccc3[nH]6)C=C5)C=C4)cc2)ccc1C
REMARK SMILES IDX 24 1 23 2 22 3 21 4 19 5 20 6 18 8 16 9 17 10 96 11 95 12
REMARK SMILES IDX 97 13 94 14 15 15 13 16 14 17 12 19 3 20 4 21 5 22 11 23
REMARK SMILES IDX 6 24 10 25 7 26 9 27 8 28 2 29 1 30 25 31 26 32 27 33 28 34
REMARK SMILES IDX 29 35 30 37 31 38 32 39 93 40 33 41 92 42 34 43 35 44 36 45
REMARK SMILES IDX 86 46 37 47 91 48 85 49 87 50 38 51 90 52 84 53 83 54 39 56
REMARK SMILES IDX 71 57 51 58 70 59 52 60 55 61 69 62 88 63 53 64 54 65 68 67
REMARK SMILES IDX 89 68 56 69 40 70 41 71 49 72 42 73 43 74 47 75 50 76 44 77
REMARK SMILES IDX 45 78 48 79 46 80 72 81 73 82 81 83 74 84 75 85 79 86 82 87
REMARK SMILES IDX 76 88 77 89 80 90 78 91 57 92 58 93 66 94 59 95 60 96 64 97
REMARK SMILES IDX 67 98 61 99 62 100 65 101 63 102
REMARK H PARENT 21 7 15 18 28 36 87 55 55 66
REMARK Flexibility Score: inf
ROOT
ATOM      1  C   UNL A   1      33.653  27.948  24.871  1.00  0.00     0.002 C 
ENDROOT
BRANCH   1   2
ATOM      2  C   UNL A   1      33.953  26.623  25.587  1.00  0.00     0.021 C 
BRANCH   2   3
ATOM      3  C   UNL A   1      34.471  25.527  24.655  1.00  0.00     0.116 C 
BRANCH   3   4
ATOM      4  N   UNL A   1      35.687  24.935  25.168  1.00  0.00    -0.352 N 
ATOM      5  C   UNL A   1      36.025  23.688  25.629  1.00  0.00     0.251 C 
ATOM      6  O   UNL A   1      37.194  23.544  25.997  1.00  0.00    -0.269 OA
ATOM      7  H   UNL A   1      36.441  25.568  25.191  1.00  0.00     0.163 HD
BRANCH   5   8
ATOM      8  C   UNL A   1      35.114  22.502  25.663  1.00  0.00     0.041 A 
ATOM      9  C   UNL A   1      32.994  21.377  26.065  1.00  0.00     0.045 A 
ATOM     10  C   UNL A   1      33.868  22.452  26.286  1.00  0.00     0.040 A 
ATOM     11  C   UNL A   1      33.450  20.208  25.433  1.00  0.00    -0.027 A 
ATOM     12  C   UNL A   1      34.733  20.223  24.872  1.00  0.00     0.006 A 
ATOM     13  C   UNL A   1      32.585  19.007  25.167  1.00  0.00     0.046 C 
ATOM     14  C   UNL A   1      35.536  21.365  24.955  1.00  0.00     0.014 A 
BRANCH   9  15
ATOM     15  N   UNL A   1      31.637  21.496  26.401  1.00  0.00    -0.322 N 
ATOM     16  C   UNL A   1      30.698  22.444  26.042  1.00  0.00     0.259 C 
ATOM     17  O   UNL A   1      29.611  22.410  26.625  1.00  0.00    -0.269 OA
ATOM     18  H   UNL A   1      31.296  20.784  26.991  1.00  0.00     0.170 HD
BRANCH  16  19
ATOM     19  C   UNL A   1      30.873  23.463  24.955  1.00  0.00     0.082 A 
ATOM     20  C   UNL A   1      31.337  23.230  23.653  1.00  0.00     0.132 A 
ATOM     21  C   UNL A   1      31.554  24.297  22.768  1.00  0.00     0.056 A 
ATOM     22  C   UNL A   1      31.176  25.601  23.102  1.00  0.00    -0.015 A 
ATOM     23  C   UNL A   1      30.444  24.770  25.265  1.00  0.00     0.026 A 
ATOM     24  C   UNL A   1      31.365  26.668  22.209  1.00  0.00     0.009 A 
ATOM     25  C   UNL A   1      30.562  25.834  24.349  1.00  0.00    -0.017 A 
ATOM     26  C   UNL A   1      30.901  27.945  22.521  1.00  0.00     0.001 A 
ATOM     27  C   UNL A   1      30.084  27.123  24.640  1.00  0.00     0.009 A 
ATOM     28  C   UNL A   1      30.243  28.167  23.727  1.00  0.00     0.001 A 
BRANCH  20  29
ATOM     29  O   UNL A   1      31.670  22.003  23.153  1.00  0.00    -0.496 OA
ATOM     30  C   UNL A   1      32.829  22.073  22.330  1.00  0.00     0.278 C 
ENDBRANCH  20  29
ENDBRANCH  16  19
ENDBRANCH   9  15
ENDBRANCH   5   8
ENDBRANCH   3   4
ENDBRANCH   2   3
ENDBRANCH   1   2
BRANCH   1  31
ATOM     31  C   UNL A   1      33.406  29.168  25.780  1.00  0.00     0.002 C 
BRANCH  31  32
ATOM     32  C   UNL A   1      34.522  29.499  26.775  1.00  0.00     0.021 C 
BRANCH  32  33
ATOM     33  C   UNL A   1      34.022  30.113  28.076  1.00  0.00     0.116 C 
BRANCH  33  34
ATOM     34  N   UNL A   1      34.833  31.227  28.551  1.00  0.00    -0.352 N 
ATOM     35  C   UNL A   1      36.143  31.246  29.007  1.00  0.00     0.251 C 
ATOM     36  H   UNL A   1      34.381  32.101  28.547  1.00  0.00     0.163 HD
ATOM     37  O   UNL A   1      36.630  32.272  29.433  1.00  0.00    -0.269 OA
BRANCH  35  38
ATOM     38  C   UNL A   1      36.986  30.035  28.836  1.00  0.00     0.039 A 
ATOM     39  C   UNL A   1      37.069  29.147  29.917  1.00  0.00     0.014 A 
ATOM     40  C   UNL A   1      37.833  29.891  27.742  1.00  0.00     0.014 A 
ATOM     41  C   UNL A   1      38.164  28.294  30.017  1.00  0.00     0.010 A 
ATOM     42  C   UNL A   1      38.968  29.122  27.884  1.00  0.00     0.010 A 
ATOM     43  C   UNL A   1      39.168  28.389  29.059  1.00  0.00    -0.014 A 
BRANCH  43  44
ATOM     44  C   UNL A   1      40.515  27.873  29.253  1.00  0.00     0.031 A 
ATOM     45  C   UNL A   1      40.854  26.498  28.844  1.00  0.00     0.074 A 
ATOM     46  C   UNL A   1      41.478  28.736  29.653  1.00  0.00     0.049 A 
ATOM     47  N   UNL A   1      41.954  25.904  29.162  1.00  0.00    -0.248 NA
ATOM     48  C   UNL A   1      39.939  25.641  28.092  1.00  0.00     0.031 C 
ATOM     49  C   UNL A   1      42.926  28.579  29.535  1.00  0.00     0.029 A 
ATOM     50  N   UNL A   1      41.319  29.878  30.460  1.00  0.00    -0.354 N 
ATOM     51  C   UNL A   1      42.038  24.771  28.392  1.00  0.00     0.074 A 
ATOM     52  C   UNL A   1      40.709  24.569  27.879  1.00  0.00     0.031 C 
ATOM     53  C   UNL A   1      43.524  29.366  30.444  1.00  0.00     0.029 A 
ATOM     54  C   UNL A   1      42.472  29.910  31.283  1.00  0.00     0.049 A 
ATOM     55  H   UNL A   1      40.570  30.517  30.453  1.00  0.00     0.167 HD
ATOM     56  C   UNL A   1      43.271  24.249  28.145  1.00  0.00     0.037 A 
ATOM     57  C   UNL A   1      42.387  29.722  32.633  1.00  0.00     0.037 A 
ATOM     58  C   UNL A   1      44.257  24.782  29.086  1.00  0.00     0.049 A 
ATOM     59  C   UNL A   1      43.204  28.556  33.143  1.00  0.00     0.074 A 
ATOM     60  C   UNL A   1      45.317  25.663  28.965  1.00  0.00     0.029 A 
ATOM     61  N   UNL A   1      44.048  24.601  30.453  1.00  0.00    -0.354 N 
ATOM     62  N   UNL A   1      43.606  27.567  32.393  1.00  0.00    -0.248 NA
ATOM     63  C   UNL A   1      43.598  28.397  34.539  1.00  0.00     0.031 C 
ATOM     64  C   UNL A   1      45.662  26.104  30.272  1.00  0.00     0.029 A 
ATOM     65  C   UNL A   1      44.852  25.450  31.185  1.00  0.00     0.049 A 
ATOM     66  H   UNL A   1      43.415  23.956  30.841  1.00  0.00     0.167 HD
ATOM     67  C   UNL A   1      44.270  26.652  33.163  1.00  0.00     0.074 A 
ATOM     68  C   UNL A   1      44.254  27.223  34.497  1.00  0.00     0.031 C 
ATOM     69  C   UNL A   1      44.763  25.491  32.639  1.00  0.00     0.037 A 
BRANCH  56  70
ATOM     70  C   UNL A   1      43.639  23.435  26.918  1.00  0.00     0.064 A 
ATOM     71  C   UNL A   1      43.237  22.085  26.819  1.00  0.00     0.173 A 
ATOM     72  C   UNL A   1      44.507  23.861  25.886  1.00  0.00     0.173 A 
ATOM     73  F   UNL A   1      42.420  21.537  27.731  1.00  0.00    -0.203 F 
ATOM     74  C   UNL A   1      43.679  21.238  25.794  1.00  0.00     0.198 A 
ATOM     75  C   UNL A   1      44.904  23.031  24.834  1.00  0.00     0.198 A 
ATOM     76  F   UNL A   1      45.068  25.074  25.874  1.00  0.00    -0.203 F 
ATOM     77  F   UNL A   1      43.316  19.948  25.791  1.00  0.00    -0.200 F 
ATOM     78  C   UNL A   1      44.505  21.715  24.795  1.00  0.00     0.200 A 
ATOM     79  F   UNL A   1      45.710  23.515  23.877  1.00  0.00    -0.200 F 
ATOM     80  F   UNL A   1      44.931  20.907  23.815  1.00  0.00    -0.200 F 
ENDBRANCH  56  70
BRANCH  57  81
ATOM     81  C   UNL A   1      41.086  30.162  33.204  1.00  0.00     0.064 A 
ATOM     82  C   UNL A   1      40.845  31.544  33.330  1.00  0.00     0.173 A 
ATOM     83  C   UNL A   1      39.980  29.306  33.246  1.00  0.00     0.173 A 
ATOM     84  F   UNL A   1      41.873  32.408  33.300  1.00  0.00    -0.203 F 
ATOM     85  C   UNL A   1      39.549  32.053  33.363  1.00  0.00     0.198 A 
ATOM     86  C   UNL A   1      38.682  29.819  33.297  1.00  0.00     0.198 A 
ATOM     87  F   UNL A   1      40.141  27.981  33.118  1.00  0.00    -0.203 F 
ATOM     88  F   UNL A   1      39.352  33.380  33.358  1.00  0.00    -0.200 F 
ATOM     89  C   UNL A   1      38.468  31.190  33.316  1.00  0.00     0.200 A 
ATOM     90  F   UNL A   1      37.634  28.987  33.223  1.00  0.00    -0.200 F 
ATOM     91  F   UNL A   1      37.222  31.677  33.243  1.00  0.00    -0.200 F 
ENDBRANCH  57  81
BRANCH  69  92
ATOM     92  C   UNL A   1      45.277  24.323  33.444  1.00  0.00     0.064 A 
ATOM     93  C   UNL A   1      44.541  23.146  33.676  1.00  0.00     0.173 A 
ATOM     94  C   UNL A   1      46.618  24.300  33.896  1.00  0.00     0.173 A 
ATOM     95  F   UNL A   1      43.304  22.991  33.187  1.00  0.00    -0.203 F 
ATOM     96  C   UNL A   1      45.081  22.062  34.373  1.00  0.00     0.198 A 
ATOM     97  C   UNL A   1      47.171  23.194  34.540  1.00  0.00     0.198 A 
ATOM     98  F   UNL A   1      47.438  25.344  33.701  1.00  0.00    -0.203 F 
ATOM     99  F   UNL A   1      44.324  20.981  34.608  1.00  0.00    -0.200 F 
ATOM    100  C   UNL A   1      46.397  22.081  34.796  1.00  0.00     0.200 A 
ATOM    101  F   UNL A   1      48.464  23.207  34.895  1.00  0.00    -0.200 F 
ATOM    102  F   UNL A   1      46.922  21.023  35.427  1.00  0.00    -0.200 F 
ENDBRANCH  69  92
ENDBRANCH  43  44
ENDBRANCH  35  38
ENDBRANCH  33  34
ENDBRANCH  32  33
ENDBRANCH  31  32
ENDBRANCH   1  31
TORSDOF 16
ENDMDL
MODEL 2
REMARK VINA RESULT:     -13.1      3.785      9.771
REMARK SMILES COc1cc2ccccc2cc1C(=O)Nc1cc(C(=O)NCCCCCCNC(=O)c2ccc(-c3c4nc(c(-c5c(F)c(F)c(F)c(F)c5F)c5ccc([nH]5)c(-c5c(F)c(F)c(F)c(F)c5F)c5nc(c(-c6c(F)c(F)c(F)c(F)c6F)c6ccc3[nH]6)C=C5)C=C4)cc2)ccc1C
REMARK SMILES IDX 24 1 23 2 22 3 21 4 19 5 20 6 18 8 16 9 17 10 96 11 95 12
REMARK SMILES IDX 97 13 94 14 15 15 13 16 14 17 12 19 3 20 4 21 5 22 11 23
REMARK SMILES IDX 6 24 10 25 7 26 9 27 8 28 2 29 1 30 25 31 26 32 27 33 28 34
REMARK SMILES IDX 29 35 30 37 31 38 32 39 93 40 33 41 92 42 34 43 35 44 36 45
REMARK SMILES IDX 86 46 37 47 91 48 85 49 87 50 38 51 90 52 84 53 83 54 39 56
REMARK SMILES IDX 71 57 51 58 70 59 52 60 55 61 69 62 88 63 53 64 54 65 68 67
REMARK SMILES IDX 89 68 56 69 40 70 41 71 49 72 42 73 43 74 47 75 50 76 44 77
REMARK SMILES IDX 45 78 48 79 46 80 72 81 73 82 81 83 74 84 75 85 79 86 82 87
REMARK SMILES IDX 76 88 77 89 80 90 78 91 57 92 58 93 66 94 59 95 60 96 64 97
REMARK SMILES IDX 67 98 61 99 62 100 65 101 63 102
REMARK H PARENT 21 7 15 18 28 36 87 55 55 66
REMARK Flexibility Score: inf
ROOT
ATOM      1  C   UNL A   1      36.560  22.358  24.116  1.00  0.00     0.002 C 
ENDROOT
BRANCH   1   2
ATOM      2  C   UNL A   1      36.639  20.942  24.707  1.00  0.00     0.021 C 
BRANCH   2   3
ATOM      3  C   UNL A   1      35.294  20.412  25.208  1.00  0.00     0.116 C 
BRANCH   3   4
ATOM      4  N   UNL A   1      34.931  21.019  26.470  1.00  0.00    -0.352 N 
ATOM      5  C   UNL A   1      34.079  22.030  26.836  1.00  0.00     0.251 C 
ATOM      6  O   UNL A   1      34.025  22.283  28.043  1.00  0.00    -0.269 OA
ATOM      7  H   UNL A   1      35.399  20.616  27.238  1.00  0.00     0.163 HD
BRANCH   5   8
ATOM      8  C   UNL A   1      33.190  22.792  25.906  1.00  0.00     0.041 A 
ATOM      9  C   UNL A   1      32.733  24.227  23.995  1.00  0.00     0.045 A 
ATOM     10  C   UNL A   1      33.611  23.740  24.975  1.00  0.00     0.040 A 
ATOM     11  C   UNL A   1      31.354  23.978  24.089  1.00  0.00    -0.027 A 
ATOM     12  C   UNL A   1      30.913  23.085  25.074  1.00  0.00     0.006 A 
ATOM     13  C   UNL A   1      30.343  24.470  23.090  1.00  0.00     0.046 C 
ATOM     14  C   UNL A   1      31.823  22.475  25.943  1.00  0.00     0.014 A 
BRANCH   9  15
ATOM     15  N   UNL A   1      33.239  24.896  22.870  1.00  0.00    -0.322 N 
ATOM     16  C   UNL A   1      33.203  26.234  22.525  1.00  0.00     0.259 C 
ATOM     17  O   UNL A   1      33.571  26.532  21.385  1.00  0.00    -0.269 OA
ATOM     18  H   UNL A   1      33.695  24.317  22.218  1.00  0.00     0.170 HD
BRANCH  16  19
ATOM     19  C   UNL A   1      32.820  27.353  23.447  1.00  0.00     0.082 A 
ATOM     20  C   UNL A   1      31.647  28.119  23.397  1.00  0.00     0.132 A 
ATOM     21  C   UNL A   1      31.466  29.210  24.259  1.00  0.00     0.056 A 
ATOM     22  C   UNL A   1      32.374  29.477  25.289  1.00  0.00    -0.015 A 
ATOM     23  C   UNL A   1      33.704  27.593  24.519  1.00  0.00     0.026 A 
ATOM     24  C   UNL A   1      32.183  30.550  26.172  1.00  0.00     0.009 A 
ATOM     25  C   UNL A   1      33.484  28.623  25.456  1.00  0.00    -0.017 A 
ATOM     26  C   UNL A   1      33.050  30.748  27.247  1.00  0.00     0.001 A 
ATOM     27  C   UNL A   1      34.336  28.825  26.554  1.00  0.00     0.009 A 
ATOM     28  C   UNL A   1      34.113  29.874  27.449  1.00  0.00     0.001 A 
BRANCH  20  29
ATOM     29  O   UNL A   1      30.632  27.929  22.503  1.00  0.00    -0.496 OA
ATOM     30  C   UNL A   1      29.360  28.161  23.100  1.00  0.00     0.278 C 
ENDBRANCH  20  29
ENDBRANCH  16  19
ENDBRANCH   9  15
ENDBRANCH   5   8
ENDBRANCH   3   4
ENDBRANCH   2   3
ENDBRANCH   1   2
BRANCH   1  31
ATOM     31  C   UNL A   1      37.122  23.491  24.997  1.00  0.00     0.002 C 
BRANCH  31  32
ATOM     32  C   UNL A   1      38.083  23.060  26.110  1.00  0.00     0.021 C 
BRANCH  32  33
ATOM     33  C   UNL A   1      39.550  23.287  25.775  1.00  0.00     0.116 C 
BRANCH  33  34
ATOM     34  N   UNL A   1      40.453  23.053  26.896  1.00  0.00    -0.352 N 
ATOM     35  C   UNL A   1      40.940  23.936  27.848  1.00  0.00     0.251 C 
ATOM     36  H   UNL A   1      40.764  22.125  26.992  1.00  0.00     0.163 HD
ATOM     37  O   UNL A   1      41.750  23.566  28.673  1.00  0.00    -0.269 OA
BRANCH  35  38
ATOM     38  C   UNL A   1      40.356  25.299  27.937  1.00  0.00     0.039 A 
ATOM     39  C   UNL A   1      40.879  26.284  27.087  1.00  0.00     0.014 A 
ATOM     40  C   UNL A   1      39.485  25.648  28.963  1.00  0.00     0.014 A 
ATOM     41  C   UNL A   1      40.742  27.625  27.431  1.00  0.00     0.010 A 
ATOM     42  C   UNL A   1      39.430  26.966  29.362  1.00  0.00     0.010 A 
ATOM     43  C   UNL A   1      40.128  27.940  28.640  1.00  0.00    -0.014 A 
BRANCH  43  44
ATOM     44  C   UNL A   1      40.275  29.227  29.303  1.00  0.00     0.031 A 
ATOM     45  C   UNL A   1      39.245  30.270  29.144  1.00  0.00     0.074 A 
ATOM     46  C   UNL A   1      41.281  29.374  30.196  1.00  0.00     0.049 A 
ATOM     47  N   UNL A   1      39.395  31.493  29.528  1.00  0.00    -0.248 NA
ATOM     48  C   UNL A   1      37.971  30.037  28.467  1.00  0.00     0.031 C 
ATOM     49  C   UNL A   1      41.400  30.377  31.253  1.00  0.00     0.029 A 
ATOM     50  N   UNL A   1      42.535  28.736  30.181  1.00  0.00    -0.354 N 
ATOM     51  C   UNL A   1      38.160  32.088  29.472  1.00  0.00     0.074 A 
ATOM     52  C   UNL A   1      37.359  31.210  28.662  1.00  0.00     0.031 C 
ATOM     53  C   UNL A   1      42.694  30.505  31.587  1.00  0.00     0.029 A 
ATOM     54  C   UNL A   1      43.452  29.719  30.629  1.00  0.00     0.049 A 
ATOM     55  H   UNL A   1      42.732  27.809  29.919  1.00  0.00     0.167 HD
ATOM     56  C   UNL A   1      37.926  33.164  30.273  1.00  0.00     0.037 A 
ATOM     57  C   UNL A   1      44.409  30.229  29.799  1.00  0.00     0.037 A 
ATOM     58  C   UNL A   1      39.185  33.729  30.763  1.00  0.00     0.049 A 
ATOM     59  C   UNL A   1      44.333  31.728  29.621  1.00  0.00     0.074 A 
ATOM     60  C   UNL A   1      39.804  33.759  31.999  1.00  0.00     0.029 A 
ATOM     61  N   UNL A   1      40.134  34.159  29.835  1.00  0.00    -0.354 N 
ATOM     62  N   UNL A   1      43.261  32.434  29.855  1.00  0.00    -0.248 NA
ATOM     63  C   UNL A   1      45.444  32.540  29.134  1.00  0.00     0.031 C 
ATOM     64  C   UNL A   1      41.171  34.093  31.789  1.00  0.00     0.029 A 
ATOM     65  C   UNL A   1      41.365  34.321  30.437  1.00  0.00     0.049 A 
ATOM     66  H   UNL A   1      39.950  34.325  28.883  1.00  0.00     0.167 HD
ATOM     67  C   UNL A   1      43.502  33.745  29.544  1.00  0.00     0.074 A 
ATOM     68  C   UNL A   1      44.888  33.765  29.113  1.00  0.00     0.031 C 
ATOM     69  C   UNL A   1      42.533  34.702  29.653  1.00  0.00     0.037 A 
BRANCH  56  70
ATOM     70  C   UNL A   1      36.564  33.574  30.801  1.00  0.00     0.064 A 
ATOM     71  C   UNL A   1      35.619  34.167  29.935  1.00  0.00     0.173 A 
ATOM     72  C   UNL A   1      36.178  33.559  32.161  1.00  0.00     0.173 A 
ATOM     73  F   UNL A   1      35.851  34.261  28.617  1.00  0.00    -0.203 F 
ATOM     74  C   UNL A   1      34.412  34.712  30.392  1.00  0.00     0.198 A 
ATOM     75  C   UNL A   1      34.949  34.053  32.609  1.00  0.00     0.198 A 
ATOM     76  F   UNL A   1      36.988  33.131  33.134  1.00  0.00    -0.203 F 
ATOM     77  F   UNL A   1      33.586  35.322  29.531  1.00  0.00    -0.200 F 
ATOM     78  C   UNL A   1      34.072  34.645  31.729  1.00  0.00     0.200 A 
ATOM     79  F   UNL A   1      34.643  33.981  33.914  1.00  0.00    -0.200 F 
ATOM     80  F   UNL A   1      32.920  35.167  32.170  1.00  0.00    -0.200 F 
ENDBRANCH  56  70
BRANCH  57  81
ATOM     81  C   UNL A   1      44.843  29.269  28.748  1.00  0.00     0.064 A 
ATOM     82  C   UNL A   1      45.657  28.184  29.128  1.00  0.00     0.173 A 
ATOM     83  C   UNL A   1      44.173  29.179  27.522  1.00  0.00     0.173 A 
ATOM     84  F   UNL A   1      46.323  28.223  30.294  1.00  0.00    -0.203 F 
ATOM     85  C   UNL A   1      45.693  27.010  28.380  1.00  0.00     0.198 A 
ATOM     86  C   UNL A   1      44.228  28.006  26.766  1.00  0.00     0.198 A 
ATOM     87  F   UNL A   1      43.373  30.172  27.110  1.00  0.00    -0.203 F 
ATOM     88  F   UNL A   1      46.380  25.951  28.833  1.00  0.00    -0.200 F 
ATOM     89  C   UNL A   1      44.954  26.912  27.214  1.00  0.00     0.200 A 
ATOM     90  F   UNL A   1      43.491  27.898  25.651  1.00  0.00    -0.200 F 
ATOM     91  F   UNL A   1      44.905  25.751  26.545  1.00  0.00    -0.200 F 
ENDBRANCH  57  81
BRANCH  69  92
ATOM     92  C   UNL A   1      42.629  36.103  29.102  1.00  0.00     0.064 A 
ATOM     93  C   UNL A   1      41.930  36.546  27.964  1.00  0.00     0.173 A 
ATOM     94  C   UNL A   1      43.336  37.103  29.810  1.00  0.00     0.173 A 
ATOM     95  F   UNL A   1      41.120  35.727  27.280  1.00  0.00    -0.203 F 
ATOM     96  C   UNL A   1      41.997  37.871  27.526  1.00  0.00     0.198 A 
ATOM     97  C   UNL A   1      43.353  38.436  29.402  1.00  0.00     0.198 A 
ATOM     98  F   UNL A   1      44.010  36.818  30.934  1.00  0.00    -0.203 F 
ATOM     99  F   UNL A   1      41.350  38.234  26.409  1.00  0.00    -0.200 F 
ATOM    100  C   UNL A   1      42.700  38.818  28.248  1.00  0.00     0.200 A 
ATOM    101  F   UNL A   1      43.993  39.352  30.142  1.00  0.00    -0.200 F 
ATOM    102  F   UNL A   1      42.727  40.095  27.846  1.00  0.00    -0.200 F 
ENDBRANCH  69  92
ENDBRANCH  43  44
ENDBRANCH  35  38
ENDBRANCH  33  34
ENDBRANCH  32  33
ENDBRANCH  31  32
ENDBRANCH   1  31
TORSDOF 16
ENDMDL
MODEL 3
REMARK VINA RESULT:     -13.0      3.657      9.654
REMARK SMILES COc1cc2ccccc2cc1C(=O)Nc1cc(C(=O)NCCCCCCNC(=O)c2ccc(-c3c4nc(c(-c5c(F)c(F)c(F)c(F)c5F)c5ccc([nH]5)c(-c5c(F)c(F)c(F)c(F)c5F)c5nc(c(-c6c(F)c(F)c(F)c(F)c6F)c6ccc3[nH]6)C=C5)C=C4)cc2)ccc1C
REMARK SMILES IDX 24 1 23 2 22 3 21 4 19 5 20 6 18 8 16 9 17 10 96 11 95 12
REMARK SMILES IDX 97 13 94 14 15 15 13 16 14 17 12 19 3 20 4 21 5 22 11 23
REMARK SMILES IDX 6 24 10 25 7 26 9 27 8 28 2 29 1 30 25 31 26 32 27 33 28 34
REMARK SMILES IDX 29 35 30 37 31 38 32 39 93 40 33 41 92 42 34 43 35 44 36 45
REMARK SMILES IDX 86 46 37 47 91 48 85 49 87 50 38 51 90 52 84 53 83 54 39 56
REMARK SMILES IDX 71 57 51 58 70 59 52 60 55 61 69 62 88 63 53 64 54 65 68 67
REMARK SMILES IDX 89 68 56 69 40 70 41 71 49 72 42 73 43 74 47 75 50 76 44 77
REMARK SMILES IDX 45 78 48 79 46 80 72 81 73 82 81 83 74 84 75 85 79 86 82 87
REMARK SMILES IDX 76 88 77 89 80 90 78 91 57 92 58 93 66 94 59 95 60 96 64 97
REMARK SMILES IDX 67 98 61 99 62 100 65 101 63 102
REMARK H PARENT 21 7 15 18 28 36 87 55 55 66
REMARK Flexibility Score: inf
ROOT
ATOM      1  C   UNL A   1      36.479  22.124  24.098  1.00  0.00     0.002 C 
ENDROOT
BRANCH   1   2
ATOM      2  C   UNL A   1      35.968  20.857  24.799  1.00  0.00     0.021 C 
BRANCH   2   3
ATOM      3  C   UNL A   1      34.592  21.027  25.444  1.00  0.00     0.116 C 
BRANCH   3   4
ATOM      4  N   UNL A   1      33.560  21.178  24.442  1.00  0.00    -0.352 N 
ATOM      5  C   UNL A   1      32.606  22.131  24.186  1.00  0.00     0.251 C 
ATOM      6  O   UNL A   1      31.875  21.919  23.215  1.00  0.00    -0.269 OA
ATOM      7  H   UNL A   1      33.537  20.432  23.800  1.00  0.00     0.163 HD
BRANCH   5   8
ATOM      8  C   UNL A   1      32.430  23.405  24.950  1.00  0.00     0.041 A 
ATOM      9  C   UNL A   1      32.935  25.721  25.495  1.00  0.00     0.045 A 
ATOM     10  C   UNL A   1      33.303  24.490  24.932  1.00  0.00     0.040 A 
ATOM     11  C   UNL A   1      31.801  25.815  26.318  1.00  0.00    -0.027 A 
ATOM     12  C   UNL A   1      30.957  24.701  26.404  1.00  0.00     0.006 A 
ATOM     13  C   UNL A   1      31.342  27.091  26.970  1.00  0.00     0.046 C 
ATOM     14  C   UNL A   1      31.250  23.528  25.702  1.00  0.00     0.014 A 
BRANCH   9  15
ATOM     15  N   UNL A   1      33.653  26.883  25.173  1.00  0.00    -0.322 N 
ATOM     16  C   UNL A   1      33.329  27.944  24.348  1.00  0.00     0.259 C 
ATOM     17  O   UNL A   1      34.222  28.759  24.100  1.00  0.00    -0.269 OA
ATOM     18  H   UNL A   1      34.534  26.956  25.606  1.00  0.00     0.170 HD
BRANCH  16  19
ATOM     19  C   UNL A   1      31.963  28.217  23.790  1.00  0.00     0.082 A 
ATOM     20  C   UNL A   1      31.176  27.342  23.030  1.00  0.00     0.132 A 
ATOM     21  C   UNL A   1      29.958  27.768  22.479  1.00  0.00     0.056 A 
ATOM     22  C   UNL A   1      29.423  29.022  22.792  1.00  0.00    -0.015 A 
ATOM     23  C   UNL A   1      31.395  29.458  24.145  1.00  0.00     0.026 A 
ATOM     24  C   UNL A   1      28.191  29.443  22.266  1.00  0.00     0.009 A 
ATOM     25  C   UNL A   1      30.126  29.860  23.681  1.00  0.00    -0.017 A 
ATOM     26  C   UNL A   1      27.630  30.658  22.658  1.00  0.00     0.001 A 
ATOM     27  C   UNL A   1      29.538  31.073  24.079  1.00  0.00     0.009 A 
ATOM     28  C   UNL A   1      28.293  31.461  23.579  1.00  0.00     0.001 A 
BRANCH  20  29
ATOM     29  O   UNL A   1      31.524  26.061  22.710  1.00  0.00    -0.496 OA
ATOM     30  C   UNL A   1      32.189  26.000  21.452  1.00  0.00     0.278 C 
ENDBRANCH  20  29
ENDBRANCH  16  19
ENDBRANCH   9  15
ENDBRANCH   5   8
ENDBRANCH   3   4
ENDBRANCH   2   3
ENDBRANCH   1   2
BRANCH   1  31
ATOM     31  C   UNL A   1      36.603  23.382  24.980  1.00  0.00     0.002 C 
BRANCH  31  32
ATOM     32  C   UNL A   1      38.020  23.741  25.440  1.00  0.00     0.021 C 
BRANCH  32  33
ATOM     33  C   UNL A   1      38.637  22.714  26.380  1.00  0.00     0.116 C 
BRANCH  33  34
ATOM     34  N   UNL A   1      40.088  22.811  26.485  1.00  0.00    -0.352 N 
ATOM     35  C   UNL A   1      40.894  23.919  26.700  1.00  0.00     0.251 C 
ATOM     36  H   UNL A   1      40.570  21.958  26.388  1.00  0.00     0.163 HD
ATOM     37  O   UNL A   1      42.103  23.811  26.685  1.00  0.00    -0.269 OA
BRANCH  35  38
ATOM     38  C   UNL A   1      40.266  25.207  27.090  1.00  0.00     0.039 A 
ATOM     39  C   UNL A   1      40.524  26.323  26.281  1.00  0.00     0.014 A 
ATOM     40  C   UNL A   1      39.630  25.361  28.317  1.00  0.00     0.014 A 
ATOM     41  C   UNL A   1      40.389  27.600  26.818  1.00  0.00     0.010 A 
ATOM     42  C   UNL A   1      39.589  26.616  28.886  1.00  0.00     0.010 A 
ATOM     43  C   UNL A   1      40.047  27.722  28.161  1.00  0.00    -0.014 A 
BRANCH  43  44
ATOM     44  C   UNL A   1      40.263  28.933  28.938  1.00  0.00     0.031 A 
ATOM     45  C   UNL A   1      39.252  30.007  28.943  1.00  0.00     0.074 A 
ATOM     46  C   UNL A   1      41.321  28.971  29.781  1.00  0.00     0.049 A 
ATOM     47  N   UNL A   1      39.454  31.182  29.436  1.00  0.00    -0.248 NA
ATOM     48  C   UNL A   1      37.936  29.867  28.322  1.00  0.00     0.031 C 
ATOM     49  C   UNL A   1      41.525  29.861  30.922  1.00  0.00     0.029 A 
ATOM     50  N   UNL A   1      42.556  28.314  29.630  1.00  0.00    -0.354 N 
ATOM     51  C   UNL A   1      38.233  31.804  29.511  1.00  0.00     0.074 A 
ATOM     52  C   UNL A   1      37.366  31.026  28.668  1.00  0.00     0.031 C 
ATOM     53  C   UNL A   1      42.839  29.930  31.190  1.00  0.00     0.029 A 
ATOM     54  C   UNL A   1      43.521  29.229  30.117  1.00  0.00     0.049 A 
ATOM     55  H   UNL A   1      42.715  27.413  29.266  1.00  0.00     0.167 HD
ATOM     56  C   UNL A   1      38.072  32.799  30.426  1.00  0.00     0.037 A 
ATOM     57  C   UNL A   1      44.442  29.800  29.287  1.00  0.00     0.037 A 
ATOM     58  C   UNL A   1      39.370  33.288  30.894  1.00  0.00     0.049 A 
ATOM     59  C   UNL A   1      44.394  31.311  29.261  1.00  0.00     0.074 A 
ATOM     60  C   UNL A   1      40.059  33.183  32.089  1.00  0.00     0.029 A 
ATOM     61  N   UNL A   1      40.276  33.790  29.959  1.00  0.00    -0.354 N 
ATOM     62  N   UNL A   1      43.355  32.011  29.625  1.00  0.00    -0.248 NA
ATOM     63  C   UNL A   1      45.495  32.146  28.791  1.00  0.00     0.031 C 
ATOM     64  C   UNL A   1      41.420  33.510  31.833  1.00  0.00     0.029 A 
ATOM     65  C   UNL A   1      41.543  33.867  30.500  1.00  0.00     0.049 A 
ATOM     66  H   UNL A   1      40.043  34.053  29.040  1.00  0.00     0.167 HD
ATOM     67  C   UNL A   1      43.610  33.341  29.432  1.00  0.00     0.074 A 
ATOM     68  C   UNL A   1      44.970  33.378  28.923  1.00  0.00     0.031 C 
ATOM     69  C   UNL A   1      42.674  34.301  29.691  1.00  0.00     0.037 A 
BRANCH  56  70
ATOM     70  C   UNL A   1      36.752  33.181  31.071  1.00  0.00     0.064 A 
ATOM     71  C   UNL A   1      35.809  33.947  30.351  1.00  0.00     0.173 A 
ATOM     72  C   UNL A   1      36.415  32.967  32.427  1.00  0.00     0.173 A 
ATOM     73  F   UNL A   1      35.998  34.239  29.055  1.00  0.00    -0.203 F 
ATOM     74  C   UNL A   1      34.649  34.466  30.941  1.00  0.00     0.198 A 
ATOM     75  C   UNL A   1      35.230  33.438  33.000  1.00  0.00     0.198 A 
ATOM     76  F   UNL A   1      37.236  32.353  33.284  1.00  0.00    -0.203 F 
ATOM     77  F   UNL A   1      33.825  35.242  30.223  1.00  0.00    -0.200 F 
ATOM     78  C   UNL A   1      34.355  34.202  32.264  1.00  0.00     0.200 A 
ATOM     79  F   UNL A   1      34.968  33.173  34.289  1.00  0.00    -0.200 F 
ATOM     80  F   UNL A   1      33.247  34.699  32.831  1.00  0.00    -0.200 F 
ENDBRANCH  56  70
BRANCH  57  81
ATOM     81  C   UNL A   1      44.791  28.942  28.123  1.00  0.00     0.064 A 
ATOM     82  C   UNL A   1      45.654  27.848  28.333  1.00  0.00     0.173 A 
ATOM     83  C   UNL A   1      44.013  28.938  26.959  1.00  0.00     0.173 A 
ATOM     84  F   UNL A   1      46.424  27.806  29.433  1.00  0.00    -0.203 F 
ATOM     85  C   UNL A   1      45.639  26.742  27.488  1.00  0.00     0.198 A 
ATOM     86  C   UNL A   1      44.015  27.834  26.104  1.00  0.00     0.198 A 
ATOM     87  F   UNL A   1      43.162  29.943  26.707  1.00  0.00    -0.203 F 
ATOM     88  F   UNL A   1      46.381  25.664  27.785  1.00  0.00    -0.200 F 
ATOM     89  C   UNL A   1      44.797  26.724  26.390  1.00  0.00     0.200 A 
ATOM     90  F   UNL A   1      43.180  27.802  25.056  1.00  0.00    -0.200 F 
ATOM     91  F   UNL A   1      44.704  25.622  25.632  1.00  0.00    -0.200 F 
ENDBRANCH  57  81
BRANCH  69  92
ATOM     92  C   UNL A   1      42.773  35.748  29.275  1.00  0.00     0.064 A 
ATOM     93  C   UNL A   1      42.103  36.291  28.164  1.00  0.00     0.173 A 
ATOM     94  C   UNL A   1      43.452  36.682  30.092  1.00  0.00     0.173 A 
ATOM     95  F   UNL A   1      41.319  35.535  27.384  1.00  0.00    -0.203 F 
ATOM     96  C   UNL A   1      42.171  37.652  27.852  1.00  0.00     0.198 A 
ATOM     97  C   UNL A   1      43.470  38.047  29.810  1.00  0.00     0.198 A 
ATOM     98  F   UNL A   1      44.097  36.298  31.204  1.00  0.00    -0.203 F 
ATOM     99  F   UNL A   1      41.553  38.114  26.756  1.00  0.00    -0.200 F 
ATOM    100  C   UNL A   1      42.846  38.531  28.679  1.00  0.00     0.200 A 
ATOM    101  F   UNL A   1      44.081  38.894  30.651  1.00  0.00    -0.200 F 
ATOM    102  F   UNL A   1      42.874  39.840  28.399  1.00  0.00    -0.200 F 
ENDBRANCH  69  92
ENDBRANCH  43  44
ENDBRANCH  35  38
ENDBRANCH  33  34
ENDBRANCH  32  33
ENDBRANCH  31  32
ENDBRANCH   1  31
TORSDOF 16
ENDMDL
