MODEL 1
REMARK VINA RESULT:     -12.8      0.000      0.000
REMARK SMILES CC1=C[C@H](C)[C@@H](C(=O)NCCCCCCNC(=O)c2ccc(-c3c4nc(c(-c5c(F)c(F)c(F)c(F)c5F)c5ccc([nH]5)c(-c5c(F)c(F)c(F)c(F)c5F)c5nc(c(-c6c(F)c(F)c(F)c(F)c6F)c6ccc3[nH]6)C=C5)C=C4)cc2)[C@H](C(=O)Nc2cccnc2)C1
REMARK SMILES IDX 12 1 11 2 10 3 9 4 7 5 8 6 6 8 1 9 2 10 3 11 92 12 4 13
REMARK SMILES IDX 82 14 5 15 83 16 84 17 85 18 86 20 87 21 91 22 88 23 90 24
REMARK SMILES IDX 89 25 13 26 14 27 15 28 16 29 17 30 18 32 19 33 20 34 81 35
REMARK SMILES IDX 21 36 80 37 22 38 23 39 24 40 74 41 25 42 79 43 73 44 75 45
REMARK SMILES IDX 26 46 78 47 72 48 71 49 27 51 59 52 39 53 58 54 40 55 43 56
REMARK SMILES IDX 57 57 76 58 41 59 42 60 56 62 77 63 44 64 28 65 29 66 37 67
REMARK SMILES IDX 30 68 31 69 35 70 38 71 32 72 33 73 36 74 34 75 60 76 61 77
REMARK SMILES IDX 69 78 62 79 63 80 67 81 70 82 64 83 65 84 68 85 66 86 45 87
REMARK SMILES IDX 46 88 54 89 47 90 48 91 52 92 55 93 49 94 50 95 53 96 51 97
REMARK H PARENT 9 7 85 19 16 31 75 50 43 61
REMARK Flexibility Score: inf
ROOT
ATOM      1  C   UNL A   1      30.772  26.894  24.504  1.00  0.00     0.002 C 
ENDROOT
BRANCH   1   2
ATOM      2  C   UNL A   1      30.628  26.193  23.157  1.00  0.00     0.021 C 
BRANCH   2   3
ATOM      3  C   UNL A   1      30.890  24.698  23.237  1.00  0.00     0.116 C 
BRANCH   3   4
ATOM      4  N   UNL A   1      31.964  24.260  22.375  1.00  0.00    -0.356 N 
ATOM      5  C   UNL A   1      33.143  23.648  22.690  1.00  0.00     0.224 C 
ATOM      6  O   UNL A   1      33.844  23.257  21.754  1.00  0.00    -0.275 OA
ATOM      7  H   UNL A   1      31.825  24.430  21.415  1.00  0.00     0.163 HD
BRANCH   5   8
ATOM      8  C   UNL A   1      33.588  23.420  24.148  1.00  0.00     0.098 C 
ATOM      9  C   UNL A   1      37.724  22.164  25.286  1.00  0.00     0.039 C 
ATOM     10  C   UNL A   1      36.323  22.610  24.972  1.00  0.00    -0.076 C 
ATOM     11  C   UNL A   1      35.985  23.912  24.990  1.00  0.00    -0.024 C 
ATOM     12  C   UNL A   1      35.372  21.516  24.560  1.00  0.00     0.044 C 
ATOM     13  C   UNL A   1      34.668  24.474  24.513  1.00  0.00     0.022 C 
ATOM     14  C   UNL A   1      33.903  21.927  24.405  1.00  0.00     0.096 C 
ATOM     15  C   UNL A   1      34.120  25.590  25.425  1.00  0.00     0.013 C 
BRANCH  14  16
ATOM     16  C   UNL A   1      32.972  21.266  25.449  1.00  0.00     0.228 C 
ATOM     17  O   UNL A   1      32.574  21.929  26.413  1.00  0.00    -0.274 OA
ATOM     18  N   UNL A   1      32.449  20.010  25.300  1.00  0.00    -0.324 N 
ATOM     19  H   UNL A   1      31.633  19.833  25.821  1.00  0.00     0.169 HD
BRANCH  18  20
ATOM     20  C   UNL A   1      32.898  18.941  24.520  1.00  0.00     0.059 A 
ATOM     21  C   UNL A   1      33.898  18.093  24.966  1.00  0.00     0.029 A 
ATOM     22  C   UNL A   1      32.325  18.669  23.283  1.00  0.00     0.137 A 
ATOM     23  C   UNL A   1      34.379  17.091  24.124  1.00  0.00     0.022 A 
ATOM     24  N   UNL A   1      32.778  17.715  22.436  1.00  0.00    -0.263 NA
ATOM     25  C   UNL A   1      33.814  16.963  22.867  1.00  0.00     0.111 A 
ENDBRANCH  18  20
ENDBRANCH  14  16
ENDBRANCH   5   8
ENDBRANCH   3   4
ENDBRANCH   2   3
ENDBRANCH   1   2
BRANCH   1  26
ATOM     26  C   UNL A   1      31.025  28.405  24.415  1.00  0.00     0.002 C 
BRANCH  26  27
ATOM     27  C   UNL A   1      32.482  28.811  24.169  1.00  0.00     0.021 C 
BRANCH  27  28
ATOM     28  C   UNL A   1      33.224  29.280  25.415  1.00  0.00     0.116 C 
BRANCH  28  29
ATOM     29  N   UNL A   1      32.747  30.575  25.876  1.00  0.00    -0.352 N 
ATOM     30  C   UNL A   1      33.183  31.341  26.922  1.00  0.00     0.251 C 
ATOM     31  H   UNL A   1      32.002  30.956  25.358  1.00  0.00     0.163 HD
ATOM     32  O   UNL A   1      32.523  32.305  27.305  1.00  0.00    -0.269 OA
BRANCH  30  33
ATOM     33  C   UNL A   1      34.446  30.998  27.599  1.00  0.00     0.039 A 
ATOM     34  C   UNL A   1      35.412  31.990  27.775  1.00  0.00     0.014 A 
ATOM     35  C   UNL A   1      34.674  29.697  28.057  1.00  0.00     0.014 A 
ATOM     36  C   UNL A   1      36.590  31.690  28.459  1.00  0.00     0.010 A 
ATOM     37  C   UNL A   1      35.811  29.419  28.806  1.00  0.00     0.010 A 
ATOM     38  C   UNL A   1      36.783  30.410  29.008  1.00  0.00    -0.014 A 
BRANCH  38  39
ATOM     39  C   UNL A   1      37.998  30.091  29.797  1.00  0.00     0.031 A 
ATOM     40  C   UNL A   1      39.024  29.142  29.248  1.00  0.00     0.074 A 
ATOM     41  C   UNL A   1      38.142  30.608  31.032  1.00  0.00     0.049 A 
ATOM     42  N   UNL A   1      40.116  28.686  29.810  1.00  0.00    -0.248 NA
ATOM     43  C   UNL A   1      38.778  28.609  27.898  1.00  0.00     0.031 C 
ATOM     44  C   UNL A   1      37.189  31.503  31.689  1.00  0.00     0.029 A 
ATOM     45  N   UNL A   1      39.140  30.447  31.960  1.00  0.00    -0.354 N 
ATOM     46  C   UNL A   1      40.676  27.811  28.888  1.00  0.00     0.074 A 
ATOM     47  C   UNL A   1      39.775  27.750  27.758  1.00  0.00     0.031 C 
ATOM     48  C   UNL A   1      37.658  31.829  32.904  1.00  0.00     0.029 A 
ATOM     49  C   UNL A   1      38.922  31.135  33.128  1.00  0.00     0.049 A 
ATOM     50  H   UNL A   1      39.937  29.891  31.802  1.00  0.00     0.167 HD
ATOM     51  C   UNL A   1      41.851  27.140  28.968  1.00  0.00     0.037 A 
ATOM     52  C   UNL A   1      39.654  31.189  34.256  1.00  0.00     0.037 A 
ATOM     53  C   UNL A   1      42.748  27.218  30.091  1.00  0.00     0.049 A 
ATOM     54  C   UNL A   1      40.946  30.419  34.327  1.00  0.00     0.074 A 
ATOM     55  C   UNL A   1      43.986  26.620  30.249  1.00  0.00     0.029 A 
ATOM     56  N   UNL A   1      42.501  27.937  31.251  1.00  0.00    -0.354 N 
ATOM     57  N   UNL A   1      41.502  29.651  33.422  1.00  0.00    -0.248 NA
ATOM     58  C   UNL A   1      41.716  30.532  35.573  1.00  0.00     0.031 C 
ATOM     59  C   UNL A   1      44.461  26.930  31.526  1.00  0.00     0.029 A 
ATOM     60  C   UNL A   1      43.551  27.775  32.140  1.00  0.00     0.049 A 
ATOM     61  H   UNL A   1      41.698  28.482  31.418  1.00  0.00     0.167 HD
ATOM     62  C   UNL A   1      42.698  29.214  33.974  1.00  0.00     0.074 A 
ATOM     63  C   UNL A   1      42.795  29.815  35.288  1.00  0.00     0.031 C 
ATOM     64  C   UNL A   1      43.635  28.390  33.442  1.00  0.00     0.037 A 
BRANCH  51  65
ATOM     65  C   UNL A   1      42.229  26.263  27.808  1.00  0.00     0.064 A 
ATOM     66  C   UNL A   1      43.143  26.686  26.830  1.00  0.00     0.173 A 
ATOM     67  C   UNL A   1      41.697  24.971  27.688  1.00  0.00     0.173 A 
ATOM     68  F   UNL A   1      43.674  27.918  26.890  1.00  0.00    -0.203 F 
ATOM     69  C   UNL A   1      43.483  25.864  25.760  1.00  0.00     0.198 A 
ATOM     70  C   UNL A   1      42.066  24.137  26.636  1.00  0.00     0.198 A 
ATOM     71  F   UNL A   1      40.824  24.511  28.597  1.00  0.00    -0.203 F 
ATOM     72  F   UNL A   1      44.313  26.313  24.809  1.00  0.00    -0.200 F 
ATOM     73  C   UNL A   1      42.950  24.587  25.667  1.00  0.00     0.200 A 
ATOM     74  F   UNL A   1      41.561  22.898  26.556  1.00  0.00    -0.200 F 
ATOM     75  F   UNL A   1      43.283  23.794  24.640  1.00  0.00    -0.200 F 
ENDBRANCH  51  65
BRANCH  52  76
ATOM     76  C   UNL A   1      39.193  32.016  35.402  1.00  0.00     0.064 A 
ATOM     77  C   UNL A   1      38.426  31.456  36.434  1.00  0.00     0.173 A 
ATOM     78  C   UNL A   1      39.504  33.381  35.489  1.00  0.00     0.173 A 
ATOM     79  F   UNL A   1      38.088  30.159  36.389  1.00  0.00    -0.203 F 
ATOM     80  C   UNL A   1      37.967  32.235  37.494  1.00  0.00     0.198 A 
ATOM     81  C   UNL A   1      39.072  34.151  36.566  1.00  0.00     0.198 A 
ATOM     82  F   UNL A   1      40.242  33.964  34.533  1.00  0.00    -0.203 F 
ATOM     83  F   UNL A   1      37.194  31.685  38.440  1.00  0.00    -0.200 F 
ATOM     84  C   UNL A   1      38.295  33.580  37.563  1.00  0.00     0.200 A 
ATOM     85  F   UNL A   1      39.406  35.447  36.638  1.00  0.00    -0.200 F 
ATOM     86  F   UNL A   1      37.858  34.328  38.585  1.00  0.00    -0.200 F 
ENDBRANCH  52  76
BRANCH  64  87
ATOM     87  C   UNL A   1      44.865  28.122  34.262  1.00  0.00     0.064 A 
ATOM     88  C   UNL A   1      45.991  28.954  34.202  1.00  0.00     0.173 A 
ATOM     89  C   UNL A   1      44.897  27.037  35.152  1.00  0.00     0.173 A 
ATOM     90  F   UNL A   1      46.017  29.996  33.356  1.00  0.00    -0.203 F 
ATOM     91  C   UNL A   1      47.115  28.696  34.982  1.00  0.00     0.198 A 
ATOM     92  C   UNL A   1      46.009  26.802  35.956  1.00  0.00     0.198 A 
ATOM     93  F   UNL A   1      43.844  26.213  35.254  1.00  0.00    -0.203 F 
ATOM     94  F   UNL A   1      48.199  29.475  34.869  1.00  0.00    -0.200 F 
ATOM     95  C   UNL A   1      47.120  27.626  35.864  1.00  0.00     0.200 A 
ATOM     96  F   UNL A   1      46.004  25.777  36.820  1.00  0.00    -0.200 F 
ATOM     97  F   UNL A   1      48.199  27.385  36.621  1.00  0.00    -0.200 F 
ENDBRANCH  64  87
ENDBRANCH  38  39
ENDBRANCH  30  33
ENDBRANCH  28  29
ENDBRANCH  27  28
ENDBRANCH  26  27
ENDBRANCH   1  26
TORSDOF 15
ENDMDL
MODEL 2
REMARK VINA RESULT:     -12.7      0.487      7.213
REMARK SMILES CC1=C[C@H](C)[C@@H](C(=O)NCCCCCCNC(=O)c2ccc(-c3c4nc(c(-c5c(F)c(F)c(F)c(F)c5F)c5ccc([nH]5)c(-c5c(F)c(F)c(F)c(F)c5F)c5nc(c(-c6c(F)c(F)c(F)c(F)c6F)c6ccc3[nH]6)C=C5)C=C4)cc2)[C@H](C(=O)Nc2cccnc2)C1
REMARK SMILES IDX 12 1 11 2 10 3 9 4 7 5 8 6 6 8 1 9 2 10 3 11 92 12 4 13
REMARK SMILES IDX 82 14 5 15 83 16 84 17 85 18 86 20 87 21 91 22 88 23 90 24
REMARK SMILES IDX 89 25 13 26 14 27 15 28 16 29 17 30 18 32 19 33 20 34 81 35
REMARK SMILES IDX 21 36 80 37 22 38 23 39 24 40 74 41 25 42 79 43 73 44 75 45
REMARK SMILES IDX 26 46 78 47 72 48 71 49 27 51 59 52 39 53 58 54 40 55 43 56
REMARK SMILES IDX 57 57 76 58 41 59 42 60 56 62 77 63 44 64 28 65 29 66 37 67
REMARK SMILES IDX 30 68 31 69 35 70 38 71 32 72 33 73 36 74 34 75 60 76 61 77
REMARK SMILES IDX 69 78 62 79 63 80 67 81 70 82 64 83 65 84 68 85 66 86 45 87
REMARK SMILES IDX 46 88 54 89 47 90 48 91 52 92 55 93 49 94 50 95 53 96 51 97
REMARK H PARENT 9 7 85 19 16 31 75 50 43 61
REMARK Flexibility Score: inf
ROOT
ATOM      1  C   UNL A   1      30.514  26.606  24.834  1.00  0.00     0.002 C 
ENDROOT
BRANCH   1   2
ATOM      2  C   UNL A   1      30.189  25.843  23.553  1.00  0.00     0.021 C 
BRANCH   2   3
ATOM      3  C   UNL A   1      30.684  24.406  23.579  1.00  0.00     0.116 C 
BRANCH   3   4
ATOM      4  N   UNL A   1      31.753  24.154  22.641  1.00  0.00    -0.356 N 
ATOM      5  C   UNL A   1      33.007  23.661  22.857  1.00  0.00     0.224 C 
ATOM      6  O   UNL A   1      33.698  23.417  21.864  1.00  0.00    -0.275 OA
ATOM      7  H   UNL A   1      31.546  24.373  21.703  1.00  0.00     0.163 HD
BRANCH   5   8
ATOM      8  C   UNL A   1      33.550  23.385  24.272  1.00  0.00     0.098 C 
ATOM      9  C   UNL A   1      37.758  22.117  25.087  1.00  0.00     0.039 C 
ATOM     10  C   UNL A   1      36.338  22.564  24.882  1.00  0.00    -0.076 C 
ATOM     11  C   UNL A   1      35.996  23.863  24.969  1.00  0.00    -0.024 C 
ATOM     12  C   UNL A   1      35.366  21.480  24.498  1.00  0.00     0.044 C 
ATOM     13  C   UNL A   1      34.648  24.433  24.601  1.00  0.00     0.022 C 
ATOM     14  C   UNL A   1      33.888  21.887  24.456  1.00  0.00     0.096 C 
ATOM     15  C   UNL A   1      34.158  25.513  25.586  1.00  0.00     0.013 C 
BRANCH  14  16
ATOM     16  C   UNL A   1      33.032  21.184  25.536  1.00  0.00     0.228 C 
ATOM     17  O   UNL A   1      32.680  21.817  26.538  1.00  0.00    -0.274 OA
ATOM     18  N   UNL A   1      32.522  19.923  25.388  1.00  0.00    -0.324 N 
ATOM     19  H   UNL A   1      31.742  19.718  25.952  1.00  0.00     0.169 HD
BRANCH  18  20
ATOM     20  C   UNL A   1      32.944  18.881  24.557  1.00  0.00     0.059 A 
ATOM     21  C   UNL A   1      33.959  18.019  24.938  1.00  0.00     0.029 A 
ATOM     22  C   UNL A   1      32.326  18.649  23.334  1.00  0.00     0.137 A 
ATOM     23  C   UNL A   1      34.409  17.047  24.047  1.00  0.00     0.022 A 
ATOM     24  N   UNL A   1      32.747  17.724  22.439  1.00  0.00    -0.263 NA
ATOM     25  C   UNL A   1      33.799  16.960  22.808  1.00  0.00     0.111 A 
ENDBRANCH  18  20
ENDBRANCH  14  16
ENDBRANCH   5   8
ENDBRANCH   3   4
ENDBRANCH   2   3
ENDBRANCH   1   2
BRANCH   1  26
ATOM     26  C   UNL A   1      31.547  27.729  24.664  1.00  0.00     0.002 C 
BRANCH  26  27
ATOM     27  C   UNL A   1      31.800  28.579  25.914  1.00  0.00     0.021 C 
BRANCH  27  28
ATOM     28  C   UNL A   1      33.054  29.444  25.844  1.00  0.00     0.116 C 
BRANCH  28  29
ATOM     29  N   UNL A   1      32.785  30.821  26.227  1.00  0.00    -0.352 N 
ATOM     30  C   UNL A   1      33.389  31.594  27.181  1.00  0.00     0.251 C 
ATOM     31  H   UNL A   1      32.061  31.263  25.726  1.00  0.00     0.163 HD
ATOM     32  O   UNL A   1      32.890  32.664  27.524  1.00  0.00    -0.269 OA
BRANCH  30  33
ATOM     33  C   UNL A   1      34.641  31.130  27.806  1.00  0.00     0.039 A 
ATOM     34  C   UNL A   1      35.702  32.027  27.945  1.00  0.00     0.014 A 
ATOM     35  C   UNL A   1      34.764  29.811  28.253  1.00  0.00     0.014 A 
ATOM     36  C   UNL A   1      36.873  31.615  28.581  1.00  0.00     0.010 A 
ATOM     37  C   UNL A   1      35.899  29.425  28.955  1.00  0.00     0.010 A 
ATOM     38  C   UNL A   1      36.967  30.320  29.120  1.00  0.00    -0.014 A 
BRANCH  38  39
ATOM     39  C   UNL A   1      38.177  29.884  29.859  1.00  0.00     0.031 A 
ATOM     40  C   UNL A   1      38.457  30.426  31.231  1.00  0.00     0.074 A 
ATOM     41  C   UNL A   1      39.052  29.050  29.266  1.00  0.00     0.049 A 
ATOM     42  N   UNL A   1      39.491  30.221  32.008  1.00  0.00    -0.248 NA
ATOM     43  C   UNL A   1      37.457  31.346  31.796  1.00  0.00     0.031 C 
ATOM     44  C   UNL A   1      38.911  28.497  27.918  1.00  0.00     0.029 A 
ATOM     45  N   UNL A   1      40.240  28.531  29.715  1.00  0.00    -0.354 N 
ATOM     46  C   UNL A   1      39.268  30.990  33.143  1.00  0.00     0.074 A 
ATOM     47  C   UNL A   1      38.035  31.715  32.928  1.00  0.00     0.031 C 
ATOM     48  C   UNL A   1      39.958  27.698  27.659  1.00  0.00     0.029 A 
ATOM     49  C   UNL A   1      40.864  27.717  28.802  1.00  0.00     0.049 A 
ATOM     50  H   UNL A   1      40.609  28.724  30.607  1.00  0.00     0.167 HD
ATOM     51  C   UNL A   1      40.013  31.063  34.272  1.00  0.00     0.037 A 
ATOM     52  C   UNL A   1      42.042  27.069  28.877  1.00  0.00     0.037 A 
ATOM     53  C   UNL A   1      41.232  30.326  34.482  1.00  0.00     0.049 A 
ATOM     54  C   UNL A   1      42.860  27.181  30.135  1.00  0.00     0.074 A 
ATOM     55  C   UNL A   1      42.034  30.290  35.609  1.00  0.00     0.029 A 
ATOM     56  N   UNL A   1      41.827  29.500  33.541  1.00  0.00    -0.354 N 
ATOM     57  N   UNL A   1      42.605  27.855  31.231  1.00  0.00    -0.248 NA
ATOM     58  C   UNL A   1      44.126  26.435  30.170  1.00  0.00     0.031 C 
ATOM     59  C   UNL A   1      43.143  29.487  35.329  1.00  0.00     0.029 A 
ATOM     60  C   UNL A   1      43.001  28.969  34.052  1.00  0.00     0.049 A 
ATOM     61  H   UNL A   1      41.469  29.317  32.642  1.00  0.00     0.167 HD
ATOM     62  C   UNL A   1      43.659  27.592  32.095  1.00  0.00     0.074 A 
ATOM     63  C   UNL A   1      44.549  26.684  31.402  1.00  0.00     0.031 C 
ATOM     64  C   UNL A   1      43.871  28.058  33.351  1.00  0.00     0.037 A 
BRANCH  51  65
ATOM     65  C   UNL A   1      39.528  31.973  35.365  1.00  0.00     0.064 A 
ATOM     66  C   UNL A   1      39.947  33.310  35.452  1.00  0.00     0.173 A 
ATOM     67  C   UNL A   1      38.609  31.513  36.320  1.00  0.00     0.173 A 
ATOM     68  F   UNL A   1      40.834  33.798  34.570  1.00  0.00    -0.203 F 
ATOM     69  C   UNL A   1      39.492  34.140  36.471  1.00  0.00     0.198 A 
ATOM     70  C   UNL A   1      38.128  32.357  37.318  1.00  0.00     0.198 A 
ATOM     71  F   UNL A   1      38.169  30.247  36.282  1.00  0.00    -0.203 F 
ATOM     72  F   UNL A   1      39.951  35.396  36.566  1.00  0.00    -0.200 F 
ATOM     73  C   UNL A   1      38.577  33.666  37.399  1.00  0.00     0.200 A 
ATOM     74  F   UNL A   1      37.232  31.901  38.205  1.00  0.00    -0.200 F 
ATOM     75  F   UNL A   1      38.134  34.469  38.376  1.00  0.00    -0.200 F 
ENDBRANCH  51  65
BRANCH  52  76
ATOM     76  C   UNL A   1      42.508  26.241  27.733  1.00  0.00     0.064 A 
ATOM     77  C   UNL A   1      43.431  26.745  26.806  1.00  0.00     0.173 A 
ATOM     78  C   UNL A   1      42.038  24.933  27.540  1.00  0.00     0.173 A 
ATOM     79  F   UNL A   1      43.897  27.996  26.937  1.00  0.00    -0.203 F 
ATOM     80  C   UNL A   1      43.847  25.982  25.717  1.00  0.00     0.198 A 
ATOM     81  C   UNL A   1      42.480  24.160  26.468  1.00  0.00     0.198 A 
ATOM     82  F   UNL A   1      41.161  24.400  28.402  1.00  0.00    -0.203 F 
ATOM     83  F   UNL A   1      44.691  26.507  24.818  1.00  0.00    -0.200 F 
ATOM     84  C   UNL A   1      43.376  24.689  25.552  1.00  0.00     0.200 A 
ATOM     85  F   UNL A   1      42.036  22.904  26.323  1.00  0.00    -0.200 F 
ATOM     86  F   UNL A   1      43.780  23.954  24.507  1.00  0.00    -0.200 F 
ENDBRANCH  52  76
BRANCH  64  87
ATOM     87  C   UNL A   1      45.091  27.564  34.074  1.00  0.00     0.064 A 
ATOM     88  C   UNL A   1      46.310  28.254  34.029  1.00  0.00     0.173 A 
ATOM     89  C   UNL A   1      45.024  26.402  34.860  1.00  0.00     0.173 A 
ATOM     90  F   UNL A   1      46.432  29.362  33.281  1.00  0.00    -0.203 F 
ATOM     91  C   UNL A   1      47.425  27.785  34.719  1.00  0.00     0.198 A 
ATOM     92  C   UNL A   1      46.130  25.956  35.577  1.00  0.00     0.198 A 
ATOM     93  F   UNL A   1      43.880  25.707  34.944  1.00  0.00    -0.203 F 
ATOM     94  F   UNL A   1      48.594  28.433  34.618  1.00  0.00    -0.200 F 
ATOM     95  C   UNL A   1      47.331  26.642  35.499  1.00  0.00     0.200 A 
ATOM     96  F   UNL A   1      46.032  24.861  36.343  1.00  0.00    -0.200 F 
ATOM     97  F   UNL A   1      48.403  26.199  36.172  1.00  0.00    -0.200 F 
ENDBRANCH  64  87
ENDBRANCH  38  39
ENDBRANCH  30  33
ENDBRANCH  28  29
ENDBRANCH  27  28
ENDBRANCH  26  27
ENDBRANCH   1  26
TORSDOF 15
ENDMDL
MODEL 3
REMARK VINA RESULT:     -12.7      2.045      3.243
REMARK SMILES CC1=C[C@H](C)[C@@H](C(=O)NCCCCCCNC(=O)c2ccc(-c3c4nc(c(-c5c(F)c(F)c(F)c(F)c5F)c5ccc([nH]5)c(-c5c(F)c(F)c(F)c(F)c5F)c5nc(c(-c6c(F)c(F)c(F)c(F)c6F)c6ccc3[nH]6)C=C5)C=C4)cc2)[C@H](C(=O)Nc2cccnc2)C1
REMARK SMILES IDX 12 1 11 2 10 3 9 4 7 5 8 6 6 8 1 9 2 10 3 11 92 12 4 13
REMARK SMILES IDX 82 14 5 15 83 16 84 17 85 18 86 20 87 21 91 22 88 23 90 24
REMARK SMILES IDX 89 25 13 26 14 27 15 28 16 29 17 30 18 32 19 33 20 34 81 35
REMARK SMILES IDX 21 36 80 37 22 38 23 39 24 40 74 41 25 42 79 43 73 44 75 45
REMARK SMILES IDX 26 46 78 47 72 48 71 49 27 51 59 52 39 53 58 54 40 55 43 56
REMARK SMILES IDX 57 57 76 58 41 59 42 60 56 62 77 63 44 64 28 65 29 66 37 67
REMARK SMILES IDX 30 68 31 69 35 70 38 71 32 72 33 73 36 74 34 75 60 76 61 77
REMARK SMILES IDX 69 78 62 79 63 80 67 81 70 82 64 83 65 84 68 85 66 86 45 87
REMARK SMILES IDX 46 88 54 89 47 90 48 91 52 92 55 93 49 94 50 95 53 96 51 97
REMARK H PARENT 9 7 85 19 16 31 75 50 43 61
REMARK Flexibility Score: inf
ROOT
ATOM      1  C   UNL A   1      32.413  29.914  26.982  1.00  0.00     0.002 C 
ENDROOT
BRANCH   1   2
ATOM      2  C   UNL A   1      31.797  28.565  27.344  1.00  0.00     0.021 C 
BRANCH   2   3
ATOM      3  C   UNL A   1      32.402  27.410  26.564  1.00  0.00     0.116 C 
BRANCH   3   4
ATOM      4  N   UNL A   1      31.920  27.325  25.205  1.00  0.00    -0.356 N 
ATOM      5  C   UNL A   1      31.861  26.251  24.364  1.00  0.00     0.224 C 
ATOM      6  O   UNL A   1      31.284  26.409  23.284  1.00  0.00    -0.275 OA
ATOM      7  H   UNL A   1      31.584  28.170  24.827  1.00  0.00     0.163 HD
BRANCH   5   8
ATOM      8  C   UNL A   1      32.458  24.881  24.736  1.00  0.00     0.098 C 
ATOM      9  C   UNL A   1      32.152  21.272  22.117  1.00  0.00     0.039 C 
ATOM     10  C   UNL A   1      32.311  22.454  23.032  1.00  0.00    -0.076 C 
ATOM     11  C   UNL A   1      33.411  23.228  22.987  1.00  0.00    -0.024 C 
ATOM     12  C   UNL A   1      31.132  22.746  23.923  1.00  0.00     0.044 C 
ATOM     13  C   UNL A   1      33.584  24.533  23.725  1.00  0.00     0.022 C 
ATOM     14  C   UNL A   1      31.344  23.836  24.981  1.00  0.00     0.096 C 
ATOM     15  C   UNL A   1      34.993  24.705  24.327  1.00  0.00     0.013 C 
BRANCH  14  16
ATOM     16  C   UNL A   1      31.304  23.295  26.429  1.00  0.00     0.228 C 
ATOM     17  O   UNL A   1      30.544  23.819  27.251  1.00  0.00    -0.274 OA
ATOM     18  N   UNL A   1      31.974  22.171  26.830  1.00  0.00    -0.324 N 
ATOM     19  H   UNL A   1      31.618  21.739  27.639  1.00  0.00     0.169 HD
BRANCH  18  20
ATOM     20  C   UNL A   1      33.087  21.545  26.264  1.00  0.00     0.059 A 
ATOM     21  C   UNL A   1      34.362  22.068  26.409  1.00  0.00     0.029 A 
ATOM     22  C   UNL A   1      32.956  20.348  25.568  1.00  0.00     0.137 A 
ATOM     23  C   UNL A   1      35.434  21.462  25.757  1.00  0.00     0.022 A 
ATOM     24  N   UNL A   1      33.974  19.742  24.912  1.00  0.00    -0.263 NA
ATOM     25  C   UNL A   1      35.188  20.329  25.001  1.00  0.00     0.111 A 
ENDBRANCH  18  20
ENDBRANCH  14  16
ENDBRANCH   5   8
ENDBRANCH   3   4
ENDBRANCH   2   3
ENDBRANCH   1   2
BRANCH   1  26
ATOM     26  C   UNL A   1      31.548  30.785  26.061  1.00  0.00     0.002 C 
BRANCH  26  27
ATOM     27  C   UNL A   1      31.381  32.242  26.506  1.00  0.00     0.021 C 
BRANCH  27  28
ATOM     28  C   UNL A   1      32.562  32.800  27.292  1.00  0.00     0.116 C 
BRANCH  28  29
ATOM     29  N   UNL A   1      32.376  34.204  27.626  1.00  0.00    -0.352 N 
ATOM     30  C   UNL A   1      32.964  34.949  28.611  1.00  0.00     0.251 C 
ATOM     31  H   UNL A   1      31.734  34.688  27.059  1.00  0.00     0.163 HD
ATOM     32  O   UNL A   1      32.528  36.064  28.893  1.00  0.00    -0.269 OA
BRANCH  30  33
ATOM     33  C   UNL A   1      34.119  34.403  29.346  1.00  0.00     0.039 A 
ATOM     34  C   UNL A   1      33.906  33.773  30.573  1.00  0.00     0.014 A 
ATOM     35  C   UNL A   1      35.411  34.518  28.822  1.00  0.00     0.014 A 
ATOM     36  C   UNL A   1      34.985  33.208  31.253  1.00  0.00     0.010 A 
ATOM     37  C   UNL A   1      36.472  33.887  29.460  1.00  0.00     0.010 A 
ATOM     38  C   UNL A   1      36.270  33.233  30.685  1.00  0.00    -0.014 A 
BRANCH  38  39
ATOM     39  C   UNL A   1      37.418  32.579  31.359  1.00  0.00     0.031 A 
ATOM     40  C   UNL A   1      38.125  31.429  30.700  1.00  0.00     0.074 A 
ATOM     41  C   UNL A   1      37.781  32.981  32.592  1.00  0.00     0.049 A 
ATOM     42  N   UNL A   1      39.102  30.686  31.155  1.00  0.00    -0.248 NA
ATOM     43  C   UNL A   1      37.652  31.043  29.360  1.00  0.00     0.031 C 
ATOM     44  C   UNL A   1      37.138  34.055  33.353  1.00  0.00     0.029 A 
ATOM     45  N   UNL A   1      38.770  32.528  33.428  1.00  0.00    -0.354 N 
ATOM     46  C   UNL A   1      39.351  29.744  30.165  1.00  0.00     0.074 A 
ATOM     47  C   UNL A   1      38.383  29.968  29.113  1.00  0.00     0.031 C 
ATOM     48  C   UNL A   1      37.764  34.192  34.532  1.00  0.00     0.029 A 
ATOM     49  C   UNL A   1      38.821  33.191  34.630  1.00  0.00     0.049 A 
ATOM     50  H   UNL A   1      39.384  31.798  33.188  1.00  0.00     0.167 HD
ATOM     51  C   UNL A   1      40.317  28.796  30.127  1.00  0.00     0.037 A 
ATOM     52  C   UNL A   1      39.624  33.003  35.694  1.00  0.00     0.037 A 
ATOM     53  C   UNL A   1      41.286  28.589  31.173  1.00  0.00     0.049 A 
ATOM     54  C   UNL A   1      40.678  31.930  35.635  1.00  0.00     0.074 A 
ATOM     55  C   UNL A   1      42.337  27.691  31.209  1.00  0.00     0.029 A 
ATOM     56  N   UNL A   1      41.316  29.289  32.369  1.00  0.00    -0.354 N 
ATOM     57  N   UNL A   1      40.951  31.092  34.664  1.00  0.00    -0.248 NA
ATOM     58  C   UNL A   1      41.540  31.784  36.815  1.00  0.00     0.031 C 
ATOM     59  C   UNL A   1      42.968  27.808  32.451  1.00  0.00     0.029 A 
ATOM     60  C   UNL A   1      42.352  28.825  33.163  1.00  0.00     0.049 A 
ATOM     61  H   UNL A   1      40.693  30.010  32.618  1.00  0.00     0.167 HD
ATOM     62  C   UNL A   1      42.033  30.340  35.102  1.00  0.00     0.074 A 
ATOM     63  C   UNL A   1      42.376  30.833  36.420  1.00  0.00     0.031 C 
ATOM     64  C   UNL A   1      42.686  29.334  34.470  1.00  0.00     0.037 A 
BRANCH  51  65
ATOM     65  C   UNL A   1      40.373  27.909  28.915  1.00  0.00     0.064 A 
ATOM     66  C   UNL A   1      41.154  28.237  27.796  1.00  0.00     0.173 A 
ATOM     67  C   UNL A   1      39.662  26.701  28.883  1.00  0.00     0.173 A 
ATOM     68  F   UNL A   1      41.846  29.388  27.769  1.00  0.00    -0.203 F 
ATOM     69  C   UNL A   1      41.194  27.408  26.679  1.00  0.00     0.198 A 
ATOM     70  C   UNL A   1      39.732  25.855  27.779  1.00  0.00     0.198 A 
ATOM     71  F   UNL A   1      38.904  26.332  29.927  1.00  0.00    -0.203 F 
ATOM     72  F   UNL A   1      41.902  27.772  25.601  1.00  0.00    -0.200 F 
ATOM     73  C   UNL A   1      40.489  26.213  26.674  1.00  0.00     0.200 A 
ATOM     74  F   UNL A   1      39.062  24.694  27.781  1.00  0.00    -0.200 F 
ATOM     75  F   UNL A   1      40.534  25.412  25.601  1.00  0.00    -0.200 F 
ENDBRANCH  51  65
BRANCH  52  76
ATOM     76  C   UNL A   1      39.475  33.863  36.898  1.00  0.00     0.064 A 
ATOM     77  C   UNL A   1      40.112  35.110  36.978  1.00  0.00     0.173 A 
ATOM     78  C   UNL A   1      38.698  33.456  37.994  1.00  0.00     0.173 A 
ATOM     79  F   UNL A   1      40.879  35.536  35.964  1.00  0.00    -0.203 F 
ATOM     80  C   UNL A   1      39.998  35.904  38.117  1.00  0.00     0.198 A 
ATOM     81  C   UNL A   1      38.560  34.267  39.118  1.00  0.00     0.198 A 
ATOM     82  F   UNL A   1      38.061  32.277  37.965  1.00  0.00    -0.203 F 
ATOM     83  F   UNL A   1      40.659  37.068  38.187  1.00  0.00    -0.200 F 
ATOM     84  C   UNL A   1      39.218  35.485  39.183  1.00  0.00     0.200 A 
ATOM     85  F   UNL A   1      37.790  33.866  40.139  1.00  0.00    -0.200 F 
ATOM     86  F   UNL A   1      39.106  36.252  40.276  1.00  0.00    -0.200 F 
ENDBRANCH  52  76
BRANCH  64  87
ATOM     87  C   UNL A   1      43.863  28.724  35.176  1.00  0.00     0.064 A 
ATOM     88  C   UNL A   1      45.160  29.235  35.030  1.00  0.00     0.173 A 
ATOM     89  C   UNL A   1      43.680  27.637  36.045  1.00  0.00     0.173 A 
ATOM     90  F   UNL A   1      45.392  30.264  34.200  1.00  0.00    -0.203 F 
ATOM     91  C   UNL A   1      46.236  28.664  35.706  1.00  0.00     0.198 A 
ATOM     92  C   UNL A   1      44.752  27.090  36.746  1.00  0.00     0.198 A 
ATOM     93  F   UNL A   1      42.459  27.113  36.227  1.00  0.00    -0.203 F 
ATOM     94  F   UNL A   1      47.474  29.136  35.510  1.00  0.00    -0.200 F 
ATOM     95  C   UNL A   1      46.029  27.598  36.569  1.00  0.00     0.200 A 
ATOM     96  F   UNL A   1      44.546  26.072  37.593  1.00  0.00    -0.200 F 
ATOM     97  F   UNL A   1      47.064  27.057  37.227  1.00  0.00    -0.200 F 
ENDBRANCH  64  87
ENDBRANCH  38  39
ENDBRANCH  30  33
ENDBRANCH  28  29
ENDBRANCH  27  28
ENDBRANCH  26  27
ENDBRANCH   1  26
TORSDOF 15
ENDMDL
