MODEL 1
REMARK VINA RESULT:     -11.0      0.000      0.000
REMARK SMILES Cc1n[nH]cc1CNC(=O)NC[C@H](CC(C)C)C(=O)NCCCCCCNC(=O)c1ccc(-c2c3nc(c(-c4c(F)c(F)c(F)c(F)c4F)c4ccc([nH]4)c(-c4c(F)c(F)c(F)c(F)c4F)c4nc(c(-c5c(F)c(F)c(F)c(F)c5F)c5ccc2[nH]5)C=C4)C=C3)cc1
REMARK SMILES IDX 22 1 21 2 20 3 18 4 19 5 13 7 12 8 11 9 8 10 9 11 10 13 7 15
REMARK SMILES IDX 6 16 1 17 2 18 3 19 4 20 5 21 14 23 15 24 16 25 17 26 23 27
REMARK SMILES IDX 24 28 25 29 26 30 27 31 28 32 29 34 30 35 31 36 92 37 32 38
REMARK SMILES IDX 91 39 33 40 34 41 35 42 85 43 36 44 90 45 84 46 86 47 37 48
REMARK SMILES IDX 89 49 83 50 82 51 38 53 70 54 50 55 69 56 51 57 54 58 68 59
REMARK SMILES IDX 87 60 52 61 53 62 67 64 88 65 55 66 39 67 40 68 48 69 41 70
REMARK SMILES IDX 42 71 46 72 49 73 43 74 44 75 47 76 45 77 71 78 72 79 80 80
REMARK SMILES IDX 73 81 74 82 78 83 81 84 75 85 76 86 79 87 77 88 56 89 57 90
REMARK SMILES IDX 65 91 58 92 59 93 63 94 66 95 60 96 61 97 64 98 62 99
REMARK H PARENT 20 6 8 12 11 14 4 22 27 33 86 52 54 63
REMARK Flexibility Score: inf
ROOT
ATOM      1  C   UNL A   1      36.654  22.203  25.839  1.00  0.00     0.021 C 
ENDROOT
BRANCH   1   2
ATOM      2  C   UNL A   1      36.727  23.706  25.550  1.00  0.00     0.116 C 
BRANCH   2   3
ATOM      3  N   UNL A   1      35.951  24.082  24.384  1.00  0.00    -0.356 N 
ATOM      4  C   UNL A   1      34.766  24.734  24.241  1.00  0.00     0.224 C 
ATOM      5  O   UNL A   1      34.373  24.901  23.081  1.00  0.00    -0.275 OA
ATOM      6  H   UNL A   1      36.360  23.814  23.530  1.00  0.00     0.163 HD
BRANCH   4   7
ATOM      7  C   UNL A   1      33.913  25.249  25.406  1.00  0.00     0.098 C 
BRANCH   7   8
ATOM      8  C   UNL A   1      32.696  24.361  25.711  1.00  0.00     0.131 C 
BRANCH   8   9
ATOM      9  N   UNL A   1      31.730  24.289  24.629  1.00  0.00    -0.337 N 
ATOM     10  N   UNL A   1      31.941  22.200  23.528  1.00  0.00    -0.334 N 
ATOM     11  C   UNL A   1      31.325  23.356  23.766  1.00  0.00     0.315 C 
ATOM     12  H   UNL A   1      31.391  21.597  22.977  1.00  0.00     0.165 HD
ATOM     13  O   UNL A   1      30.298  23.591  23.124  1.00  0.00    -0.249 OA
ATOM     14  H   UNL A   1      31.255  25.141  24.502  1.00  0.00     0.165 HD
BRANCH  10  15
ATOM     15  C   UNL A   1      33.209  21.609  23.875  1.00  0.00     0.157 C 
BRANCH  15  16
ATOM     16  C   UNL A   1      33.025  20.451  24.788  1.00  0.00     0.012 A 
ATOM     17  C   UNL A   1      32.299  18.627  23.062  1.00  0.00     0.069 C 
ATOM     18  C   UNL A   1      32.615  19.137  24.416  1.00  0.00     0.064 A 
ATOM     19  N   UNL A   1      32.531  18.319  25.471  1.00  0.00    -0.181 NA
ATOM     20  N   UNL A   1      32.898  19.085  26.507  1.00  0.00    -0.285 N 
ATOM     21  C   UNL A   1      33.216  20.361  26.152  1.00  0.00     0.111 A 
ATOM     22  H   UNL A   1      32.936  18.758  27.435  1.00  0.00     0.189 HD
ENDBRANCH  15  16
ENDBRANCH  10  15
ENDBRANCH   8   9
ENDBRANCH   7   8
BRANCH   7  23
ATOM     23  C   UNL A   1      33.804  26.793  25.485  1.00  0.00     0.018 C 
BRANCH  23  24
ATOM     24  C   UNL A   1      32.930  27.470  26.551  1.00  0.00    -0.017 C 
ATOM     25  C   UNL A   1      33.619  28.623  27.274  1.00  0.00     0.007 C 
ATOM     26  C   UNL A   1      31.638  28.004  25.918  1.00  0.00     0.007 C 
ENDBRANCH  23  24
ENDBRANCH   7  23
ENDBRANCH   4   7
ENDBRANCH   2   3
ENDBRANCH   1   2
BRANCH   1  27
ATOM     27  C   UNL A   1      36.846  21.295  24.624  1.00  0.00     0.002 C 
BRANCH  27  28
ATOM     28  C   UNL A   1      36.744  19.789  24.890  1.00  0.00     0.002 C 
BRANCH  28  29
ATOM     29  C   UNL A   1      38.070  19.026  24.979  1.00  0.00     0.021 C 
BRANCH  29  30
ATOM     30  C   UNL A   1      39.200  19.747  25.709  1.00  0.00     0.116 C 
BRANCH  30  31
ATOM     31  N   UNL A   1      40.365  18.898  25.893  1.00  0.00    -0.352 N 
ATOM     32  C   UNL A   1      41.682  19.208  26.104  1.00  0.00     0.251 C 
ATOM     33  H   UNL A   1      40.174  17.933  25.860  1.00  0.00     0.163 HD
ATOM     34  O   UNL A   1      42.530  18.316  26.001  1.00  0.00    -0.269 OA
BRANCH  32  35
ATOM     35  C   UNL A   1      42.123  20.581  26.445  1.00  0.00     0.039 A 
ATOM     36  C   UNL A   1      42.336  21.493  25.404  1.00  0.00     0.014 A 
ATOM     37  C   UNL A   1      42.415  20.959  27.757  1.00  0.00     0.014 A 
ATOM     38  C   UNL A   1      42.796  22.785  25.681  1.00  0.00     0.010 A 
ATOM     39  C   UNL A   1      42.800  22.270  28.042  1.00  0.00     0.010 A 
ATOM     40  C   UNL A   1      43.009  23.194  27.006  1.00  0.00    -0.014 A 
BRANCH  40  41
ATOM     41  C   UNL A   1      43.480  24.567  27.327  1.00  0.00     0.031 A 
ATOM     42  C   UNL A   1      42.518  25.591  27.871  1.00  0.00     0.074 A 
ATOM     43  C   UNL A   1      44.757  24.916  27.074  1.00  0.00     0.049 A 
ATOM     44  N   UNL A   1      42.713  26.861  28.124  1.00  0.00    -0.248 NA
ATOM     45  C   UNL A   1      41.147  25.130  28.141  1.00  0.00     0.031 C 
ATOM     46  C   UNL A   1      45.781  24.032  26.516  1.00  0.00     0.029 A 
ATOM     47  N   UNL A   1      45.408  26.114  27.243  1.00  0.00    -0.354 N 
ATOM     48  C   UNL A   1      41.487  27.354  28.553  1.00  0.00     0.074 A 
ATOM     49  C   UNL A   1      40.544  26.258  28.488  1.00  0.00     0.031 C 
ATOM     50  C   UNL A   1      46.935  24.710  26.406  1.00  0.00     0.029 A 
ATOM     51  C   UNL A   1      46.724  26.086  26.851  1.00  0.00     0.049 A 
ATOM     52  H   UNL A   1      44.973  26.917  27.610  1.00  0.00     0.167 HD
ATOM     53  C   UNL A   1      41.179  28.604  28.979  1.00  0.00     0.037 A 
ATOM     54  C   UNL A   1      47.654  27.059  26.842  1.00  0.00     0.037 A 
ATOM     55  C   UNL A   1      42.127  29.681  29.089  1.00  0.00     0.049 A 
ATOM     56  C   UNL A   1      47.288  28.434  27.331  1.00  0.00     0.074 A 
ATOM     57  C   UNL A   1      41.927  30.958  29.584  1.00  0.00     0.029 A 
ATOM     58  N   UNL A   1      43.456  29.606  28.703  1.00  0.00    -0.354 N 
ATOM     59  N   UNL A   1      46.141  28.872  27.790  1.00  0.00    -0.248 NA
ATOM     60  C   UNL A   1      48.349  29.451  27.305  1.00  0.00     0.031 C 
ATOM     61  C   UNL A   1      43.127  31.668  29.460  1.00  0.00     0.029 A 
ATOM     62  C   UNL A   1      44.083  30.819  28.929  1.00  0.00     0.049 A 
ATOM     63  H   UNL A   1      43.889  28.807  28.323  1.00  0.00     0.167 HD
ATOM     64  C   UNL A   1      46.348  30.201  28.133  1.00  0.00     0.074 A 
ATOM     65  C   UNL A   1      47.735  30.496  27.840  1.00  0.00     0.031 C 
ATOM     66  C   UNL A   1      45.468  31.096  28.644  1.00  0.00     0.037 A 
BRANCH  53  67
ATOM     67  C   UNL A   1      39.753  28.875  29.365  1.00  0.00     0.064 A 
ATOM     68  C   UNL A   1      38.815  29.348  28.437  1.00  0.00     0.173 A 
ATOM     69  C   UNL A   1      39.311  28.615  30.672  1.00  0.00     0.173 A 
ATOM     70  F   UNL A   1      39.189  29.621  27.178  1.00  0.00    -0.203 F 
ATOM     71  C   UNL A   1      37.492  29.578  28.807  1.00  0.00     0.198 A 
ATOM     72  C   UNL A   1      37.981  28.821  31.031  1.00  0.00     0.198 A 
ATOM     73  F   UNL A   1      40.165  28.156  31.597  1.00  0.00    -0.203 F 
ATOM     74  F   UNL A   1      36.624  30.073  27.915  1.00  0.00    -0.200 F 
ATOM     75  C   UNL A   1      37.075  29.307  30.102  1.00  0.00     0.200 A 
ATOM     76  F   UNL A   1      37.577  28.547  32.280  1.00  0.00    -0.200 F 
ATOM     77  F   UNL A   1      35.801  29.522  30.455  1.00  0.00    -0.200 F 
ENDBRANCH  53  67
BRANCH  54  78
ATOM     78  C   UNL A   1      49.034  26.764  26.377  1.00  0.00     0.064 A 
ATOM     79  C   UNL A   1      49.402  26.982  25.042  1.00  0.00     0.173 A 
ATOM     80  C   UNL A   1      50.007  26.256  27.250  1.00  0.00     0.173 A 
ATOM     81  F   UNL A   1      48.498  27.446  24.167  1.00  0.00    -0.203 F 
ATOM     82  C   UNL A   1      50.687  26.686  24.592  1.00  0.00     0.198 A 
ATOM     83  C   UNL A   1      51.299  25.984  26.804  1.00  0.00     0.198 A 
ATOM     84  F   UNL A   1      49.705  26.033  28.536  1.00  0.00    -0.203 F 
ATOM     85  F   UNL A   1      50.999  26.861  23.301  1.00  0.00    -0.200 F 
ATOM     86  C   UNL A   1      51.635  26.191  25.475  1.00  0.00     0.200 A 
ATOM     87  F   UNL A   1      52.217  25.518  27.662  1.00  0.00    -0.200 F 
ATOM     88  F   UNL A   1      52.872  25.908  25.042  1.00  0.00    -0.200 F 
ENDBRANCH  54  78
BRANCH  66  89
ATOM     89  C   UNL A   1      45.986  32.468  28.955  1.00  0.00     0.064 A 
ATOM     90  C   UNL A   1      46.539  32.779  30.206  1.00  0.00     0.173 A 
ATOM     91  C   UNL A   1      45.966  33.473  27.975  1.00  0.00     0.173 A 
ATOM     92  F   UNL A   1      46.566  31.857  31.179  1.00  0.00    -0.203 F 
ATOM     93  C   UNL A   1      47.033  34.054  30.471  1.00  0.00     0.198 A 
ATOM     94  C   UNL A   1      46.486  34.737  28.236  1.00  0.00     0.198 A 
ATOM     95  F   UNL A   1      45.453  33.222  26.761  1.00  0.00    -0.203 F 
ATOM     96  F   UNL A   1      47.517  34.342  31.687  1.00  0.00    -0.200 F 
ATOM     97  C   UNL A   1      47.012  35.029  29.485  1.00  0.00     0.200 A 
ATOM     98  F   UNL A   1      46.476  35.675  27.278  1.00  0.00    -0.200 F 
ATOM     99  F   UNL A   1      47.495  36.252  29.741  1.00  0.00    -0.200 F 
ENDBRANCH  66  89
ENDBRANCH  40  41
ENDBRANCH  32  35
ENDBRANCH  30  31
ENDBRANCH  29  30
ENDBRANCH  28  29
ENDBRANCH  27  28
ENDBRANCH   1  27
TORSDOF 19
ENDMDL
MODEL 2
REMARK VINA RESULT:     -11.0      6.174     10.601
REMARK SMILES Cc1n[nH]cc1CNC(=O)NC[C@H](CC(C)C)C(=O)NCCCCCCNC(=O)c1ccc(-c2c3nc(c(-c4c(F)c(F)c(F)c(F)c4F)c4ccc([nH]4)c(-c4c(F)c(F)c(F)c(F)c4F)c4nc(c(-c5c(F)c(F)c(F)c(F)c5F)c5ccc2[nH]5)C=C4)C=C3)cc1
REMARK SMILES IDX 22 1 21 2 20 3 18 4 19 5 13 7 12 8 11 9 8 10 9 11 10 13 7 15
REMARK SMILES IDX 6 16 1 17 2 18 3 19 4 20 5 21 14 23 15 24 16 25 17 26 23 27
REMARK SMILES IDX 24 28 25 29 26 30 27 31 28 32 29 34 30 35 31 36 92 37 32 38
REMARK SMILES IDX 91 39 33 40 34 41 35 42 85 43 36 44 90 45 84 46 86 47 37 48
REMARK SMILES IDX 89 49 83 50 82 51 38 53 70 54 50 55 69 56 51 57 54 58 68 59
REMARK SMILES IDX 87 60 52 61 53 62 67 64 88 65 55 66 39 67 40 68 48 69 41 70
REMARK SMILES IDX 42 71 46 72 49 73 43 74 44 75 47 76 45 77 71 78 72 79 80 80
REMARK SMILES IDX 73 81 74 82 78 83 81 84 75 85 76 86 79 87 77 88 56 89 57 90
REMARK SMILES IDX 65 91 58 92 59 93 63 94 66 95 60 96 61 97 64 98 62 99
REMARK H PARENT 20 6 8 12 11 14 4 22 27 33 86 52 54 63
REMARK Flexibility Score: inf
ROOT
ATOM      1  C   UNL A   1      33.484  31.741  27.639  1.00  0.00     0.021 C 
ENDROOT
BRANCH   1   2
ATOM      2  C   UNL A   1      33.795  30.293  27.243  1.00  0.00     0.116 C 
BRANCH   2   3
ATOM      3  N   UNL A   1      32.749  29.373  27.648  1.00  0.00    -0.356 N 
ATOM      4  C   UNL A   1      32.065  28.408  26.978  1.00  0.00     0.224 C 
ATOM      5  O   UNL A   1      31.220  27.786  27.631  1.00  0.00    -0.275 OA
ATOM      6  H   UNL A   1      32.483  29.465  28.591  1.00  0.00     0.163 HD
BRANCH   4   7
ATOM      7  C   UNL A   1      32.274  28.065  25.498  1.00  0.00     0.098 C 
BRANCH   7   8
ATOM      8  C   UNL A   1      33.609  27.357  25.218  1.00  0.00     0.131 C 
BRANCH   8   9
ATOM      9  N   UNL A   1      33.770  26.920  23.843  1.00  0.00    -0.337 N 
ATOM     10  N   UNL A   1      33.506  24.566  23.733  1.00  0.00    -0.334 N 
ATOM     11  C   UNL A   1      33.631  25.771  23.180  1.00  0.00     0.315 C 
ATOM     12  H   UNL A   1      33.258  23.881  23.071  1.00  0.00     0.165 HD
ATOM     13  O   UNL A   1      33.631  25.829  21.947  1.00  0.00    -0.249 OA
ATOM     14  H   UNL A   1      34.051  27.656  23.252  1.00  0.00     0.165 HD
BRANCH  10  15
ATOM     15  C   UNL A   1      33.642  24.014  25.057  1.00  0.00     0.157 C 
BRANCH  15  16
ATOM     16  C   UNL A   1      32.325  23.949  25.744  1.00  0.00     0.012 A 
ATOM     17  C   UNL A   1      32.971  22.500  27.821  1.00  0.00     0.069 C 
ATOM     18  C   UNL A   1      32.040  23.270  26.965  1.00  0.00     0.064 A 
ATOM     19  N   UNL A   1      30.756  23.390  27.319  1.00  0.00    -0.181 NA
ATOM     20  N   UNL A   1      30.222  24.150  26.353  1.00  0.00    -0.285 N 
ATOM     21  C   UNL A   1      31.118  24.521  25.398  1.00  0.00     0.111 A 
ATOM     22  H   UNL A   1      29.273  24.415  26.336  1.00  0.00     0.189 HD
ENDBRANCH  15  16
ENDBRANCH  10  15
ENDBRANCH   8   9
ENDBRANCH   7   8
BRANCH   7  23
ATOM     23  C   UNL A   1      31.719  29.125  24.513  1.00  0.00     0.018 C 
BRANCH  23  24
ATOM     24  C   UNL A   1      30.401  28.891  23.761  1.00  0.00    -0.017 C 
ATOM     25  C   UNL A   1      30.358  29.526  22.375  1.00  0.00     0.007 C 
ATOM     26  C   UNL A   1      30.137  27.387  23.608  1.00  0.00     0.007 C 
ENDBRANCH  23  24
ENDBRANCH   7  23
ENDBRANCH   4   7
ENDBRANCH   2   3
ENDBRANCH   1   2
BRANCH   1  27
ATOM     27  C   UNL A   1      34.445  32.359  28.656  1.00  0.00     0.002 C 
BRANCH  27  28
ATOM     28  C   UNL A   1      34.478  33.891  28.700  1.00  0.00     0.002 C 
BRANCH  28  29
ATOM     29  C   UNL A   1      33.124  34.593  28.854  1.00  0.00     0.021 C 
BRANCH  29  30
ATOM     30  C   UNL A   1      33.183  36.051  29.299  1.00  0.00     0.116 C 
BRANCH  30  31
ATOM     31  N   UNL A   1      32.487  36.270  30.555  1.00  0.00    -0.352 N 
ATOM     32  C   UNL A   1      32.694  35.746  31.804  1.00  0.00     0.251 C 
ATOM     33  H   UNL A   1      31.736  36.904  30.500  1.00  0.00     0.163 HD
ATOM     34  O   UNL A   1      31.828  35.906  32.670  1.00  0.00    -0.269 OA
BRANCH  32  35
ATOM     35  C   UNL A   1      33.920  34.989  32.146  1.00  0.00     0.039 A 
ATOM     36  C   UNL A   1      33.798  33.635  32.482  1.00  0.00     0.014 A 
ATOM     37  C   UNL A   1      35.170  35.604  32.228  1.00  0.00     0.014 A 
ATOM     38  C   UNL A   1      34.926  32.896  32.855  1.00  0.00     0.010 A 
ATOM     39  C   UNL A   1      36.308  34.851  32.526  1.00  0.00     0.010 A 
ATOM     40  C   UNL A   1      36.197  33.492  32.857  1.00  0.00    -0.014 A 
BRANCH  40  41
ATOM     41  C   UNL A   1      37.412  32.722  33.232  1.00  0.00     0.031 A 
ATOM     42  C   UNL A   1      38.127  33.016  34.525  1.00  0.00     0.074 A 
ATOM     43  C   UNL A   1      37.911  31.798  32.387  1.00  0.00     0.049 A 
ATOM     44  N   UNL A   1      39.249  32.522  34.985  1.00  0.00    -0.248 NA
ATOM     45  C   UNL A   1      37.512  34.021  35.406  1.00  0.00     0.031 C 
ATOM     46  C   UNL A   1      37.335  31.442  31.090  1.00  0.00     0.029 A 
ATOM     47  N   UNL A   1      39.023  31.000  32.488  1.00  0.00    -0.354 N 
ATOM     48  C   UNL A   1      39.487  33.174  36.188  1.00  0.00     0.074 A 
ATOM     49  C   UNL A   1      38.415  34.129  36.369  1.00  0.00     0.031 C 
ATOM     50  C   UNL A   1      38.087  30.483  30.524  1.00  0.00     0.029 A 
ATOM     51  C   UNL A   1      39.217  30.184  31.400  1.00  0.00     0.049 A 
ATOM     52  H   UNL A   1      39.626  31.012  33.266  1.00  0.00     0.167 HD
ATOM     53  C   UNL A   1      40.497  32.982  37.071  1.00  0.00     0.037 A 
ATOM     54  C   UNL A   1      40.198  29.301  31.134  1.00  0.00     0.037 A 
ATOM     55  C   UNL A   1      41.537  31.999  36.914  1.00  0.00     0.049 A 
ATOM     56  C   UNL A   1      41.302  29.099  32.137  1.00  0.00     0.074 A 
ATOM     57  C   UNL A   1      42.558  31.676  37.790  1.00  0.00     0.029 A 
ATOM     58  N   UNL A   1      41.685  31.176  35.807  1.00  0.00    -0.354 N 
ATOM     59  N   UNL A   1      41.482  29.680  33.297  1.00  0.00    -0.248 NA
ATOM     60  C   UNL A   1      42.337  28.115  31.792  1.00  0.00     0.031 C 
ATOM     61  C   UNL A   1      43.348  30.685  37.197  1.00  0.00     0.029 A 
ATOM     62  C   UNL A   1      42.793  30.361  35.970  1.00  0.00     0.049 A 
ATOM     63  H   UNL A   1      41.091  31.173  35.023  1.00  0.00     0.167 HD
ATOM     64  C   UNL A   1      42.630  29.114  33.834  1.00  0.00     0.074 A 
ATOM     65  C   UNL A   1      43.099  28.134  32.877  1.00  0.00     0.031 C 
ATOM     66  C   UNL A   1      43.241  29.382  35.014  1.00  0.00     0.037 A 
BRANCH  53  67
ATOM     67  C   UNL A   1      40.528  33.852  38.294  1.00  0.00     0.064 A 
ATOM     68  C   UNL A   1      41.259  35.048  38.331  1.00  0.00     0.173 A 
ATOM     69  C   UNL A   1      39.777  33.506  39.429  1.00  0.00     0.173 A 
ATOM     70  F   UNL A   1      42.000  35.419  37.276  1.00  0.00    -0.203 F 
ATOM     71  C   UNL A   1      41.262  35.852  39.468  1.00  0.00     0.198 A 
ATOM     72  C   UNL A   1      39.761  34.326  40.554  1.00  0.00     0.198 A 
ATOM     73  F   UNL A   1      39.055  32.376  39.444  1.00  0.00    -0.203 F 
ATOM     74  F   UNL A   1      42.004  36.967  39.497  1.00  0.00    -0.200 F 
ATOM     75  C   UNL A   1      40.507  35.494  40.576  1.00  0.00     0.200 A 
ATOM     76  F   UNL A   1      39.021  33.985  41.619  1.00  0.00    -0.200 F 
ATOM     77  F   UNL A   1      40.505  36.272  41.666  1.00  0.00    -0.200 F 
ENDBRANCH  53  67
BRANCH  54  78
ATOM     78  C   UNL A   1      40.169  28.517  29.872  1.00  0.00     0.064 A 
ATOM     79  C   UNL A   1      39.529  27.271  29.818  1.00  0.00     0.173 A 
ATOM     80  C   UNL A   1      40.781  28.990  28.703  1.00  0.00     0.173 A 
ATOM     81  F   UNL A   1      38.949  26.768  30.918  1.00  0.00    -0.203 F 
ATOM     82  C   UNL A   1      39.518  26.518  28.646  1.00  0.00     0.198 A 
ATOM     83  C   UNL A   1      40.747  28.247  27.524  1.00  0.00     0.198 A 
ATOM     84  F   UNL A   1      41.403  30.177  28.703  1.00  0.00    -0.203 F 
ATOM     85  F   UNL A   1      38.938  25.310  28.634  1.00  0.00    -0.200 F 
ATOM     86  C   UNL A   1      40.123  27.009  27.499  1.00  0.00     0.200 A 
ATOM     87  F   UNL A   1      41.322  28.730  26.415  1.00  0.00    -0.200 F 
ATOM     88  F   UNL A   1      40.110  26.285  26.371  1.00  0.00    -0.200 F 
ENDBRANCH  54  78
BRANCH  66  89
ATOM     89  C   UNL A   1      44.462  28.579  35.354  1.00  0.00     0.064 A 
ATOM     90  C   UNL A   1      45.748  29.016  35.006  1.00  0.00     0.173 A 
ATOM     91  C   UNL A   1      44.344  27.379  36.072  1.00  0.00     0.173 A 
ATOM     92  F   UNL A   1      45.910  30.148  34.307  1.00  0.00    -0.203 F 
ATOM     93  C   UNL A   1      46.872  28.268  35.347  1.00  0.00     0.198 A 
ATOM     94  C   UNL A   1      45.472  26.648  36.434  1.00  0.00     0.198 A 
ATOM     95  F   UNL A   1      43.135  26.923  36.433  1.00  0.00    -0.203 F 
ATOM     96  F   UNL A   1      48.089  28.681  34.967  1.00  0.00    -0.200 F 
ATOM     97  C   UNL A   1      46.734  27.089  36.065  1.00  0.00     0.200 A 
ATOM     98  F   UNL A   1      45.337  25.516  37.139  1.00  0.00    -0.200 F 
ATOM     99  F   UNL A   1      47.818  26.375  36.397  1.00  0.00    -0.200 F 
ENDBRANCH  66  89
ENDBRANCH  40  41
ENDBRANCH  32  35
ENDBRANCH  30  31
ENDBRANCH  29  30
ENDBRANCH  28  29
ENDBRANCH  27  28
ENDBRANCH   1  27
TORSDOF 19
ENDMDL
MODEL 3
REMARK VINA RESULT:     -10.8      5.544     10.756
REMARK SMILES Cc1n[nH]cc1CNC(=O)NC[C@H](CC(C)C)C(=O)NCCCCCCNC(=O)c1ccc(-c2c3nc(c(-c4c(F)c(F)c(F)c(F)c4F)c4ccc([nH]4)c(-c4c(F)c(F)c(F)c(F)c4F)c4nc(c(-c5c(F)c(F)c(F)c(F)c5F)c5ccc2[nH]5)C=C4)C=C3)cc1
REMARK SMILES IDX 22 1 21 2 20 3 18 4 19 5 13 7 12 8 11 9 8 10 9 11 10 13 7 15
REMARK SMILES IDX 6 16 1 17 2 18 3 19 4 20 5 21 14 23 15 24 16 25 17 26 23 27
REMARK SMILES IDX 24 28 25 29 26 30 27 31 28 32 29 34 30 35 31 36 92 37 32 38
REMARK SMILES IDX 91 39 33 40 34 41 35 42 85 43 36 44 90 45 84 46 86 47 37 48
REMARK SMILES IDX 89 49 83 50 82 51 38 53 70 54 50 55 69 56 51 57 54 58 68 59
REMARK SMILES IDX 87 60 52 61 53 62 67 64 88 65 55 66 39 67 40 68 48 69 41 70
REMARK SMILES IDX 42 71 46 72 49 73 43 74 44 75 47 76 45 77 71 78 72 79 80 80
REMARK SMILES IDX 73 81 74 82 78 83 81 84 75 85 76 86 79 87 77 88 56 89 57 90
REMARK SMILES IDX 65 91 58 92 59 93 63 94 66 95 60 96 61 97 64 98 62 99
REMARK H PARENT 20 6 8 12 11 14 4 22 27 33 86 52 54 63
REMARK Flexibility Score: inf
ROOT
ATOM      1  C   UNL A   1      33.533  29.428  26.398  1.00  0.00     0.021 C 
ENDROOT
BRANCH   1   2
ATOM      2  C   UNL A   1      33.732  27.912  26.496  1.00  0.00     0.116 C 
BRANCH   2   3
ATOM      3  N   UNL A   1      33.744  27.271  25.194  1.00  0.00    -0.356 N 
ATOM      4  C   UNL A   1      32.788  26.617  24.484  1.00  0.00     0.224 C 
ATOM      5  O   UNL A   1      33.132  26.181  23.379  1.00  0.00    -0.275 OA
ATOM      6  H   UNL A   1      34.614  27.319  24.737  1.00  0.00     0.163 HD
BRANCH   4   7
ATOM      7  C   UNL A   1      31.351  26.389  24.968  1.00  0.00     0.098 C 
BRANCH   7   8
ATOM      8  C   UNL A   1      30.824  24.977  24.672  1.00  0.00     0.131 C 
BRANCH   8   9
ATOM      9  N   UNL A   1      30.240  24.309  25.823  1.00  0.00    -0.337 N 
ATOM     10  N   UNL A   1      31.267  22.190  26.104  1.00  0.00    -0.334 N 
ATOM     11  C   UNL A   1      30.479  23.187  26.503  1.00  0.00     0.315 C 
ATOM     12  H   UNL A   1      31.426  21.536  26.822  1.00  0.00     0.165 HD
ATOM     13  O   UNL A   1      29.910  23.056  27.590  1.00  0.00    -0.249 OA
ATOM     14  H   UNL A   1      29.480  24.812  26.195  1.00  0.00     0.165 HD
BRANCH  10  15
ATOM     15  C   UNL A   1      31.946  21.830  24.884  1.00  0.00     0.157 C 
BRANCH  15  16
ATOM     16  C   UNL A   1      33.313  21.320  25.168  1.00  0.00     0.012 A 
ATOM     17  C   UNL A   1      34.495  23.552  25.842  1.00  0.00     0.069 C 
ATOM     18  C   UNL A   1      34.435  22.095  25.585  1.00  0.00     0.064 A 
ATOM     19  N   UNL A   1      35.531  21.345  25.748  1.00  0.00    -0.181 NA
ATOM     20  N   UNL A   1      35.121  20.103  25.458  1.00  0.00    -0.285 N 
ATOM     21  C   UNL A   1      33.804  20.032  25.119  1.00  0.00     0.111 A 
ATOM     22  H   UNL A   1      35.715  19.317  25.488  1.00  0.00     0.189 HD
ENDBRANCH  15  16
ENDBRANCH  10  15
ENDBRANCH   8   9
ENDBRANCH   7   8
BRANCH   7  23
ATOM     23  C   UNL A   1      30.426  27.625  24.825  1.00  0.00     0.018 C 
BRANCH  23  24
ATOM     24  C   UNL A   1      29.794  27.986  23.473  1.00  0.00    -0.017 C 
ATOM     25  C   UNL A   1      28.332  27.571  23.342  1.00  0.00     0.007 C 
ATOM     26  C   UNL A   1      29.886  29.499  23.231  1.00  0.00     0.007 C 
ENDBRANCH  23  24
ENDBRANCH   7  23
ENDBRANCH   4   7
ENDBRANCH   2   3
ENDBRANCH   1   2
BRANCH   1  27
ATOM     27  C   UNL A   1      32.246  29.959  27.029  1.00  0.00     0.002 C 
BRANCH  27  28
ATOM     28  C   UNL A   1      31.422  30.919  26.163  1.00  0.00     0.002 C 
BRANCH  28  29
ATOM     29  C   UNL A   1      31.368  32.377  26.633  1.00  0.00     0.021 C 
BRANCH  29  30
ATOM     30  C   UNL A   1      32.691  32.965  27.116  1.00  0.00     0.116 C 
BRANCH  30  31
ATOM     31  N   UNL A   1      32.531  34.302  27.662  1.00  0.00    -0.352 N 
ATOM     32  C   UNL A   1      33.093  34.903  28.757  1.00  0.00     0.251 C 
ATOM     33  H   UNL A   1      31.910  34.876  27.156  1.00  0.00     0.163 HD
ATOM     34  O   UNL A   1      32.628  35.975  29.154  1.00  0.00    -0.269 OA
BRANCH  32  35
ATOM     35  C   UNL A   1      34.237  34.303  29.483  1.00  0.00     0.039 A 
ATOM     36  C   UNL A   1      35.532  34.551  29.012  1.00  0.00     0.014 A 
ATOM     37  C   UNL A   1      34.054  33.433  30.559  1.00  0.00     0.014 A 
ATOM     38  C   UNL A   1      36.636  33.967  29.642  1.00  0.00     0.010 A 
ATOM     39  C   UNL A   1      35.158  32.911  31.236  1.00  0.00     0.010 A 
ATOM     40  C   UNL A   1      36.461  33.159  30.776  1.00  0.00    -0.014 A 
BRANCH  40  41
ATOM     41  C   UNL A   1      37.620  32.542  31.474  1.00  0.00     0.031 A 
ATOM     42  C   UNL A   1      38.376  31.409  30.831  1.00  0.00     0.074 A 
ATOM     43  C   UNL A   1      37.959  32.957  32.711  1.00  0.00     0.049 A 
ATOM     44  N   UNL A   1      39.352  30.682  31.315  1.00  0.00    -0.248 NA
ATOM     45  C   UNL A   1      37.962  31.026  29.472  1.00  0.00     0.031 C 
ATOM     46  C   UNL A   1      37.288  34.020  33.459  1.00  0.00     0.029 A 
ATOM     47  N   UNL A   1      38.947  32.524  33.560  1.00  0.00    -0.354 N 
ATOM     48  C   UNL A   1      39.645  29.741  30.336  1.00  0.00     0.074 A 
ATOM     49  C   UNL A   1      38.719  29.963  29.246  1.00  0.00     0.031 C 
ATOM     50  C   UNL A   1      37.894  34.170  34.648  1.00  0.00     0.029 A 
ATOM     51  C   UNL A   1      38.971  33.190  34.761  1.00  0.00     0.049 A 
ATOM     52  H   UNL A   1      39.578  31.804  33.331  1.00  0.00     0.167 HD
ATOM     53  C   UNL A   1      40.611  28.790  30.337  1.00  0.00     0.037 A 
ATOM     54  C   UNL A   1      39.766  33.026  35.836  1.00  0.00     0.037 A 
ATOM     55  C   UNL A   1      41.563  28.601  31.400  1.00  0.00     0.049 A 
ATOM     56  C   UNL A   1      40.838  31.970  35.806  1.00  0.00     0.074 A 
ATOM     57  C   UNL A   1      42.627  27.717  31.458  1.00  0.00     0.029 A 
ATOM     58  N   UNL A   1      41.568  29.311  32.591  1.00  0.00    -0.354 N 
ATOM     59  N   UNL A   1      41.144  31.127  34.850  1.00  0.00    -0.248 NA
ATOM     60  C   UNL A   1      41.679  31.846  37.005  1.00  0.00     0.031 C 
ATOM     61  C   UNL A   1      43.252  27.865  32.701  1.00  0.00     0.029 A 
ATOM     62  C   UNL A   1      42.604  28.872  33.399  1.00  0.00     0.049 A 
ATOM     63  H   UNL A   1      40.930  30.023  32.827  1.00  0.00     0.167 HD
ATOM     64  C   UNL A   1      42.226  30.394  35.318  1.00  0.00     0.074 A 
ATOM     65  C   UNL A   1      42.532  30.899  36.640  1.00  0.00     0.031 C 
ATOM     66  C   UNL A   1      42.905  29.392  34.707  1.00  0.00     0.037 A 
BRANCH  53  67
ATOM     67  C   UNL A   1      40.692  27.879  29.147  1.00  0.00     0.064 A 
ATOM     68  C   UNL A   1      41.609  28.101  28.109  1.00  0.00     0.173 A 
ATOM     69  C   UNL A   1      39.871  26.743  29.066  1.00  0.00     0.173 A 
ATOM     70  F   UNL A   1      42.409  29.177  28.134  1.00  0.00    -0.203 F 
ATOM     71  C   UNL A   1      41.682  27.235  27.020  1.00  0.00     0.198 A 
ATOM     72  C   UNL A   1      39.967  25.865  27.990  1.00  0.00     0.198 A 
ATOM     73  F   UNL A   1      38.982  26.480  30.035  1.00  0.00    -0.203 F 
ATOM     74  F   UNL A   1      42.534  27.493  26.018  1.00  0.00    -0.200 F 
ATOM     75  C   UNL A   1      40.867  26.114  26.965  1.00  0.00     0.200 A 
ATOM     76  F   UNL A   1      39.187  24.776  27.944  1.00  0.00    -0.200 F 
ATOM     77  F   UNL A   1      40.944  25.279  25.920  1.00  0.00    -0.200 F 
ENDBRANCH  53  67
BRANCH  54  78
ATOM     78  C   UNL A   1      39.599  33.900  37.025  1.00  0.00     0.064 A 
ATOM     79  C   UNL A   1      38.829  33.482  38.119  1.00  0.00     0.173 A 
ATOM     80  C   UNL A   1      40.196  35.167  37.091  1.00  0.00     0.173 A 
ATOM     81  F   UNL A   1      38.220  32.287  38.090  1.00  0.00    -0.203 F 
ATOM     82  C   UNL A   1      38.646  34.305  39.227  1.00  0.00     0.198 A 
ATOM     83  C   UNL A   1      40.034  35.979  38.212  1.00  0.00     0.198 A 
ATOM     84  F   UNL A   1      40.945  35.611  36.072  1.00  0.00    -0.203 F 
ATOM     85  F   UNL A   1      37.869  33.899  40.240  1.00  0.00    -0.200 F 
ATOM     86  C   UNL A   1      39.253  35.551  39.275  1.00  0.00     0.200 A 
ATOM     87  F   UNL A   1      40.632  37.177  38.261  1.00  0.00    -0.200 F 
ATOM     88  F   UNL A   1      39.079  36.342  40.343  1.00  0.00    -0.200 F 
ENDBRANCH  54  78
BRANCH  66  89
ATOM     89  C   UNL A   1      44.069  28.801  35.445  1.00  0.00     0.064 A 
ATOM     90  C   UNL A   1      43.909  27.721  36.325  1.00  0.00     0.173 A 
ATOM     91  C   UNL A   1      45.366  29.296  35.237  1.00  0.00     0.173 A 
ATOM     92  F   UNL A   1      42.688  27.224  36.568  1.00  0.00    -0.203 F 
ATOM     93  C   UNL A   1      45.004  27.172  36.988  1.00  0.00     0.198 A 
ATOM     94  C   UNL A   1      46.461  28.726  35.880  1.00  0.00     0.198 A 
ATOM     95  F   UNL A   1      45.570  30.324  34.400  1.00  0.00    -0.203 F 
ATOM     96  F   UNL A   1      44.824  26.169  37.858  1.00  0.00    -0.200 F 
ATOM     97  C   UNL A   1      46.278  27.670  36.760  1.00  0.00     0.200 A 
ATOM     98  F   UNL A   1      47.693  29.201  35.650  1.00  0.00    -0.200 F 
ATOM     99  F   UNL A   1      47.331  27.135  37.394  1.00  0.00    -0.200 F 
ENDBRANCH  66  89
ENDBRANCH  40  41
ENDBRANCH  32  35
ENDBRANCH  30  31
ENDBRANCH  29  30
ENDBRANCH  28  29
ENDBRANCH  27  28
ENDBRANCH   1  27
TORSDOF 19
ENDMDL
