MODEL 1
REMARK VINA RESULT:     -12.3      0.000      0.000
REMARK SMILES O=C(NCCCCCCNC(=O)[C@H](c1ccccc1)C(c1ccccc1)c1ccccc1)c1ccc(-c2c3nc(c(-c4c(F)c(F)c(F)c(F)c4F)c4ccc([nH]4)c(-c4c(F)c(F)c(F)c(F)c4F)c4nc(c(-c5c(F)c(F)c(F)c(F)c5F)c5ccc2[nH]5)C=C4)C=C3)cc1
REMARK SMILES IDX 6 1 5 2 4 3 3 4 1 5 2 6 33 8 34 9 95 10 35 11 94 12 36 13
REMARK SMILES IDX 37 14 38 15 88 16 39 17 93 18 87 19 89 20 40 21 92 22 86 23
REMARK SMILES IDX 85 24 41 26 73 27 53 28 72 29 54 30 57 31 71 32 90 33 55 34
REMARK SMILES IDX 56 35 70 37 91 38 58 39 42 40 43 41 51 42 44 43 45 44 49 45
REMARK SMILES IDX 52 46 46 47 47 48 50 49 48 50 74 51 75 52 83 53 76 54 77 55
REMARK SMILES IDX 81 56 84 57 78 58 79 59 82 60 80 61 59 62 60 63 68 64 61 65
REMARK SMILES IDX 62 66 66 67 69 68 63 69 64 70 67 71 65 72 7 73 8 74 9 75
REMARK SMILES IDX 10 76 11 77 12 79 13 80 20 81 21 82 22 83 26 84 23 85 25 86
REMARK SMILES IDX 24 87 27 88 28 89 32 90 29 91 31 92 30 93 14 94 15 95 19 96
REMARK SMILES IDX 16 97 18 98 17 99
REMARK H PARENT 3 7 89 25 57 36 10 78
REMARK Flexibility Score: inf
ROOT
ATOM      1  C   UNL A   1      35.049  23.729  23.616  1.00  0.00     0.002 C 
ENDROOT
BRANCH   1   2
ATOM      2  C   UNL A   1      35.183  23.355  25.092  1.00  0.00     0.021 C 
BRANCH   2   3
ATOM      3  C   UNL A   1      36.462  23.849  25.754  1.00  0.00     0.116 C 
BRANCH   3   4
ATOM      4  N   UNL A   1      37.477  22.810  25.833  1.00  0.00    -0.352 N 
ATOM      5  O   UNL A   1      39.560  21.976  26.074  1.00  0.00    -0.269 OA
ATOM      6  C   UNL A   1      38.785  22.913  26.234  1.00  0.00     0.251 C 
ATOM      7  H   UNL A   1      37.184  21.910  25.562  1.00  0.00     0.163 HD
BRANCH   6   8
ATOM      8  C   UNL A   1      39.264  24.171  26.846  1.00  0.00     0.039 A 
ATOM      9  C   UNL A   1      38.998  24.453  28.188  1.00  0.00     0.014 A 
ATOM     10  C   UNL A   1      40.001  25.070  26.071  1.00  0.00     0.014 A 
ATOM     11  C   UNL A   1      39.359  25.685  28.719  1.00  0.00     0.010 A 
ATOM     12  C   UNL A   1      40.439  26.273  26.631  1.00  0.00     0.010 A 
ATOM     13  C   UNL A   1      40.103  26.598  27.955  1.00  0.00    -0.014 A 
BRANCH  13  14
ATOM     14  C   UNL A   1      40.594  27.842  28.598  1.00  0.00     0.031 A 
ATOM     15  C   UNL A   1      42.044  28.032  28.935  1.00  0.00     0.074 A 
ATOM     16  C   UNL A   1      39.702  28.821  28.849  1.00  0.00     0.049 A 
ATOM     17  N   UNL A   1      42.634  29.073  29.470  1.00  0.00    -0.248 NA
ATOM     18  C   UNL A   1      42.951  26.914  28.642  1.00  0.00     0.031 C 
ATOM     19  C   UNL A   1      38.265  28.736  28.581  1.00  0.00     0.029 A 
ATOM     20  N   UNL A   1      39.869  30.081  29.363  1.00  0.00    -0.354 N 
ATOM     21  C   UNL A   1      43.974  28.732  29.589  1.00  0.00     0.074 A 
ATOM     22  C   UNL A   1      44.110  27.378  29.094  1.00  0.00     0.031 C 
ATOM     23  C   UNL A   1      37.689  29.905  28.887  1.00  0.00     0.029 A 
ATOM     24  C   UNL A   1      38.702  30.802  29.430  1.00  0.00     0.049 A 
ATOM     25  H   UNL A   1      40.740  30.433  29.657  1.00  0.00     0.167 HD
ATOM     26  C   UNL A   1      44.996  29.486  30.061  1.00  0.00     0.037 A 
ATOM     27  C   UNL A   1      38.470  32.044  29.891  1.00  0.00     0.037 A 
ATOM     28  C   UNL A   1      44.854  30.838  30.542  1.00  0.00     0.049 A 
ATOM     29  C   UNL A   1      39.621  32.846  30.425  1.00  0.00     0.074 A 
ATOM     30  C   UNL A   1      45.834  31.696  31.010  1.00  0.00     0.029 A 
ATOM     31  N   UNL A   1      43.652  31.527  30.621  1.00  0.00    -0.354 N 
ATOM     32  N   UNL A   1      40.889  32.526  30.496  1.00  0.00    -0.248 NA
ATOM     33  C   UNL A   1      39.306  34.183  30.944  1.00  0.00     0.031 C 
ATOM     34  C   UNL A   1      45.221  32.888  31.412  1.00  0.00     0.029 A 
ATOM     35  C   UNL A   1      43.863  32.791  31.150  1.00  0.00     0.049 A 
ATOM     36  H   UNL A   1      42.777  31.171  30.342  1.00  0.00     0.167 HD
ATOM     37  C   UNL A   1      41.527  33.621  31.058  1.00  0.00     0.074 A 
ATOM     38  C   UNL A   1      40.509  34.628  31.281  1.00  0.00     0.031 C 
ATOM     39  C   UNL A   1      42.837  33.778  31.369  1.00  0.00     0.037 A 
BRANCH  26  40
ATOM     40  C   UNL A   1      46.365  28.871  30.094  1.00  0.00     0.064 A 
ATOM     41  C   UNL A   1      46.820  28.149  31.207  1.00  0.00     0.173 A 
ATOM     42  C   UNL A   1      47.205  28.944  28.972  1.00  0.00     0.173 A 
ATOM     43  F   UNL A   1      46.060  28.056  32.309  1.00  0.00    -0.203 F 
ATOM     44  C   UNL A   1      48.071  27.536  31.201  1.00  0.00     0.198 A 
ATOM     45  C   UNL A   1      48.445  28.310  28.960  1.00  0.00     0.198 A 
ATOM     46  F   UNL A   1      46.815  29.616  27.879  1.00  0.00    -0.203 F 
ATOM     47  F   UNL A   1      48.498  26.878  32.288  1.00  0.00    -0.200 F 
ATOM     48  C   UNL A   1      48.879  27.610  30.076  1.00  0.00     0.200 A 
ATOM     49  F   UNL A   1      49.218  28.372  27.867  1.00  0.00    -0.200 F 
ATOM     50  F   UNL A   1      50.076  27.008  30.067  1.00  0.00    -0.200 F 
ENDBRANCH  26  40
BRANCH  27  51
ATOM     51  C   UNL A   1      37.090  32.592  29.874  1.00  0.00     0.064 A 
ATOM     52  C   UNL A   1      36.598  33.277  28.755  1.00  0.00     0.173 A 
ATOM     53  C   UNL A   1      36.234  32.438  30.975  1.00  0.00     0.173 A 
ATOM     54  F   UNL A   1      37.386  33.465  27.686  1.00  0.00    -0.203 F 
ATOM     55  C   UNL A   1      35.307  33.801  28.744  1.00  0.00     0.198 A 
ATOM     56  C   UNL A   1      34.933  32.934  30.950  1.00  0.00     0.198 A 
ATOM     57  F   UNL A   1      36.655  31.785  32.067  1.00  0.00    -0.203 F 
ATOM     58  F   UNL A   1      34.877  34.490  27.678  1.00  0.00    -0.200 F 
ATOM     59  C   UNL A   1      34.474  33.623  29.838  1.00  0.00     0.200 A 
ATOM     60  F   UNL A   1      34.126  32.745  32.002  1.00  0.00    -0.200 F 
ATOM     61  F   UNL A   1      33.231  34.122  29.823  1.00  0.00    -0.200 F 
ENDBRANCH  27  51
BRANCH  39  62
ATOM     62  C   UNL A   1      43.237  35.094  31.967  1.00  0.00     0.064 A 
ATOM     63  C   UNL A   1      43.677  36.159  31.166  1.00  0.00     0.173 A 
ATOM     64  C   UNL A   1      43.169  35.295  33.353  1.00  0.00     0.173 A 
ATOM     65  F   UNL A   1      43.776  36.006  29.836  1.00  0.00    -0.203 F 
ATOM     66  C   UNL A   1      44.064  37.368  31.736  1.00  0.00     0.198 A 
ATOM     67  C   UNL A   1      43.530  36.516  33.916  1.00  0.00     0.198 A 
ATOM     68  F   UNL A   1      42.752  34.309  34.161  1.00  0.00    -0.203 F 
ATOM     69  F   UNL A   1      44.534  38.352  30.957  1.00  0.00    -0.200 F 
ATOM     70  C   UNL A   1      43.985  37.548  33.109  1.00  0.00     0.200 A 
ATOM     71  F   UNL A   1      43.444  36.692  35.241  1.00  0.00    -0.200 F 
ATOM     72  F   UNL A   1      44.359  38.713  33.654  1.00  0.00    -0.200 F 
ENDBRANCH  39  62
ENDBRANCH  13  14
ENDBRANCH   6   8
ENDBRANCH   3   4
ENDBRANCH   2   3
ENDBRANCH   1   2
BRANCH   1  73
ATOM     73  C   UNL A   1      34.034  24.838  23.316  1.00  0.00     0.002 C 
BRANCH  73  74
ATOM     74  C   UNL A   1      33.309  24.714  21.969  1.00  0.00     0.021 C 
BRANCH  74  75
ATOM     75  C   UNL A   1      32.305  25.833  21.698  1.00  0.00     0.116 C 
BRANCH  75  76
ATOM     76  N   UNL A   1      32.749  27.084  22.277  1.00  0.00    -0.356 N 
ATOM     77  C   UNL A   1      32.061  27.946  23.085  1.00  0.00     0.228 C 
ATOM     78  H   UNL A   1      33.672  27.350  22.060  1.00  0.00     0.163 HD
ATOM     79  O   UNL A   1      32.523  29.076  23.250  1.00  0.00    -0.274 OA
BRANCH  77  80
ATOM     80  C   UNL A   1      30.735  27.479  23.707  1.00  0.00     0.120 C 
BRANCH  80  81
ATOM     81  C   UNL A   1      30.929  27.102  25.211  1.00  0.00     0.066 C 
BRANCH  81  82
ATOM     82  C   UNL A   1      31.122  25.595  25.424  1.00  0.00    -0.039 A 
ATOM     83  C   UNL A   1      31.750  25.071  26.567  1.00  0.00     0.004 A 
ATOM     84  C   UNL A   1      30.668  24.694  24.447  1.00  0.00     0.004 A 
ATOM     85  C   UNL A   1      31.948  23.697  26.713  1.00  0.00     0.000 A 
ATOM     86  C   UNL A   1      30.862  23.319  24.596  1.00  0.00     0.000 A 
ATOM     87  C   UNL A   1      31.508  22.821  25.725  1.00  0.00     0.000 A 
ENDBRANCH  81  82
BRANCH  81  88
ATOM     88  C   UNL A   1      32.054  27.899  25.891  1.00  0.00    -0.039 A 
ATOM     89  C   UNL A   1      31.746  29.110  26.535  1.00  0.00     0.004 A 
ATOM     90  C   UNL A   1      33.397  27.488  25.857  1.00  0.00     0.004 A 
ATOM     91  C   UNL A   1      32.750  29.895  27.105  1.00  0.00     0.000 A 
ATOM     92  C   UNL A   1      34.400  28.274  26.431  1.00  0.00     0.000 A 
ATOM     93  C   UNL A   1      34.077  29.479  27.050  1.00  0.00     0.000 A 
ENDBRANCH  81  88
ENDBRANCH  80  81
BRANCH  80  94
ATOM     94  C   UNL A   1      29.652  28.535  23.471  1.00  0.00    -0.035 A 
ATOM     95  C   UNL A   1      29.956  29.898  23.619  1.00  0.00     0.004 A 
ATOM     96  C   UNL A   1      28.338  28.175  23.140  1.00  0.00     0.004 A 
ATOM     97  C   UNL A   1      28.967  30.871  23.466  1.00  0.00     0.000 A 
ATOM     98  C   UNL A   1      27.348  29.149  22.993  1.00  0.00     0.000 A 
ATOM     99  C   UNL A   1      27.661  30.495  23.160  1.00  0.00     0.000 A 
ENDBRANCH  80  94
ENDBRANCH  77  80
ENDBRANCH  75  76
ENDBRANCH  74  75
ENDBRANCH  73  74
ENDBRANCH   1  73
TORSDOF 17
ENDMDL
MODEL 2
REMARK VINA RESULT:     -12.1      0.459      7.011
REMARK SMILES O=C(NCCCCCCNC(=O)[C@H](c1ccccc1)C(c1ccccc1)c1ccccc1)c1ccc(-c2c3nc(c(-c4c(F)c(F)c(F)c(F)c4F)c4ccc([nH]4)c(-c4c(F)c(F)c(F)c(F)c4F)c4nc(c(-c5c(F)c(F)c(F)c(F)c5F)c5ccc2[nH]5)C=C4)C=C3)cc1
REMARK SMILES IDX 6 1 5 2 4 3 3 4 1 5 2 6 33 8 34 9 95 10 35 11 94 12 36 13
REMARK SMILES IDX 37 14 38 15 88 16 39 17 93 18 87 19 89 20 40 21 92 22 86 23
REMARK SMILES IDX 85 24 41 26 73 27 53 28 72 29 54 30 57 31 71 32 90 33 55 34
REMARK SMILES IDX 56 35 70 37 91 38 58 39 42 40 43 41 51 42 44 43 45 44 49 45
REMARK SMILES IDX 52 46 46 47 47 48 50 49 48 50 74 51 75 52 83 53 76 54 77 55
REMARK SMILES IDX 81 56 84 57 78 58 79 59 82 60 80 61 59 62 60 63 68 64 61 65
REMARK SMILES IDX 62 66 66 67 69 68 63 69 64 70 67 71 65 72 7 73 8 74 9 75
REMARK SMILES IDX 10 76 11 77 12 79 13 80 20 81 21 82 22 83 26 84 23 85 25 86
REMARK SMILES IDX 24 87 27 88 28 89 32 90 29 91 31 92 30 93 14 94 15 95 19 96
REMARK SMILES IDX 16 97 18 98 17 99
REMARK H PARENT 3 7 89 25 57 36 10 78
REMARK Flexibility Score: inf
ROOT
ATOM      1  C   UNL A   1      34.942  23.708  23.567  1.00  0.00     0.002 C 
ENDROOT
BRANCH   1   2
ATOM      2  C   UNL A   1      35.208  23.513  25.059  1.00  0.00     0.021 C 
BRANCH   2   3
ATOM      3  C   UNL A   1      36.557  24.036  25.533  1.00  0.00     0.116 C 
BRANCH   3   4
ATOM      4  N   UNL A   1      37.526  22.968  25.719  1.00  0.00    -0.352 N 
ATOM      5  O   UNL A   1      39.553  22.075  26.158  1.00  0.00    -0.269 OA
ATOM      6  C   UNL A   1      38.797  23.038  26.233  1.00  0.00     0.251 C 
ATOM      7  H   UNL A   1      37.230  22.072  25.438  1.00  0.00     0.163 HD
BRANCH   6   8
ATOM      8  C   UNL A   1      39.260  24.292  26.865  1.00  0.00     0.039 A 
ATOM      9  C   UNL A   1      38.973  24.560  28.205  1.00  0.00     0.014 A 
ATOM     10  C   UNL A   1      40.005  25.203  26.110  1.00  0.00     0.014 A 
ATOM     11  C   UNL A   1      39.319  25.788  28.754  1.00  0.00     0.010 A 
ATOM     12  C   UNL A   1      40.428  26.402  26.689  1.00  0.00     0.010 A 
ATOM     13  C   UNL A   1      40.071  26.713  28.010  1.00  0.00    -0.014 A 
BRANCH  13  14
ATOM     14  C   UNL A   1      40.545  27.952  28.673  1.00  0.00     0.031 A 
ATOM     15  C   UNL A   1      39.602  29.068  29.017  1.00  0.00     0.074 A 
ATOM     16  C   UNL A   1      41.852  28.044  28.990  1.00  0.00     0.049 A 
ATOM     17  N   UNL A   1      39.855  30.201  29.625  1.00  0.00    -0.248 NA
ATOM     18  C   UNL A   1      38.195  28.898  28.628  1.00  0.00     0.031 C 
ATOM     19  C   UNL A   1      42.862  27.028  28.684  1.00  0.00     0.029 A 
ATOM     20  N   UNL A   1      42.552  29.018  29.652  1.00  0.00    -0.354 N 
ATOM     21  C   UNL A   1      38.647  30.883  29.680  1.00  0.00     0.074 A 
ATOM     22  C   UNL A   1      37.663  30.049  29.022  1.00  0.00     0.031 C 
ATOM     23  C   UNL A   1      44.039  27.408  29.197  1.00  0.00     0.029 A 
ATOM     24  C   UNL A   1      43.883  28.720  29.813  1.00  0.00     0.049 A 
ATOM     25  H   UNL A   1      42.141  29.851  29.979  1.00  0.00     0.167 HD
ATOM     26  C   UNL A   1      38.387  32.091  30.237  1.00  0.00     0.037 A 
ATOM     27  C   UNL A   1      44.873  29.431  30.382  1.00  0.00     0.037 A 
ATOM     28  C   UNL A   1      39.372  32.909  30.900  1.00  0.00     0.049 A 
ATOM     29  C   UNL A   1      44.555  30.773  30.973  1.00  0.00     0.074 A 
ATOM     30  C   UNL A   1      39.199  34.133  31.524  1.00  0.00     0.029 A 
ATOM     31  N   UNL A   1      40.717  32.588  31.020  1.00  0.00    -0.354 N 
ATOM     32  N   UNL A   1      43.401  31.389  31.052  1.00  0.00    -0.248 NA
ATOM     33  C   UNL A   1      45.678  31.521  31.553  1.00  0.00     0.031 C 
ATOM     34  C   UNL A   1      40.445  34.572  31.984  1.00  0.00     0.029 A 
ATOM     35  C   UNL A   1      41.388  33.600  31.689  1.00  0.00     0.049 A 
ATOM     36  H   UNL A   1      41.133  31.762  30.680  1.00  0.00     0.167 HD
ATOM     37  C   UNL A   1      43.654  32.590  31.697  1.00  0.00     0.074 A 
ATOM     38  C   UNL A   1      45.067  32.603  32.015  1.00  0.00     0.031 C 
ATOM     39  C   UNL A   1      42.796  33.597  31.993  1.00  0.00     0.037 A 
BRANCH  26  40
ATOM     40  C   UNL A   1      36.983  32.615  30.150  1.00  0.00     0.064 A 
ATOM     41  C   UNL A   1      36.070  32.449  31.203  1.00  0.00     0.173 A 
ATOM     42  C   UNL A   1      36.567  33.354  29.031  1.00  0.00     0.173 A 
ATOM     43  F   UNL A   1      36.414  31.743  32.290  1.00  0.00    -0.203 F 
ATOM     44  C   UNL A   1      34.788  32.990  31.130  1.00  0.00     0.198 A 
ATOM     45  C   UNL A   1      35.294  33.914  28.974  1.00  0.00     0.198 A 
ATOM     46  F   UNL A   1      37.403  33.548  28.001  1.00  0.00    -0.203 F 
ATOM     47  F   UNL A   1      33.922  32.792  32.134  1.00  0.00    -0.200 F 
ATOM     48  C   UNL A   1      34.403  33.728  30.021  1.00  0.00     0.200 A 
ATOM     49  F   UNL A   1      34.929  34.637  27.907  1.00  0.00    -0.200 F 
ATOM     50  F   UNL A   1      33.175  34.259  29.960  1.00  0.00    -0.200 F 
ENDBRANCH  26  40
BRANCH  27  51
ATOM     51  C   UNL A   1      46.254  28.886  30.407  1.00  0.00     0.064 A 
ATOM     52  C   UNL A   1      47.137  29.105  29.341  1.00  0.00     0.173 A 
ATOM     53  C   UNL A   1      46.720  28.139  31.499  1.00  0.00     0.173 A 
ATOM     54  F   UNL A   1      46.732  29.799  28.267  1.00  0.00    -0.203 F 
ATOM     55  C   UNL A   1      48.429  28.585  29.360  1.00  0.00     0.198 A 
ATOM     56  C   UNL A   1      48.022  27.645  31.531  1.00  0.00     0.198 A 
ATOM     57  F   UNL A   1      45.915  27.906  32.546  1.00  0.00    -0.203 F 
ATOM     58  F   UNL A   1      49.239  28.772  28.309  1.00  0.00    -0.200 F 
ATOM     59  C   UNL A   1      48.872  27.861  30.457  1.00  0.00     0.200 A 
ATOM     60  F   UNL A   1      48.451  26.962  32.600  1.00  0.00    -0.200 F 
ATOM     61  F   UNL A   1      50.117  27.366  30.477  1.00  0.00    -0.200 F 
ENDBRANCH  27  51
BRANCH  39  62
ATOM     62  C   UNL A   1      43.366  34.783  32.711  1.00  0.00     0.064 A 
ATOM     63  C   UNL A   1      43.818  35.914  32.014  1.00  0.00     0.173 A 
ATOM     64  C   UNL A   1      43.451  34.794  34.111  1.00  0.00     0.173 A 
ATOM     65  F   UNL A   1      43.775  35.941  30.673  1.00  0.00    -0.203 F 
ATOM     66  C   UNL A   1      44.364  36.999  32.692  1.00  0.00     0.198 A 
ATOM     67  C   UNL A   1      43.970  35.894  34.787  1.00  0.00     0.198 A 
ATOM     68  F   UNL A   1      43.028  33.739  34.823  1.00  0.00    -0.203 F 
ATOM     69  F   UNL A   1      44.842  38.045  32.003  1.00  0.00    -0.200 F 
ATOM     70  C   UNL A   1      44.435  36.991  34.077  1.00  0.00     0.200 A 
ATOM     71  F   UNL A   1      44.029  35.890  36.125  1.00  0.00    -0.200 F 
ATOM     72  F   UNL A   1      44.961  38.038  34.728  1.00  0.00    -0.200 F 
ENDBRANCH  39  62
ENDBRANCH  13  14
ENDBRANCH   6   8
ENDBRANCH   3   4
ENDBRANCH   2   3
ENDBRANCH   1   2
BRANCH   1  73
ATOM     73  C   UNL A   1      34.026  24.886  23.218  1.00  0.00     0.002 C 
BRANCH  73  74
ATOM     74  C   UNL A   1      33.271  24.757  21.890  1.00  0.00     0.021 C 
BRANCH  74  75
ATOM     75  C   UNL A   1      32.307  25.908  21.607  1.00  0.00     0.116 C 
BRANCH  75  76
ATOM     76  N   UNL A   1      32.756  27.131  22.241  1.00  0.00    -0.356 N 
ATOM     77  C   UNL A   1      32.071  27.959  23.086  1.00  0.00     0.228 C 
ATOM     78  H   UNL A   1      33.680  27.404  22.034  1.00  0.00     0.163 HD
ATOM     79  O   UNL A   1      32.537  29.079  23.300  1.00  0.00    -0.274 OA
BRANCH  77  80
ATOM     80  C   UNL A   1      30.744  27.470  23.688  1.00  0.00     0.120 C 
BRANCH  80  81
ATOM     81  C   UNL A   1      30.929  27.060  25.185  1.00  0.00     0.066 C 
BRANCH  81  82
ATOM     82  C   UNL A   1      31.113  25.548  25.366  1.00  0.00    -0.039 A 
ATOM     83  C   UNL A   1      31.730  24.997  26.503  1.00  0.00     0.004 A 
ATOM     84  C   UNL A   1      30.662  24.671  24.367  1.00  0.00     0.004 A 
ATOM     85  C   UNL A   1      31.920  23.619  26.621  1.00  0.00     0.000 A 
ATOM     86  C   UNL A   1      30.848  23.292  24.489  1.00  0.00     0.000 A 
ATOM     87  C   UNL A   1      31.483  22.767  25.612  1.00  0.00     0.000 A 
ENDBRANCH  81  82
BRANCH  81  88
ATOM     88  C   UNL A   1      32.056  27.837  25.885  1.00  0.00    -0.039 A 
ATOM     89  C   UNL A   1      31.748  29.026  26.568  1.00  0.00     0.004 A 
ATOM     90  C   UNL A   1      33.399  27.429  25.834  1.00  0.00     0.004 A 
ATOM     91  C   UNL A   1      32.754  29.794  27.159  1.00  0.00     0.000 A 
ATOM     92  C   UNL A   1      34.403  28.197  26.429  1.00  0.00     0.000 A 
ATOM     93  C   UNL A   1      34.081  29.382  27.087  1.00  0.00     0.000 A 
ENDBRANCH  81  88
ENDBRANCH  80  81
BRANCH  80  94
ATOM     94  C   UNL A   1      29.656  28.524  23.468  1.00  0.00    -0.035 A 
ATOM     95  C   UNL A   1      29.951  29.886  23.640  1.00  0.00     0.004 A 
ATOM     96  C   UNL A   1      28.344  28.162  23.126  1.00  0.00     0.004 A 
ATOM     97  C   UNL A   1      28.957  30.855  23.501  1.00  0.00     0.000 A 
ATOM     98  C   UNL A   1      27.349  29.133  22.994  1.00  0.00     0.000 A 
ATOM     99  C   UNL A   1      27.655  30.478  23.185  1.00  0.00     0.000 A 
ENDBRANCH  80  94
ENDBRANCH  77  80
ENDBRANCH  75  76
ENDBRANCH  74  75
ENDBRANCH  73  74
ENDBRANCH   1  73
TORSDOF 17
ENDMDL
MODEL 3
REMARK VINA RESULT:     -12.1      3.907      7.608
REMARK SMILES O=C(NCCCCCCNC(=O)[C@H](c1ccccc1)C(c1ccccc1)c1ccccc1)c1ccc(-c2c3nc(c(-c4c(F)c(F)c(F)c(F)c4F)c4ccc([nH]4)c(-c4c(F)c(F)c(F)c(F)c4F)c4nc(c(-c5c(F)c(F)c(F)c(F)c5F)c5ccc2[nH]5)C=C4)C=C3)cc1
REMARK SMILES IDX 6 1 5 2 4 3 3 4 1 5 2 6 33 8 34 9 95 10 35 11 94 12 36 13
REMARK SMILES IDX 37 14 38 15 88 16 39 17 93 18 87 19 89 20 40 21 92 22 86 23
REMARK SMILES IDX 85 24 41 26 73 27 53 28 72 29 54 30 57 31 71 32 90 33 55 34
REMARK SMILES IDX 56 35 70 37 91 38 58 39 42 40 43 41 51 42 44 43 45 44 49 45
REMARK SMILES IDX 52 46 46 47 47 48 50 49 48 50 74 51 75 52 83 53 76 54 77 55
REMARK SMILES IDX 81 56 84 57 78 58 79 59 82 60 80 61 59 62 60 63 68 64 61 65
REMARK SMILES IDX 62 66 66 67 69 68 63 69 64 70 67 71 65 72 7 73 8 74 9 75
REMARK SMILES IDX 10 76 11 77 12 79 13 80 20 81 21 82 22 83 26 84 23 85 25 86
REMARK SMILES IDX 24 87 27 88 28 89 32 90 29 91 31 92 30 93 14 94 15 95 19 96
REMARK SMILES IDX 16 97 18 98 17 99
REMARK H PARENT 3 7 89 25 57 36 10 78
REMARK Flexibility Score: inf
ROOT
ATOM      1  C   UNL A   1      31.370  31.028  26.302  1.00  0.00     0.002 C 
ENDROOT
BRANCH   1   2
ATOM      2  C   UNL A   1      31.381  32.539  26.532  1.00  0.00     0.021 C 
BRANCH   2   3
ATOM      3  C   UNL A   1      32.634  33.063  27.218  1.00  0.00     0.116 C 
BRANCH   3   4
ATOM      4  N   UNL A   1      32.457  34.413  27.730  1.00  0.00    -0.352 N 
ATOM      5  O   UNL A   1      32.687  36.107  29.205  1.00  0.00    -0.269 OA
ATOM      6  C   UNL A   1      33.078  35.020  28.792  1.00  0.00     0.251 C 
ATOM      7  H   UNL A   1      31.802  34.967  27.247  1.00  0.00     0.163 HD
BRANCH   6   8
ATOM      8  C   UNL A   1      34.216  34.346  29.455  1.00  0.00     0.039 A 
ATOM      9  C   UNL A   1      33.993  33.418  30.475  1.00  0.00     0.014 A 
ATOM     10  C   UNL A   1      35.518  34.635  29.038  1.00  0.00     0.014 A 
ATOM     11  C   UNL A   1      35.072  32.875  31.162  1.00  0.00     0.010 A 
ATOM     12  C   UNL A   1      36.602  34.023  29.674  1.00  0.00     0.010 A 
ATOM     13  C   UNL A   1      36.387  33.153  30.754  1.00  0.00    -0.014 A 
BRANCH  13  14
ATOM     14  C   UNL A   1      37.510  32.446  31.418  1.00  0.00     0.031 A 
ATOM     15  C   UNL A   1      38.254  31.337  30.733  1.00  0.00     0.074 A 
ATOM     16  C   UNL A   1      37.870  32.845  32.653  1.00  0.00     0.049 A 
ATOM     17  N   UNL A   1      39.277  30.643  31.166  1.00  0.00    -0.248 NA
ATOM     18  C   UNL A   1      37.794  30.951  29.391  1.00  0.00     0.031 C 
ATOM     19  C   UNL A   1      37.203  33.899  33.422  1.00  0.00     0.029 A 
ATOM     20  N   UNL A   1      38.890  32.434  33.472  1.00  0.00    -0.354 N 
ATOM     21  C   UNL A   1      39.574  29.732  30.161  1.00  0.00     0.074 A 
ATOM     22  C   UNL A   1      38.608  29.944  29.103  1.00  0.00     0.031 C 
ATOM     23  C   UNL A   1      37.857  34.084  34.576  1.00  0.00     0.029 A 
ATOM     24  C   UNL A   1      38.950  33.123  34.658  1.00  0.00     0.049 A 
ATOM     25  H   UNL A   1      39.517  31.713  33.232  1.00  0.00     0.167 HD
ATOM     26  C   UNL A   1      40.568  28.812  30.125  1.00  0.00     0.037 A 
ATOM     27  C   UNL A   1      39.784  32.986  35.704  1.00  0.00     0.037 A 
ATOM     28  C   UNL A   1      41.532  28.616  31.180  1.00  0.00     0.049 A 
ATOM     29  C   UNL A   1      40.862  31.945  35.641  1.00  0.00     0.074 A 
ATOM     30  C   UNL A   1      42.596  27.731  31.224  1.00  0.00     0.029 A 
ATOM     31  N   UNL A   1      41.545  29.313  32.380  1.00  0.00    -0.354 N 
ATOM     32  N   UNL A   1      41.156  31.117  34.669  1.00  0.00    -0.248 NA
ATOM     33  C   UNL A   1      41.726  31.817  36.822  1.00  0.00     0.031 C 
ATOM     34  C   UNL A   1      43.227  27.863  32.465  1.00  0.00     0.029 A 
ATOM     35  C   UNL A   1      42.586  28.863  33.178  1.00  0.00     0.049 A 
ATOM     36  H   UNL A   1      40.910  30.023  32.627  1.00  0.00     0.167 HD
ATOM     37  C   UNL A   1      42.241  30.376  35.114  1.00  0.00     0.074 A 
ATOM     38  C   UNL A   1      42.573  30.875  36.432  1.00  0.00     0.031 C 
ATOM     39  C   UNL A   1      42.898  29.369  34.490  1.00  0.00     0.037 A 
BRANCH  26  40
ATOM     40  C   UNL A   1      40.666  27.932  28.913  1.00  0.00     0.064 A 
ATOM     41  C   UNL A   1      39.905  26.760  28.792  1.00  0.00     0.173 A 
ATOM     42  C   UNL A   1      41.478  28.302  27.829  1.00  0.00     0.173 A 
ATOM     43  F   UNL A   1      39.120  26.356  29.802  1.00  0.00    -0.203 F 
ATOM     44  C   UNL A   1      39.965  25.984  27.636  1.00  0.00     0.198 A 
ATOM     45  C   UNL A   1      41.516  27.537  26.667  1.00  0.00     0.198 A 
ATOM     46  F   UNL A   1      42.220  29.417  27.891  1.00  0.00    -0.203 F 
ATOM     47  F   UNL A   1      39.253  24.851  27.555  1.00  0.00    -0.200 F 
ATOM     48  C   UNL A   1      40.763  26.376  26.572  1.00  0.00     0.200 A 
ATOM     49  F   UNL A   1      42.278  27.925  25.635  1.00  0.00    -0.200 F 
ATOM     50  F   UNL A   1      40.808  25.635  25.457  1.00  0.00    -0.200 F 
ENDBRANCH  26  40
BRANCH  27  51
ATOM     51  C   UNL A   1      39.620  33.855  36.898  1.00  0.00     0.064 A 
ATOM     52  C   UNL A   1      38.864  33.434  37.999  1.00  0.00     0.173 A 
ATOM     53  C   UNL A   1      40.221  35.121  36.962  1.00  0.00     0.173 A 
ATOM     54  F   UNL A   1      38.256  32.238  37.977  1.00  0.00    -0.203 F 
ATOM     55  C   UNL A   1      38.702  34.253  39.115  1.00  0.00     0.198 A 
ATOM     56  C   UNL A   1      40.084  35.926  38.090  1.00  0.00     0.198 A 
ATOM     57  F   UNL A   1      40.959  35.567  35.936  1.00  0.00    -0.203 F 
ATOM     58  F   UNL A   1      37.938  33.844  40.137  1.00  0.00    -0.200 F 
ATOM     59  C   UNL A   1      39.317  35.495  39.162  1.00  0.00     0.200 A 
ATOM     60  F   UNL A   1      40.695  37.117  38.139  1.00  0.00    -0.200 F 
ATOM     61  F   UNL A   1      39.166  36.279  40.237  1.00  0.00    -0.200 F 
ENDBRANCH  27  51
BRANCH  39  62
ATOM     62  C   UNL A   1      44.053  28.757  35.227  1.00  0.00     0.064 A 
ATOM     63  C   UNL A   1      45.361  29.239  35.069  1.00  0.00     0.173 A 
ATOM     64  C   UNL A   1      43.846  27.686  36.109  1.00  0.00     0.173 A 
ATOM     65  F   UNL A   1      45.610  30.249  34.222  1.00  0.00    -0.203 F 
ATOM     66  C   UNL A   1      46.425  28.649  35.743  1.00  0.00     0.198 A 
ATOM     67  C   UNL A   1      44.910  27.118  36.804  1.00  0.00     0.198 A 
ATOM     68  F   UNL A   1      42.614  27.192  36.297  1.00  0.00    -0.203 F 
ATOM     69  F   UNL A   1      47.674  29.088  35.535  1.00  0.00    -0.200 F 
ATOM     70  C   UNL A   1      46.199  27.593  36.614  1.00  0.00     0.200 A 
ATOM     71  F   UNL A   1      44.689  26.105  37.652  1.00  0.00    -0.200 F 
ATOM     72  F   UNL A   1      47.226  27.027  37.262  1.00  0.00    -0.200 F 
ENDBRANCH  39  62
ENDBRANCH  13  14
ENDBRANCH   6   8
ENDBRANCH   3   4
ENDBRANCH   2   3
ENDBRANCH   1   2
BRANCH   1  73
ATOM     73  C   UNL A   1      32.494  30.256  27.003  1.00  0.00     0.002 C 
BRANCH  73  74
ATOM     74  C   UNL A   1      33.550  29.649  26.071  1.00  0.00     0.021 C 
BRANCH  74  75
ATOM     75  C   UNL A   1      33.861  28.180  26.355  1.00  0.00     0.116 C 
BRANCH  75  76
ATOM     76  N   UNL A   1      32.726  27.515  26.960  1.00  0.00    -0.356 N 
ATOM     77  C   UNL A   1      31.655  26.922  26.350  1.00  0.00     0.228 C 
ATOM     78  H   UNL A   1      32.725  27.485  27.945  1.00  0.00     0.163 HD
ATOM     79  O   UNL A   1      30.673  26.652  27.044  1.00  0.00    -0.274 OA
BRANCH  77  80
ATOM     80  C   UNL A   1      31.714  26.665  24.836  1.00  0.00     0.120 C 
BRANCH  80  81
ATOM     81  C   UNL A   1      31.778  25.133  24.534  1.00  0.00     0.066 C 
BRANCH  81  82
ATOM     82  C   UNL A   1      32.249  24.830  23.106  1.00  0.00    -0.039 A 
ATOM     83  C   UNL A   1      32.347  25.827  22.120  1.00  0.00     0.004 A 
ATOM     84  C   UNL A   1      32.590  23.514  22.754  1.00  0.00     0.004 A 
ATOM     85  C   UNL A   1      32.739  25.513  20.817  1.00  0.00     0.000 A 
ATOM     86  C   UNL A   1      32.987  23.202  21.452  1.00  0.00     0.000 A 
ATOM     87  C   UNL A   1      33.056  24.200  20.482  1.00  0.00     0.000 A 
ENDBRANCH  81  82
BRANCH  81  88
ATOM     88  C   UNL A   1      32.610  24.351  25.563  1.00  0.00    -0.039 A 
ATOM     89  C   UNL A   1      34.009  24.487  25.560  1.00  0.00     0.004 A 
ATOM     90  C   UNL A   1      32.031  23.463  26.485  1.00  0.00     0.004 A 
ATOM     91  C   UNL A   1      34.803  23.741  26.434  1.00  0.00     0.000 A 
ATOM     92  C   UNL A   1      32.827  22.721  27.360  1.00  0.00     0.000 A 
ATOM     93  C   UNL A   1      34.213  22.856  27.331  1.00  0.00     0.000 A 
ENDBRANCH  81  88
ENDBRANCH  80  81
BRANCH  80  94
ATOM     94  C   UNL A   1      30.553  27.383  24.144  1.00  0.00    -0.035 A 
ATOM     95  C   UNL A   1      30.705  28.709  23.707  1.00  0.00     0.004 A 
ATOM     96  C   UNL A   1      29.311  26.756  23.960  1.00  0.00     0.004 A 
ATOM     97  C   UNL A   1      29.638  29.397  23.128  1.00  0.00     0.000 A 
ATOM     98  C   UNL A   1      28.242  27.449  23.386  1.00  0.00     0.000 A 
ATOM     99  C   UNL A   1      28.405  28.769  22.974  1.00  0.00     0.000 A 
ENDBRANCH  80  94
ENDBRANCH  77  80
ENDBRANCH  75  76
ENDBRANCH  74  75
ENDBRANCH  73  74
ENDBRANCH   1  73
TORSDOF 17
ENDMDL
