MODEL 1
REMARK VINA RESULT:     -13.0      0.000      0.000
REMARK SMILES Cc1ccc(C[C@@H](Cc2cc(F)cc(Br)c2)C(=O)NCCCCCCNC(=O)c2ccc(-c3c4nc(c(-c5c(F)c(F)c(F)c(F)c5F)c5ccc([nH]5)c(-c5c(F)c(F)c(F)c(F)c5F)c5nc(c(-c6c(F)c(F)c(F)c(F)c6F)c6ccc3[nH]6)C=C5)C=C4)cc2)cc1
REMARK SMILES IDX 22 1 21 2 20 3 19 4 17 5 18 6 7 8 6 9 5 10 1 11 2 12 3 13
REMARK SMILES IDX 93 14 4 15 92 16 8 17 9 18 10 19 16 20 11 21 14 22 12 23
REMARK SMILES IDX 13 24 15 25 23 26 24 27 25 28 26 29 27 30 28 32 29 33 30 34
REMARK SMILES IDX 91 35 31 36 90 37 32 38 33 39 34 40 84 41 35 42 89 43 83 44
REMARK SMILES IDX 85 45 36 46 88 47 82 48 81 49 37 51 69 52 49 53 68 54 50 55
REMARK SMILES IDX 53 56 67 57 86 58 51 59 52 60 66 62 87 63 54 64 38 65 39 66
REMARK SMILES IDX 47 67 40 68 41 69 45 70 48 71 42 72 43 73 46 74 44 75 70 76
REMARK SMILES IDX 71 77 79 78 72 79 73 80 77 81 80 82 74 83 75 84 78 85 76 86
REMARK SMILES IDX 55 87 56 88 64 89 57 90 58 91 62 92 65 93 59 94 60 95 63 96
REMARK SMILES IDX 61 97
REMARK H PARENT 19 7 26 31 85 50 53 61
REMARK Flexibility Score: inf
ROOT
ATOM      1  C   UNL A   1      32.609  28.944  25.387  1.00  0.00     0.002 C 
ENDROOT
BRANCH   1   2
ATOM      2  C   UNL A   1      31.857  27.614  25.528  1.00  0.00     0.021 C 
BRANCH   2   3
ATOM      3  C   UNL A   1      31.571  26.920  24.204  1.00  0.00     0.116 C 
BRANCH   3   4
ATOM      4  N   UNL A   1      32.448  27.388  23.149  1.00  0.00    -0.356 N 
ATOM      5  C   UNL A   1      33.355  26.707  22.399  1.00  0.00     0.223 C 
ATOM      6  O   UNL A   1      33.893  27.309  21.466  1.00  0.00    -0.275 OA
ATOM      7  H   UNL A   1      32.376  28.348  22.944  1.00  0.00     0.163 HD
BRANCH   5   8
ATOM      8  C   UNL A   1      33.732  25.261  22.699  1.00  0.00     0.087 C 
BRANCH   8   9
ATOM      9  C   UNL A   1      34.340  25.256  24.130  1.00  0.00     0.049 C 
BRANCH   9  10
ATOM     10  C   UNL A   1      35.343  24.197  24.525  1.00  0.00    -0.047 A 
ATOM     11  C   UNL A   1      38.548  21.462  25.514  1.00  0.00     0.044 C 
ATOM     12  C   UNL A   1      37.439  22.407  25.159  1.00  0.00    -0.051 A 
ATOM     13  C   UNL A   1      36.841  23.183  26.154  1.00  0.00     0.004 A 
ATOM     14  C   UNL A   1      36.978  22.522  23.845  1.00  0.00     0.004 A 
ATOM     15  C   UNL A   1      35.820  24.080  25.837  1.00  0.00     0.004 A 
ATOM     16  C   UNL A   1      35.940  23.406  23.533  1.00  0.00     0.004 A 
ENDBRANCH   9  10
ENDBRANCH   8   9
BRANCH   8  17
ATOM     17  C   UNL A   1      32.642  24.195  22.426  1.00  0.00     0.049 C 
BRANCH  17  18
ATOM     18  C   UNL A   1      32.175  23.167  23.442  1.00  0.00    -0.043 A 
ATOM     19  C   UNL A   1      32.745  21.881  23.360  1.00  0.00     0.043 A 
ATOM     20  C   UNL A   1      31.259  23.405  24.474  1.00  0.00     0.019 A 
ATOM     21  C   UNL A   1      32.494  20.922  24.337  1.00  0.00     0.124 A 
ATOM     22  C   UNL A   1      31.052  22.445  25.474  1.00  0.00     0.021 A 
ATOM     23  F   UNL A   1      33.088  19.725  24.249  1.00  0.00    -0.207 F 
ATOM     24  C   UNL A   1      31.675  21.202  25.417  1.00  0.00     0.055 A 
ATOM     25  Br  UNL A   1      29.968  22.866  26.966  1.00  0.00    -0.051 Br
ENDBRANCH  17  18
ENDBRANCH   8  17
ENDBRANCH   5   8
ENDBRANCH   3   4
ENDBRANCH   2   3
ENDBRANCH   1   2
BRANCH   1  26
ATOM     26  C   UNL A   1      31.818  30.215  25.745  1.00  0.00     0.002 C 
BRANCH  26  27
ATOM     27  C   UNL A   1      32.347  31.036  26.928  1.00  0.00     0.021 C 
BRANCH  27  28
ATOM     28  C   UNL A   1      33.686  30.552  27.463  1.00  0.00     0.116 C 
BRANCH  28  29
ATOM     29  N   UNL A   1      34.398  31.525  28.272  1.00  0.00    -0.352 N 
ATOM     30  C   UNL A   1      35.566  31.393  29.007  1.00  0.00     0.251 C 
ATOM     31  H   UNL A   1      33.987  32.419  28.305  1.00  0.00     0.163 HD
ATOM     32  O   UNL A   1      35.926  32.299  29.734  1.00  0.00    -0.269 OA
BRANCH  30  33
ATOM     33  C   UNL A   1      36.451  30.213  28.801  1.00  0.00     0.039 A 
ATOM     34  C   UNL A   1      36.680  29.373  29.901  1.00  0.00     0.014 A 
ATOM     35  C   UNL A   1      37.183  30.029  27.633  1.00  0.00     0.014 A 
ATOM     36  C   UNL A   1      37.791  28.531  29.911  1.00  0.00     0.010 A 
ATOM     37  C   UNL A   1      38.342  29.284  27.677  1.00  0.00     0.010 A 
ATOM     38  C   UNL A   1      38.678  28.586  28.839  1.00  0.00    -0.014 A 
BRANCH  38  39
ATOM     39  C   UNL A   1      40.022  28.032  28.870  1.00  0.00     0.031 A 
ATOM     40  C   UNL A   1      40.254  26.608  28.555  1.00  0.00     0.074 A 
ATOM     41  C   UNL A   1      41.067  28.872  29.043  1.00  0.00     0.049 A 
ATOM     42  N   UNL A   1      41.311  25.955  28.897  1.00  0.00    -0.248 NA
ATOM     43  C   UNL A   1      39.281  25.790  27.839  1.00  0.00     0.031 C 
ATOM     44  C   UNL A   1      42.478  28.599  28.782  1.00  0.00     0.029 A 
ATOM     45  N   UNL A   1      41.067  30.126  29.679  1.00  0.00    -0.354 N 
ATOM     46  C   UNL A   1      41.293  24.748  28.238  1.00  0.00     0.074 A 
ATOM     47  C   UNL A   1      39.982  24.671  27.634  1.00  0.00     0.031 C 
ATOM     48  C   UNL A   1      43.224  29.463  29.486  1.00  0.00     0.029 A 
ATOM     49  C   UNL A   1      42.317  30.214  30.335  1.00  0.00     0.049 A 
ATOM     50  H   UNL A   1      40.350  30.799  29.670  1.00  0.00     0.167 HD
ATOM     51  C   UNL A   1      42.439  24.011  28.171  1.00  0.00     0.037 A 
ATOM     52  C   UNL A   1      42.404  30.279  31.695  1.00  0.00     0.037 A 
ATOM     53  C   UNL A   1      43.521  24.652  28.911  1.00  0.00     0.049 A 
ATOM     54  C   UNL A   1      43.200  29.155  32.312  1.00  0.00     0.074 A 
ATOM     55  C   UNL A   1      44.563  25.475  28.516  1.00  0.00     0.029 A 
ATOM     56  N   UNL A   1      43.437  24.758  30.295  1.00  0.00    -0.354 N 
ATOM     57  N   UNL A   1      43.419  28.013  31.723  1.00  0.00    -0.248 NA
ATOM     58  C   UNL A   1      43.793  29.220  33.644  1.00  0.00     0.031 C 
ATOM     59  C   UNL A   1      45.085  26.109  29.668  1.00  0.00     0.029 A 
ATOM     60  C   UNL A   1      44.372  25.657  30.766  1.00  0.00     0.049 A 
ATOM     61  H   UNL A   1      42.801  24.263  30.858  1.00  0.00     0.167 HD
ATOM     62  C   UNL A   1      44.150  27.202  32.554  1.00  0.00     0.074 A 
ATOM     63  C   UNL A   1      44.372  28.010  33.738  1.00  0.00     0.031 C 
ATOM     64  C   UNL A   1      44.500  25.933  32.188  1.00  0.00     0.037 A 
BRANCH  51  65
ATOM     65  C   UNL A   1      42.652  22.870  27.201  1.00  0.00     0.064 A 
ATOM     66  C   UNL A   1      41.998  21.630  27.383  1.00  0.00     0.173 A 
ATOM     67  C   UNL A   1      43.524  22.919  26.099  1.00  0.00     0.173 A 
ATOM     68  F   UNL A   1      41.060  21.461  28.323  1.00  0.00    -0.203 F 
ATOM     69  C   UNL A   1      42.289  20.506  26.605  1.00  0.00     0.198 A 
ATOM     70  C   UNL A   1      43.858  21.782  25.357  1.00  0.00     0.198 A 
ATOM     71  F   UNL A   1      44.043  24.080  25.679  1.00  0.00    -0.203 F 
ATOM     72  F   UNL A   1      41.642  19.354  26.834  1.00  0.00    -0.200 F 
ATOM     73  C   UNL A   1      43.248  20.571  25.617  1.00  0.00     0.200 A 
ATOM     74  F   UNL A   1      44.777  21.868  24.384  1.00  0.00    -0.200 F 
ATOM     75  F   UNL A   1      43.566  19.481  24.906  1.00  0.00    -0.200 F 
ENDBRANCH  51  65
BRANCH  52  76
ATOM     76  C   UNL A   1      41.231  30.947  32.319  1.00  0.00     0.064 A 
ATOM     77  C   UNL A   1      41.146  32.350  32.230  1.00  0.00     0.173 A 
ATOM     78  C   UNL A   1      40.056  30.243  32.604  1.00  0.00     0.173 A 
ATOM     79  F   UNL A   1      42.247  33.070  31.958  1.00  0.00    -0.203 F 
ATOM     80  C   UNL A   1      39.921  33.007  32.295  1.00  0.00     0.198 A 
ATOM     81  C   UNL A   1      38.829  30.907  32.684  1.00  0.00     0.198 A 
ATOM     82  F   UNL A   1      40.069  28.904  32.683  1.00  0.00    -0.203 F 
ATOM     83  F   UNL A   1      39.859  34.330  32.089  1.00  0.00    -0.200 F 
ATOM     84  C   UNL A   1      38.758  32.280  32.491  1.00  0.00     0.200 A 
ATOM     85  F   UNL A   1      37.700  30.204  32.849  1.00  0.00    -0.200 F 
ATOM     86  F   UNL A   1      37.568  32.896  32.455  1.00  0.00    -0.200 F 
ENDBRANCH  52  76
BRANCH  64  87
ATOM     87  C   UNL A   1      45.083  24.858  33.079  1.00  0.00     0.064 A 
ATOM     88  C   UNL A   1      44.393  23.702  33.478  1.00  0.00     0.173 A 
ATOM     89  C   UNL A   1      46.454  24.897  33.444  1.00  0.00     0.173 A 
ATOM     90  F   UNL A   1      43.128  23.476  33.099  1.00  0.00    -0.203 F 
ATOM     91  C   UNL A   1      45.006  22.694  34.231  1.00  0.00     0.198 A 
ATOM     92  C   UNL A   1      47.077  23.863  34.142  1.00  0.00     0.198 A 
ATOM     93  F   UNL A   1      47.244  25.927  33.110  1.00  0.00    -0.203 F 
ATOM     94  F   UNL A   1      44.288  21.630  34.621  1.00  0.00    -0.200 F 
ATOM     95  C   UNL A   1      46.348  22.768  34.550  1.00  0.00     0.200 A 
ATOM     96  F   UNL A   1      48.393  23.926  34.392  1.00  0.00    -0.200 F 
ATOM     97  F   UNL A   1      46.941  21.775  35.227  1.00  0.00    -0.200 F 
ENDBRANCH  64  87
ENDBRANCH  38  39
ENDBRANCH  30  33
ENDBRANCH  28  29
ENDBRANCH  27  28
ENDBRANCH  26  27
ENDBRANCH   1  26
TORSDOF 17
ENDMDL
MODEL 2
REMARK VINA RESULT:     -12.8      1.627      2.933
REMARK SMILES Cc1ccc(C[C@@H](Cc2cc(F)cc(Br)c2)C(=O)NCCCCCCNC(=O)c2ccc(-c3c4nc(c(-c5c(F)c(F)c(F)c(F)c5F)c5ccc([nH]5)c(-c5c(F)c(F)c(F)c(F)c5F)c5nc(c(-c6c(F)c(F)c(F)c(F)c6F)c6ccc3[nH]6)C=C5)C=C4)cc2)cc1
REMARK SMILES IDX 22 1 21 2 20 3 19 4 17 5 18 6 7 8 6 9 5 10 1 11 2 12 3 13
REMARK SMILES IDX 93 14 4 15 92 16 8 17 9 18 10 19 16 20 11 21 14 22 12 23
REMARK SMILES IDX 13 24 15 25 23 26 24 27 25 28 26 29 27 30 28 32 29 33 30 34
REMARK SMILES IDX 91 35 31 36 90 37 32 38 33 39 34 40 84 41 35 42 89 43 83 44
REMARK SMILES IDX 85 45 36 46 88 47 82 48 81 49 37 51 69 52 49 53 68 54 50 55
REMARK SMILES IDX 53 56 67 57 86 58 51 59 52 60 66 62 87 63 54 64 38 65 39 66
REMARK SMILES IDX 47 67 40 68 41 69 45 70 48 71 42 72 43 73 46 74 44 75 70 76
REMARK SMILES IDX 71 77 79 78 72 79 73 80 77 81 80 82 74 83 75 84 78 85 76 86
REMARK SMILES IDX 55 87 56 88 64 89 57 90 58 91 62 92 65 93 59 94 60 95 63 96
REMARK SMILES IDX 61 97
REMARK H PARENT 19 7 26 31 85 50 53 61
REMARK Flexibility Score: inf
ROOT
ATOM      1  C   UNL A   1      33.296  28.500  25.172  1.00  0.00     0.002 C 
ENDROOT
BRANCH   1   2
ATOM      2  C   UNL A   1      32.823  27.157  25.744  1.00  0.00     0.021 C 
BRANCH   2   3
ATOM      3  C   UNL A   1      32.057  26.295  24.750  1.00  0.00     0.116 C 
BRANCH   3   4
ATOM      4  N   UNL A   1      32.689  26.284  23.446  1.00  0.00    -0.356 N 
ATOM      5  C   UNL A   1      33.381  25.296  22.817  1.00  0.00     0.223 C 
ATOM      6  O   UNL A   1      33.715  25.489  21.645  1.00  0.00    -0.275 OA
ATOM      7  H   UNL A   1      32.606  27.122  22.937  1.00  0.00     0.163 HD
BRANCH   5   8
ATOM      8  C   UNL A   1      33.766  24.002  23.524  1.00  0.00     0.087 C 
BRANCH   8   9
ATOM      9  C   UNL A   1      32.505  23.095  23.495  1.00  0.00     0.049 C 
BRANCH   9  10
ATOM     10  C   UNL A   1      32.624  21.618  23.794  1.00  0.00    -0.047 A 
ATOM     11  C   UNL A   1      32.549  17.424  24.857  1.00  0.00     0.044 C 
ATOM     12  C   UNL A   1      32.577  18.880  24.500  1.00  0.00    -0.051 A 
ATOM     13  C   UNL A   1      32.227  19.287  23.212  1.00  0.00     0.004 A 
ATOM     14  C   UNL A   1      32.962  19.847  25.433  1.00  0.00     0.004 A 
ATOM     15  C   UNL A   1      32.232  20.641  22.870  1.00  0.00     0.004 A 
ATOM     16  C   UNL A   1      32.986  21.200  25.082  1.00  0.00     0.004 A 
ENDBRANCH   9  10
ENDBRANCH   8   9
BRANCH   8  17
ATOM     17  C   UNL A   1      35.087  23.335  23.064  1.00  0.00     0.049 C 
BRANCH  17  18
ATOM     18  C   UNL A   1      36.213  22.931  24.000  1.00  0.00    -0.043 A 
ATOM     19  C   UNL A   1      36.610  23.874  24.969  1.00  0.00     0.043 A 
ATOM     20  C   UNL A   1      36.857  21.688  24.003  1.00  0.00     0.019 A 
ATOM     21  C   UNL A   1      37.525  23.539  25.963  1.00  0.00     0.124 A 
ATOM     22  C   UNL A   1      37.743  21.350  25.036  1.00  0.00     0.021 A 
ATOM     23  F   UNL A   1      37.846  24.447  26.893  1.00  0.00    -0.207 F 
ATOM     24  C   UNL A   1      38.074  22.270  26.027  1.00  0.00     0.055 A 
ATOM     25  Br  UNL A   1      38.443  19.596  25.132  1.00  0.00    -0.051 Br
ENDBRANCH  17  18
ENDBRANCH   8  17
ENDBRANCH   5   8
ENDBRANCH   3   4
ENDBRANCH   2   3
ENDBRANCH   1   2
BRANCH   1  26
ATOM     26  C   UNL A   1      32.435  29.729  25.519  1.00  0.00     0.002 C 
BRANCH  26  27
ATOM     27  C   UNL A   1      32.720  30.401  26.867  1.00  0.00     0.021 C 
BRANCH  27  28
ATOM     28  C   UNL A   1      34.076  30.048  27.457  1.00  0.00     0.116 C 
BRANCH  28  29
ATOM     29  N   UNL A   1      34.655  31.080  28.299  1.00  0.00    -0.352 N 
ATOM     30  C   UNL A   1      35.804  31.061  29.073  1.00  0.00     0.251 C 
ATOM     31  H   UNL A   1      34.151  31.926  28.324  1.00  0.00     0.163 HD
ATOM     32  O   UNL A   1      36.042  31.992  29.820  1.00  0.00    -0.269 OA
BRANCH  30  33
ATOM     33  C   UNL A   1      36.814  29.983  28.889  1.00  0.00     0.039 A 
ATOM     34  C   UNL A   1      36.987  29.069  29.939  1.00  0.00     0.014 A 
ATOM     35  C   UNL A   1      37.695  29.967  27.813  1.00  0.00     0.014 A 
ATOM     36  C   UNL A   1      38.163  28.325  30.024  1.00  0.00     0.010 A 
ATOM     37  C   UNL A   1      38.905  29.320  27.945  1.00  0.00     0.010 A 
ATOM     38  C   UNL A   1      39.163  28.550  29.082  1.00  0.00    -0.014 A 
BRANCH  38  39
ATOM     39  C   UNL A   1      40.540  28.109  29.239  1.00  0.00     0.031 A 
ATOM     40  C   UNL A   1      40.981  26.813  28.685  1.00  0.00     0.074 A 
ATOM     41  C   UNL A   1      41.440  28.968  29.768  1.00  0.00     0.049 A 
ATOM     42  N   UNL A   1      42.038  26.185  29.070  1.00  0.00    -0.248 NA
ATOM     43  C   UNL A   1      40.235  26.102  27.653  1.00  0.00     0.031 C 
ATOM     44  C   UNL A   1      42.897  28.870  29.714  1.00  0.00     0.029 A 
ATOM     45  N   UNL A   1      41.195  30.046  30.637  1.00  0.00    -0.354 N 
ATOM     46  C   UNL A   1      42.264  25.157  28.185  1.00  0.00     0.074 A 
ATOM     47  C   UNL A   1      41.084  25.114  27.352  1.00  0.00     0.031 C 
ATOM     48  C   UNL A   1      43.417  29.612  30.704  1.00  0.00     0.029 A 
ATOM     49  C   UNL A   1      42.306  30.082  31.512  1.00  0.00     0.049 A 
ATOM     50  H   UNL A   1      40.416  30.646  30.637  1.00  0.00     0.167 HD
ATOM     51  C   UNL A   1      43.483  24.544  28.176  1.00  0.00     0.037 A 
ATOM     52  C   UNL A   1      42.167  29.850  32.848  1.00  0.00     0.037 A 
ATOM     53  C   UNL A   1      44.352  25.087  29.215  1.00  0.00     0.049 A 
ATOM     54  C   UNL A   1      42.978  28.682  33.355  1.00  0.00     0.074 A 
ATOM     55  C   UNL A   1      45.343  26.056  29.192  1.00  0.00     0.029 A 
ATOM     56  N   UNL A   1      44.037  24.876  30.553  1.00  0.00    -0.354 N 
ATOM     57  N   UNL A   1      43.418  27.720  32.592  1.00  0.00    -0.248 NA
ATOM     58  C   UNL A   1      43.341  28.496  34.756  1.00  0.00     0.031 C 
ATOM     59  C   UNL A   1      45.598  26.456  30.525  1.00  0.00     0.029 A 
ATOM     60  C   UNL A   1      44.776  25.718  31.360  1.00  0.00     0.049 A 
ATOM     61  H   UNL A   1      43.381  24.220  30.878  1.00  0.00     0.167 HD
ATOM     62  C   UNL A   1      44.096  26.804  33.357  1.00  0.00     0.074 A 
ATOM     63  C   UNL A   1      44.032  27.343  34.702  1.00  0.00     0.031 C 
ATOM     64  C   UNL A   1      44.644  25.679  32.807  1.00  0.00     0.037 A 
BRANCH  51  65
ATOM     65  C   UNL A   1      43.977  23.668  27.047  1.00  0.00     0.064 A 
ATOM     66  C   UNL A   1      44.906  24.157  26.100  1.00  0.00     0.173 A 
ATOM     67  C   UNL A   1      43.538  22.352  26.815  1.00  0.00     0.173 A 
ATOM     68  F   UNL A   1      45.495  25.350  26.245  1.00  0.00    -0.203 F 
ATOM     69  C   UNL A   1      45.264  23.436  24.958  1.00  0.00     0.198 A 
ATOM     70  C   UNL A   1      43.851  21.654  25.644  1.00  0.00     0.198 A 
ATOM     71  F   UNL A   1      42.830  21.687  27.736  1.00  0.00    -0.203 F 
ATOM     72  F   UNL A   1      46.143  23.960  24.090  1.00  0.00    -0.200 F 
ATOM     73  C   UNL A   1      44.706  22.201  24.709  1.00  0.00     0.200 A 
ATOM     74  F   UNL A   1      43.316  20.442  25.429  1.00  0.00    -0.200 F 
ATOM     75  F   UNL A   1      45.008  21.532  23.588  1.00  0.00    -0.200 F 
ENDBRANCH  51  65
BRANCH  52  76
ATOM     76  C   UNL A   1      40.841  30.269  33.375  1.00  0.00     0.064 A 
ATOM     77  C   UNL A   1      40.589  31.648  33.505  1.00  0.00     0.173 A 
ATOM     78  C   UNL A   1      39.738  29.408  33.345  1.00  0.00     0.173 A 
ATOM     79  F   UNL A   1      41.615  32.515  33.538  1.00  0.00    -0.203 F 
ATOM     80  C   UNL A   1      39.292  32.153  33.477  1.00  0.00     0.198 A 
ATOM     81  C   UNL A   1      38.437  29.918  33.332  1.00  0.00     0.198 A 
ATOM     82  F   UNL A   1      39.913  28.087  33.203  1.00  0.00    -0.203 F 
ATOM     83  F   UNL A   1      39.090  33.479  33.484  1.00  0.00    -0.200 F 
ATOM     84  C   UNL A   1      38.218  31.288  33.359  1.00  0.00     0.200 A 
ATOM     85  F   UNL A   1      37.396  29.084  33.193  1.00  0.00    -0.200 F 
ATOM     86  F   UNL A   1      36.975  31.775  33.231  1.00  0.00    -0.200 F 
ENDBRANCH  52  76
BRANCH  64  87
ATOM     87  C   UNL A   1      45.196  24.482  33.548  1.00  0.00     0.064 A 
ATOM     88  C   UNL A   1      44.480  23.296  33.780  1.00  0.00     0.173 A 
ATOM     89  C   UNL A   1      46.564  24.443  33.926  1.00  0.00     0.173 A 
ATOM     90  F   UNL A   1      43.216  23.150  33.365  1.00  0.00    -0.203 F 
ATOM     91  C   UNL A   1      45.066  22.184  34.395  1.00  0.00     0.198 A 
ATOM     92  C   UNL A   1      47.160  23.312  34.481  1.00  0.00     0.198 A 
ATOM     93  F   UNL A   1      47.377  25.493  33.741  1.00  0.00    -0.203 F 
ATOM     94  F   UNL A   1      44.325  21.091  34.630  1.00  0.00    -0.200 F 
ATOM     95  C   UNL A   1      46.406  22.186  34.731  1.00  0.00     0.200 A 
ATOM     96  F   UNL A   1      48.474  23.314  34.749  1.00  0.00    -0.200 F 
ATOM     97  F   UNL A   1      46.973  21.099  35.271  1.00  0.00    -0.200 F 
ENDBRANCH  64  87
ENDBRANCH  38  39
ENDBRANCH  30  33
ENDBRANCH  28  29
ENDBRANCH  27  28
ENDBRANCH  26  27
ENDBRANCH   1  26
TORSDOF 17
ENDMDL
MODEL 3
REMARK VINA RESULT:     -12.7      1.943      2.700
REMARK SMILES Cc1ccc(C[C@@H](Cc2cc(F)cc(Br)c2)C(=O)NCCCCCCNC(=O)c2ccc(-c3c4nc(c(-c5c(F)c(F)c(F)c(F)c5F)c5ccc([nH]5)c(-c5c(F)c(F)c(F)c(F)c5F)c5nc(c(-c6c(F)c(F)c(F)c(F)c6F)c6ccc3[nH]6)C=C5)C=C4)cc2)cc1
REMARK SMILES IDX 22 1 21 2 20 3 19 4 17 5 18 6 7 8 6 9 5 10 1 11 2 12 3 13
REMARK SMILES IDX 93 14 4 15 92 16 8 17 9 18 10 19 16 20 11 21 14 22 12 23
REMARK SMILES IDX 13 24 15 25 23 26 24 27 25 28 26 29 27 30 28 32 29 33 30 34
REMARK SMILES IDX 91 35 31 36 90 37 32 38 33 39 34 40 84 41 35 42 89 43 83 44
REMARK SMILES IDX 85 45 36 46 88 47 82 48 81 49 37 51 69 52 49 53 68 54 50 55
REMARK SMILES IDX 53 56 67 57 86 58 51 59 52 60 66 62 87 63 54 64 38 65 39 66
REMARK SMILES IDX 47 67 40 68 41 69 45 70 48 71 42 72 43 73 46 74 44 75 70 76
REMARK SMILES IDX 71 77 79 78 72 79 73 80 77 81 80 82 74 83 75 84 78 85 76 86
REMARK SMILES IDX 55 87 56 88 64 89 57 90 58 91 62 92 65 93 59 94 60 95 63 96
REMARK SMILES IDX 61 97
REMARK H PARENT 19 7 26 31 85 50 53 61
REMARK Flexibility Score: inf
ROOT
ATOM      1  C   UNL A   1      31.769  28.260  27.351  1.00  0.00     0.002 C 
ENDROOT
BRANCH   1   2
ATOM      2  C   UNL A   1      31.302  27.078  26.492  1.00  0.00     0.021 C 
BRANCH   2   3
ATOM      3  C   UNL A   1      32.094  25.797  26.715  1.00  0.00     0.116 C 
BRANCH   3   4
ATOM      4  N   UNL A   1      31.274  24.617  26.532  1.00  0.00    -0.356 N 
ATOM      5  C   UNL A   1      31.612  23.378  26.085  1.00  0.00     0.223 C 
ATOM      6  O   UNL A   1      30.751  22.495  26.140  1.00  0.00    -0.275 OA
ATOM      7  H   UNL A   1      30.325  24.729  26.768  1.00  0.00     0.163 HD
BRANCH   5   8
ATOM      8  C   UNL A   1      32.987  23.074  25.502  1.00  0.00     0.087 C 
BRANCH   8   9
ATOM      9  C   UNL A   1      33.459  21.749  26.163  1.00  0.00     0.049 C 
BRANCH   9  10
ATOM     10  C   UNL A   1      33.589  20.492  25.335  1.00  0.00    -0.047 A 
ATOM     11  C   UNL A   1      34.029  16.663  23.366  1.00  0.00     0.044 C 
ATOM     12  C   UNL A   1      33.889  17.990  24.050  1.00  0.00    -0.051 A 
ATOM     13  C   UNL A   1      32.618  18.514  24.297  1.00  0.00     0.004 A 
ATOM     14  C   UNL A   1      35.010  18.727  24.439  1.00  0.00     0.004 A 
ATOM     15  C   UNL A   1      32.471  19.740  24.949  1.00  0.00     0.004 A 
ATOM     16  C   UNL A   1      34.861  19.965  25.072  1.00  0.00     0.004 A 
ENDBRANCH   9  10
ENDBRANCH   8   9
BRANCH   8  17
ATOM     17  C   UNL A   1      33.111  23.140  23.960  1.00  0.00     0.049 C 
BRANCH  17  18
ATOM     18  C   UNL A   1      33.215  24.429  23.163  1.00  0.00    -0.043 A 
ATOM     19  C   UNL A   1      32.809  24.383  21.815  1.00  0.00     0.043 A 
ATOM     20  C   UNL A   1      33.641  25.662  23.669  1.00  0.00     0.019 A 
ATOM     21  C   UNL A   1      32.726  25.543  21.050  1.00  0.00     0.124 A 
ATOM     22  C   UNL A   1      33.509  26.828  22.902  1.00  0.00     0.021 A 
ATOM     23  F   UNL A   1      32.295  25.466  19.785  1.00  0.00    -0.207 F 
ATOM     24  C   UNL A   1      33.042  26.777  21.592  1.00  0.00     0.055 A 
ATOM     25  Br  UNL A   1      33.900  28.509  23.678  1.00  0.00    -0.051 Br
ENDBRANCH  17  18
ENDBRANCH   8  17
ENDBRANCH   5   8
ENDBRANCH   3   4
ENDBRANCH   2   3
ENDBRANCH   1   2
BRANCH   1  26
ATOM     26  C   UNL A   1      31.734  29.646  26.680  1.00  0.00     0.002 C 
BRANCH  26  27
ATOM     27  C   UNL A   1      33.033  30.460  26.733  1.00  0.00     0.021 C 
BRANCH  27  28
ATOM     28  C   UNL A   1      34.004  30.002  27.811  1.00  0.00     0.116 C 
BRANCH  28  29
ATOM     29  N   UNL A   1      34.678  31.081  28.511  1.00  0.00    -0.352 N 
ATOM     30  C   UNL A   1      35.896  31.092  29.173  1.00  0.00     0.251 C 
ATOM     31  H   UNL A   1      34.195  31.938  28.517  1.00  0.00     0.163 HD
ATOM     32  O   UNL A   1      36.221  32.070  29.819  1.00  0.00    -0.269 OA
BRANCH  30  33
ATOM     33  C   UNL A   1      36.864  29.977  28.980  1.00  0.00     0.039 A 
ATOM     34  C   UNL A   1      37.052  29.088  30.049  1.00  0.00     0.014 A 
ATOM     35  C   UNL A   1      37.698  29.903  27.870  1.00  0.00     0.014 A 
ATOM     36  C   UNL A   1      38.208  28.309  30.107  1.00  0.00     0.010 A 
ATOM     37  C   UNL A   1      38.892  29.221  27.972  1.00  0.00     0.010 A 
ATOM     38  C   UNL A   1      39.174  28.476  29.119  1.00  0.00    -0.014 A 
BRANCH  38  39
ATOM     39  C   UNL A   1      40.542  27.996  29.233  1.00  0.00     0.031 A 
ATOM     40  C   UNL A   1      40.917  26.667  28.712  1.00  0.00     0.074 A 
ATOM     41  C   UNL A   1      41.491  28.844  29.688  1.00  0.00     0.049 A 
ATOM     42  N   UNL A   1      41.970  26.019  29.074  1.00  0.00    -0.248 NA
ATOM     43  C   UNL A   1      40.104  25.943  27.741  1.00  0.00     0.031 C 
ATOM     44  C   UNL A   1      42.941  28.697  29.575  1.00  0.00     0.029 A 
ATOM     45  N   UNL A   1      41.320  29.962  30.525  1.00  0.00    -0.354 N 
ATOM     46  C   UNL A   1      42.124  24.952  28.221  1.00  0.00     0.074 A 
ATOM     47  C   UNL A   1      40.907  24.917  27.442  1.00  0.00     0.031 C 
ATOM     48  C   UNL A   1      43.527  29.458  30.511  1.00  0.00     0.029 A 
ATOM     49  C   UNL A   1      42.469  29.994  31.348  1.00  0.00     0.049 A 
ATOM     50  H   UNL A   1      40.560  30.587  30.536  1.00  0.00     0.167 HD
ATOM     51  C   UNL A   1      43.322  24.300  28.182  1.00  0.00     0.037 A 
ATOM     52  C   UNL A   1      42.383  29.817  32.697  1.00  0.00     0.037 A 
ATOM     53  C   UNL A   1      44.254  24.852  29.160  1.00  0.00     0.049 A 
ATOM     54  C   UNL A   1      43.180  28.643  33.213  1.00  0.00     0.074 A 
ATOM     55  C   UNL A   1      45.272  25.786  29.057  1.00  0.00     0.029 A 
ATOM     56  N   UNL A   1      43.992  24.702  30.518  1.00  0.00    -0.354 N 
ATOM     57  N   UNL A   1      43.555  27.639  32.470  1.00  0.00    -0.248 NA
ATOM     58  C   UNL A   1      43.599  28.497  34.603  1.00  0.00     0.031 C 
ATOM     59  C   UNL A   1      45.598  26.228  30.360  1.00  0.00     0.029 A 
ATOM     60  C   UNL A   1      44.793  25.548  31.258  1.00  0.00     0.049 A 
ATOM     61  H   UNL A   1      43.331  24.080  30.897  1.00  0.00     0.167 HD
ATOM     62  C   UNL A   1      44.237  26.731  33.239  1.00  0.00     0.074 A 
ATOM     63  C   UNL A   1      44.251  27.321  34.564  1.00  0.00     0.031 C 
ATOM     64  C   UNL A   1      44.724  25.568  32.710  1.00  0.00     0.037 A 
BRANCH  51  65
ATOM     65  C   UNL A   1      43.737  23.366  27.067  1.00  0.00     0.064 A 
ATOM     66  C   UNL A   1      43.149  22.088  26.933  1.00  0.00     0.173 A 
ATOM     67  C   UNL A   1      44.744  23.652  26.128  1.00  0.00     0.173 A 
ATOM     68  F   UNL A   1      42.106  21.711  27.684  1.00  0.00    -0.203 F 
ATOM     69  C   UNL A   1      43.614  21.139  26.019  1.00  0.00     0.198 A 
ATOM     70  C   UNL A   1      45.248  22.684  25.253  1.00  0.00     0.198 A 
ATOM     71  F   UNL A   1      45.237  24.890  25.998  1.00  0.00    -0.203 F 
ATOM     72  F   UNL A   1      43.021  19.938  25.947  1.00  0.00    -0.200 F 
ATOM     73  C   UNL A   1      44.691  21.422  25.206  1.00  0.00     0.200 A 
ATOM     74  F   UNL A   1      46.282  22.986  24.452  1.00  0.00    -0.200 F 
ATOM     75  F   UNL A   1      45.172  20.495  24.367  1.00  0.00    -0.200 F 
ENDBRANCH  51  65
BRANCH  52  76
ATOM     76  C   UNL A   1      41.096  30.299  33.265  1.00  0.00     0.064 A 
ATOM     77  C   UNL A   1      40.903  31.689  33.374  1.00  0.00     0.173 A 
ATOM     78  C   UNL A   1      39.960  29.482  33.296  1.00  0.00     0.173 A 
ATOM     79  F   UNL A   1      41.961  32.515  33.348  1.00  0.00    -0.203 F 
ATOM     80  C   UNL A   1      39.626  32.244  33.384  1.00  0.00     0.198 A 
ATOM     81  C   UNL A   1      38.680  30.042  33.321  1.00  0.00     0.198 A 
ATOM     82  F   UNL A   1      40.078  28.151  33.177  1.00  0.00    -0.203 F 
ATOM     83  F   UNL A   1      39.475  33.577  33.369  1.00  0.00    -0.200 F 
ATOM     84  C   UNL A   1      38.515  31.420  33.326  1.00  0.00     0.200 A 
ATOM     85  F   UNL A   1      37.603  29.247  33.241  1.00  0.00    -0.200 F 
ATOM     86  F   UNL A   1      37.288  31.953  33.235  1.00  0.00    -0.200 F 
ENDBRANCH  52  76
BRANCH  64  87
ATOM     87  C   UNL A   1      45.272  24.382  33.473  1.00  0.00     0.064 A 
ATOM     88  C   UNL A   1      44.547  23.209  33.737  1.00  0.00     0.173 A 
ATOM     89  C   UNL A   1      46.642  24.338  33.839  1.00  0.00     0.173 A 
ATOM     90  F   UNL A   1      43.277  23.066  33.336  1.00  0.00    -0.203 F 
ATOM     91  C   UNL A   1      45.127  22.104  34.370  1.00  0.00     0.198 A 
ATOM     92  C   UNL A   1      47.233  23.213  34.414  1.00  0.00     0.198 A 
ATOM     93  F   UNL A   1      47.464  25.376  33.624  1.00  0.00    -0.203 F 
ATOM     94  F   UNL A   1      44.377  21.025  34.636  1.00  0.00    -0.200 F 
ATOM     95  C   UNL A   1      46.470  22.101  34.695  1.00  0.00     0.200 A 
ATOM     96  F   UNL A   1      48.549  23.208  34.669  1.00  0.00    -0.200 F 
ATOM     97  F   UNL A   1      47.031  21.020  35.254  1.00  0.00    -0.200 F 
ENDBRANCH  64  87
ENDBRANCH  38  39
ENDBRANCH  30  33
ENDBRANCH  28  29
ENDBRANCH  27  28
ENDBRANCH  26  27
ENDBRANCH   1  26
TORSDOF 17
ENDMDL
