MODEL 1
REMARK VINA RESULT:      -9.8      0.000      0.000
REMARK SMILES CCN(CCC#N)C(=O)c1ccncc1/C=C/C(=O)NCCCCCCNC(=O)c1ccc(-c2c3nc(c(-c4c(F)c(F)c(F)c(F)c4F)c4ccc([nH]4)c(-c4c(F)c(F)c(F)c(F)c4F)c4nc(c(-c5c(F)c(F)c(F)c(F)c5F)c5ccc2[nH]5)C=C4)C=C3)cc1
REMARK SMILES IDX 21 1 20 2 18 3 19 4 17 6 16 7 15 8 10 9 11 10 12 11 14 12
REMARK SMILES IDX 13 13 8 14 9 15 3 16 2 17 1 18 4 19 5 20 6 21 7 22 22 23
REMARK SMILES IDX 23 24 24 25 25 26 26 27 27 28 28 29 29 31 30 32 31 33 92 34
REMARK SMILES IDX 32 35 91 36 33 37 34 38 35 39 85 40 36 41 90 42 84 43 86 44
REMARK SMILES IDX 37 45 89 46 83 47 82 48 38 50 70 51 50 52 69 53 51 54 54 55
REMARK SMILES IDX 68 56 87 57 52 58 53 59 67 61 88 62 55 63 39 64 40 65 48 66
REMARK SMILES IDX 41 67 42 68 46 69 49 70 43 71 44 72 47 73 45 74 71 75 72 76
REMARK SMILES IDX 80 77 73 78 74 79 78 80 81 81 75 82 76 83 79 84 77 85 56 86
REMARK SMILES IDX 57 87 65 88 58 89 59 90 63 91 66 92 60 93 61 94 64 95 62 96
REMARK H PARENT 20 5 27 30 86 49 54 60
REMARK Flexibility Score: inf
ROOT
ATOM      1  C   UNL A   1      34.960  23.425  26.091  1.00  0.00     0.116 C 
ENDROOT
BRANCH   1   2
ATOM      2  N   UNL A   1      33.645  23.042  26.558  1.00  0.00    -0.353 N 
ATOM      3  C   UNL A   1      32.554  23.802  26.823  1.00  0.00     0.244 C 
ATOM      4  O   UNL A   1      31.522  23.267  27.222  1.00  0.00    -0.270 OA
ATOM      5  H   UNL A   1      33.523  22.076  26.707  1.00  0.00     0.163 HD
BRANCH   3   6
ATOM      6  C   UNL A   1      32.547  25.254  26.525  1.00  0.00     0.072 C 
ATOM      7  C   UNL A   1      31.480  26.069  26.447  1.00  0.00     0.016 C 
BRANCH   7   8
ATOM      8  C   UNL A   1      31.633  27.516  26.226  1.00  0.00     0.006 A 
ATOM      9  C   UNL A   1      31.454  28.157  24.988  1.00  0.00     0.050 A 
ATOM     10  C   UNL A   1      31.426  29.551  24.945  1.00  0.00     0.034 A 
ATOM     11  C   UNL A   1      31.763  30.269  26.073  1.00  0.00     0.112 A 
ATOM     12  C   UNL A   1      31.954  28.343  27.306  1.00  0.00     0.119 A 
ATOM     13  N   UNL A   1      32.058  29.691  27.249  1.00  0.00    -0.264 NA
BRANCH   9  14
ATOM     14  C   UNL A   1      31.148  27.437  23.721  1.00  0.00     0.254 C 
ATOM     15  O   UNL A   1      30.063  27.666  23.189  1.00  0.00    -0.269 OA
BRANCH  14  16
ATOM     16  N   UNL A   1      32.085  26.544  23.155  1.00  0.00    -0.338 N 
BRANCH  16  17
ATOM     17  C   UNL A   1      33.498  26.956  23.186  1.00  0.00     0.116 C 
ATOM     18  C   UNL A   1      33.797  28.194  22.349  1.00  0.00     0.027 C 
ENDBRANCH  16  17
BRANCH  16  19
ATOM     19  C   UNL A   1      31.775  25.305  22.404  1.00  0.00     0.135 C 
BRANCH  19  20
ATOM     20  C   UNL A   1      31.006  24.226  23.193  1.00  0.00     0.141 C 
BRANCH  20  21
ATOM     21  C   UNL A   1      31.786  23.008  23.447  1.00  0.00     0.064 C 
ATOM     22  N   UNL A   1      32.413  22.057  23.653  1.00  0.00    -0.198 NA
ENDBRANCH  20  21
ENDBRANCH  19  20
ENDBRANCH  16  19
ENDBRANCH  14  16
ENDBRANCH   9  14
ENDBRANCH   7   8
ENDBRANCH   3   6
ENDBRANCH   1   2
BRANCH   1  23
ATOM     23  C   UNL A   1      35.688  22.195  25.552  1.00  0.00     0.021 C 
BRANCH  23  24
ATOM     24  C   UNL A   1      37.017  22.549  24.876  1.00  0.00     0.002 C 
BRANCH  24  25
ATOM     25  C   UNL A   1      38.257  22.210  25.714  1.00  0.00     0.002 C 
BRANCH  25  26
ATOM     26  C   UNL A   1      38.902  20.865  25.371  1.00  0.00     0.021 C 
BRANCH  26  27
ATOM     27  C   UNL A   1      39.417  20.110  26.589  1.00  0.00     0.116 C 
BRANCH  27  28
ATOM     28  N   UNL A   1      40.526  19.236  26.234  1.00  0.00    -0.352 N 
ATOM     29  C   UNL A   1      41.821  19.561  25.933  1.00  0.00     0.251 C 
ATOM     30  H   UNL A   1      40.315  18.275  26.209  1.00  0.00     0.163 HD
ATOM     31  O   UNL A   1      42.554  18.751  25.375  1.00  0.00    -0.269 OA
BRANCH  29  32
ATOM     32  C   UNL A   1      42.332  20.900  26.284  1.00  0.00     0.039 A 
ATOM     33  C   UNL A   1      42.594  21.817  25.265  1.00  0.00     0.014 A 
ATOM     34  C   UNL A   1      42.563  21.240  27.621  1.00  0.00     0.014 A 
ATOM     35  C   UNL A   1      43.044  23.095  25.591  1.00  0.00     0.010 A 
ATOM     36  C   UNL A   1      42.929  22.540  27.948  1.00  0.00     0.010 A 
ATOM     37  C   UNL A   1      43.182  23.477  26.937  1.00  0.00    -0.014 A 
BRANCH  37  38
ATOM     38  C   UNL A   1      43.587  24.856  27.301  1.00  0.00     0.031 A 
ATOM     39  C   UNL A   1      42.558  25.853  27.752  1.00  0.00     0.074 A 
ATOM     40  C   UNL A   1      44.876  25.223  27.169  1.00  0.00     0.049 A 
ATOM     41  N   UNL A   1      42.709  27.116  28.062  1.00  0.00    -0.248 NA
ATOM     42  C   UNL A   1      41.168  25.378  27.840  1.00  0.00     0.031 C 
ATOM     43  C   UNL A   1      45.956  24.356  26.694  1.00  0.00     0.029 A 
ATOM     44  N   UNL A   1      45.496  26.422  27.413  1.00  0.00    -0.354 N 
ATOM     45  C   UNL A   1      41.439  27.586  28.369  1.00  0.00     0.074 A 
ATOM     46  C   UNL A   1      40.520  26.491  28.149  1.00  0.00     0.031 C 
ATOM     47  C   UNL A   1      47.108  25.041  26.708  1.00  0.00     0.029 A 
ATOM     48  C   UNL A   1      46.842  26.409  27.144  1.00  0.00     0.049 A 
ATOM     49  H   UNL A   1      45.021  27.216  27.748  1.00  0.00     0.167 HD
ATOM     50  C   UNL A   1      41.079  28.812  28.816  1.00  0.00     0.037 A 
ATOM     51  C   UNL A   1      47.758  27.392  27.226  1.00  0.00     0.037 A 
ATOM     52  C   UNL A   1      42.004  29.891  29.044  1.00  0.00     0.049 A 
ATOM     53  C   UNL A   1      47.327  28.753  27.705  1.00  0.00     0.074 A 
ATOM     54  C   UNL A   1      41.750  31.151  29.554  1.00  0.00     0.029 A 
ATOM     55  N   UNL A   1      43.363  29.840  28.766  1.00  0.00    -0.354 N 
ATOM     56  N   UNL A   1      46.135  29.165  28.065  1.00  0.00    -0.248 NA
ATOM     57  C   UNL A   1      48.369  29.784  27.794  1.00  0.00     0.031 C 
ATOM     58  C   UNL A   1      42.938  31.887  29.514  1.00  0.00     0.029 A 
ATOM     59  C   UNL A   1      43.951  31.061  29.054  1.00  0.00     0.049 A 
ATOM     60  H   UNL A   1      43.839  29.052  28.414  1.00  0.00     0.167 HD
ATOM     61  C   UNL A   1      46.289  30.489  28.452  1.00  0.00     0.074 A 
ATOM     62  C   UNL A   1      47.693  30.806  28.298  1.00  0.00     0.031 C 
ATOM     63  C   UNL A   1      45.352  31.363  28.896  1.00  0.00     0.037 A 
BRANCH  50  64
ATOM     64  C   UNL A   1      39.618  29.060  29.072  1.00  0.00     0.064 A 
ATOM     65  C   UNL A   1      39.051  28.910  30.348  1.00  0.00     0.173 A 
ATOM     66  C   UNL A   1      38.779  29.489  28.032  1.00  0.00     0.173 A 
ATOM     67  F   UNL A   1      39.804  28.493  31.377  1.00  0.00    -0.203 F 
ATOM     68  C   UNL A   1      37.695  29.144  30.564  1.00  0.00     0.198 A 
ATOM     69  C   UNL A   1      37.432  29.759  28.259  1.00  0.00     0.198 A 
ATOM     70  F   UNL A   1      39.266  29.654  26.793  1.00  0.00    -0.203 F 
ATOM     71  F   UNL A   1      37.166  28.936  31.777  1.00  0.00    -0.200 F 
ATOM     72  C   UNL A   1      36.889  29.577  29.522  1.00  0.00     0.200 A 
ATOM     73  F   UNL A   1      36.658  30.192  27.255  1.00  0.00    -0.200 F 
ATOM     74  F   UNL A   1      35.587  29.811  29.734  1.00  0.00    -0.200 F 
ENDBRANCH  50  64
BRANCH  51  75
ATOM     75  C   UNL A   1      49.172  27.123  26.852  1.00  0.00     0.064 A 
ATOM     76  C   UNL A   1      50.123  26.770  27.819  1.00  0.00     0.173 A 
ATOM     77  C   UNL A   1      49.602  27.218  25.520  1.00  0.00     0.173 A 
ATOM     78  F   UNL A   1      49.767  26.684  29.109  1.00  0.00    -0.203 F 
ATOM     79  C   UNL A   1      51.455  26.548  27.472  1.00  0.00     0.198 A 
ATOM     80  C   UNL A   1      50.925  26.960  25.169  1.00  0.00     0.198 A 
ATOM     81  F   UNL A   1      48.732  27.546  24.553  1.00  0.00    -0.203 F 
ATOM     82  F   UNL A   1      52.354  26.264  28.424  1.00  0.00    -0.200 F 
ATOM     83  C   UNL A   1      51.853  26.636  26.146  1.00  0.00     0.200 A 
ATOM     84  F   UNL A   1      51.301  27.028  23.884  1.00  0.00    -0.200 F 
ATOM     85  F   UNL A   1      53.132  26.416  25.813  1.00  0.00    -0.200 F 
ENDBRANCH  51  75
BRANCH  63  86
ATOM     86  C   UNL A   1      45.819  32.738  29.283  1.00  0.00     0.064 A 
ATOM     87  C   UNL A   1      45.813  33.808  28.375  1.00  0.00     0.173 A 
ATOM     88  C   UNL A   1      46.244  32.999  30.596  1.00  0.00     0.173 A 
ATOM     89  F   UNL A   1      45.428  33.613  27.104  1.00  0.00    -0.203 F 
ATOM     90  C   UNL A   1      46.244  35.075  28.757  1.00  0.00     0.198 A 
ATOM     91  C   UNL A   1      46.637  34.275  30.985  1.00  0.00     0.198 A 
ATOM     92  F   UNL A   1      46.263  32.015  31.508  1.00  0.00    -0.203 F 
ATOM     93  F   UNL A   1      46.284  36.067  27.857  1.00  0.00    -0.200 F 
ATOM     94  C   UNL A   1      46.647  35.311  30.063  1.00  0.00     0.200 A 
ATOM     95  F   UNL A   1      47.006  34.504  32.253  1.00  0.00    -0.200 F 
ATOM     96  F   UNL A   1      47.052  36.534  30.432  1.00  0.00    -0.200 F 
ENDBRANCH  63  86
ENDBRANCH  37  38
ENDBRANCH  29  32
ENDBRANCH  27  28
ENDBRANCH  26  27
ENDBRANCH  25  26
ENDBRANCH  24  25
ENDBRANCH  23  24
ENDBRANCH   1  23
TORSDOF 20
ENDMDL
MODEL 2
REMARK VINA RESULT:      -9.6      1.063      2.345
REMARK SMILES CCN(CCC#N)C(=O)c1ccncc1/C=C/C(=O)NCCCCCCNC(=O)c1ccc(-c2c3nc(c(-c4c(F)c(F)c(F)c(F)c4F)c4ccc([nH]4)c(-c4c(F)c(F)c(F)c(F)c4F)c4nc(c(-c5c(F)c(F)c(F)c(F)c5F)c5ccc2[nH]5)C=C4)C=C3)cc1
REMARK SMILES IDX 21 1 20 2 18 3 19 4 17 6 16 7 15 8 10 9 11 10 12 11 14 12
REMARK SMILES IDX 13 13 8 14 9 15 3 16 2 17 1 18 4 19 5 20 6 21 7 22 22 23
REMARK SMILES IDX 23 24 24 25 25 26 26 27 27 28 28 29 29 31 30 32 31 33 92 34
REMARK SMILES IDX 32 35 91 36 33 37 34 38 35 39 85 40 36 41 90 42 84 43 86 44
REMARK SMILES IDX 37 45 89 46 83 47 82 48 38 50 70 51 50 52 69 53 51 54 54 55
REMARK SMILES IDX 68 56 87 57 52 58 53 59 67 61 88 62 55 63 39 64 40 65 48 66
REMARK SMILES IDX 41 67 42 68 46 69 49 70 43 71 44 72 47 73 45 74 71 75 72 76
REMARK SMILES IDX 80 77 73 78 74 79 78 80 81 81 75 82 76 83 79 84 77 85 56 86
REMARK SMILES IDX 57 87 65 88 58 89 59 90 63 91 66 92 60 93 61 94 64 95 62 96
REMARK H PARENT 20 5 27 30 86 49 54 60
REMARK Flexibility Score: inf
ROOT
ATOM      1  C   UNL A   1      34.999  22.196  26.054  1.00  0.00     0.116 C 
ENDROOT
BRANCH   1   2
ATOM      2  N   UNL A   1      33.885  21.274  26.012  1.00  0.00    -0.353 N 
ATOM      3  C   UNL A   1      32.794  21.255  25.206  1.00  0.00     0.244 C 
ATOM      4  O   UNL A   1      31.952  20.371  25.345  1.00  0.00    -0.270 OA
ATOM      5  H   UNL A   1      33.925  20.546  26.673  1.00  0.00     0.163 HD
BRANCH   3   6
ATOM      6  C   UNL A   1      32.662  22.211  24.081  1.00  0.00     0.072 C 
ATOM      7  C   UNL A   1      32.253  23.491  24.138  1.00  0.00     0.016 C 
BRANCH   7   8
ATOM      8  C   UNL A   1      32.255  24.352  22.944  1.00  0.00     0.006 A 
ATOM      9  C   UNL A   1      31.595  25.590  22.853  1.00  0.00     0.050 A 
ATOM     10  C   UNL A   1      31.836  26.405  21.748  1.00  0.00     0.034 A 
ATOM     11  C   UNL A   1      32.558  25.905  20.683  1.00  0.00     0.112 A 
ATOM     12  C   UNL A   1      32.972  23.952  21.814  1.00  0.00     0.119 A 
ATOM     13  N   UNL A   1      33.107  24.680  20.681  1.00  0.00    -0.264 NA
BRANCH   9  14
ATOM     14  C   UNL A   1      30.751  26.158  23.940  1.00  0.00     0.254 C 
ATOM     15  O   UNL A   1      29.583  25.780  24.004  1.00  0.00    -0.269 OA
BRANCH  14  16
ATOM     16  N   UNL A   1      31.290  27.079  24.866  1.00  0.00    -0.338 N 
BRANCH  16  17
ATOM     17  C   UNL A   1      31.502  26.591  26.240  1.00  0.00     0.116 C 
ATOM     18  C   UNL A   1      31.699  27.703  27.263  1.00  0.00     0.027 C 
ENDBRANCH  16  17
BRANCH  16  19
ATOM     19  C   UNL A   1      31.528  28.522  24.634  1.00  0.00     0.135 C 
BRANCH  19  20
ATOM     20  C   UNL A   1      30.288  29.341  24.220  1.00  0.00     0.141 C 
BRANCH  20  21
ATOM     21  C   UNL A   1      30.180  29.565  22.773  1.00  0.00     0.064 C 
ATOM     22  N   UNL A   1      30.080  29.733  21.632  1.00  0.00    -0.198 NA
ENDBRANCH  20  21
ENDBRANCH  19  20
ENDBRANCH  16  19
ENDBRANCH  14  16
ENDBRANCH   9  14
ENDBRANCH   7   8
ENDBRANCH   3   6
ENDBRANCH   1   2
BRANCH   1  23
ATOM     23  C   UNL A   1      36.254  21.505  25.522  1.00  0.00     0.021 C 
BRANCH  23  24
ATOM     24  C   UNL A   1      37.389  22.491  25.229  1.00  0.00     0.002 C 
BRANCH  24  25
ATOM     25  C   UNL A   1      38.734  22.103  25.857  1.00  0.00     0.002 C 
BRANCH  25  26
ATOM     26  C   UNL A   1      39.206  20.689  25.514  1.00  0.00     0.021 C 
BRANCH  26  27
ATOM     27  C   UNL A   1      39.919  19.990  26.665  1.00  0.00     0.116 C 
BRANCH  27  28
ATOM     28  N   UNL A   1      41.031  19.184  26.181  1.00  0.00    -0.352 N 
ATOM     29  C   UNL A   1      42.270  19.584  25.760  1.00  0.00     0.251 C 
ATOM     30  H   UNL A   1      40.869  18.213  26.155  1.00  0.00     0.163 HD
ATOM     31  O   UNL A   1      42.984  18.825  25.112  1.00  0.00    -0.269 OA
BRANCH  29  32
ATOM     32  C   UNL A   1      42.743  20.942  26.088  1.00  0.00     0.039 A 
ATOM     33  C   UNL A   1      42.920  21.868  25.059  1.00  0.00     0.014 A 
ATOM     34  C   UNL A   1      43.024  21.292  27.412  1.00  0.00     0.014 A 
ATOM     35  C   UNL A   1      43.334  23.163  25.365  1.00  0.00     0.010 A 
ATOM     36  C   UNL A   1      43.352  22.606  27.724  1.00  0.00     0.010 A 
ATOM     37  C   UNL A   1      43.520  23.552  26.703  1.00  0.00    -0.014 A 
BRANCH  37  38
ATOM     38  C   UNL A   1      43.887  24.946  27.049  1.00  0.00     0.031 A 
ATOM     39  C   UNL A   1      42.848  25.892  27.582  1.00  0.00     0.074 A 
ATOM     40  C   UNL A   1      45.144  25.373  26.828  1.00  0.00     0.049 A 
ATOM     41  N   UNL A   1      42.963  27.159  27.891  1.00  0.00    -0.248 NA
ATOM     42  C   UNL A   1      41.491  25.352  27.765  1.00  0.00     0.031 C 
ATOM     43  C   UNL A   1      46.225  24.560  26.269  1.00  0.00     0.029 A 
ATOM     44  N   UNL A   1      45.725  26.599  27.037  1.00  0.00    -0.354 N 
ATOM     45  C   UNL A   1      41.699  27.567  28.293  1.00  0.00     0.074 A 
ATOM     46  C   UNL A   1      40.817  26.432  28.131  1.00  0.00     0.031 C 
ATOM     47  C   UNL A   1      47.343  25.298  26.206  1.00  0.00     0.029 A 
ATOM     48  C   UNL A   1      47.047  26.649  26.672  1.00  0.00     0.049 A 
ATOM     49  H   UNL A   1      45.239  27.368  27.413  1.00  0.00     0.167 HD
ATOM     50  C   UNL A   1      41.315  28.772  28.776  1.00  0.00     0.037 A 
ATOM     51  C   UNL A   1      47.920  27.674  26.697  1.00  0.00     0.037 A 
ATOM     52  C   UNL A   1      42.204  29.892  28.947  1.00  0.00     0.049 A 
ATOM     53  C   UNL A   1      47.462  29.010  27.218  1.00  0.00     0.074 A 
ATOM     54  C   UNL A   1      41.930  31.136  29.485  1.00  0.00     0.029 A 
ATOM     55  N   UNL A   1      43.540  29.906  28.571  1.00  0.00    -0.354 N 
ATOM     56  N   UNL A   1      46.283  29.364  27.666  1.00  0.00    -0.248 NA
ATOM     57  C   UNL A   1      48.460  30.088  27.241  1.00  0.00     0.031 C 
ATOM     58  C   UNL A   1      43.077  31.927  29.366  1.00  0.00     0.029 A 
ATOM     59  C   UNL A   1      44.091  31.152  28.827  1.00  0.00     0.049 A 
ATOM     60  H   UNL A   1      44.025  29.143  28.179  1.00  0.00     0.167 HD
ATOM     61  C   UNL A   1      46.403  30.692  28.053  1.00  0.00     0.074 A 
ATOM     62  C   UNL A   1      47.776  31.074  27.801  1.00  0.00     0.031 C 
ATOM     63  C   UNL A   1      45.461  31.519  28.571  1.00  0.00     0.037 A 
BRANCH  50  64
ATOM     64  C   UNL A   1      39.867  28.951  29.139  1.00  0.00     0.064 A 
ATOM     65  C   UNL A   1      39.400  28.760  30.449  1.00  0.00     0.173 A 
ATOM     66  C   UNL A   1      38.937  29.354  28.168  1.00  0.00     0.173 A 
ATOM     67  F   UNL A   1      40.242  28.365  31.416  1.00  0.00    -0.203 F 
ATOM     68  C   UNL A   1      38.054  28.930  30.764  1.00  0.00     0.198 A 
ATOM     69  C   UNL A   1      37.600  29.561  28.494  1.00  0.00     0.198 A 
ATOM     70  F   UNL A   1      39.327  29.557  26.901  1.00  0.00    -0.203 F 
ATOM     71  F   UNL A   1      37.623  28.683  32.009  1.00  0.00    -0.200 F 
ATOM     72  C   UNL A   1      37.157  29.339  29.789  1.00  0.00     0.200 A 
ATOM     73  F   UNL A   1      36.738  29.971  27.554  1.00  0.00    -0.200 F 
ATOM     74  F   UNL A   1      35.864  29.510  30.096  1.00  0.00    -0.200 F 
ENDBRANCH  50  64
BRANCH  51  75
ATOM     75  C   UNL A   1      49.314  27.472  26.219  1.00  0.00     0.064 A 
ATOM     76  C   UNL A   1      50.355  27.197  27.117  1.00  0.00     0.173 A 
ATOM     77  C   UNL A   1      49.635  27.556  24.856  1.00  0.00     0.173 A 
ATOM     78  F   UNL A   1      50.104  27.126  28.433  1.00  0.00    -0.203 F 
ATOM     79  C   UNL A   1      51.667  27.039  26.672  1.00  0.00     0.198 A 
ATOM     80  C   UNL A   1      50.940  27.361  24.409  1.00  0.00     0.198 A 
ATOM     81  F   UNL A   1      48.676  27.810  23.954  1.00  0.00    -0.203 F 
ATOM     82  F   UNL A   1      52.651  26.830  27.557  1.00  0.00    -0.200 F 
ATOM     83  C   UNL A   1      51.956  27.114  25.318  1.00  0.00     0.200 A 
ATOM     84  F   UNL A   1      51.211  27.416  23.097  1.00  0.00    -0.200 F 
ATOM     85  F   UNL A   1      53.216  26.956  24.891  1.00  0.00    -0.200 F 
ENDBRANCH  51  75
BRANCH  63  86
ATOM     86  C   UNL A   1      45.892  32.912  28.936  1.00  0.00     0.064 A 
ATOM     87  C   UNL A   1      45.782  33.983  28.036  1.00  0.00     0.173 A 
ATOM     88  C   UNL A   1      46.387  33.187  30.221  1.00  0.00     0.173 A 
ATOM     89  F   UNL A   1      45.327  33.775  26.791  1.00  0.00    -0.203 F 
ATOM     90  C   UNL A   1      46.180  35.267  28.398  1.00  0.00     0.198 A 
ATOM     91  C   UNL A   1      46.748  34.479  30.592  1.00  0.00     0.198 A 
ATOM     92  F   UNL A   1      46.506  32.202  31.125  1.00  0.00    -0.203 F 
ATOM     93  F   UNL A   1      46.121  36.262  27.502  1.00  0.00    -0.200 F 
ATOM     94  C   UNL A   1      46.655  35.516  29.677  1.00  0.00     0.200 A 
ATOM     95  F   UNL A   1      47.185  34.720  31.836  1.00  0.00    -0.200 F 
ATOM     96  F   UNL A   1      47.028  36.754  30.027  1.00  0.00    -0.200 F 
ENDBRANCH  63  86
ENDBRANCH  37  38
ENDBRANCH  29  32
ENDBRANCH  27  28
ENDBRANCH  26  27
ENDBRANCH  25  26
ENDBRANCH  24  25
ENDBRANCH  23  24
ENDBRANCH   1  23
TORSDOF 20
ENDMDL
MODEL 3
REMARK VINA RESULT:      -9.6      1.101      3.169
REMARK SMILES CCN(CCC#N)C(=O)c1ccncc1/C=C/C(=O)NCCCCCCNC(=O)c1ccc(-c2c3nc(c(-c4c(F)c(F)c(F)c(F)c4F)c4ccc([nH]4)c(-c4c(F)c(F)c(F)c(F)c4F)c4nc(c(-c5c(F)c(F)c(F)c(F)c5F)c5ccc2[nH]5)C=C4)C=C3)cc1
REMARK SMILES IDX 21 1 20 2 18 3 19 4 17 6 16 7 15 8 10 9 11 10 12 11 14 12
REMARK SMILES IDX 13 13 8 14 9 15 3 16 2 17 1 18 4 19 5 20 6 21 7 22 22 23
REMARK SMILES IDX 23 24 24 25 25 26 26 27 27 28 28 29 29 31 30 32 31 33 92 34
REMARK SMILES IDX 32 35 91 36 33 37 34 38 35 39 85 40 36 41 90 42 84 43 86 44
REMARK SMILES IDX 37 45 89 46 83 47 82 48 38 50 70 51 50 52 69 53 51 54 54 55
REMARK SMILES IDX 68 56 87 57 52 58 53 59 67 61 88 62 55 63 39 64 40 65 48 66
REMARK SMILES IDX 41 67 42 68 46 69 49 70 43 71 44 72 47 73 45 74 71 75 72 76
REMARK SMILES IDX 80 77 73 78 74 79 78 80 81 81 75 82 76 83 79 84 77 85 56 86
REMARK SMILES IDX 57 87 65 88 58 89 59 90 63 91 66 92 60 93 61 94 64 95 62 96
REMARK H PARENT 20 5 27 30 86 49 54 60
REMARK Flexibility Score: inf
ROOT
ATOM      1  C   UNL A   1      35.181  21.601  26.165  1.00  0.00     0.116 C 
ENDROOT
BRANCH   1   2
ATOM      2  N   UNL A   1      33.954  20.876  25.914  1.00  0.00    -0.353 N 
ATOM      3  C   UNL A   1      32.889  21.198  25.139  1.00  0.00     0.244 C 
ATOM      4  O   UNL A   1      31.934  20.429  25.069  1.00  0.00    -0.270 OA
ATOM      5  H   UNL A   1      33.881  20.011  26.380  1.00  0.00     0.163 HD
BRANCH   3   6
ATOM      6  C   UNL A   1      32.911  22.405  24.278  1.00  0.00     0.072 C 
ATOM      7  C   UNL A   1      32.982  23.689  24.671  1.00  0.00     0.016 C 
BRANCH   7   8
ATOM      8  C   UNL A   1      33.084  24.786  23.695  1.00  0.00     0.006 A 
ATOM      9  C   UNL A   1      33.156  26.149  24.032  1.00  0.00     0.050 A 
ATOM     10  C   UNL A   1      33.454  27.077  23.035  1.00  0.00     0.034 A 
ATOM     11  C   UNL A   1      33.481  26.670  21.717  1.00  0.00     0.112 A 
ATOM     12  C   UNL A   1      33.140  24.485  22.332  1.00  0.00     0.119 A 
ATOM     13  N   UNL A   1      33.300  25.394  21.341  1.00  0.00    -0.264 NA
BRANCH   9  14
ATOM     14  C   UNL A   1      33.071  26.661  25.427  1.00  0.00     0.254 C 
ATOM     15  O   UNL A   1      34.115  26.707  26.076  1.00  0.00    -0.269 OA
BRANCH  14  16
ATOM     16  N   UNL A   1      31.838  27.091  25.966  1.00  0.00    -0.338 N 
BRANCH  16  17
ATOM     17  C   UNL A   1      30.622  26.704  25.231  1.00  0.00     0.116 C 
ATOM     18  C   UNL A   1      29.806  25.617  25.922  1.00  0.00     0.027 C 
ENDBRANCH  16  17
BRANCH  16  19
ATOM     19  C   UNL A   1      31.653  28.013  27.111  1.00  0.00     0.135 C 
BRANCH  19  20
ATOM     20  C   UNL A   1      32.601  29.228  27.144  1.00  0.00     0.141 C 
BRANCH  20  21
ATOM     21  C   UNL A   1      31.952  30.498  26.798  1.00  0.00     0.064 C 
ATOM     22  N   UNL A   1      31.455  31.506  26.521  1.00  0.00    -0.198 NA
ENDBRANCH  20  21
ENDBRANCH  19  20
ENDBRANCH  16  19
ENDBRANCH  14  16
ENDBRANCH   9  14
ENDBRANCH   7   8
ENDBRANCH   3   6
ENDBRANCH   1   2
BRANCH   1  23
ATOM     23  C   UNL A   1      36.307  21.007  25.321  1.00  0.00     0.021 C 
BRANCH  23  24
ATOM     24  C   UNL A   1      37.426  22.016  25.040  1.00  0.00     0.002 C 
BRANCH  24  25
ATOM     25  C   UNL A   1      38.772  21.654  25.682  1.00  0.00     0.002 C 
BRANCH  25  26
ATOM     26  C   UNL A   1      39.248  20.229  25.388  1.00  0.00     0.021 C 
BRANCH  26  27
ATOM     27  C   UNL A   1      39.992  19.585  26.552  1.00  0.00     0.116 C 
BRANCH  27  28
ATOM     28  N   UNL A   1      41.221  18.949  26.100  1.00  0.00    -0.352 N 
ATOM     29  C   UNL A   1      42.416  19.521  25.756  1.00  0.00     0.251 C 
ATOM     30  H   UNL A   1      41.188  17.967  26.034  1.00  0.00     0.163 HD
ATOM     31  O   UNL A   1      43.252  18.886  25.123  1.00  0.00    -0.269 OA
BRANCH  29  32
ATOM     32  C   UNL A   1      42.691  20.915  26.152  1.00  0.00     0.039 A 
ATOM     33  C   UNL A   1      42.876  21.215  27.503  1.00  0.00     0.014 A 
ATOM     34  C   UNL A   1      42.754  21.925  25.187  1.00  0.00     0.014 A 
ATOM     35  C   UNL A   1      43.171  22.524  27.881  1.00  0.00     0.010 A 
ATOM     36  C   UNL A   1      43.132  23.210  25.556  1.00  0.00     0.010 A 
ATOM     37  C   UNL A   1      43.335  23.525  26.907  1.00  0.00    -0.014 A 
BRANCH  37  38
ATOM     38  C   UNL A   1      43.723  24.904  27.288  1.00  0.00     0.031 A 
ATOM     39  C   UNL A   1      42.690  25.864  27.809  1.00  0.00     0.074 A 
ATOM     40  C   UNL A   1      44.995  25.306  27.109  1.00  0.00     0.049 A 
ATOM     41  N   UNL A   1      42.825  27.122  28.144  1.00  0.00    -0.248 NA
ATOM     42  C   UNL A   1      41.318  25.352  27.945  1.00  0.00     0.031 C 
ATOM     43  C   UNL A   1      46.073  24.478  26.565  1.00  0.00     0.029 A 
ATOM     44  N   UNL A   1      45.596  26.514  27.356  1.00  0.00    -0.354 N 
ATOM     45  C   UNL A   1      41.559  27.552  28.518  1.00  0.00     0.074 A 
ATOM     46  C   UNL A   1      40.657  26.440  28.311  1.00  0.00     0.031 C 
ATOM     47  C   UNL A   1      47.208  25.192  26.546  1.00  0.00     0.029 A 
ATOM     48  C   UNL A   1      46.929  26.541  27.028  1.00  0.00     0.049 A 
ATOM     49  H   UNL A   1      45.118  27.288  27.732  1.00  0.00     0.167 HD
ATOM     50  C   UNL A   1      41.189  28.757  29.011  1.00  0.00     0.037 A 
ATOM     51  C   UNL A   1      47.824  27.545  27.095  1.00  0.00     0.037 A 
ATOM     52  C   UNL A   1      42.098  29.853  29.226  1.00  0.00     0.049 A 
ATOM     53  C   UNL A   1      47.381  28.882  27.627  1.00  0.00     0.074 A 
ATOM     54  C   UNL A   1      41.836  31.094  29.779  1.00  0.00     0.029 A 
ATOM     55  N   UNL A   1      43.444  29.843  28.887  1.00  0.00    -0.354 N 
ATOM     56  N   UNL A   1      46.198  29.255  28.049  1.00  0.00    -0.248 NA
ATOM     57  C   UNL A   1      48.401  29.937  27.696  1.00  0.00     0.031 C 
ATOM     58  C   UNL A   1      43.003  31.860  29.706  1.00  0.00     0.029 A 
ATOM     59  C   UNL A   1      44.015  31.072  29.181  1.00  0.00     0.049 A 
ATOM     60  H   UNL A   1      43.922  29.077  28.495  1.00  0.00     0.167 HD
ATOM     61  C   UNL A   1      46.337  30.573  28.463  1.00  0.00     0.074 A 
ATOM     62  C   UNL A   1      47.725  30.929  28.255  1.00  0.00     0.031 C 
ATOM     63  C   UNL A   1      45.399  31.412  28.970  1.00  0.00     0.037 A 
BRANCH  50  64
ATOM     64  C   UNL A   1      39.736  28.963  29.337  1.00  0.00     0.064 A 
ATOM     65  C   UNL A   1      38.815  29.411  28.376  1.00  0.00     0.173 A 
ATOM     66  C   UNL A   1      39.250  28.674  30.621  1.00  0.00     0.173 A 
ATOM     67  F   UNL A   1      39.225  29.712  27.135  1.00  0.00    -0.203 F 
ATOM     68  C   UNL A   1      37.473  29.596  28.699  1.00  0.00     0.198 A 
ATOM     69  C   UNL A   1      37.900  28.823  30.930  1.00  0.00     0.198 A 
ATOM     70  F   UNL A   1      40.082  28.238  31.578  1.00  0.00    -0.203 F 
ATOM     71  F   UNL A   1      36.625  30.081  27.782  1.00  0.00    -0.200 F 
ATOM     72  C   UNL A   1      37.015  29.293  29.972  1.00  0.00     0.200 A 
ATOM     73  F   UNL A   1      37.457  28.515  32.157  1.00  0.00    -0.200 F 
ATOM     74  F   UNL A   1      35.721  29.463  30.279  1.00  0.00    -0.200 F 
ENDBRANCH  50  64
BRANCH  51  75
ATOM     75  C   UNL A   1      49.226  27.321  26.652  1.00  0.00     0.064 A 
ATOM     76  C   UNL A   1      49.589  27.445  25.305  1.00  0.00     0.173 A 
ATOM     77  C   UNL A   1      50.229  26.973  27.569  1.00  0.00     0.173 A 
ATOM     78  F   UNL A   1      48.663  27.758  24.387  1.00  0.00    -0.203 F 
ATOM     79  C   UNL A   1      50.897  27.205  24.887  1.00  0.00     0.198 A 
ATOM     80  C   UNL A   1      51.544  26.768  27.155  1.00  0.00     0.198 A 
ATOM     81  F   UNL A   1      49.937  26.847  28.872  1.00  0.00    -0.203 F 
ATOM     82  F   UNL A   1      51.206  27.278  23.585  1.00  0.00    -0.200 F 
ATOM     83  C   UNL A   1      51.875  26.873  25.813  1.00  0.00     0.200 A 
ATOM     84  F   UNL A   1      52.489  26.467  28.057  1.00  0.00    -0.200 F 
ATOM     85  F   UNL A   1      53.133  26.649  25.412  1.00  0.00    -0.200 F 
ENDBRANCH  51  75
BRANCH  63  86
ATOM     86  C   UNL A   1      45.850  32.789  29.371  1.00  0.00     0.064 A 
ATOM     87  C   UNL A   1      46.387  33.053  30.641  1.00  0.00     0.173 A 
ATOM     88  C   UNL A   1      45.780  33.852  28.457  1.00  0.00     0.173 A 
ATOM     89  F   UNL A   1      46.466  32.077  31.558  1.00  0.00    -0.203 F 
ATOM     90  C   UNL A   1      46.804  34.335  30.989  1.00  0.00     0.198 A 
ATOM     91  C   UNL A   1      46.234  35.123  28.795  1.00  0.00     0.198 A 
ATOM     92  F   UNL A   1      45.283  33.654  27.226  1.00  0.00    -0.203 F 
ATOM     93  F   UNL A   1      47.259  34.576  32.227  1.00  0.00    -0.200 F 
ATOM     94  C   UNL A   1      46.736  35.367  30.065  1.00  0.00     0.200 A 
ATOM     95  F   UNL A   1      46.186  36.113  27.893  1.00  0.00    -0.200 F 
ATOM     96  F   UNL A   1      47.148  36.597  30.399  1.00  0.00    -0.200 F 
ENDBRANCH  63  86
ENDBRANCH  37  38
ENDBRANCH  29  32
ENDBRANCH  27  28
ENDBRANCH  26  27
ENDBRANCH  25  26
ENDBRANCH  24  25
ENDBRANCH  23  24
ENDBRANCH   1  23
TORSDOF 20
ENDMDL
