MODEL 1
REMARK VINA RESULT:     -13.1      0.000      0.000
REMARK SMILES O=C(CCCN1C(=O)C(=O)/C(=C(/[O-])c2ccc(Cl)cc2)[C@@H]1c1ccccc1[N+](=O)[O-])NCCCCCCNC(=O)c1ccc(-c2c3nc(c(-c4c(F)c(F)c(F)c(F)c4F)c4ccc([nH]4)c(-c4c(F)c(F)c(F)c(F)c4F)c4nc(c(-c5c(F)c(F)c(F)c(F)c5F)c5ccc2[nH]5)C=C4)C=C3)cc1
REMARK SMILES IDX 33 1 32 2 31 3 1 4 2 5 3 7 4 8 5 9 6 10 7 11 21 12 8 13 9 14
REMARK SMILES IDX 11 15 10 16 12 17 13 18 22 19 23 20 27 21 24 22 26 23 25 24
REMARK SMILES IDX 28 25 29 26 30 27 14 28 15 29 20 30 16 31 19 32 17 33 18 34
REMARK SMILES IDX 34 35 35 36 36 37 37 38 38 39 39 40 40 42 41 43 42 44 103 45
REMARK SMILES IDX 43 46 102 47 44 48 45 49 46 50 96 51 47 52 101 53 95 54
REMARK SMILES IDX 97 55 48 56 100 57 94 58 93 59 49 61 81 62 61 63 80 64 62 65
REMARK SMILES IDX 65 66 79 67 98 68 63 69 64 70 78 72 99 73 66 74 50 75 51 76
REMARK SMILES IDX 59 77 52 78 53 79 57 80 60 81 54 82 55 83 58 84 56 85 82 86
REMARK SMILES IDX 83 87 91 88 84 89 85 90 89 91 92 92 86 93 87 94 90 95 88 96
REMARK SMILES IDX 67 97 68 98 76 99 69 100 70 101 74 102 77 103 71 104 72 105
REMARK SMILES IDX 75 106 73 107
REMARK H PARENT 31 6 38 41 97 60 65 71
REMARK Flexibility Score: inf
ROOT
ATOM      1  C   UNL A   1      30.064  31.360  24.425  1.00  0.00     0.021 C 
ENDROOT
BRANCH   1   2
ATOM      2  C   UNL A   1      29.103  30.650  23.470  1.00  0.00     0.116 C 
BRANCH   2   3
ATOM      3  N   UNL A   1      28.945  29.242  23.799  1.00  0.00    -0.356 N 
ATOM      4  O   UNL A   1      30.142  28.538  21.999  1.00  0.00    -0.275 OA
ATOM      5  C   UNL A   1      29.438  28.263  22.969  1.00  0.00     0.220 C 
ATOM      6  H   UNL A   1      28.478  28.987  24.627  1.00  0.00     0.163 HD
BRANCH   5   7
ATOM      7  C   UNL A   1      29.149  26.821  23.354  1.00  0.00     0.102 C 
BRANCH   7   8
ATOM      8  C   UNL A   1      29.665  26.261  24.684  1.00  0.00     0.031 C 
BRANCH   8   9
ATOM      9  C   UNL A   1      30.112  24.794  24.772  1.00  0.00     0.121 C 
BRANCH   9  10
ATOM     10  N   UNL A   1      31.495  24.468  25.086  1.00  0.00    -0.324 N 
ATOM     11  C   UNL A   1      31.816  23.595  26.121  1.00  0.00     0.295 C 
ATOM     12  C   UNL A   1      32.507  24.450  24.027  1.00  0.00     0.157 C 
ATOM     13  O   UNL A   1      31.097  23.182  27.004  1.00  0.00    -0.265 OA
ATOM     14  C   UNL A   1      33.228  23.061  25.853  1.00  0.00     0.248 C 
ATOM     15  C   UNL A   1      33.569  23.474  24.471  1.00  0.00     0.025 C 
ATOM     16  O   UNL A   1      33.828  22.302  26.580  1.00  0.00    -0.283 OA
ATOM     17  C   UNL A   1      34.631  23.073  23.751  1.00  0.00    -0.092 C 
ATOM     18  O   UNL A   1      34.729  23.349  22.402  1.00  0.00    -0.872 OA
BRANCH  12  19
ATOM     19  C   UNL A   1      33.113  25.816  23.682  1.00  0.00     0.057 A 
ATOM     20  C   UNL A   1      33.565  26.626  24.749  1.00  0.00     0.013 A 
ATOM     21  C   UNL A   1      33.152  26.411  22.406  1.00  0.00     0.275 A 
ATOM     22  C   UNL A   1      34.032  27.932  24.554  1.00  0.00     0.001 A 
ATOM     23  C   UNL A   1      33.658  27.706  22.194  1.00  0.00     0.086 A 
ATOM     24  C   UNL A   1      34.091  28.467  23.274  1.00  0.00     0.007 A 
BRANCH  21  25
ATOM     25  N   UNL A   1      32.562  25.773  21.246  1.00  0.00     0.063 N 
ATOM     26  O   UNL A   1      31.369  25.988  21.025  1.00  0.00    -0.258 OA
ATOM     27  O   UNL A   1      33.297  25.026  20.590  1.00  0.00    -0.258 OA
ENDBRANCH  21  25
ENDBRANCH  12  19
BRANCH  17  28
ATOM     28  C   UNL A   1      35.922  22.767  24.378  1.00  0.00    -0.033 A 
ATOM     29  C   UNL A   1      36.496  21.495  24.395  1.00  0.00     0.009 A 
ATOM     30  C   UNL A   1      36.566  23.824  25.048  1.00  0.00     0.009 A 
ATOM     31  C   UNL A   1      37.674  21.275  25.116  1.00  0.00     0.021 A 
ATOM     32  C   UNL A   1      37.743  23.605  25.761  1.00  0.00     0.021 A 
ATOM     33  C   UNL A   1      38.286  22.326  25.801  1.00  0.00     0.041 A 
ATOM     34  Cl  UNL A   1      39.714  22.040  26.717  1.00  0.00    -0.084 Cl
ENDBRANCH  17  28
ENDBRANCH   9  10
ENDBRANCH   8   9
ENDBRANCH   7   8
ENDBRANCH   5   7
ENDBRANCH   2   3
ENDBRANCH   1   2
BRANCH   1  35
ATOM     35  C   UNL A   1      31.164  30.460  24.998  1.00  0.00     0.002 C 
BRANCH  35  36
ATOM     36  C   UNL A   1      31.679  30.817  26.387  1.00  0.00     0.002 C 
BRANCH  36  37
ATOM     37  C   UNL A   1      31.475  32.278  26.783  1.00  0.00     0.021 C 
BRANCH  37  38
ATOM     38  C   UNL A   1      32.672  32.936  27.465  1.00  0.00     0.116 C 
BRANCH  38  39
ATOM     39  N   UNL A   1      32.441  34.339  27.780  1.00  0.00    -0.352 N 
ATOM     40  C   UNL A   1      33.035  35.129  28.735  1.00  0.00     0.251 C 
ATOM     41  H   UNL A   1      31.759  34.786  27.228  1.00  0.00     0.163 HD
ATOM     42  O   UNL A   1      32.594  36.248  28.975  1.00  0.00    -0.269 OA
BRANCH  40  43
ATOM     43  C   UNL A   1      34.195  34.613  29.495  1.00  0.00     0.039 A 
ATOM     44  C   UNL A   1      33.989  34.075  30.766  1.00  0.00     0.014 A 
ATOM     45  C   UNL A   1      35.479  34.650  28.946  1.00  0.00     0.014 A 
ATOM     46  C   UNL A   1      35.061  33.505  31.458  1.00  0.00     0.010 A 
ATOM     47  C   UNL A   1      36.530  34.012  29.601  1.00  0.00     0.010 A 
ATOM     48  C   UNL A   1      36.333  33.436  30.865  1.00  0.00    -0.014 A 
BRANCH  48  49
ATOM     49  C   UNL A   1      37.476  32.785  31.557  1.00  0.00     0.031 A 
ATOM     50  C   UNL A   1      38.163  31.608  30.920  1.00  0.00     0.074 A 
ATOM     51  C   UNL A   1      37.855  33.205  32.780  1.00  0.00     0.049 A 
ATOM     52  N   UNL A   1      39.106  30.836  31.402  1.00  0.00    -0.248 NA
ATOM     53  C   UNL A   1      37.712  31.228  29.572  1.00  0.00     0.031 C 
ATOM     54  C   UNL A   1      37.243  34.307  33.525  1.00  0.00     0.029 A 
ATOM     55  N   UNL A   1      38.839  32.744  33.620  1.00  0.00    -0.354 N 
ATOM     56  C   UNL A   1      39.348  29.880  30.425  1.00  0.00     0.074 A 
ATOM     57  C   UNL A   1      38.417  30.130  29.347  1.00  0.00     0.031 C 
ATOM     58  C   UNL A   1      37.872  34.443  34.705  1.00  0.00     0.029 A 
ATOM     59  C   UNL A   1      38.908  33.420  34.814  1.00  0.00     0.049 A 
ATOM     60  H   UNL A   1      39.439  31.999  33.387  1.00  0.00     0.167 HD
ATOM     61  C   UNL A   1      40.281  28.898  30.414  1.00  0.00     0.037 A 
ATOM     62  C   UNL A   1      39.710  33.230  35.878  1.00  0.00     0.037 A 
ATOM     63  C   UNL A   1      41.227  28.665  31.472  1.00  0.00     0.049 A 
ATOM     64  C   UNL A   1      40.746  32.137  35.834  1.00  0.00     0.074 A 
ATOM     65  C   UNL A   1      42.223  27.707  31.545  1.00  0.00     0.029 A 
ATOM     66  N   UNL A   1      41.298  29.406  32.642  1.00  0.00    -0.354 N 
ATOM     67  N   UNL A   1      40.992  31.266  34.885  1.00  0.00    -0.248 NA
ATOM     68  C   UNL A   1      41.625  32.007  37.006  1.00  0.00     0.031 C 
ATOM     69  C   UNL A   1      42.883  27.854  32.769  1.00  0.00     0.029 A 
ATOM     70  C   UNL A   1      42.325  28.929  33.440  1.00  0.00     0.049 A 
ATOM     71  H   UNL A   1      40.707  30.160  32.870  1.00  0.00     0.167 HD
ATOM     72  C   UNL A   1      42.073  30.516  35.327  1.00  0.00     0.074 A 
ATOM     73  C   UNL A   1      42.444  31.038  36.624  1.00  0.00     0.031 C 
ATOM     74  C   UNL A   1      42.700  29.483  34.714  1.00  0.00     0.037 A 
BRANCH  61  75
ATOM     75  C   UNL A   1      40.343  28.014  29.203  1.00  0.00     0.064 A 
ATOM     76  C   UNL A   1      39.619  26.814  29.139  1.00  0.00     0.173 A 
ATOM     77  C   UNL A   1      41.089  28.392  28.077  1.00  0.00     0.173 A 
ATOM     78  F   UNL A   1      38.901  26.402  30.195  1.00  0.00    -0.203 F 
ATOM     79  C   UNL A   1      39.657  26.014  28.001  1.00  0.00     0.198 A 
ATOM     80  C   UNL A   1      41.102  27.603  26.930  1.00  0.00     0.198 A 
ATOM     81  F   UNL A   1      41.795  29.532  28.084  1.00  0.00    -0.203 F 
ATOM     82  F   UNL A   1      38.991  24.850  27.980  1.00  0.00    -0.200 F 
ATOM     83  C   UNL A   1      40.391  26.413  26.894  1.00  0.00     0.200 A 
ATOM     84  F   UNL A   1      41.802  27.995  25.856  1.00  0.00    -0.200 F 
ATOM     85  F   UNL A   1      40.417  25.647  25.795  1.00  0.00    -0.200 F 
ENDBRANCH  61  75
BRANCH  62  86
ATOM     86  C   UNL A   1      39.589  34.102  37.076  1.00  0.00     0.064 A 
ATOM     87  C   UNL A   1      38.809  33.715  38.175  1.00  0.00     0.173 A 
ATOM     88  C   UNL A   1      40.218  35.355  37.133  1.00  0.00     0.173 A 
ATOM     89  F   UNL A   1      38.171  32.534  38.159  1.00  0.00    -0.203 F 
ATOM     90  C   UNL A   1      38.635  34.559  39.270  1.00  0.00     0.198 A 
ATOM     91  C   UNL A   1      40.067  36.186  38.241  1.00  0.00     0.198 A 
ATOM     92  F   UNL A   1      40.981  35.770  36.111  1.00  0.00    -0.203 F 
ATOM     93  F   UNL A   1      37.835  34.188  40.279  1.00  0.00    -0.200 F 
ATOM     94  C   UNL A   1      39.266  35.793  39.303  1.00  0.00     0.200 A 
ATOM     95  F   UNL A   1      40.691  37.371  38.276  1.00  0.00    -0.200 F 
ATOM     96  F   UNL A   1      39.094  36.608  40.353  1.00  0.00    -0.200 F 
ENDBRANCH  62  86
BRANCH  74  97
ATOM     97  C   UNL A   1      43.891  28.890  35.407  1.00  0.00     0.064 A 
ATOM     98  C   UNL A   1      45.195  29.330  35.142  1.00  0.00     0.173 A 
ATOM     99  C   UNL A   1      43.718  27.892  36.380  1.00  0.00     0.173 A 
ATOM    100  F   UNL A   1      45.414  30.271  34.211  1.00  0.00    -0.203 F 
ATOM    101  C   UNL A   1      46.286  28.776  35.808  1.00  0.00     0.198 A 
ATOM    102  C   UNL A   1      44.807  27.361  37.063  1.00  0.00     0.198 A 
ATOM    103  F   UNL A   1      42.489  27.443  36.675  1.00  0.00    -0.203 F 
ATOM    104  F   UNL A   1      47.528  29.179  35.506  1.00  0.00    -0.200 F 
ATOM    105  C   UNL A   1      46.091  27.798  36.771  1.00  0.00     0.200 A 
ATOM    106  F   UNL A   1      44.616  26.425  38.002  1.00  0.00    -0.200 F 
ATOM    107  F   UNL A   1      47.141  27.270  37.414  1.00  0.00    -0.200 F 
ENDBRANCH  74  97
ENDBRANCH  48  49
ENDBRANCH  40  43
ENDBRANCH  38  39
ENDBRANCH  37  38
ENDBRANCH  36  37
ENDBRANCH  35  36
ENDBRANCH   1  35
TORSDOF 19
ENDMDL
MODEL 2
REMARK VINA RESULT:     -13.0      1.172      6.847
REMARK SMILES O=C(CCCN1C(=O)C(=O)/C(=C(/[O-])c2ccc(Cl)cc2)[C@@H]1c1ccccc1[N+](=O)[O-])NCCCCCCNC(=O)c1ccc(-c2c3nc(c(-c4c(F)c(F)c(F)c(F)c4F)c4ccc([nH]4)c(-c4c(F)c(F)c(F)c(F)c4F)c4nc(c(-c5c(F)c(F)c(F)c(F)c5F)c5ccc2[nH]5)C=C4)C=C3)cc1
REMARK SMILES IDX 33 1 32 2 31 3 1 4 2 5 3 7 4 8 5 9 6 10 7 11 21 12 8 13 9 14
REMARK SMILES IDX 11 15 10 16 12 17 13 18 22 19 23 20 27 21 24 22 26 23 25 24
REMARK SMILES IDX 28 25 29 26 30 27 14 28 15 29 20 30 16 31 19 32 17 33 18 34
REMARK SMILES IDX 34 35 35 36 36 37 37 38 38 39 39 40 40 42 41 43 42 44 103 45
REMARK SMILES IDX 43 46 102 47 44 48 45 49 46 50 96 51 47 52 101 53 95 54
REMARK SMILES IDX 97 55 48 56 100 57 94 58 93 59 49 61 81 62 61 63 80 64 62 65
REMARK SMILES IDX 65 66 79 67 98 68 63 69 64 70 78 72 99 73 66 74 50 75 51 76
REMARK SMILES IDX 59 77 52 78 53 79 57 80 60 81 54 82 55 83 58 84 56 85 82 86
REMARK SMILES IDX 83 87 91 88 84 89 85 90 89 91 92 92 86 93 87 94 90 95 88 96
REMARK SMILES IDX 67 97 68 98 76 99 69 100 70 101 74 102 77 103 71 104 72 105
REMARK SMILES IDX 75 106 73 107
REMARK H PARENT 31 6 38 41 97 60 65 71
REMARK Flexibility Score: inf
ROOT
ATOM      1  C   UNL A   1      28.422  31.636  23.881  1.00  0.00     0.021 C 
ENDROOT
BRANCH   1   2
ATOM      2  C   UNL A   1      28.273  30.562  22.801  1.00  0.00     0.116 C 
BRANCH   2   3
ATOM      3  N   UNL A   1      28.307  29.219  23.357  1.00  0.00    -0.356 N 
ATOM      4  O   UNL A   1      30.130  28.607  22.144  1.00  0.00    -0.275 OA
ATOM      5  C   UNL A   1      29.226  28.295  22.916  1.00  0.00     0.220 C 
ATOM      6  H   UNL A   1      27.663  28.967  24.057  1.00  0.00     0.163 HD
BRANCH   5   7
ATOM      7  C   UNL A   1      29.127  26.892  23.495  1.00  0.00     0.102 C 
BRANCH   7   8
ATOM      8  C   UNL A   1      29.749  26.578  24.860  1.00  0.00     0.031 C 
BRANCH   8   9
ATOM      9  C   UNL A   1      30.069  25.123  25.234  1.00  0.00     0.121 C 
BRANCH   9  10
ATOM     10  N   UNL A   1      31.440  24.727  25.523  1.00  0.00    -0.324 N 
ATOM     11  C   UNL A   1      31.736  23.845  26.558  1.00  0.00     0.295 C 
ATOM     12  C   UNL A   1      32.428  24.651  24.445  1.00  0.00     0.157 C 
ATOM     13  O   UNL A   1      31.014  23.474  27.458  1.00  0.00    -0.265 OA
ATOM     14  C   UNL A   1      33.113  23.237  26.266  1.00  0.00     0.248 C 
ATOM     15  C   UNL A   1      33.447  23.624  24.875  1.00  0.00     0.025 C 
ATOM     16  O   UNL A   1      33.687  22.452  26.987  1.00  0.00    -0.283 OA
ATOM     17  C   UNL A   1      34.473  23.164  24.138  1.00  0.00    -0.092 C 
ATOM     18  O   UNL A   1      34.559  23.427  22.785  1.00  0.00    -0.872 OA
BRANCH  12  19
ATOM     19  C   UNL A   1      33.097  25.982  24.079  1.00  0.00     0.057 A 
ATOM     20  C   UNL A   1      33.542  26.809  25.135  1.00  0.00     0.013 A 
ATOM     21  C   UNL A   1      33.204  26.532  22.787  1.00  0.00     0.275 A 
ATOM     22  C   UNL A   1      34.064  28.090  24.917  1.00  0.00     0.001 A 
ATOM     23  C   UNL A   1      33.765  27.800  22.553  1.00  0.00     0.086 A 
ATOM     24  C   UNL A   1      34.188  28.580  23.623  1.00  0.00     0.007 A 
BRANCH  21  25
ATOM     25  N   UNL A   1      32.631  25.878  21.628  1.00  0.00     0.063 N 
ATOM     26  O   UNL A   1      33.359  25.724  20.645  1.00  0.00    -0.258 OA
ATOM     27  O   UNL A   1      31.438  25.562  21.701  1.00  0.00    -0.258 OA
ENDBRANCH  21  25
ENDBRANCH  12  19
BRANCH  17  28
ATOM     28  C   UNL A   1      35.758  22.795  24.741  1.00  0.00    -0.033 A 
ATOM     29  C   UNL A   1      36.631  23.709  25.332  1.00  0.00     0.009 A 
ATOM     30  C   UNL A   1      36.136  21.443  24.647  1.00  0.00     0.009 A 
ATOM     31  C   UNL A   1      37.886  23.283  25.780  1.00  0.00     0.021 A 
ATOM     32  C   UNL A   1      37.384  21.017  25.096  1.00  0.00     0.021 A 
ATOM     33  C   UNL A   1      38.260  21.944  25.651  1.00  0.00     0.041 A 
ATOM     34  Cl  UNL A   1      39.819  21.433  26.167  1.00  0.00    -0.084 Cl
ENDBRANCH  17  28
ENDBRANCH   9  10
ENDBRANCH   8   9
ENDBRANCH   7   8
ENDBRANCH   5   7
ENDBRANCH   2   3
ENDBRANCH   1   2
BRANCH   1  35
ATOM     35  C   UNL A   1      29.867  32.074  24.141  1.00  0.00     0.002 C 
BRANCH  35  36
ATOM     36  C   UNL A   1      30.647  31.266  25.172  1.00  0.00     0.002 C 
BRANCH  36  37
ATOM     37  C   UNL A   1      30.829  31.964  26.518  1.00  0.00     0.021 C 
BRANCH  37  38
ATOM     38  C   UNL A   1      32.250  32.439  26.812  1.00  0.00     0.116 C 
BRANCH  38  39
ATOM     39  N   UNL A   1      32.296  33.810  27.301  1.00  0.00    -0.352 N 
ATOM     40  C   UNL A   1      33.135  34.379  28.228  1.00  0.00     0.251 C 
ATOM     41  H   UNL A   1      31.627  34.418  26.910  1.00  0.00     0.163 HD
ATOM     42  O   UNL A   1      32.919  35.512  28.648  1.00  0.00    -0.269 OA
BRANCH  40  43
ATOM     43  C   UNL A   1      34.287  33.608  28.744  1.00  0.00     0.039 A 
ATOM     44  C   UNL A   1      35.578  34.106  28.556  1.00  0.00     0.014 A 
ATOM     45  C   UNL A   1      34.091  32.402  29.422  1.00  0.00     0.014 A 
ATOM     46  C   UNL A   1      36.668  33.433  29.115  1.00  0.00     0.010 A 
ATOM     47  C   UNL A   1      35.168  31.775  30.044  1.00  0.00     0.010 A 
ATOM     48  C   UNL A   1      36.468  32.282  29.894  1.00  0.00    -0.014 A 
BRANCH  48  49
ATOM     49  C   UNL A   1      37.605  31.579  30.545  1.00  0.00     0.031 A 
ATOM     50  C   UNL A   1      37.986  31.924  31.959  1.00  0.00     0.074 A 
ATOM     51  C   UNL A   1      38.334  30.685  29.850  1.00  0.00     0.049 A 
ATOM     52  N   UNL A   1      39.003  31.506  32.670  1.00  0.00    -0.248 NA
ATOM     53  C   UNL A   1      37.123  32.888  32.661  1.00  0.00     0.031 C 
ATOM     54  C   UNL A   1      38.096  30.295  28.459  1.00  0.00     0.029 A 
ATOM     55  N   UNL A   1      39.435  29.950  30.216  1.00  0.00    -0.354 N 
ATOM     56  C   UNL A   1      38.908  32.163  33.890  1.00  0.00     0.074 A 
ATOM     57  C   UNL A   1      37.769  33.050  33.806  1.00  0.00     0.031 C 
ATOM     58  C   UNL A   1      39.015  29.385  28.094  1.00  0.00     0.029 A 
ATOM     59  C   UNL A   1      39.926  29.152  29.211  1.00  0.00     0.049 A 
ATOM     60  H   UNL A   1      39.834  29.991  31.115  1.00  0.00     0.167 HD
ATOM     61  C   UNL A   1      39.683  32.021  34.991  1.00  0.00     0.037 A 
ATOM     62  C   UNL A   1      40.995  28.333  29.192  1.00  0.00     0.037 A 
ATOM     63  C   UNL A   1      40.800  31.119  35.086  1.00  0.00     0.049 A 
ATOM     64  C   UNL A   1      41.833  28.187  30.434  1.00  0.00     0.074 A 
ATOM     65  C   UNL A   1      41.635  30.890  36.167  1.00  0.00     0.029 A 
ATOM     66  N   UNL A   1      41.232  30.290  34.063  1.00  0.00    -0.354 N 
ATOM     67  N   UNL A   1      41.706  28.783  31.595  1.00  0.00    -0.248 NA
ATOM     68  C   UNL A   1      42.959  27.243  30.368  1.00  0.00     0.031 C 
ATOM     69  C   UNL A   1      42.587  29.938  35.789  1.00  0.00     0.029 A 
ATOM     70  C   UNL A   1      42.320  29.544  34.488  1.00  0.00     0.049 A 
ATOM     71  H   UNL A   1      40.826  30.237  33.168  1.00  0.00     0.167 HD
ATOM     72  C   UNL A   1      42.705  28.260  32.404  1.00  0.00     0.074 A 
ATOM     73  C   UNL A   1      43.425  27.290  31.608  1.00  0.00     0.031 C 
ATOM     74  C   UNL A   1      43.003  28.560  33.692  1.00  0.00     0.037 A 
BRANCH  61  75
ATOM     75  C   UNL A   1      39.334  32.844  36.196  1.00  0.00     0.064 A 
ATOM     76  C   UNL A   1      38.442  32.369  37.169  1.00  0.00     0.173 A 
ATOM     77  C   UNL A   1      39.932  34.095  36.408  1.00  0.00     0.173 A 
ATOM     78  F   UNL A   1      37.834  31.184  37.006  1.00  0.00    -0.203 F 
ATOM     79  C   UNL A   1      38.145  33.124  38.300  1.00  0.00     0.198 A 
ATOM     80  C   UNL A   1      39.654  34.836  37.553  1.00  0.00     0.198 A 
ATOM     81  F   UNL A   1      40.794  34.593  35.510  1.00  0.00    -0.203 F 
ATOM     82  F   UNL A   1      37.258  32.668  39.195  1.00  0.00    -0.200 F 
ATOM     83  C   UNL A   1      38.758  34.353  38.496  1.00  0.00     0.200 A 
ATOM     84  F   UNL A   1      40.256  36.018  37.747  1.00  0.00    -0.200 F 
ATOM     85  F   UNL A   1      38.480  35.074  39.590  1.00  0.00    -0.200 F 
ENDBRANCH  61  75
BRANCH  62  86
ATOM     86  C   UNL A   1      41.331  27.566  27.963  1.00  0.00     0.064 A 
ATOM     87  C   UNL A   1      40.897  26.244  27.796  1.00  0.00     0.173 A 
ATOM     88  C   UNL A   1      42.124  28.125  26.949  1.00  0.00     0.173 A 
ATOM     89  F   UNL A   1      40.153  25.659  28.747  1.00  0.00    -0.203 F 
ATOM     90  C   UNL A   1      41.269  25.498  26.679  1.00  0.00     0.198 A 
ATOM     91  C   UNL A   1      42.471  27.388  25.818  1.00  0.00     0.198 A 
ATOM     92  F   UNL A   1      42.560  29.389  27.057  1.00  0.00    -0.203 F 
ATOM     93  F   UNL A   1      40.889  24.217  26.575  1.00  0.00    -0.200 F 
ATOM     94  C   UNL A   1      42.053  26.071  25.690  1.00  0.00     0.200 A 
ATOM     95  F   UNL A   1      43.216  27.950  24.858  1.00  0.00    -0.200 F 
ATOM     96  F   UNL A   1      42.417  25.352  24.619  1.00  0.00    -0.200 F 
ENDBRANCH  62  86
BRANCH  74  97
ATOM     97  C   UNL A   1      44.113  27.787  34.341  1.00  0.00     0.064 A 
ATOM     98  C   UNL A   1      45.419  28.292  34.417  1.00  0.00     0.173 A 
ATOM     99  C   UNL A   1      43.854  26.539  34.930  1.00  0.00     0.173 A 
ATOM    100  F   UNL A   1      45.719  29.473  33.858  1.00  0.00    -0.203 F 
ATOM    101  C   UNL A   1      46.431  27.564  35.038  1.00  0.00     0.198 A 
ATOM    102  C   UNL A   1      44.862  25.828  35.574  1.00  0.00     0.198 A 
ATOM    103  F   UNL A   1      42.620  26.017  34.890  1.00  0.00    -0.203 F 
ATOM    104  F   UNL A   1      47.682  28.045  35.058  1.00  0.00    -0.200 F 
ATOM    105  C   UNL A   1      46.151  26.338  35.620  1.00  0.00     0.200 A 
ATOM    106  F   UNL A   1      44.587  24.649  36.146  1.00  0.00    -0.200 F 
ATOM    107  F   UNL A   1      47.125  25.642  36.221  1.00  0.00    -0.200 F 
ENDBRANCH  74  97
ENDBRANCH  48  49
ENDBRANCH  40  43
ENDBRANCH  38  39
ENDBRANCH  37  38
ENDBRANCH  36  37
ENDBRANCH  35  36
ENDBRANCH   1  35
TORSDOF 19
ENDMDL
MODEL 3
REMARK VINA RESULT:     -13.0      5.307     10.133
REMARK SMILES O=C(CCCN1C(=O)C(=O)/C(=C(/[O-])c2ccc(Cl)cc2)[C@@H]1c1ccccc1[N+](=O)[O-])NCCCCCCNC(=O)c1ccc(-c2c3nc(c(-c4c(F)c(F)c(F)c(F)c4F)c4ccc([nH]4)c(-c4c(F)c(F)c(F)c(F)c4F)c4nc(c(-c5c(F)c(F)c(F)c(F)c5F)c5ccc2[nH]5)C=C4)C=C3)cc1
REMARK SMILES IDX 33 1 32 2 31 3 1 4 2 5 3 7 4 8 5 9 6 10 7 11 21 12 8 13 9 14
REMARK SMILES IDX 11 15 10 16 12 17 13 18 22 19 23 20 27 21 24 22 26 23 25 24
REMARK SMILES IDX 28 25 29 26 30 27 14 28 15 29 20 30 16 31 19 32 17 33 18 34
REMARK SMILES IDX 34 35 35 36 36 37 37 38 38 39 39 40 40 42 41 43 42 44 103 45
REMARK SMILES IDX 43 46 102 47 44 48 45 49 46 50 96 51 47 52 101 53 95 54
REMARK SMILES IDX 97 55 48 56 100 57 94 58 93 59 49 61 81 62 61 63 80 64 62 65
REMARK SMILES IDX 65 66 79 67 98 68 63 69 64 70 78 72 99 73 66 74 50 75 51 76
REMARK SMILES IDX 59 77 52 78 53 79 57 80 60 81 54 82 55 83 58 84 56 85 82 86
REMARK SMILES IDX 83 87 91 88 84 89 85 90 89 91 92 92 86 93 87 94 90 95 88 96
REMARK SMILES IDX 67 97 68 98 76 99 69 100 70 101 74 102 77 103 71 104 72 105
REMARK SMILES IDX 75 106 73 107
REMARK H PARENT 31 6 38 41 97 60 65 71
REMARK Flexibility Score: inf
ROOT
ATOM      1  C   UNL A   1      36.685  21.533  25.780  1.00  0.00     0.021 C 
ENDROOT
BRANCH   1   2
ATOM      2  C   UNL A   1      35.994  20.413  25.001  1.00  0.00     0.116 C 
BRANCH   2   3
ATOM      3  N   UNL A   1      34.781  20.871  24.343  1.00  0.00    -0.356 N 
ATOM      4  O   UNL A   1      33.411  19.770  25.785  1.00  0.00    -0.275 OA
ATOM      5  C   UNL A   1      33.544  20.442  24.763  1.00  0.00     0.220 C 
ATOM      6  H   UNL A   1      34.846  21.496  23.586  1.00  0.00     0.163 HD
BRANCH   5   7
ATOM      7  C   UNL A   1      32.341  20.908  23.959  1.00  0.00     0.102 C 
BRANCH   7   8
ATOM      8  C   UNL A   1      32.529  21.871  22.781  1.00  0.00     0.031 C 
BRANCH   8   9
ATOM      9  C   UNL A   1      31.752  23.195  22.748  1.00  0.00     0.121 C 
BRANCH   9  10
ATOM     10  N   UNL A   1      32.282  24.372  23.420  1.00  0.00    -0.324 N 
ATOM     11  C   UNL A   1      32.739  25.472  22.702  1.00  0.00     0.295 C 
ATOM     12  C   UNL A   1      31.777  24.756  24.741  1.00  0.00     0.157 C 
ATOM     13  O   UNL A   1      32.976  25.549  21.516  1.00  0.00    -0.265 OA
ATOM     14  C   UNL A   1      32.713  26.682  23.644  1.00  0.00     0.248 C 
ATOM     15  C   UNL A   1      31.960  26.251  24.847  1.00  0.00     0.025 C 
ATOM     16  O   UNL A   1      33.081  27.796  23.347  1.00  0.00    -0.283 OA
ATOM     17  C   UNL A   1      31.536  27.035  25.852  1.00  0.00    -0.092 C 
ATOM     18  O   UNL A   1      30.656  26.564  26.807  1.00  0.00    -0.872 OA
BRANCH  12  19
ATOM     19  C   UNL A   1      32.426  24.029  25.924  1.00  0.00     0.057 A 
ATOM     20  C   UNL A   1      33.836  24.058  26.023  1.00  0.00     0.013 A 
ATOM     21  C   UNL A   1      31.765  23.218  26.866  1.00  0.00     0.275 A 
ATOM     22  C   UNL A   1      34.534  23.336  26.999  1.00  0.00     0.001 A 
ATOM     23  C   UNL A   1      32.453  22.522  27.876  1.00  0.00     0.086 A 
ATOM     24  C   UNL A   1      33.842  22.578  27.935  1.00  0.00     0.007 A 
BRANCH  21  25
ATOM     25  N   UNL A   1      30.343  22.950  26.782  1.00  0.00     0.063 N 
ATOM     26  O   UNL A   1      29.586  23.702  27.399  1.00  0.00    -0.258 OA
ATOM     27  O   UNL A   1      30.003  21.958  26.127  1.00  0.00    -0.258 OA
ENDBRANCH  21  25
ENDBRANCH  12  19
BRANCH  17  28
ATOM     28  C   UNL A   1      32.291  28.215  26.288  1.00  0.00    -0.033 A 
ATOM     29  C   UNL A   1      33.555  28.156  26.875  1.00  0.00     0.009 A 
ATOM     30  C   UNL A   1      31.651  29.461  26.153  1.00  0.00     0.009 A 
ATOM     31  C   UNL A   1      34.150  29.324  27.364  1.00  0.00     0.021 A 
ATOM     32  C   UNL A   1      32.245  30.625  26.636  1.00  0.00     0.021 A 
ATOM     33  C   UNL A   1      33.490  30.549  27.251  1.00  0.00     0.041 A 
ATOM     34  Cl  UNL A   1      34.208  31.975  27.888  1.00  0.00    -0.084 Cl
ENDBRANCH  17  28
ENDBRANCH   9  10
ENDBRANCH   8   9
ENDBRANCH   7   8
ENDBRANCH   5   7
ENDBRANCH   2   3
ENDBRANCH   1   2
BRANCH   1  35
ATOM     35  C   UNL A   1      38.009  22.003  25.168  1.00  0.00     0.002 C 
BRANCH  35  36
ATOM     36  C   UNL A   1      39.180  22.170  26.129  1.00  0.00     0.002 C 
BRANCH  36  37
ATOM     37  C   UNL A   1      39.757  20.860  26.660  1.00  0.00     0.021 C 
BRANCH  37  38
ATOM     38  C   UNL A   1      39.842  19.730  25.636  1.00  0.00     0.116 C 
BRANCH  38  39
ATOM     39  N   UNL A   1      40.925  18.797  25.915  1.00  0.00    -0.352 N 
ATOM     40  C   UNL A   1      42.245  19.053  26.199  1.00  0.00     0.251 C 
ATOM     41  H   UNL A   1      40.676  17.845  25.897  1.00  0.00     0.163 HD
ATOM     42  O   UNL A   1      43.059  18.136  26.239  1.00  0.00    -0.269 OA
BRANCH  40  43
ATOM     43  C   UNL A   1      42.689  20.445  26.430  1.00  0.00     0.039 A 
ATOM     44  C   UNL A   1      43.004  21.249  25.334  1.00  0.00     0.014 A 
ATOM     45  C   UNL A   1      42.782  20.957  27.727  1.00  0.00     0.014 A 
ATOM     46  C   UNL A   1      43.340  22.591  25.533  1.00  0.00     0.010 A 
ATOM     47  C   UNL A   1      43.040  22.312  27.919  1.00  0.00     0.010 A 
ATOM     48  C   UNL A   1      43.324  23.142  26.824  1.00  0.00    -0.014 A 
BRANCH  48  49
ATOM     49  C   UNL A   1      43.623  24.580  27.057  1.00  0.00     0.031 A 
ATOM     50  C   UNL A   1      45.004  25.110  26.787  1.00  0.00     0.074 A 
ATOM     51  C   UNL A   1      42.679  25.392  27.572  1.00  0.00     0.049 A 
ATOM     52  N   UNL A   1      45.498  26.300  27.022  1.00  0.00    -0.248 NA
ATOM     53  C   UNL A   1      45.970  24.168  26.198  1.00  0.00     0.031 C 
ATOM     54  C   UNL A   1      41.314  24.992  27.920  1.00  0.00     0.029 A 
ATOM     55  N   UNL A   1      42.729  26.723  27.907  1.00  0.00    -0.354 N 
ATOM     56  C   UNL A   1      46.827  26.245  26.623  1.00  0.00     0.074 A 
ATOM     57  C   UNL A   1      47.081  24.891  26.183  1.00  0.00     0.031 C 
ATOM     58  C   UNL A   1      40.654  26.056  28.407  1.00  0.00     0.029 A 
ATOM     59  C   UNL A   1      41.556  27.204  28.438  1.00  0.00     0.049 A 
ATOM     60  H   UNL A   1      43.530  27.280  27.777  1.00  0.00     0.167 HD
ATOM     61  C   UNL A   1      47.745  27.239  26.598  1.00  0.00     0.037 A 
ATOM     62  C   UNL A   1      41.248  28.428  28.904  1.00  0.00     0.037 A 
ATOM     63  C   UNL A   1      47.487  28.594  27.008  1.00  0.00     0.049 A 
ATOM     64  C   UNL A   1      42.287  29.518  28.855  1.00  0.00     0.074 A 
ATOM     65  C   UNL A   1      48.349  29.678  27.002  1.00  0.00     0.029 A 
ATOM     66  N   UNL A   1      46.270  29.052  27.490  1.00  0.00    -0.354 N 
ATOM     67  N   UNL A   1      43.528  29.462  28.435  1.00  0.00    -0.248 NA
ATOM     68  C   UNL A   1      41.878  30.847  29.334  1.00  0.00     0.031 C 
ATOM     69  C   UNL A   1      47.660  30.787  27.502  1.00  0.00     0.029 A 
ATOM     70  C   UNL A   1      46.358  30.404  27.780  1.00  0.00     0.049 A 
ATOM     71  H   UNL A   1      45.464  28.499  27.607  1.00  0.00     0.167 HD
ATOM     72  C   UNL A   1      44.032  30.749  28.562  1.00  0.00     0.074 A 
ATOM     73  C   UNL A   1      42.962  31.569  29.088  1.00  0.00     0.031 C 
ATOM     74  C   UNL A   1      45.273  31.210  28.273  1.00  0.00     0.037 A 
BRANCH  61  75
ATOM     75  C   UNL A   1      49.115  26.905  26.085  1.00  0.00     0.064 A 
ATOM     76  C   UNL A   1      50.101  26.374  26.930  1.00  0.00     0.173 A 
ATOM     77  C   UNL A   1      49.431  27.067  24.728  1.00  0.00     0.173 A 
ATOM     78  F   UNL A   1      49.852  26.213  28.239  1.00  0.00    -0.203 F 
ATOM     79  C   UNL A   1      51.360  26.038  26.441  1.00  0.00     0.198 A 
ATOM     80  C   UNL A   1      50.683  26.703  24.237  1.00  0.00     0.198 A 
ATOM     81  F   UNL A   1      48.524  27.566  23.877  1.00  0.00    -0.203 F 
ATOM     82  F   UNL A   1      52.299  25.572  27.277  1.00  0.00    -0.200 F 
ATOM     83  C   UNL A   1      51.647  26.194  25.093  1.00  0.00     0.200 A 
ATOM     84  F   UNL A   1      50.955  26.844  22.932  1.00  0.00    -0.200 F 
ATOM     85  F   UNL A   1      52.855  25.859  24.622  1.00  0.00    -0.200 F 
ENDBRANCH  61  75
BRANCH  62  86
ATOM     86  C   UNL A   1      39.891  28.708  29.443  1.00  0.00     0.064 A 
ATOM     87  C   UNL A   1      38.900  29.289  28.639  1.00  0.00     0.173 A 
ATOM     88  C   UNL A   1      39.567  28.434  30.781  1.00  0.00     0.173 A 
ATOM     89  F   UNL A   1      39.168  29.588  27.359  1.00  0.00    -0.203 F 
ATOM     90  C   UNL A   1      37.650  29.617  29.159  1.00  0.00     0.198 A 
ATOM     91  C   UNL A   1      38.306  28.736  31.292  1.00  0.00     0.198 A 
ATOM     92  F   UNL A   1      40.476  27.872  31.591  1.00  0.00    -0.203 F 
ATOM     93  F   UNL A   1      36.743  30.228  28.384  1.00  0.00    -0.200 F 
ATOM     94  C   UNL A   1      37.353  29.338  30.484  1.00  0.00     0.200 A 
ATOM     95  F   UNL A   1      38.018  28.451  32.569  1.00  0.00    -0.200 F 
ATOM     96  F   UNL A   1      36.153  29.660  30.987  1.00  0.00    -0.200 F 
ENDBRANCH  62  86
BRANCH  74  97
ATOM     97  C   UNL A   1      45.523  32.678  28.456  1.00  0.00     0.064 A 
ATOM     98  C   UNL A   1      46.022  33.197  29.660  1.00  0.00     0.173 A 
ATOM     99  C   UNL A   1      45.298  33.571  27.397  1.00  0.00     0.173 A 
ATOM    100  F   UNL A   1      46.241  32.386  30.705  1.00  0.00    -0.203 F 
ATOM    101  C   UNL A   1      46.261  34.561  29.804  1.00  0.00     0.198 A 
ATOM    102  C   UNL A   1      45.565  34.929  27.536  1.00  0.00     0.198 A 
ATOM    103  F   UNL A   1      44.829  33.122  26.224  1.00  0.00    -0.203 F 
ATOM    104  F   UNL A   1      46.694  35.043  30.978  1.00  0.00    -0.200 F 
ATOM    105  C   UNL A   1      46.039  35.424  28.742  1.00  0.00     0.200 A 
ATOM    106  F   UNL A   1      45.361  35.760  26.505  1.00  0.00    -0.200 F 
ATOM    107  F   UNL A   1      46.276  36.736  28.881  1.00  0.00    -0.200 F 
ENDBRANCH  74  97
ENDBRANCH  48  49
ENDBRANCH  40  43
ENDBRANCH  38  39
ENDBRANCH  37  38
ENDBRANCH  36  37
ENDBRANCH  35  36
ENDBRANCH   1  35
TORSDOF 19
ENDMDL
