MODEL 1
REMARK VINA RESULT:     -11.9      0.000      0.000
REMARK SMILES Cc1sc2[nH]c(SCC(=O)NCCCCCCNC(=O)c3ccc(-c4c5nc(c(-c6c(F)c(F)c(F)c(F)c6F)c6ccc([nH]6)c(-c6c(F)c(F)c(F)c(F)c6F)c6nc(c(-c7c(F)c(F)c(F)c(F)c7F)c7ccc4[nH]7)C=C6)C=C5)cc3)nc(=O)c2c1C
REMARK SMILES IDX 14 1 13 2 12 3 11 4 9 5 10 6 8 8 7 9 6 10 1 11 2 12 3 13
REMARK SMILES IDX 88 14 4 15 87 16 89 17 5 18 85 19 84 21 86 22 15 23 16 24
REMARK SMILES IDX 17 25 18 26 19 27 20 29 21 30 22 31 83 32 23 33 82 34 24 35
REMARK SMILES IDX 25 36 26 37 76 38 27 39 81 40 75 41 77 42 28 43 80 44 74 45
REMARK SMILES IDX 73 46 29 48 61 49 41 50 60 51 42 52 45 53 59 54 78 55 43 56
REMARK SMILES IDX 44 57 58 59 79 60 46 61 30 62 31 63 39 64 32 65 33 66 37 67
REMARK SMILES IDX 40 68 34 69 35 70 38 71 36 72 62 73 63 74 71 75 64 76 65 77
REMARK SMILES IDX 69 78 72 79 66 80 67 81 70 82 68 83 47 84 48 85 56 86 49 87
REMARK SMILES IDX 50 88 54 89 57 90 51 91 52 92 55 93 53 94
REMARK H PARENT 11 7 5 20 18 28 77 47 45 58
REMARK Flexibility Score: inf
ROOT
ATOM      1  C   UNL A   1      35.021  20.781  25.240  1.00  0.00     0.002 C 
ENDROOT
BRANCH   1   2
ATOM      2  C   UNL A   1      33.758  20.462  24.425  1.00  0.00     0.021 C 
BRANCH   2   3
ATOM      3  C   UNL A   1      32.446  20.530  25.215  1.00  0.00     0.116 C 
BRANCH   3   4
ATOM      4  N   UNL A   1      32.614  21.242  26.468  1.00  0.00    -0.355 N 
ATOM      5  C   UNL A   1      32.370  22.546  26.791  1.00  0.00     0.230 C 
ATOM      6  O   UNL A   1      32.530  22.869  27.971  1.00  0.00    -0.274 OA
ATOM      7  H   UNL A   1      32.961  20.694  27.208  1.00  0.00     0.163 HD
BRANCH   5   8
ATOM      8  C   UNL A   1      31.800  23.525  25.780  1.00  0.00     0.178 C 
BRANCH   8   9
ATOM      9  S   UNL A   1      33.001  24.206  24.611  1.00  0.00    -0.078 SA
BRANCH   9  10
ATOM     10  C   UNL A   1      32.176  25.604  23.972  1.00  0.00     0.170 A 
ATOM     11  C   UNL A   1      27.087  28.948  22.971  1.00  0.00     0.057 C 
ATOM     12  C   UNL A   1      28.402  28.254  23.131  1.00  0.00     0.007 A 
ATOM     13  S   UNL A   1      28.406  26.706  23.876  1.00  0.00    -0.122 S 
ATOM     14  C   UNL A   1      29.680  28.659  22.757  1.00  0.00    -0.022 A 
ATOM     15  C   UNL A   1      30.078  26.579  23.725  1.00  0.00     0.108 A 
ATOM     16  C   UNL A   1      30.664  27.662  23.118  1.00  0.00     0.080 A 
ATOM     17  C   UNL A   1      30.029  29.946  22.074  1.00  0.00     0.046 C 
ATOM     18  N   UNL A   1      30.825  25.548  24.143  1.00  0.00    -0.326 N 
ATOM     19  C   UNL A   1      32.125  27.665  22.932  1.00  0.00     0.282 A 
ATOM     20  H   UNL A   1      30.405  24.764  24.566  1.00  0.00     0.169 HD
ATOM     21  N   UNL A   1      32.828  26.575  23.422  1.00  0.00    -0.185 NA
ATOM     22  O   UNL A   1      32.688  28.607  22.375  1.00  0.00    -0.267 OA
ENDBRANCH   9  10
ENDBRANCH   8   9
ENDBRANCH   5   8
ENDBRANCH   3   4
ENDBRANCH   2   3
ENDBRANCH   1   2
BRANCH   1  23
ATOM     23  C   UNL A   1      35.820  22.009  24.784  1.00  0.00     0.002 C 
BRANCH  23  24
ATOM     24  C   UNL A   1      36.923  22.504  25.741  1.00  0.00     0.021 C 
BRANCH  24  25
ATOM     25  C   UNL A   1      38.370  22.123  25.366  1.00  0.00     0.116 C 
BRANCH  25  26
ATOM     26  N   UNL A   1      39.092  21.625  26.525  1.00  0.00    -0.352 N 
ATOM     27  C   UNL A   1      40.079  22.167  27.303  1.00  0.00     0.251 C 
ATOM     28  H   UNL A   1      38.819  20.722  26.804  1.00  0.00     0.163 HD
ATOM     29  O   UNL A   1      40.748  21.405  28.002  1.00  0.00    -0.269 OA
BRANCH  27  30
ATOM     30  C   UNL A   1      40.366  23.620  27.389  1.00  0.00     0.039 A 
ATOM     31  C   UNL A   1      41.660  24.051  27.054  1.00  0.00     0.014 A 
ATOM     32  C   UNL A   1      39.488  24.518  27.997  1.00  0.00     0.014 A 
ATOM     33  C   UNL A   1      42.070  25.367  27.304  1.00  0.00     0.010 A 
ATOM     34  C   UNL A   1      39.907  25.835  28.256  1.00  0.00     0.010 A 
ATOM     35  C   UNL A   1      41.197  26.279  27.909  1.00  0.00    -0.014 A 
BRANCH  35  36
ATOM     36  C   UNL A   1      41.604  27.710  28.002  1.00  0.00     0.031 A 
ATOM     37  C   UNL A   1      40.491  28.688  27.814  1.00  0.00     0.074 A 
ATOM     38  C   UNL A   1      42.719  28.164  28.622  1.00  0.00     0.049 A 
ATOM     39  N   UNL A   1      39.709  29.046  28.793  1.00  0.00    -0.248 NA
ATOM     40  C   UNL A   1      40.017  29.105  26.496  1.00  0.00     0.031 C 
ATOM     41  C   UNL A   1      43.342  27.500  29.772  1.00  0.00     0.029 A 
ATOM     42  N   UNL A   1      43.384  29.373  28.536  1.00  0.00    -0.354 N 
ATOM     43  C   UNL A   1      38.608  29.661  28.232  1.00  0.00     0.074 A 
ATOM     44  C   UNL A   1      38.853  29.702  26.806  1.00  0.00     0.031 C 
ATOM     45  C   UNL A   1      44.179  28.370  30.375  1.00  0.00     0.029 A 
ATOM     46  C   UNL A   1      44.280  29.601  29.584  1.00  0.00     0.049 A 
ATOM     47  H   UNL A   1      43.240  30.015  27.804  1.00  0.00     0.167 HD
ATOM     48  C   UNL A   1      37.547  30.079  28.971  1.00  0.00     0.037 A 
ATOM     49  C   UNL A   1      44.553  30.813  30.149  1.00  0.00     0.037 A 
ATOM     50  C   UNL A   1      37.643  29.863  30.384  1.00  0.00     0.049 A 
ATOM     51  C   UNL A   1      43.215  31.210  30.707  1.00  0.00     0.074 A 
ATOM     52  C   UNL A   1      37.198  28.946  31.311  1.00  0.00     0.029 A 
ATOM     53  N   UNL A   1      38.404  30.746  31.111  1.00  0.00    -0.354 N 
ATOM     54  N   UNL A   1      42.696  30.795  31.829  1.00  0.00    -0.248 NA
ATOM     55  C   UNL A   1      42.276  31.869  29.799  1.00  0.00     0.031 C 
ATOM     56  C   UNL A   1      38.093  29.063  32.423  1.00  0.00     0.029 A 
ATOM     57  C   UNL A   1      39.047  30.019  32.078  1.00  0.00     0.049 A 
ATOM     58  H   UNL A   1      38.474  31.718  30.965  1.00  0.00     0.167 HD
ATOM     59  C   UNL A   1      41.316  30.906  31.656  1.00  0.00     0.074 A 
ATOM     60  C   UNL A   1      41.126  31.600  30.399  1.00  0.00     0.031 C 
ATOM     61  C   UNL A   1      40.415  30.269  32.457  1.00  0.00     0.037 A 
BRANCH  48  62
ATOM     62  C   UNL A   1      36.427  30.879  28.450  1.00  0.00     0.064 A 
ATOM     63  C   UNL A   1      36.533  32.275  28.536  1.00  0.00     0.173 A 
ATOM     64  C   UNL A   1      35.195  30.326  28.097  1.00  0.00     0.173 A 
ATOM     65  F   UNL A   1      37.701  32.835  28.892  1.00  0.00    -0.203 F 
ATOM     66  C   UNL A   1      35.431  33.092  28.322  1.00  0.00     0.198 A 
ATOM     67  C   UNL A   1      34.091  31.148  27.872  1.00  0.00     0.198 A 
ATOM     68  F   UNL A   1      35.046  28.995  28.019  1.00  0.00    -0.203 F 
ATOM     69  F   UNL A   1      35.549  34.418  28.465  1.00  0.00    -0.200 F 
ATOM     70  C   UNL A   1      34.208  32.528  28.000  1.00  0.00     0.200 A 
ATOM     71  F   UNL A   1      32.904  30.607  27.564  1.00  0.00    -0.200 F 
ATOM     72  F   UNL A   1      33.135  33.313  27.828  1.00  0.00    -0.200 F 
ENDBRANCH  48  62
BRANCH  49  73
ATOM     73  C   UNL A   1      45.428  31.784  29.412  1.00  0.00     0.064 A 
ATOM     74  C   UNL A   1      46.518  32.376  30.080  1.00  0.00     0.173 A 
ATOM     75  C   UNL A   1      45.217  32.216  28.089  1.00  0.00     0.173 A 
ATOM     76  F   UNL A   1      46.726  32.128  31.382  1.00  0.00    -0.203 F 
ATOM     77  C   UNL A   1      47.404  33.243  29.432  1.00  0.00     0.198 A 
ATOM     78  C   UNL A   1      46.119  33.058  27.432  1.00  0.00     0.198 A 
ATOM     79  F   UNL A   1      44.134  31.836  27.400  1.00  0.00    -0.203 F 
ATOM     80  F   UNL A   1      48.438  33.767  30.104  1.00  0.00    -0.200 F 
ATOM     81  C   UNL A   1      47.222  33.558  28.098  1.00  0.00     0.200 A 
ATOM     82  F   UNL A   1      45.919  33.369  26.143  1.00  0.00    -0.200 F 
ATOM     83  F   UNL A   1      48.097  34.348  27.460  1.00  0.00    -0.200 F 
ENDBRANCH  49  73
BRANCH  61  84
ATOM     84  C   UNL A   1      40.995  29.601  33.656  1.00  0.00     0.064 A 
ATOM     85  C   UNL A   1      41.324  28.240  33.610  1.00  0.00     0.173 A 
ATOM     86  C   UNL A   1      41.245  30.303  34.845  1.00  0.00     0.173 A 
ATOM     87  F   UNL A   1      41.108  27.529  32.492  1.00  0.00    -0.203 F 
ATOM     88  C   UNL A   1      41.903  27.609  34.707  1.00  0.00     0.198 A 
ATOM     89  C   UNL A   1      41.847  29.674  35.930  1.00  0.00     0.198 A 
ATOM     90  F   UNL A   1      40.930  31.603  34.953  1.00  0.00    -0.203 F 
ATOM     91  F   UNL A   1      42.216  26.308  34.640  1.00  0.00    -0.200 F 
ATOM     92  C   UNL A   1      42.176  28.329  35.860  1.00  0.00     0.200 A 
ATOM     93  F   UNL A   1      42.127  30.375  37.039  1.00  0.00    -0.200 F 
ATOM     94  F   UNL A   1      42.768  27.729  36.902  1.00  0.00    -0.200 F 
ENDBRANCH  61  84
ENDBRANCH  35  36
ENDBRANCH  27  30
ENDBRANCH  25  26
ENDBRANCH  24  25
ENDBRANCH  23  24
ENDBRANCH   1  23
TORSDOF 15
ENDMDL
MODEL 2
REMARK VINA RESULT:     -11.6      2.795      7.949
REMARK SMILES Cc1sc2[nH]c(SCC(=O)NCCCCCCNC(=O)c3ccc(-c4c5nc(c(-c6c(F)c(F)c(F)c(F)c6F)c6ccc([nH]6)c(-c6c(F)c(F)c(F)c(F)c6F)c6nc(c(-c7c(F)c(F)c(F)c(F)c7F)c7ccc4[nH]7)C=C6)C=C5)cc3)nc(=O)c2c1C
REMARK SMILES IDX 14 1 13 2 12 3 11 4 9 5 10 6 8 8 7 9 6 10 1 11 2 12 3 13
REMARK SMILES IDX 88 14 4 15 87 16 89 17 5 18 85 19 84 21 86 22 15 23 16 24
REMARK SMILES IDX 17 25 18 26 19 27 20 29 21 30 22 31 83 32 23 33 82 34 24 35
REMARK SMILES IDX 25 36 26 37 76 38 27 39 81 40 75 41 77 42 28 43 80 44 74 45
REMARK SMILES IDX 73 46 29 48 61 49 41 50 60 51 42 52 45 53 59 54 78 55 43 56
REMARK SMILES IDX 44 57 58 59 79 60 46 61 30 62 31 63 39 64 32 65 33 66 37 67
REMARK SMILES IDX 40 68 34 69 35 70 38 71 36 72 62 73 63 74 71 75 64 76 65 77
REMARK SMILES IDX 69 78 72 79 66 80 67 81 70 82 68 83 47 84 48 85 56 86 49 87
REMARK SMILES IDX 50 88 54 89 57 90 51 91 52 92 55 93 53 94
REMARK H PARENT 11 7 5 20 18 28 77 47 45 58
REMARK Flexibility Score: inf
ROOT
ATOM      1  C   UNL A   1      33.385  27.733  26.030  1.00  0.00     0.002 C 
ENDROOT
BRANCH   1   2
ATOM      2  C   UNL A   1      32.290  28.450  25.226  1.00  0.00     0.021 C 
BRANCH   2   3
ATOM      3  C   UNL A   1      32.722  28.933  23.836  1.00  0.00     0.116 C 
BRANCH   3   4
ATOM      4  N   UNL A   1      31.580  29.308  23.023  1.00  0.00    -0.355 N 
ATOM      5  C   UNL A   1      30.665  28.539  22.365  1.00  0.00     0.230 C 
ATOM      6  O   UNL A   1      29.737  29.129  21.806  1.00  0.00    -0.274 OA
ATOM      7  H   UNL A   1      31.444  30.278  22.929  1.00  0.00     0.163 HD
BRANCH   5   8
ATOM      8  C   UNL A   1      30.703  27.022  22.428  1.00  0.00     0.178 C 
BRANCH   8   9
ATOM      9  S   UNL A   1      29.598  26.278  23.651  1.00  0.00    -0.078 SA
BRANCH   9  10
ATOM     10  C   UNL A   1      30.643  25.167  24.498  1.00  0.00     0.170 A 
ATOM     11  C   UNL A   1      35.263  21.080  24.670  1.00  0.00     0.057 C 
ATOM     12  C   UNL A   1      34.126  22.044  24.790  1.00  0.00     0.007 A 
ATOM     13  S   UNL A   1      33.529  22.763  23.348  1.00  0.00    -0.122 S 
ATOM     14  C   UNL A   1      33.431  22.473  25.916  1.00  0.00    -0.022 A 
ATOM     15  C   UNL A   1      32.379  23.647  24.202  1.00  0.00     0.108 A 
ATOM     16  C   UNL A   1      32.402  23.425  25.556  1.00  0.00     0.080 A 
ATOM     17  C   UNL A   1      33.685  22.034  27.326  1.00  0.00     0.046 C 
ATOM     18  N   UNL A   1      31.498  24.505  23.670  1.00  0.00    -0.326 N 
ATOM     19  C   UNL A   1      31.440  24.145  26.409  1.00  0.00     0.282 A 
ATOM     20  H   UNL A   1      31.471  24.655  22.697  1.00  0.00     0.169 HD
ATOM     21  N   UNL A   1      30.586  25.040  25.783  1.00  0.00    -0.185 NA
ATOM     22  O   UNL A   1      31.415  23.960  27.626  1.00  0.00    -0.267 OA
ENDBRANCH   9  10
ENDBRANCH   8   9
ENDBRANCH   5   8
ENDBRANCH   3   4
ENDBRANCH   2   3
ENDBRANCH   1   2
BRANCH   1  23
ATOM     23  C   UNL A   1      34.105  28.583  27.086  1.00  0.00     0.002 C 
BRANCH  23  24
ATOM     24  C   UNL A   1      34.268  30.081  26.765  1.00  0.00     0.021 C 
BRANCH  24  25
ATOM     25  C   UNL A   1      33.460  31.057  27.645  1.00  0.00     0.116 C 
BRANCH  25  26
ATOM     26  N   UNL A   1      34.107  32.357  27.707  1.00  0.00    -0.352 N 
ATOM     27  C   UNL A   1      35.176  32.826  28.423  1.00  0.00     0.251 C 
ATOM     28  H   UNL A   1      33.696  33.033  27.121  1.00  0.00     0.163 HD
ATOM     29  O   UNL A   1      35.299  34.045  28.545  1.00  0.00    -0.269 OA
BRANCH  27  30
ATOM     30  C   UNL A   1      36.218  31.958  29.024  1.00  0.00     0.039 A 
ATOM     31  C   UNL A   1      36.318  31.934  30.424  1.00  0.00     0.014 A 
ATOM     32  C   UNL A   1      37.224  31.364  28.262  1.00  0.00     0.014 A 
ATOM     33  C   UNL A   1      37.398  31.308  31.060  1.00  0.00     0.010 A 
ATOM     34  C   UNL A   1      38.312  30.745  28.903  1.00  0.00     0.010 A 
ATOM     35  C   UNL A   1      38.412  30.703  30.307  1.00  0.00    -0.014 A 
BRANCH  35  36
ATOM     36  C   UNL A   1      39.450  29.901  31.012  1.00  0.00     0.031 A 
ATOM     37  C   UNL A   1      39.546  28.477  30.570  1.00  0.00     0.074 A 
ATOM     38  C   UNL A   1      40.524  30.413  31.659  1.00  0.00     0.049 A 
ATOM     39  N   UNL A   1      40.247  28.118  29.532  1.00  0.00    -0.248 NA
ATOM     40  C   UNL A   1      38.662  27.430  31.078  1.00  0.00     0.031 C 
ATOM     41  C   UNL A   1      41.182  31.668  31.284  1.00  0.00     0.029 A 
ATOM     42  N   UNL A   1      41.378  29.856  32.594  1.00  0.00    -0.354 N 
ATOM     43  C   UNL A   1      39.852  26.839  29.196  1.00  0.00     0.074 A 
ATOM     44  C   UNL A   1      38.888  26.439  30.198  1.00  0.00     0.031 C 
ATOM     45  C   UNL A   1      42.403  31.708  31.858  1.00  0.00     0.029 A 
ATOM     46  C   UNL A   1      42.570  30.566  32.764  1.00  0.00     0.049 A 
ATOM     47  H   UNL A   1      41.165  29.036  33.096  1.00  0.00     0.167 HD
ATOM     48  C   UNL A   1      40.325  26.192  28.097  1.00  0.00     0.037 A 
ATOM     49  C   UNL A   1      43.791  30.019  33.033  1.00  0.00     0.037 A 
ATOM     50  C   UNL A   1      41.282  26.910  27.310  1.00  0.00     0.049 A 
ATOM     51  C   UNL A   1      44.030  29.167  31.818  1.00  0.00     0.074 A 
ATOM     52  C   UNL A   1      41.296  27.673  26.162  1.00  0.00     0.029 A 
ATOM     53  N   UNL A   1      42.580  26.942  27.760  1.00  0.00    -0.354 N 
ATOM     54  N   UNL A   1      44.463  29.583  30.660  1.00  0.00    -0.248 NA
ATOM     55  C   UNL A   1      43.452  27.823  31.814  1.00  0.00     0.031 C 
ATOM     56  C   UNL A   1      42.471  28.487  26.260  1.00  0.00     0.029 A 
ATOM     57  C   UNL A   1      43.069  28.190  27.482  1.00  0.00     0.049 A 
ATOM     58  H   UNL A   1      43.065  26.206  28.199  1.00  0.00     0.167 HD
ATOM     59  C   UNL A   1      43.976  28.660  29.735  1.00  0.00     0.074 A 
ATOM     60  C   UNL A   1      43.388  27.588  30.512  1.00  0.00     0.031 C 
ATOM     61  C   UNL A   1      43.921  28.911  28.396  1.00  0.00     0.037 A 
BRANCH  48  62
ATOM     62  C   UNL A   1      40.064  24.779  27.781  1.00  0.00     0.064 A 
ATOM     63  C   UNL A   1      41.045  23.843  28.140  1.00  0.00     0.173 A 
ATOM     64  C   UNL A   1      39.019  24.364  26.954  1.00  0.00     0.173 A 
ATOM     65  F   UNL A   1      42.073  24.218  28.920  1.00  0.00    -0.203 F 
ATOM     66  C   UNL A   1      41.010  22.545  27.650  1.00  0.00     0.198 A 
ATOM     67  C   UNL A   1      38.979  23.056  26.471  1.00  0.00     0.198 A 
ATOM     68  F   UNL A   1      38.068  25.231  26.575  1.00  0.00    -0.203 F 
ATOM     69  F   UNL A   1      41.991  21.689  27.965  1.00  0.00    -0.200 F 
ATOM     70  C   UNL A   1      39.983  22.154  26.807  1.00  0.00     0.200 A 
ATOM     71  F   UNL A   1      37.989  22.674  25.652  1.00  0.00    -0.200 F 
ATOM     72  F   UNL A   1      39.968  20.912  26.305  1.00  0.00    -0.200 F 
ENDBRANCH  48  62
BRANCH  49  73
ATOM     73  C   UNL A   1      44.083  29.527  34.420  1.00  0.00     0.064 A 
ATOM     74  C   UNL A   1      45.231  29.992  35.091  1.00  0.00     0.173 A 
ATOM     75  C   UNL A   1      43.320  28.567  35.112  1.00  0.00     0.173 A 
ATOM     76  F   UNL A   1      46.092  30.810  34.465  1.00  0.00    -0.203 F 
ATOM     77  C   UNL A   1      45.527  29.616  36.405  1.00  0.00     0.198 A 
ATOM     78  C   UNL A   1      43.597  28.216  36.436  1.00  0.00     0.198 A 
ATOM     79  F   UNL A   1      42.290  27.945  34.525  1.00  0.00    -0.203 F 
ATOM     80  F   UNL A   1      46.621  30.100  37.008  1.00  0.00    -0.200 F 
ATOM     81  C   UNL A   1      44.691  28.753  37.089  1.00  0.00     0.200 A 
ATOM     82  F   UNL A   1      42.788  27.362  37.081  1.00  0.00    -0.200 F 
ATOM     83  F   UNL A   1      44.943  28.430  38.365  1.00  0.00    -0.200 F 
ENDBRANCH  49  73
BRANCH  61  84
ATOM     84  C   UNL A   1      44.600  30.163  27.958  1.00  0.00     0.064 A 
ATOM     85  C   UNL A   1      45.924  30.122  27.503  1.00  0.00     0.173 A 
ATOM     86  C   UNL A   1      43.942  31.403  27.967  1.00  0.00     0.173 A 
ATOM     87  F   UNL A   1      46.591  28.958  27.471  1.00  0.00    -0.203 F 
ATOM     88  C   UNL A   1      46.560  31.274  27.053  1.00  0.00     0.198 A 
ATOM     89  C   UNL A   1      44.573  32.548  27.493  1.00  0.00     0.198 A 
ATOM     90  F   UNL A   1      42.680  31.506  28.412  1.00  0.00    -0.203 F 
ATOM     91  F   UNL A   1      47.825  31.211  26.616  1.00  0.00    -0.200 F 
ATOM     92  C   UNL A   1      45.880  32.483  27.035  1.00  0.00     0.200 A 
ATOM     93  F   UNL A   1      43.910  33.713  27.459  1.00  0.00    -0.200 F 
ATOM     94  F   UNL A   1      46.482  33.584  26.566  1.00  0.00    -0.200 F 
ENDBRANCH  61  84
ENDBRANCH  35  36
ENDBRANCH  27  30
ENDBRANCH  25  26
ENDBRANCH  24  25
ENDBRANCH  23  24
ENDBRANCH   1  23
TORSDOF 15
ENDMDL
MODEL 3
REMARK VINA RESULT:     -11.5      2.949      7.556
REMARK SMILES Cc1sc2[nH]c(SCC(=O)NCCCCCCNC(=O)c3ccc(-c4c5nc(c(-c6c(F)c(F)c(F)c(F)c6F)c6ccc([nH]6)c(-c6c(F)c(F)c(F)c(F)c6F)c6nc(c(-c7c(F)c(F)c(F)c(F)c7F)c7ccc4[nH]7)C=C6)C=C5)cc3)nc(=O)c2c1C
REMARK SMILES IDX 14 1 13 2 12 3 11 4 9 5 10 6 8 8 7 9 6 10 1 11 2 12 3 13
REMARK SMILES IDX 88 14 4 15 87 16 89 17 5 18 85 19 84 21 86 22 15 23 16 24
REMARK SMILES IDX 17 25 18 26 19 27 20 29 21 30 22 31 83 32 23 33 82 34 24 35
REMARK SMILES IDX 25 36 26 37 76 38 27 39 81 40 75 41 77 42 28 43 80 44 74 45
REMARK SMILES IDX 73 46 29 48 61 49 41 50 60 51 42 52 45 53 59 54 78 55 43 56
REMARK SMILES IDX 44 57 58 59 79 60 46 61 30 62 31 63 39 64 32 65 33 66 37 67
REMARK SMILES IDX 40 68 34 69 35 70 38 71 36 72 62 73 63 74 71 75 64 76 65 77
REMARK SMILES IDX 69 78 72 79 66 80 67 81 70 82 68 83 47 84 48 85 56 86 49 87
REMARK SMILES IDX 50 88 54 89 57 90 51 91 52 92 55 93 53 94
REMARK H PARENT 11 7 5 20 18 28 77 47 45 58
REMARK Flexibility Score: inf
ROOT
ATOM      1  C   UNL A   1      34.398  26.525  25.333  1.00  0.00     0.002 C 
ENDROOT
BRANCH   1   2
ATOM      2  C   UNL A   1      34.516  25.063  25.791  1.00  0.00     0.021 C 
BRANCH   2   3
ATOM      3  C   UNL A   1      35.214  24.129  24.796  1.00  0.00     0.116 C 
BRANCH   3   4
ATOM      4  N   UNL A   1      35.457  22.820  25.373  1.00  0.00    -0.355 N 
ATOM      5  C   UNL A   1      34.963  21.593  25.035  1.00  0.00     0.230 C 
ATOM      6  O   UNL A   1      35.407  20.622  25.653  1.00  0.00    -0.274 OA
ATOM      7  H   UNL A   1      36.080  22.815  26.134  1.00  0.00     0.163 HD
BRANCH   5   8
ATOM      8  C   UNL A   1      34.014  21.409  23.864  1.00  0.00     0.178 C 
BRANCH   8   9
ATOM      9  S   UNL A   1      32.262  21.320  24.303  1.00  0.00    -0.078 SA
BRANCH   9  10
ATOM     10  C   UNL A   1      31.804  23.000  24.426  1.00  0.00     0.170 A 
ATOM     11  C   UNL A   1      31.165  28.663  22.061  1.00  0.00     0.057 C 
ATOM     12  C   UNL A   1      31.262  27.353  22.775  1.00  0.00     0.007 A 
ATOM     13  S   UNL A   1      31.972  26.033  21.936  1.00  0.00    -0.122 S 
ATOM     14  C   UNL A   1      30.866  27.003  24.063  1.00  0.00    -0.022 A 
ATOM     15  C   UNL A   1      31.743  25.005  23.249  1.00  0.00     0.108 A 
ATOM     16  C   UNL A   1      31.152  25.610  24.330  1.00  0.00     0.080 A 
ATOM     17  C   UNL A   1      30.227  27.916  25.064  1.00  0.00     0.046 C 
ATOM     18  N   UNL A   1      32.079  23.709  23.295  1.00  0.00    -0.326 N 
ATOM     19  C   UNL A   1      30.899  24.808  25.539  1.00  0.00     0.282 A 
ATOM     20  H   UNL A   1      32.515  23.277  22.526  1.00  0.00     0.169 HD
ATOM     21  N   UNL A   1      31.245  23.467  25.494  1.00  0.00    -0.185 NA
ATOM     22  O   UNL A   1      30.389  25.317  26.538  1.00  0.00    -0.267 OA
ENDBRANCH   9  10
ENDBRANCH   8   9
ENDBRANCH   5   8
ENDBRANCH   3   4
ENDBRANCH   2   3
ENDBRANCH   1   2
BRANCH   1  23
ATOM     23  C   UNL A   1      33.742  27.489  26.331  1.00  0.00     0.002 C 
BRANCH  23  24
ATOM     24  C   UNL A   1      33.813  28.989  25.983  1.00  0.00     0.021 C 
BRANCH  24  25
ATOM     25  C   UNL A   1      33.298  29.962  27.062  1.00  0.00     0.116 C 
BRANCH  25  26
ATOM     26  N   UNL A   1      33.967  31.249  26.963  1.00  0.00    -0.352 N 
ATOM     27  C   UNL A   1      35.061  31.775  27.597  1.00  0.00     0.251 C 
ATOM     28  H   UNL A   1      33.553  31.862  26.314  1.00  0.00     0.163 HD
ATOM     29  O   UNL A   1      35.206  32.997  27.578  1.00  0.00    -0.269 OA
BRANCH  27  30
ATOM     30  C   UNL A   1      36.103  30.961  28.268  1.00  0.00     0.039 A 
ATOM     31  C   UNL A   1      36.329  31.189  29.635  1.00  0.00     0.014 A 
ATOM     32  C   UNL A   1      37.000  30.164  27.556  1.00  0.00     0.014 A 
ATOM     33  C   UNL A   1      37.426  30.615  30.290  1.00  0.00     0.010 A 
ATOM     34  C   UNL A   1      38.106  29.598  28.215  1.00  0.00     0.010 A 
ATOM     35  C   UNL A   1      38.331  29.810  29.589  1.00  0.00    -0.014 A 
BRANCH  35  36
ATOM     36  C   UNL A   1      39.383  29.079  30.349  1.00  0.00     0.031 A 
ATOM     37  C   UNL A   1      39.535  27.640  29.979  1.00  0.00     0.074 A 
ATOM     38  C   UNL A   1      40.427  29.659  30.989  1.00  0.00     0.049 A 
ATOM     39  N   UNL A   1      40.266  27.255  28.972  1.00  0.00    -0.248 NA
ATOM     40  C   UNL A   1      38.678  26.588  30.523  1.00  0.00     0.031 C 
ATOM     41  C   UNL A   1      41.049  30.916  30.563  1.00  0.00     0.029 A 
ATOM     42  N   UNL A   1      41.282  29.178  31.964  1.00  0.00    -0.354 N 
ATOM     43  C   UNL A   1      39.921  25.948  28.692  1.00  0.00     0.074 A 
ATOM     44  C   UNL A   1      38.953  25.564  29.697  1.00  0.00     0.031 C 
ATOM     45  C   UNL A   1      42.257  31.026  31.154  1.00  0.00     0.029 A 
ATOM     46  C   UNL A   1      42.446  29.936  32.118  1.00  0.00     0.049 A 
ATOM     47  H   UNL A   1      41.088  28.376  32.501  1.00  0.00     0.167 HD
ATOM     48  C   UNL A   1      40.436  25.266  27.635  1.00  0.00     0.037 A 
ATOM     49  C   UNL A   1      43.680  29.445  32.433  1.00  0.00     0.037 A 
ATOM     50  C   UNL A   1      41.382  25.978  26.829  1.00  0.00     0.049 A 
ATOM     51  C   UNL A   1      43.970  28.544  31.266  1.00  0.00     0.074 A 
ATOM     52  C   UNL A   1      41.391  26.684  25.646  1.00  0.00     0.029 A 
ATOM     53  N   UNL A   1      42.670  26.076  27.299  1.00  0.00    -0.354 N 
ATOM     54  N   UNL A   1      44.410  28.919  30.097  1.00  0.00    -0.248 NA
ATOM     55  C   UNL A   1      43.438  27.182  31.318  1.00  0.00     0.031 C 
ATOM     56  C   UNL A   1      42.535  27.543  25.723  1.00  0.00     0.029 A 
ATOM     57  C   UNL A   1      43.121  27.326  26.968  1.00  0.00     0.049 A 
ATOM     58  H   UNL A   1      43.172  25.380  27.781  1.00  0.00     0.167 HD
ATOM     59  C   UNL A   1      43.970  27.936  29.209  1.00  0.00     0.074 A 
ATOM     60  C   UNL A   1      43.406  26.883  30.028  1.00  0.00     0.031 C 
ATOM     61  C   UNL A   1      43.932  28.120  27.859  1.00  0.00     0.037 A 
BRANCH  48  62
ATOM     62  C   UNL A   1      40.229  23.831  27.384  1.00  0.00     0.064 A 
ATOM     63  C   UNL A   1      41.180  22.939  27.901  1.00  0.00     0.173 A 
ATOM     64  C   UNL A   1      39.281  23.344  26.482  1.00  0.00     0.173 A 
ATOM     65  F   UNL A   1      42.116  23.383  28.757  1.00  0.00    -0.203 F 
ATOM     66  C   UNL A   1      41.214  21.613  27.493  1.00  0.00     0.198 A 
ATOM     67  C   UNL A   1      39.310  22.008  26.081  1.00  0.00     0.198 A 
ATOM     68  F   UNL A   1      38.363  24.167  25.952  1.00  0.00    -0.203 F 
ATOM     69  F   UNL A   1      42.168  20.798  27.962  1.00  0.00    -0.200 F 
ATOM     70  C   UNL A   1      40.285  21.150  26.576  1.00  0.00     0.200 A 
ATOM     71  F   UNL A   1      38.416  21.557  25.191  1.00  0.00    -0.200 F 
ATOM     72  F   UNL A   1      40.340  19.879  26.155  1.00  0.00    -0.200 F 
ENDBRANCH  48  62
BRANCH  49  73
ATOM     73  C   UNL A   1      43.963  29.031  33.847  1.00  0.00     0.064 A 
ATOM     74  C   UNL A   1      45.017  29.648  34.550  1.00  0.00     0.173 A 
ATOM     75  C   UNL A   1      43.287  28.008  34.539  1.00  0.00     0.173 A 
ATOM     76  F   UNL A   1      45.804  30.543  33.934  1.00  0.00    -0.203 F 
ATOM     77  C   UNL A   1      45.294  29.347  35.888  1.00  0.00     0.198 A 
ATOM     78  C   UNL A   1      43.541  27.731  35.885  1.00  0.00     0.198 A 
ATOM     79  F   UNL A   1      42.364  27.253  33.931  1.00  0.00    -0.203 F 
ATOM     80  F   UNL A   1      46.296  29.975  36.520  1.00  0.00    -0.200 F 
ATOM     81  C   UNL A   1      44.534  28.412  36.565  1.00  0.00     0.200 A 
ATOM     82  F   UNL A   1      42.808  26.807  36.523  1.00  0.00    -0.200 F 
ATOM     83  F   UNL A   1      44.763  28.158  37.861  1.00  0.00    -0.200 F 
ENDBRANCH  49  73
BRANCH  61  84
ATOM     84  C   UNL A   1      44.575  29.372  27.372  1.00  0.00     0.064 A 
ATOM     85  C   UNL A   1      43.824  30.548  27.256  1.00  0.00     0.173 A 
ATOM     86  C   UNL A   1      45.937  29.421  27.036  1.00  0.00     0.173 A 
ATOM     87  F   UNL A   1      42.519  30.551  27.571  1.00  0.00    -0.203 F 
ATOM     88  C   UNL A   1      44.418  31.736  26.840  1.00  0.00     0.198 A 
ATOM     89  C   UNL A   1      46.532  30.616  26.645  1.00  0.00     0.198 A 
ATOM     90  F   UNL A   1      46.701  28.319  27.108  1.00  0.00    -0.203 F 
ATOM     91  F   UNL A   1      43.682  32.851  26.743  1.00  0.00    -0.200 F 
ATOM     92  C   UNL A   1      45.773  31.772  26.549  1.00  0.00     0.200 A 
ATOM     93  F   UNL A   1      47.846  30.654  26.380  1.00  0.00    -0.200 F 
ATOM     94  F   UNL A   1      46.351  32.925  26.186  1.00  0.00    -0.200 F 
ENDBRANCH  61  84
ENDBRANCH  35  36
ENDBRANCH  27  30
ENDBRANCH  25  26
ENDBRANCH  24  25
ENDBRANCH  23  24
ENDBRANCH   1  23
TORSDOF 15
ENDMDL
