MODEL 1
REMARK VINA RESULT:     -12.3      0.000      0.000
REMARK SMILES C[C@@H](C(=O)NCCCCCCNC(=O)c1ccc(-c2c3nc(c(-c4c(F)c(F)c(F)c(F)c4F)c4ccc([nH]4)c(-c4c(F)c(F)c(F)c(F)c4F)c4nc(c(-c5c(F)c(F)c(F)c(F)c5F)c5ccc2[nH]5)C=C4)C=C3)cc1)c1ccc(C[C@H]2CCC[C@@H]2O)cc1
REMARK SMILES IDX 7 1 6 2 5 3 3 4 4 5 2 7 1 8 78 9 79 10 90 11 80 12 89 13
REMARK SMILES IDX 81 14 82 15 83 16 84 17 87 18 85 19 86 20 88 21 8 23 9 24
REMARK SMILES IDX 10 25 11 26 12 27 13 28 14 30 15 31 16 32 77 33 17 34 76 35
REMARK SMILES IDX 18 36 19 37 20 38 70 39 21 40 75 41 69 42 71 43 22 44 74 45
REMARK SMILES IDX 68 46 67 47 23 49 55 50 35 51 54 52 36 53 39 54 53 55 72 56
REMARK SMILES IDX 37 57 38 58 52 60 73 61 40 62 24 63 25 64 33 65 26 66 27 67
REMARK SMILES IDX 31 68 34 69 28 70 29 71 32 72 30 73 56 74 57 75 65 76 58 77
REMARK SMILES IDX 59 78 63 79 66 80 60 81 61 82 64 83 62 84 41 85 42 86 50 87
REMARK SMILES IDX 43 88 44 89 48 90 51 91 45 92 46 93 49 94 47 95
REMARK H PARENT 5 6 88 22 12 29 71 48 39 59
REMARK Flexibility Score: inf
ROOT
ATOM      1  C   UNL A   1      32.312  28.425  26.800  1.00  0.00     0.021 C 
ENDROOT
BRANCH   1   2
ATOM      2  C   UNL A   1      33.658  28.542  26.073  1.00  0.00     0.116 C 
BRANCH   2   3
ATOM      3  N   UNL A   1      34.155  27.220  25.755  1.00  0.00    -0.356 N 
ATOM      4  C   UNL A   1      33.731  26.406  24.742  1.00  0.00     0.227 C 
ATOM      5  O   UNL A   1      33.712  25.199  24.986  1.00  0.00    -0.274 OA
ATOM      6  H   UNL A   1      34.875  26.872  26.328  1.00  0.00     0.163 HD
BRANCH   4   7
ATOM      7  C   UNL A   1      33.312  27.034  23.400  1.00  0.00     0.105 C 
ATOM      8  C   UNL A   1      34.280  28.174  23.060  1.00  0.00     0.023 C 
BRANCH   7   9
ATOM      9  C   UNL A   1      31.856  27.507  23.311  1.00  0.00    -0.036 A 
ATOM     10  C   UNL A   1      30.777  26.746  23.779  1.00  0.00     0.005 A 
ATOM     11  C   UNL A   1      31.556  28.745  22.714  1.00  0.00     0.005 A 
ATOM     12  C   UNL A   1      29.469  27.222  23.717  1.00  0.00     0.004 A 
ATOM     13  C   UNL A   1      30.241  29.209  22.620  1.00  0.00     0.004 A 
ATOM     14  C   UNL A   1      29.180  28.443  23.108  1.00  0.00    -0.048 A 
BRANCH  14  15
ATOM     15  C   UNL A   1      27.752  28.899  22.946  1.00  0.00     0.041 C 
BRANCH  15  16
ATOM     16  C   UNL A   1      27.568  30.394  22.633  1.00  0.00     0.022 C 
ATOM     17  C   UNL A   1      28.042  31.365  23.728  1.00  0.00     0.007 C 
ATOM     18  C   UNL A   1      28.242  30.907  21.355  1.00  0.00     0.117 C 
ATOM     19  C   UNL A   1      28.608  32.586  22.996  1.00  0.00     0.003 C 
ATOM     20  C   UNL A   1      28.200  32.416  21.542  1.00  0.00     0.032 C 
BRANCH  18  21
ATOM     21  O   UNL A   1      27.540  30.522  20.190  1.00  0.00    -0.393 OA
ATOM     22  H   UNL A   1      26.594  30.444  20.393  1.00  0.00     0.210 HD
ENDBRANCH  18  21
ENDBRANCH  15  16
ENDBRANCH  14  15
ENDBRANCH   7   9
ENDBRANCH   4   7
ENDBRANCH   2   3
ENDBRANCH   1   2
BRANCH   1  23
ATOM     23  C   UNL A   1      31.682  29.774  27.176  1.00  0.00     0.002 C 
BRANCH  23  24
ATOM     24  C   UNL A   1      31.451  30.724  26.000  1.00  0.00     0.002 C 
BRANCH  24  25
ATOM     25  C   UNL A   1      31.317  32.197  26.389  1.00  0.00     0.021 C 
BRANCH  25  26
ATOM     26  C   UNL A   1      32.482  32.744  27.206  1.00  0.00     0.116 C 
BRANCH  26  27
ATOM     27  N   UNL A   1      32.296  34.142  27.554  1.00  0.00    -0.352 N 
ATOM     28  C   UNL A   1      32.921  34.888  28.517  1.00  0.00     0.251 C 
ATOM     29  H   UNL A   1      31.623  34.623  27.020  1.00  0.00     0.163 HD
ATOM     30  O   UNL A   1      32.492  36.005  28.811  1.00  0.00    -0.269 OA
BRANCH  28  31
ATOM     31  C   UNL A   1      34.100  34.349  29.226  1.00  0.00     0.039 A 
ATOM     32  C   UNL A   1      33.904  33.644  30.417  1.00  0.00     0.014 A 
ATOM     33  C   UNL A   1      35.393  34.542  28.730  1.00  0.00     0.014 A 
ATOM     34  C   UNL A   1      34.998  33.086  31.078  1.00  0.00     0.010 A 
ATOM     35  C   UNL A   1      36.476  33.923  29.352  1.00  0.00     0.010 A 
ATOM     36  C   UNL A   1      36.290  33.189  30.531  1.00  0.00    -0.014 A 
BRANCH  36  37
ATOM     37  C   UNL A   1      37.443  32.518  31.182  1.00  0.00     0.031 A 
ATOM     38  C   UNL A   1      38.154  31.383  30.499  1.00  0.00     0.074 A 
ATOM     39  C   UNL A   1      37.825  32.910  32.414  1.00  0.00     0.049 A 
ATOM     40  N   UNL A   1      39.162  30.664  30.923  1.00  0.00    -0.248 NA
ATOM     41  C   UNL A   1      37.654  30.989  29.171  1.00  0.00     0.031 C 
ATOM     42  C   UNL A   1      37.183  33.963  33.202  1.00  0.00     0.029 A 
ATOM     43  N   UNL A   1      38.843  32.466  33.221  1.00  0.00    -0.354 N 
ATOM     44  C   UNL A   1      39.417  29.737  29.919  1.00  0.00     0.074 A 
ATOM     45  C   UNL A   1      38.421  29.945  28.891  1.00  0.00     0.031 C 
ATOM     46  C   UNL A   1      37.836  34.103  34.366  1.00  0.00     0.029 A 
ATOM     47  C   UNL A   1      38.919  33.127  34.424  1.00  0.00     0.049 A 
ATOM     48  H   UNL A   1      39.460  31.745  32.964  1.00  0.00     0.167 HD
ATOM     49  C   UNL A   1      40.408  28.817  29.851  1.00  0.00     0.037 A 
ATOM     50  C   UNL A   1      39.762  32.957  35.460  1.00  0.00     0.037 A 
ATOM     51  C   UNL A   1      41.407  28.622  30.869  1.00  0.00     0.049 A 
ATOM     52  C   UNL A   1      40.844  31.916  35.359  1.00  0.00     0.074 A 
ATOM     53  C   UNL A   1      42.478  27.744  30.872  1.00  0.00     0.029 A 
ATOM     54  N   UNL A   1      41.458  29.315  32.069  1.00  0.00    -0.354 N 
ATOM     55  N   UNL A   1      41.117  31.095  34.374  1.00  0.00    -0.248 NA
ATOM     56  C   UNL A   1      41.744  31.785  36.514  1.00  0.00     0.031 C 
ATOM     57  C   UNL A   1      43.148  27.873  32.092  1.00  0.00     0.029 A 
ATOM     58  C   UNL A   1      42.529  28.870  32.828  1.00  0.00     0.049 A 
ATOM     59  H   UNL A   1      40.826  30.020  32.342  1.00  0.00     0.167 HD
ATOM     60  C   UNL A   1      42.231  30.371  34.778  1.00  0.00     0.074 A 
ATOM     61  C   UNL A   1      42.600  30.869  36.086  1.00  0.00     0.031 C 
ATOM     62  C   UNL A   1      42.885  29.379  34.127  1.00  0.00     0.037 A 
BRANCH  49  63
ATOM     63  C   UNL A   1      40.476  27.953  28.623  1.00  0.00     0.064 A 
ATOM     64  C   UNL A   1      41.208  28.345  27.493  1.00  0.00     0.173 A 
ATOM     65  C   UNL A   1      39.859  26.693  28.602  1.00  0.00     0.173 A 
ATOM     66  F   UNL A   1      41.807  29.544  27.459  1.00  0.00    -0.203 F 
ATOM     67  C   UNL A   1      41.305  27.515  26.379  1.00  0.00     0.198 A 
ATOM     68  C   UNL A   1      39.983  25.853  27.498  1.00  0.00     0.198 A 
ATOM     69  F   UNL A   1      39.151  26.267  29.658  1.00  0.00    -0.203 F 
ATOM     70  F   UNL A   1      41.979  27.927  25.295  1.00  0.00    -0.200 F 
ATOM     71  C   UNL A   1      40.702  26.267  26.385  1.00  0.00     0.200 A 
ATOM     72  F   UNL A   1      39.411  24.642  27.511  1.00  0.00    -0.200 F 
ATOM     73  F   UNL A   1      40.810  25.463  25.318  1.00  0.00    -0.200 F 
ENDBRANCH  49  63
BRANCH  50  74
ATOM     74  C   UNL A   1      39.630  33.798  36.680  1.00  0.00     0.064 A 
ATOM     75  C   UNL A   1      38.865  33.369  37.774  1.00  0.00     0.173 A 
ATOM     76  C   UNL A   1      40.235  35.060  36.764  1.00  0.00     0.173 A 
ATOM     77  F   UNL A   1      38.249  32.178  37.734  1.00  0.00    -0.203 F 
ATOM     78  C   UNL A   1      38.681  34.185  38.889  1.00  0.00     0.198 A 
ATOM     79  C   UNL A   1      40.079  35.861  37.893  1.00  0.00     0.198 A 
ATOM     80  F   UNL A   1      40.982  35.517  35.748  1.00  0.00    -0.203 F 
ATOM     81  F   UNL A   1      37.893  33.776  39.892  1.00  0.00    -0.200 F 
ATOM     82  C   UNL A   1      39.291  35.428  38.949  1.00  0.00     0.200 A 
ATOM     83  F   UNL A   1      40.684  37.055  37.953  1.00  0.00    -0.200 F 
ATOM     84  F   UNL A   1      39.111  36.214  40.020  1.00  0.00    -0.200 F 
ENDBRANCH  50  74
BRANCH  62  85
ATOM     85  C   UNL A   1      44.087  28.790  34.810  1.00  0.00     0.064 A 
ATOM     86  C   UNL A   1      43.977  27.689  35.673  1.00  0.00     0.173 A 
ATOM     87  C   UNL A   1      45.365  29.323  34.587  1.00  0.00     0.173 A 
ATOM     88  F   UNL A   1      42.776  27.151  35.932  1.00  0.00    -0.203 F 
ATOM     89  C   UNL A   1      45.098  27.168  36.314  1.00  0.00     0.198 A 
ATOM     90  C   UNL A   1      46.488  28.778  35.202  1.00  0.00     0.198 A 
ATOM     91  F   UNL A   1      45.527  30.370  33.764  1.00  0.00    -0.203 F 
ATOM     92  F   UNL A   1      44.960  26.155  37.181  1.00  0.00    -0.200 F 
ATOM     93  C   UNL A   1      46.352  27.708  36.074  1.00  0.00     0.200 A 
ATOM     94  F   UNL A   1      47.701  29.292  34.958  1.00  0.00    -0.200 F 
ATOM     95  F   UNL A   1      47.429  27.204  36.691  1.00  0.00    -0.200 F 
ENDBRANCH  62  85
ENDBRANCH  36  37
ENDBRANCH  28  31
ENDBRANCH  26  27
ENDBRANCH  25  26
ENDBRANCH  24  25
ENDBRANCH  23  24
ENDBRANCH   1  23
TORSDOF 17
ENDMDL
MODEL 2
REMARK VINA RESULT:     -12.2      0.713      7.309
REMARK SMILES C[C@@H](C(=O)NCCCCCCNC(=O)c1ccc(-c2c3nc(c(-c4c(F)c(F)c(F)c(F)c4F)c4ccc([nH]4)c(-c4c(F)c(F)c(F)c(F)c4F)c4nc(c(-c5c(F)c(F)c(F)c(F)c5F)c5ccc2[nH]5)C=C4)C=C3)cc1)c1ccc(C[C@H]2CCC[C@@H]2O)cc1
REMARK SMILES IDX 7 1 6 2 5 3 3 4 4 5 2 7 1 8 78 9 79 10 90 11 80 12 89 13
REMARK SMILES IDX 81 14 82 15 83 16 84 17 87 18 85 19 86 20 88 21 8 23 9 24
REMARK SMILES IDX 10 25 11 26 12 27 13 28 14 30 15 31 16 32 77 33 17 34 76 35
REMARK SMILES IDX 18 36 19 37 20 38 70 39 21 40 75 41 69 42 71 43 22 44 74 45
REMARK SMILES IDX 68 46 67 47 23 49 55 50 35 51 54 52 36 53 39 54 53 55 72 56
REMARK SMILES IDX 37 57 38 58 52 60 73 61 40 62 24 63 25 64 33 65 26 66 27 67
REMARK SMILES IDX 31 68 34 69 28 70 29 71 32 72 30 73 56 74 57 75 65 76 58 77
REMARK SMILES IDX 59 78 63 79 66 80 60 81 61 82 64 83 62 84 41 85 42 86 50 87
REMARK SMILES IDX 43 88 44 89 48 90 51 91 45 92 46 93 49 94 47 95
REMARK H PARENT 5 6 88 22 12 29 71 48 39 59
REMARK Flexibility Score: inf
ROOT
ATOM      1  C   UNL A   1      32.581  29.037  27.299  1.00  0.00     0.021 C 
ENDROOT
BRANCH   1   2
ATOM      2  C   UNL A   1      31.598  27.933  26.889  1.00  0.00     0.116 C 
BRANCH   2   3
ATOM      3  N   UNL A   1      32.281  26.656  26.868  1.00  0.00    -0.356 N 
ATOM      4  C   UNL A   1      32.333  25.771  25.828  1.00  0.00     0.227 C 
ATOM      5  O   UNL A   1      32.320  24.577  26.128  1.00  0.00    -0.274 OA
ATOM      6  H   UNL A   1      32.758  26.400  27.690  1.00  0.00     0.163 HD
BRANCH   4   7
ATOM      7  C   UNL A   1      32.400  26.310  24.387  1.00  0.00     0.105 C 
ATOM      8  C   UNL A   1      33.645  27.194  24.244  1.00  0.00     0.023 C 
BRANCH   7   9
ATOM      9  C   UNL A   1      31.148  27.041  23.890  1.00  0.00    -0.036 A 
ATOM     10  C   UNL A   1      29.851  26.549  24.080  1.00  0.00     0.005 A 
ATOM     11  C   UNL A   1      31.277  28.252  23.184  1.00  0.00     0.005 A 
ATOM     12  C   UNL A   1      28.731  27.258  23.649  1.00  0.00     0.004 A 
ATOM     13  C   UNL A   1      30.156  28.947  22.720  1.00  0.00     0.004 A 
ATOM     14  C   UNL A   1      28.870  28.448  22.936  1.00  0.00    -0.048 A 
BRANCH  14  15
ATOM     15  C   UNL A   1      27.659  29.151  22.376  1.00  0.00     0.041 C 
BRANCH  15  16
ATOM     16  C   UNL A   1      27.654  30.682  22.531  1.00  0.00     0.022 C 
ATOM     17  C   UNL A   1      28.233  31.217  23.851  1.00  0.00     0.007 C 
ATOM     18  C   UNL A   1      28.389  31.475  21.445  1.00  0.00     0.117 C 
ATOM     19  C   UNL A   1      28.943  32.529  23.501  1.00  0.00     0.003 C 
ATOM     20  C   UNL A   1      28.524  32.852  22.076  1.00  0.00     0.032 C 
BRANCH  18  21
ATOM     21  O   UNL A   1      27.652  31.542  20.240  1.00  0.00    -0.393 OA
ATOM     22  H   UNL A   1      26.982  32.240  20.309  1.00  0.00     0.210 HD
ENDBRANCH  18  21
ENDBRANCH  15  16
ENDBRANCH  14  15
ENDBRANCH   7   9
ENDBRANCH   4   7
ENDBRANCH   2   3
ENDBRANCH   1   2
BRANCH   1  23
ATOM     23  C   UNL A   1      32.714  30.172  26.274  1.00  0.00     0.002 C 
BRANCH  23  24
ATOM     24  C   UNL A   1      31.402  30.877  25.924  1.00  0.00     0.002 C 
BRANCH  24  25
ATOM     25  C   UNL A   1      31.249  32.273  26.528  1.00  0.00     0.021 C 
BRANCH  25  26
ATOM     26  C   UNL A   1      32.512  32.819  27.185  1.00  0.00     0.116 C 
BRANCH  26  27
ATOM     27  N   UNL A   1      32.348  34.194  27.625  1.00  0.00    -0.352 N 
ATOM     28  C   UNL A   1      32.995  34.870  28.625  1.00  0.00     0.251 C 
ATOM     29  H   UNL A   1      31.673  34.716  27.133  1.00  0.00     0.163 HD
ATOM     30  O   UNL A   1      32.584  35.970  28.996  1.00  0.00    -0.269 OA
BRANCH  28  31
ATOM     31  C   UNL A   1      34.177  34.272  29.280  1.00  0.00     0.039 A 
ATOM     32  C   UNL A   1      33.991  33.510  30.436  1.00  0.00     0.014 A 
ATOM     33  C   UNL A   1      35.464  34.468  28.768  1.00  0.00     0.014 A 
ATOM     34  C   UNL A   1      35.087  32.898  31.045  1.00  0.00     0.010 A 
ATOM     35  C   UNL A   1      36.546  33.798  29.335  1.00  0.00     0.010 A 
ATOM     36  C   UNL A   1      36.369  33.007  30.478  1.00  0.00    -0.014 A 
BRANCH  36  37
ATOM     37  C   UNL A   1      37.522  32.281  31.069  1.00  0.00     0.031 A 
ATOM     38  C   UNL A   1      38.030  32.636  32.439  1.00  0.00     0.074 A 
ATOM     39  C   UNL A   1      38.138  31.323  30.348  1.00  0.00     0.049 A 
ATOM     40  N   UNL A   1      39.037  32.129  33.105  1.00  0.00    -0.248 NA
ATOM     41  C   UNL A   1      37.327  33.718  33.148  1.00  0.00     0.031 C 
ATOM     42  C   UNL A   1      37.773  30.924  28.988  1.00  0.00     0.029 A 
ATOM     43  N   UNL A   1      39.204  30.514  30.656  1.00  0.00    -0.354 N 
ATOM     44  C   UNL A   1      39.087  32.825  34.306  1.00  0.00     0.074 A 
ATOM     45  C   UNL A   1      38.049  33.832  34.255  1.00  0.00     0.031 C 
ATOM     46  C   UNL A   1      38.581  29.931  28.588  1.00  0.00     0.029 A 
ATOM     47  C   UNL A   1      39.545  29.646  29.646  1.00  0.00     0.049 A 
ATOM     48  H   UNL A   1      39.678  30.551  31.517  1.00  0.00     0.167 HD
ATOM     49  C   UNL A   1      39.907  32.625  35.365  1.00  0.00     0.037 A 
ATOM     50  C   UNL A   1      40.529  28.730  29.580  1.00  0.00     0.037 A 
ATOM     51  C   UNL A   1      40.930  31.614  35.419  1.00  0.00     0.049 A 
ATOM     52  C   UNL A   1      41.433  28.541  30.769  1.00  0.00     0.074 A 
ATOM     53  C   UNL A   1      41.784  31.304  36.465  1.00  0.00     0.029 A 
ATOM     54  N   UNL A   1      41.241  30.746  34.382  1.00  0.00    -0.354 N 
ATOM     55  N   UNL A   1      41.425  29.158  31.924  1.00  0.00    -0.248 NA
ATOM     56  C   UNL A   1      42.481  27.517  30.644  1.00  0.00     0.031 C 
ATOM     57  C   UNL A   1      42.641  30.282  36.044  1.00  0.00     0.029 A 
ATOM     58  C   UNL A   1      42.286  29.916  34.756  1.00  0.00     0.049 A 
ATOM     59  H   UNL A   1      40.785  30.724  33.509  1.00  0.00     0.167 HD
ATOM     60  C   UNL A   1      42.443  28.583  32.672  1.00  0.00     0.074 A 
ATOM     61  C   UNL A   1      43.031  27.547  31.849  1.00  0.00     0.031 C 
ATOM     62  C   UNL A   1      42.858  28.888  33.926  1.00  0.00     0.037 A 
BRANCH  49  63
ATOM     63  C   UNL A   1      39.726  33.509  36.566  1.00  0.00     0.064 A 
ATOM     64  C   UNL A   1      40.355  34.759  36.656  1.00  0.00     0.173 A 
ATOM     65  C   UNL A   1      38.863  33.131  37.607  1.00  0.00     0.173 A 
ATOM     66  F   UNL A   1      41.197  35.162  35.694  1.00  0.00    -0.203 F 
ATOM     67  C   UNL A   1      40.142  35.592  37.752  1.00  0.00     0.198 A 
ATOM     68  C   UNL A   1      38.629  33.979  38.686  1.00  0.00     0.198 A 
ATOM     69  F   UNL A   1      38.233  31.948  37.568  1.00  0.00    -0.203 F 
ATOM     70  F   UNL A   1      40.783  36.766  37.834  1.00  0.00    -0.200 F 
ATOM     71  C   UNL A   1      39.272  35.206  38.761  1.00  0.00     0.200 A 
ATOM     72  F   UNL A   1      37.779  33.611  39.653  1.00  0.00    -0.200 F 
ATOM     73  F   UNL A   1      39.056  36.016  39.807  1.00  0.00    -0.200 F 
ENDBRANCH  49  63
BRANCH  50  74
ATOM     74  C   UNL A   1      40.709  27.910  28.352  1.00  0.00     0.064 A 
ATOM     75  C   UNL A   1      40.113  26.646  28.233  1.00  0.00     0.173 A 
ATOM     76  C   UNL A   1      41.508  28.355  27.289  1.00  0.00     0.173 A 
ATOM     77  F   UNL A   1      39.357  26.166  29.231  1.00  0.00    -0.203 F 
ATOM     78  C   UNL A   1      40.338  25.846  27.114  1.00  0.00     0.198 A 
ATOM     79  C   UNL A   1      41.703  27.569  26.156  1.00  0.00     0.198 A 
ATOM     80  F   UNL A   1      42.096  29.559  27.349  1.00  0.00    -0.203 F 
ATOM     81  F   UNL A   1      39.807  24.617  27.056  1.00  0.00    -0.200 F 
ATOM     82  C   UNL A   1      41.130  26.309  26.076  1.00  0.00     0.200 A 
ATOM     83  F   UNL A   1      42.457  28.028  25.147  1.00  0.00    -0.200 F 
ATOM     84  F   UNL A   1      41.349  25.538  25.001  1.00  0.00    -0.200 F 
ENDBRANCH  50  74
BRANCH  62  85
ATOM     85  C   UNL A   1      43.983  28.068  34.492  1.00  0.00     0.064 A 
ATOM     86  C   UNL A   1      45.322  28.469  34.363  1.00  0.00     0.173 A 
ATOM     87  C   UNL A   1      43.718  26.878  35.186  1.00  0.00     0.173 A 
ATOM     88  F   UNL A   1      45.631  29.591  33.695  1.00  0.00    -0.203 F 
ATOM     89  C   UNL A   1      46.354  27.687  34.875  1.00  0.00     0.198 A 
ATOM     90  C   UNL A   1      44.750  26.119  35.727  1.00  0.00     0.198 A 
ATOM     91  F   UNL A   1      42.455  26.456  35.345  1.00  0.00    -0.203 F 
ATOM     92  F   UNL A   1      47.628  28.058  34.685  1.00  0.00    -0.200 F 
ATOM     93  C   UNL A   1      46.068  26.517  35.561  1.00  0.00     0.200 A 
ATOM     94  F   UNL A   1      44.471  24.995  36.402  1.00  0.00    -0.200 F 
ATOM     95  F   UNL A   1      47.063  25.768  36.055  1.00  0.00    -0.200 F 
ENDBRANCH  62  85
ENDBRANCH  36  37
ENDBRANCH  28  31
ENDBRANCH  26  27
ENDBRANCH  25  26
ENDBRANCH  24  25
ENDBRANCH  23  24
ENDBRANCH   1  23
TORSDOF 17
ENDMDL
MODEL 3
REMARK VINA RESULT:     -12.2      4.280      8.591
REMARK SMILES C[C@@H](C(=O)NCCCCCCNC(=O)c1ccc(-c2c3nc(c(-c4c(F)c(F)c(F)c(F)c4F)c4ccc([nH]4)c(-c4c(F)c(F)c(F)c(F)c4F)c4nc(c(-c5c(F)c(F)c(F)c(F)c5F)c5ccc2[nH]5)C=C4)C=C3)cc1)c1ccc(C[C@H]2CCC[C@@H]2O)cc1
REMARK SMILES IDX 7 1 6 2 5 3 3 4 4 5 2 7 1 8 78 9 79 10 90 11 80 12 89 13
REMARK SMILES IDX 81 14 82 15 83 16 84 17 87 18 85 19 86 20 88 21 8 23 9 24
REMARK SMILES IDX 10 25 11 26 12 27 13 28 14 30 15 31 16 32 77 33 17 34 76 35
REMARK SMILES IDX 18 36 19 37 20 38 70 39 21 40 75 41 69 42 71 43 22 44 74 45
REMARK SMILES IDX 68 46 67 47 23 49 55 50 35 51 54 52 36 53 39 54 53 55 72 56
REMARK SMILES IDX 37 57 38 58 52 60 73 61 40 62 24 63 25 64 33 65 26 66 27 67
REMARK SMILES IDX 31 68 34 69 28 70 29 71 32 72 30 73 56 74 57 75 65 76 58 77
REMARK SMILES IDX 59 78 63 79 66 80 60 81 61 82 64 83 62 84 41 85 42 86 50 87
REMARK SMILES IDX 43 88 44 89 48 90 51 91 45 92 46 93 49 94 47 95
REMARK H PARENT 5 6 88 22 12 29 71 48 39 59
REMARK Flexibility Score: inf
ROOT
ATOM      1  C   UNL A   1      34.320  25.724  25.103  1.00  0.00     0.021 C 
ENDROOT
BRANCH   1   2
ATOM      2  C   UNL A   1      33.242  26.754  24.744  1.00  0.00     0.116 C 
BRANCH   2   3
ATOM      3  N   UNL A   1      33.343  27.097  23.341  1.00  0.00    -0.356 N 
ATOM      4  C   UNL A   1      32.934  26.340  22.280  1.00  0.00     0.227 C 
ATOM      5  O   UNL A   1      33.635  26.395  21.269  1.00  0.00    -0.274 OA
ATOM      6  H   UNL A   1      33.749  27.968  23.130  1.00  0.00     0.163 HD
BRANCH   4   7
ATOM      7  C   UNL A   1      31.660  25.485  22.415  1.00  0.00     0.105 C 
ATOM      8  C   UNL A   1      30.610  26.278  23.203  1.00  0.00     0.023 C 
BRANCH   7   9
ATOM      9  C   UNL A   1      31.854  24.087  23.013  1.00  0.00    -0.036 A 
ATOM     10  C   UNL A   1      32.805  23.178  22.533  1.00  0.00     0.005 A 
ATOM     11  C   UNL A   1      31.038  23.660  24.076  1.00  0.00     0.005 A 
ATOM     12  C   UNL A   1      32.982  21.929  23.126  1.00  0.00     0.004 A 
ATOM     13  C   UNL A   1      31.191  22.394  24.649  1.00  0.00     0.004 A 
ATOM     14  C   UNL A   1      32.157  21.508  24.168  1.00  0.00    -0.048 A 
BRANCH  14  15
ATOM     15  C   UNL A   1      32.282  20.113  24.728  1.00  0.00     0.041 C 
BRANCH  15  16
ATOM     16  C   UNL A   1      33.242  19.180  23.970  1.00  0.00     0.022 C 
ATOM     17  C   UNL A   1      34.544  18.826  24.709  1.00  0.00     0.007 C 
ATOM     18  C   UNL A   1      32.671  17.825  23.539  1.00  0.00     0.117 C 
ATOM     19  C   UNL A   1      34.867  17.377  24.328  1.00  0.00     0.003 C 
ATOM     20  C   UNL A   1      33.922  17.035  23.187  1.00  0.00     0.032 C 
BRANCH  18  21
ATOM     21  O   UNL A   1      31.814  17.939  22.420  1.00  0.00    -0.393 OA
ATOM     22  H   UNL A   1      31.385  17.084  22.253  1.00  0.00     0.210 HD
ENDBRANCH  18  21
ENDBRANCH  15  16
ENDBRANCH  14  15
ENDBRANCH   7   9
ENDBRANCH   4   7
ENDBRANCH   2   3
ENDBRANCH   1   2
BRANCH   1  23
ATOM     23  C   UNL A   1      33.821  24.574  25.989  1.00  0.00     0.002 C 
BRANCH  23  24
ATOM     24  C   UNL A   1      34.886  23.540  26.358  1.00  0.00     0.002 C 
BRANCH  24  25
ATOM     25  C   UNL A   1      35.750  23.071  25.187  1.00  0.00     0.021 C 
BRANCH  25  26
ATOM     26  C   UNL A   1      37.144  23.688  25.144  1.00  0.00     0.116 C 
BRANCH  26  27
ATOM     27  N   UNL A   1      38.176  22.727  25.498  1.00  0.00    -0.352 N 
ATOM     28  C   UNL A   1      39.364  22.929  26.149  1.00  0.00     0.251 C 
ATOM     29  H   UNL A   1      37.995  21.797  25.231  1.00  0.00     0.163 HD
ATOM     30  O   UNL A   1      40.211  22.035  26.182  1.00  0.00    -0.269 OA
BRANCH  28  31
ATOM     31  C   UNL A   1      39.645  24.227  26.795  1.00  0.00     0.039 A 
ATOM     32  C   UNL A   1      39.218  24.430  28.110  1.00  0.00     0.014 A 
ATOM     33  C   UNL A   1      40.316  25.246  26.111  1.00  0.00     0.014 A 
ATOM     34  C   UNL A   1      39.513  25.631  28.756  1.00  0.00     0.010 A 
ATOM     35  C   UNL A   1      40.673  26.415  26.780  1.00  0.00     0.010 A 
ATOM     36  C   UNL A   1      40.275  26.619  28.109  1.00  0.00    -0.014 A 
BRANCH  36  37
ATOM     37  C   UNL A   1      40.672  27.859  28.824  1.00  0.00     0.031 A 
ATOM     38  C   UNL A   1      42.071  28.026  29.348  1.00  0.00     0.074 A 
ATOM     39  C   UNL A   1      39.752  28.822  29.033  1.00  0.00     0.049 A 
ATOM     40  N   UNL A   1      42.590  29.026  30.015  1.00  0.00    -0.248 NA
ATOM     41  C   UNL A   1      43.007  26.915  29.111  1.00  0.00     0.031 C 
ATOM     42  C   UNL A   1      38.349  28.754  28.619  1.00  0.00     0.029 A 
ATOM     43  N   UNL A   1      39.857  30.043  29.651  1.00  0.00    -0.354 N 
ATOM     44  C   UNL A   1      43.906  28.667  30.275  1.00  0.00     0.074 A 
ATOM     45  C   UNL A   1      44.092  27.333  29.748  1.00  0.00     0.031 C 
ATOM     46  C   UNL A   1      37.731  29.892  28.970  1.00  0.00     0.029 A 
ATOM     47  C   UNL A   1      38.681  30.755  29.666  1.00  0.00     0.049 A 
ATOM     48  H   UNL A   1      40.693  30.378  30.047  1.00  0.00     0.167 HD
ATOM     49  C   UNL A   1      44.878  29.395  30.875  1.00  0.00     0.037 A 
ATOM     50  C   UNL A   1      38.400  31.963  30.188  1.00  0.00     0.037 A 
ATOM     51  C   UNL A   1      44.694  30.729  31.386  1.00  0.00     0.049 A 
ATOM     52  C   UNL A   1      39.498  32.742  30.862  1.00  0.00     0.074 A 
ATOM     53  C   UNL A   1      45.629  31.565  31.973  1.00  0.00     0.029 A 
ATOM     54  N   UNL A   1      43.492  31.422  31.375  1.00  0.00    -0.354 N 
ATOM     55  N   UNL A   1      40.756  32.420  31.038  1.00  0.00    -0.248 NA
ATOM     56  C   UNL A   1      39.137  34.061  31.401  1.00  0.00     0.031 C 
ATOM     57  C   UNL A   1      44.983  32.745  32.357  1.00  0.00     0.029 A 
ATOM     58  C   UNL A   1      43.658  32.666  31.962  1.00  0.00     0.049 A 
ATOM     59  H   UNL A   1      42.647  31.079  31.004  1.00  0.00     0.167 HD
ATOM     60  C   UNL A   1      41.341  33.501  31.682  1.00  0.00     0.074 A 
ATOM     61  C   UNL A   1      40.306  34.501  31.841  1.00  0.00     0.031 C 
ATOM     62  C   UNL A   1      42.618  33.651  32.110  1.00  0.00     0.037 A 
BRANCH  49  63
ATOM     63  C   UNL A   1      46.240  28.774  31.001  1.00  0.00     0.064 A 
ATOM     64  C   UNL A   1      46.595  28.012  32.123  1.00  0.00     0.173 A 
ATOM     65  C   UNL A   1      47.175  28.886  29.960  1.00  0.00     0.173 A 
ATOM     66  F   UNL A   1      45.742  27.883  33.150  1.00  0.00    -0.203 F 
ATOM     67  C   UNL A   1      47.843  27.400  32.209  1.00  0.00     0.198 A 
ATOM     68  C   UNL A   1      48.410  28.248  30.036  1.00  0.00     0.198 A 
ATOM     69  F   UNL A   1      46.883  29.599  28.862  1.00  0.00    -0.203 F 
ATOM     70  F   UNL A   1      48.175  26.708  33.308  1.00  0.00    -0.200 F 
ATOM     71  C   UNL A   1      48.746  27.510  31.161  1.00  0.00     0.200 A 
ATOM     72  F   UNL A   1      49.275  28.344  29.017  1.00  0.00    -0.200 F 
ATOM     73  F   UNL A   1      49.940  26.907  31.238  1.00  0.00    -0.200 F 
ENDBRANCH  49  63
BRANCH  50  74
ATOM     74  C   UNL A   1      37.025  32.522  30.089  1.00  0.00     0.064 A 
ATOM     75  C   UNL A   1      36.624  33.259  28.966  1.00  0.00     0.173 A 
ATOM     76  C   UNL A   1      36.097  32.362  31.128  1.00  0.00     0.173 A 
ATOM     77  F   UNL A   1      37.482  33.459  27.955  1.00  0.00    -0.203 F 
ATOM     78  C   UNL A   1      35.360  33.845  28.902  1.00  0.00     0.198 A 
ATOM     79  C   UNL A   1      34.822  32.917  31.047  1.00  0.00     0.198 A 
ATOM     80  F   UNL A   1      36.427  31.660  32.222  1.00  0.00    -0.203 F 
ATOM     81  F   UNL A   1      35.027  34.598  27.845  1.00  0.00    -0.200 F 
ATOM     82  C   UNL A   1      34.460  33.670  29.940  1.00  0.00     0.200 A 
ATOM     83  F   UNL A   1      33.949  32.732  32.047  1.00  0.00    -0.200 F 
ATOM     84  F   UNL A   1      33.246  34.236  29.880  1.00  0.00    -0.200 F 
ENDBRANCH  50  74
BRANCH  62  85
ATOM     85  C   UNL A   1      42.972  34.958  32.762  1.00  0.00     0.064 A 
ATOM     86  C   UNL A   1      42.815  35.157  34.142  1.00  0.00     0.173 A 
ATOM     87  C   UNL A   1      43.488  36.017  32.001  1.00  0.00     0.173 A 
ATOM     88  F   UNL A   1      42.311  34.182  34.913  1.00  0.00    -0.203 F 
ATOM     89  C   UNL A   1      43.128  36.381  34.728  1.00  0.00     0.198 A 
ATOM     90  C   UNL A   1      43.833  37.227  32.596  1.00  0.00     0.198 A 
ATOM     91  F   UNL A   1      43.667  35.875  30.679  1.00  0.00    -0.203 F 
ATOM     92  F   UNL A   1      42.912  36.568  36.038  1.00  0.00    -0.200 F 
ATOM     93  C   UNL A   1      43.642  37.412  33.957  1.00  0.00     0.200 A 
ATOM     94  F   UNL A   1      44.343  38.217  31.851  1.00  0.00    -0.200 F 
ATOM     95  F   UNL A   1      43.944  38.588  34.523  1.00  0.00    -0.200 F 
ENDBRANCH  62  85
ENDBRANCH  36  37
ENDBRANCH  28  31
ENDBRANCH  26  27
ENDBRANCH  25  26
ENDBRANCH  24  25
ENDBRANCH  23  24
ENDBRANCH   1  23
TORSDOF 17
ENDMDL
