MODEL 1
REMARK VINA RESULT:     -10.5      0.000      0.000
REMARK SMILES CC(C)NC(=O)C[N@@H+]1CCC[C@H]1C(=O)NCCCCCCNC(=O)c1ccc(-c2c3nc(c(-c4c(F)c(F)c(F)c(F)c4F)c4ccc([nH]4)c(-c4c(F)c(F)c(F)c(F)c4F)c4nc(c(-c5c(F)c(F)c(F)c(F)c5F)c5ccc2[nH]5)C=C4)C=C3)cc1
REMARK SMILES IDX 18 1 17 2 16 3 15 4 13 5 14 6 12 8 8 9 9 10 10 12 11 13 7 14
REMARK SMILES IDX 5 15 4 16 6 18 2 19 1 20 3 21 19 22 20 23 21 24 22 25 23 26
REMARK SMILES IDX 24 28 25 29 26 30 87 31 27 32 86 33 28 34 29 35 30 36 80 37
REMARK SMILES IDX 31 38 85 39 79 40 81 41 32 42 84 43 78 44 77 45 33 47 65 48
REMARK SMILES IDX 45 49 64 50 46 51 49 52 63 53 82 54 47 55 48 56 62 58 83 59
REMARK SMILES IDX 50 60 34 61 35 62 43 63 36 64 37 65 41 66 44 67 38 68 39 69
REMARK SMILES IDX 42 70 40 71 66 72 67 73 75 74 68 75 69 76 73 77 76 78 70 79
REMARK SMILES IDX 71 80 74 81 72 82 51 83 52 84 60 85 53 86 54 87 58 88 61 89
REMARK SMILES IDX 55 90 56 91 59 92 57 93
REMARK H PARENT 15 7 8 11 4 17 22 27 81 46 49 57
REMARK Flexibility Score: inf
ROOT
ATOM      1  C   UNL A   1      34.439  32.451  29.270  1.00  0.00     0.002 C 
ENDROOT
BRANCH   1   2
ATOM      2  C   UNL A   1      34.746  31.343  28.253  1.00  0.00     0.021 C 
BRANCH   2   3
ATOM      3  C   UNL A   1      33.589  31.016  27.307  1.00  0.00     0.116 C 
BRANCH   3   4
ATOM      4  N   UNL A   1      32.939  29.773  27.680  1.00  0.00    -0.351 N 
ATOM      5  C   UNL A   1      32.321  28.822  26.916  1.00  0.00     0.278 C 
ATOM      6  O   UNL A   1      31.815  27.872  27.519  1.00  0.00    -0.268 OA
ATOM      7  H   UNL A   1      32.944  29.584  28.646  1.00  0.00     0.163 HD
BRANCH   5   8
ATOM      8  C   UNL A   1      32.365  28.928  25.371  1.00  0.00     0.274 C 
ATOM      9  N   UNL A   1      32.481  27.564  24.755  1.00  0.00    -0.317 N 
ATOM     10  C   UNL A   1      31.200  27.308  24.087  1.00  0.00     0.263 C 
ATOM     11  H   UNL A   1      32.638  26.823  25.438  1.00  0.00     0.349 HD
ATOM     12  C   UNL A   1      30.737  28.654  23.598  1.00  0.00     0.068 C 
ATOM     13  C   UNL A   1      31.105  29.553  24.758  1.00  0.00     0.081 C 
BRANCH   9  14
ATOM     14  C   UNL A   1      33.669  27.504  23.875  1.00  0.00     0.364 C 
BRANCH  14  15
ATOM     15  C   UNL A   1      33.871  26.163  23.164  1.00  0.00     0.275 C 
ATOM     16  N   UNL A   1      34.235  25.043  23.845  1.00  0.00    -0.349 N 
ATOM     17  H   UNL A   1      34.397  24.248  23.286  1.00  0.00     0.163 HD
ATOM     18  O   UNL A   1      33.726  26.076  21.940  1.00  0.00    -0.268 OA
BRANCH  16  19
ATOM     19  C   UNL A   1      34.422  24.843  25.276  1.00  0.00     0.076 C 
ATOM     20  C   UNL A   1      33.216  24.111  25.862  1.00  0.00     0.030 C 
ATOM     21  C   UNL A   1      35.693  24.028  25.506  1.00  0.00     0.030 C 
ENDBRANCH  16  19
ENDBRANCH  14  15
ENDBRANCH   9  14
ENDBRANCH   5   8
ENDBRANCH   3   4
ENDBRANCH   2   3
ENDBRANCH   1   2
BRANCH   1  22
ATOM     22  C   UNL A   1      34.519  33.881  28.724  1.00  0.00     0.002 C 
BRANCH  22  23
ATOM     23  C   UNL A   1      33.220  34.687  28.807  1.00  0.00     0.021 C 
BRANCH  23  24
ATOM     24  C   UNL A   1      33.345  36.044  29.495  1.00  0.00     0.116 C 
BRANCH  24  25
ATOM     25  N   UNL A   1      32.470  36.164  30.649  1.00  0.00    -0.352 N 
ATOM     26  C   UNL A   1      32.591  35.623  31.902  1.00  0.00     0.251 C 
ATOM     27  H   UNL A   1      31.669  36.719  30.508  1.00  0.00     0.163 HD
ATOM     28  O   UNL A   1      31.656  35.719  32.697  1.00  0.00    -0.269 OA
BRANCH  26  29
ATOM     29  C   UNL A   1      33.822  34.911  32.312  1.00  0.00     0.039 A 
ATOM     30  C   UNL A   1      35.050  35.562  32.155  1.00  0.00     0.014 A 
ATOM     31  C   UNL A   1      33.788  33.595  32.783  1.00  0.00     0.014 A 
ATOM     32  C   UNL A   1      36.237  34.908  32.492  1.00  0.00     0.010 A 
ATOM     33  C   UNL A   1      34.968  32.964  33.179  1.00  0.00     0.010 A 
ATOM     34  C   UNL A   1      36.205  33.606  33.016  1.00  0.00    -0.014 A 
BRANCH  34  35
ATOM     35  C   UNL A   1      37.462  32.888  33.342  1.00  0.00     0.031 A 
ATOM     36  C   UNL A   1      38.177  33.169  34.635  1.00  0.00     0.074 A 
ATOM     37  C   UNL A   1      37.974  32.000  32.470  1.00  0.00     0.049 A 
ATOM     38  N   UNL A   1      39.288  32.654  35.100  1.00  0.00    -0.248 NA
ATOM     39  C   UNL A   1      37.575  34.184  35.513  1.00  0.00     0.031 C 
ATOM     40  C   UNL A   1      37.396  31.664  31.169  1.00  0.00     0.029 A 
ATOM     41  N   UNL A   1      39.096  31.214  32.551  1.00  0.00    -0.354 N 
ATOM     42  C   UNL A   1      39.521  33.289  36.312  1.00  0.00     0.074 A 
ATOM     43  C   UNL A   1      38.468  34.266  36.487  1.00  0.00     0.031 C 
ATOM     44  C   UNL A   1      38.148  30.715  30.588  1.00  0.00     0.029 A 
ATOM     45  C   UNL A   1      39.272  30.394  31.464  1.00  0.00     0.049 A 
ATOM     46  H   UNL A   1      39.716  31.235  33.315  1.00  0.00     0.167 HD
ATOM     47  C   UNL A   1      40.508  33.062  37.213  1.00  0.00     0.037 A 
ATOM     48  C   UNL A   1      40.225  29.478  31.212  1.00  0.00     0.037 A 
ATOM     49  C   UNL A   1      41.539  32.071  37.053  1.00  0.00     0.049 A 
ATOM     50  C   UNL A   1      41.303  29.233  32.233  1.00  0.00     0.074 A 
ATOM     51  C   UNL A   1      42.563  31.740  37.922  1.00  0.00     0.029 A 
ATOM     52  N   UNL A   1      41.671  31.246  35.947  1.00  0.00    -0.354 N 
ATOM     53  N   UNL A   1      41.483  29.803  33.399  1.00  0.00    -0.248 NA
ATOM     54  C   UNL A   1      42.302  28.207  31.904  1.00  0.00     0.031 C 
ATOM     55  C   UNL A   1      43.332  30.731  37.329  1.00  0.00     0.029 A 
ATOM     56  C   UNL A   1      42.764  30.409  36.107  1.00  0.00     0.049 A 
ATOM     57  H   UNL A   1      41.077  31.253  35.162  1.00  0.00     0.167 HD
ATOM     58  C   UNL A   1      42.591  29.180  33.960  1.00  0.00     0.074 A 
ATOM     59  C   UNL A   1      43.038  28.185  33.007  1.00  0.00     0.031 C 
ATOM     60  C   UNL A   1      43.181  29.410  35.158  1.00  0.00     0.037 A 
BRANCH  47  61
ATOM     61  C   UNL A   1      40.507  33.903  38.456  1.00  0.00     0.064 A 
ATOM     62  C   UNL A   1      39.739  33.552  39.578  1.00  0.00     0.173 A 
ATOM     63  C   UNL A   1      41.285  35.067  38.531  1.00  0.00     0.173 A 
ATOM     64  F   UNL A   1      38.967  32.456  39.551  1.00  0.00    -0.203 F 
ATOM     65  C   UNL A   1      39.722  34.356  40.715  1.00  0.00     0.198 A 
ATOM     66  C   UNL A   1      41.288  35.853  39.681  1.00  0.00     0.198 A 
ATOM     67  F   UNL A   1      42.040  35.445  37.490  1.00  0.00    -0.203 F 
ATOM     68  F   UNL A   1      38.936  34.031  41.751  1.00  0.00    -0.200 F 
ATOM     69  C   UNL A   1      40.499  35.502  40.768  1.00  0.00     0.200 A 
ATOM     70  F   UNL A   1      42.046  36.957  39.736  1.00  0.00    -0.200 F 
ATOM     71  F   UNL A   1      40.479  36.277  41.860  1.00  0.00    -0.200 F 
ENDBRANCH  47  61
BRANCH  48  72
ATOM     72  C   UNL A   1      40.167  28.673  29.965  1.00  0.00     0.064 A 
ATOM     73  C   UNL A   1      39.507  27.436  29.945  1.00  0.00     0.173 A 
ATOM     74  C   UNL A   1      40.760  29.118  28.776  1.00  0.00     0.173 A 
ATOM     75  F   UNL A   1      38.943  26.962  31.065  1.00  0.00    -0.203 F 
ATOM     76  C   UNL A   1      39.459  26.665  28.786  1.00  0.00     0.198 A 
ATOM     77  C   UNL A   1      40.691  28.357  27.612  1.00  0.00     0.198 A 
ATOM     78  F   UNL A   1      41.398  30.297  28.744  1.00  0.00    -0.203 F 
ATOM     79  F   UNL A   1      38.856  25.469  28.805  1.00  0.00    -0.200 F 
ATOM     80  C   UNL A   1      40.047  27.128  27.619  1.00  0.00     0.200 A 
ATOM     81  F   UNL A   1      41.251  28.812  26.482  1.00  0.00    -0.200 F 
ATOM     82  F   UNL A   1      39.998  26.388  26.503  1.00  0.00    -0.200 F 
ENDBRANCH  48  72
BRANCH  60  83
ATOM     83  C   UNL A   1      44.341  28.535  35.528  1.00  0.00     0.064 A 
ATOM     84  C   UNL A   1      45.658  28.871  35.184  1.00  0.00     0.173 A 
ATOM     85  C   UNL A   1      44.132  27.355  36.259  1.00  0.00     0.173 A 
ATOM     86  F   UNL A   1      45.907  29.981  34.471  1.00  0.00    -0.203 F 
ATOM     87  C   UNL A   1      46.722  28.043  35.535  1.00  0.00     0.198 A 
ATOM     88  C   UNL A   1      45.200  26.545  36.631  1.00  0.00     0.198 A 
ATOM     89  F   UNL A   1      42.891  26.994  36.617  1.00  0.00    -0.203 F 
ATOM     90  F   UNL A   1      47.968  28.359  35.156  1.00  0.00    -0.200 F 
ATOM     91  C   UNL A   1      46.493  26.885  36.263  1.00  0.00     0.200 A 
ATOM     92  F   UNL A   1      44.978  25.430  37.341  1.00  0.00    -0.200 F 
ATOM     93  F   UNL A   1      47.517  26.090  36.601  1.00  0.00    -0.200 F 
ENDBRANCH  60  83
ENDBRANCH  34  35
ENDBRANCH  26  29
ENDBRANCH  24  25
ENDBRANCH  23  24
ENDBRANCH  22  23
ENDBRANCH   1  22
TORSDOF 16
ENDMDL
MODEL 2
REMARK VINA RESULT:     -10.4      2.756      5.305
REMARK SMILES CC(C)NC(=O)C[N@@H+]1CCC[C@H]1C(=O)NCCCCCCNC(=O)c1ccc(-c2c3nc(c(-c4c(F)c(F)c(F)c(F)c4F)c4ccc([nH]4)c(-c4c(F)c(F)c(F)c(F)c4F)c4nc(c(-c5c(F)c(F)c(F)c(F)c5F)c5ccc2[nH]5)C=C4)C=C3)cc1
REMARK SMILES IDX 18 1 17 2 16 3 15 4 13 5 14 6 12 8 8 9 9 10 10 12 11 13 7 14
REMARK SMILES IDX 5 15 4 16 6 18 2 19 1 20 3 21 19 22 20 23 21 24 22 25 23 26
REMARK SMILES IDX 24 28 25 29 26 30 87 31 27 32 86 33 28 34 29 35 30 36 80 37
REMARK SMILES IDX 31 38 85 39 79 40 81 41 32 42 84 43 78 44 77 45 33 47 65 48
REMARK SMILES IDX 45 49 64 50 46 51 49 52 63 53 82 54 47 55 48 56 62 58 83 59
REMARK SMILES IDX 50 60 34 61 35 62 43 63 36 64 37 65 41 66 44 67 38 68 39 69
REMARK SMILES IDX 42 70 40 71 66 72 67 73 75 74 68 75 69 76 73 77 76 78 70 79
REMARK SMILES IDX 71 80 74 81 72 82 51 83 52 84 60 85 53 86 54 87 58 88 61 89
REMARK SMILES IDX 55 90 56 91 59 92 57 93
REMARK H PARENT 15 7 8 11 4 17 22 27 81 46 49 57
REMARK Flexibility Score: inf
ROOT
ATOM      1  C   UNL A   1      30.401  26.750  24.712  1.00  0.00     0.002 C 
ENDROOT
BRANCH   1   2
ATOM      2  C   UNL A   1      30.662  26.168  23.316  1.00  0.00     0.021 C 
BRANCH   2   3
ATOM      3  C   UNL A   1      30.707  24.639  23.267  1.00  0.00     0.116 C 
BRANCH   3   4
ATOM      4  N   UNL A   1      31.733  24.172  22.354  1.00  0.00    -0.351 N 
ATOM      5  C   UNL A   1      33.002  23.721  22.591  1.00  0.00     0.278 C 
ATOM      6  O   UNL A   1      33.675  23.421  21.601  1.00  0.00    -0.268 OA
ATOM      7  H   UNL A   1      31.471  24.181  21.405  1.00  0.00     0.163 HD
BRANCH   5   8
ATOM      8  C   UNL A   1      33.491  23.525  24.047  1.00  0.00     0.274 C 
ATOM      9  N   UNL A   1      34.588  22.501  24.099  1.00  0.00    -0.317 N 
ATOM     10  C   UNL A   1      35.813  23.233  24.438  1.00  0.00     0.263 C 
ATOM     11  H   UNL A   1      34.737  22.023  23.211  1.00  0.00     0.349 HD
ATOM     12  C   UNL A   1      35.365  24.350  25.342  1.00  0.00     0.068 C 
ATOM     13  C   UNL A   1      34.079  24.793  24.679  1.00  0.00     0.081 C 
BRANCH   9  14
ATOM     14  C   UNL A   1      34.226  21.416  25.039  1.00  0.00     0.364 C 
BRANCH  14  15
ATOM     15  C   UNL A   1      35.155  20.200  25.001  1.00  0.00     0.275 C 
ATOM     16  N   UNL A   1      34.689  18.957  24.705  1.00  0.00    -0.349 N 
ATOM     17  H   UNL A   1      35.357  18.235  24.766  1.00  0.00     0.163 HD
ATOM     18  O   UNL A   1      36.357  20.323  25.261  1.00  0.00    -0.268 OA
BRANCH  16  19
ATOM     19  C   UNL A   1      33.351  18.533  24.312  1.00  0.00     0.076 C 
ATOM     20  C   UNL A   1      33.442  17.392  23.300  1.00  0.00     0.030 C 
ATOM     21  C   UNL A   1      32.588  18.074  25.552  1.00  0.00     0.030 C 
ENDBRANCH  16  19
ENDBRANCH  14  15
ENDBRANCH   9  14
ENDBRANCH   5   8
ENDBRANCH   3   4
ENDBRANCH   2   3
ENDBRANCH   1   2
BRANCH   1  22
ATOM     22  C   UNL A   1      31.045  28.114  24.983  1.00  0.00     0.002 C 
BRANCH  22  23
ATOM     23  C   UNL A   1      32.417  28.068  25.660  1.00  0.00     0.021 C 
BRANCH  23  24
ATOM     24  C   UNL A   1      33.350  29.224  25.311  1.00  0.00     0.116 C 
BRANCH  24  25
ATOM     25  N   UNL A   1      32.853  30.503  25.787  1.00  0.00    -0.352 N 
ATOM     26  C   UNL A   1      33.245  31.251  26.867  1.00  0.00     0.251 C 
ATOM     27  H   UNL A   1      32.122  30.891  25.253  1.00  0.00     0.163 HD
ATOM     28  O   UNL A   1      32.587  32.239  27.191  1.00  0.00    -0.269 OA
BRANCH  26  29
ATOM     29  C   UNL A   1      34.439  30.881  27.659  1.00  0.00     0.039 A 
ATOM     30  C   UNL A   1      35.496  31.794  27.735  1.00  0.00     0.014 A 
ATOM     31  C   UNL A   1      34.558  29.628  28.268  1.00  0.00     0.014 A 
ATOM     32  C   UNL A   1      36.656  31.465  28.439  1.00  0.00     0.010 A 
ATOM     33  C   UNL A   1      35.690  29.324  29.024  1.00  0.00     0.010 A 
ATOM     34  C   UNL A   1      36.759  30.230  29.098  1.00  0.00    -0.014 A 
BRANCH  34  35
ATOM     35  C   UNL A   1      38.002  29.855  29.816  1.00  0.00     0.031 A 
ATOM     36  C   UNL A   1      38.261  30.384  31.201  1.00  0.00     0.074 A 
ATOM     37  C   UNL A   1      38.908  29.057  29.221  1.00  0.00     0.049 A 
ATOM     38  N   UNL A   1      39.286  30.179  31.990  1.00  0.00    -0.248 NA
ATOM     39  C   UNL A   1      37.242  31.283  31.764  1.00  0.00     0.031 C 
ATOM     40  C   UNL A   1      38.792  28.507  27.870  1.00  0.00     0.029 A 
ATOM     41  N   UNL A   1      40.106  28.568  29.680  1.00  0.00    -0.354 N 
ATOM     42  C   UNL A   1      39.040  30.932  33.131  1.00  0.00     0.074 A 
ATOM     43  C   UNL A   1      37.797  31.640  32.911  1.00  0.00     0.031 C 
ATOM     44  C   UNL A   1      39.857  27.728  27.622  1.00  0.00     0.029 A 
ATOM     45  C   UNL A   1      40.741  27.743  28.785  1.00  0.00     0.049 A 
ATOM     46  H   UNL A   1      40.474  28.787  30.566  1.00  0.00     0.167 HD
ATOM     47  C   UNL A   1      39.768  31.006  34.272  1.00  0.00     0.037 A 
ATOM     48  C   UNL A   1      41.898  27.065  28.899  1.00  0.00     0.037 A 
ATOM     49  C   UNL A   1      40.989  30.281  34.503  1.00  0.00     0.049 A 
ATOM     50  C   UNL A   1      42.683  27.152  30.179  1.00  0.00     0.074 A 
ATOM     51  C   UNL A   1      41.784  30.261  35.635  1.00  0.00     0.029 A 
ATOM     52  N   UNL A   1      41.589  29.439  33.579  1.00  0.00    -0.354 N 
ATOM     53  N   UNL A   1      42.413  27.825  31.271  1.00  0.00    -0.248 NA
ATOM     54  C   UNL A   1      43.927  26.374  30.245  1.00  0.00     0.031 C 
ATOM     55  C   UNL A   1      42.880  29.427  35.387  1.00  0.00     0.029 A 
ATOM     56  C   UNL A   1      42.748  28.899  34.113  1.00  0.00     0.049 A 
ATOM     57  H   UNL A   1      41.244  29.252  32.676  1.00  0.00     0.167 HD
ATOM     58  C   UNL A   1      43.431  27.522  32.166  1.00  0.00     0.074 A 
ATOM     59  C   UNL A   1      44.321  26.601  31.490  1.00  0.00     0.031 C 
ATOM     60  C   UNL A   1      43.610  27.966  33.434  1.00  0.00     0.037 A 
BRANCH  47  61
ATOM     61  C   UNL A   1      39.251  31.904  35.357  1.00  0.00     0.064 A 
ATOM     62  C   UNL A   1      39.536  33.280  35.369  1.00  0.00     0.173 A 
ATOM     63  C   UNL A   1      38.460  31.390  36.394  1.00  0.00     0.173 A 
ATOM     64  F   UNL A   1      40.301  33.818  34.407  1.00  0.00    -0.203 F 
ATOM     65  C   UNL A   1      39.077  34.098  36.397  1.00  0.00     0.198 A 
ATOM     66  C   UNL A   1      37.978  32.217  37.406  1.00  0.00     0.198 A 
ATOM     67  F   UNL A   1      38.154  30.085  36.429  1.00  0.00    -0.203 F 
ATOM     68  F   UNL A   1      39.410  35.396  36.417  1.00  0.00    -0.200 F 
ATOM     69  C   UNL A   1      38.295  33.568  37.412  1.00  0.00     0.200 A 
ATOM     70  F   UNL A   1      37.215  31.706  38.382  1.00  0.00    -0.200 F 
ATOM     71  F   UNL A   1      37.858  34.356  38.403  1.00  0.00    -0.200 F 
ENDBRANCH  47  61
BRANCH  48  72
ATOM     72  C   UNL A   1      42.353  26.188  27.791  1.00  0.00     0.064 A 
ATOM     73  C   UNL A   1      43.313  26.639  26.873  1.00  0.00     0.173 A 
ATOM     74  C   UNL A   1      41.847  24.892  27.625  1.00  0.00     0.173 A 
ATOM     75  F   UNL A   1      43.809  27.879  26.981  1.00  0.00    -0.203 F 
ATOM     76  C   UNL A   1      43.736  25.831  25.820  1.00  0.00     0.198 A 
ATOM     77  C   UNL A   1      42.288  24.077  26.585  1.00  0.00     0.198 A 
ATOM     78  F   UNL A   1      40.930  24.414  28.479  1.00  0.00    -0.203 F 
ATOM     79  F   UNL A   1      44.626  26.301  24.935  1.00  0.00    -0.200 F 
ATOM     80  C   UNL A   1      43.228  24.550  25.680  1.00  0.00     0.200 A 
ATOM     81  F   UNL A   1      41.803  22.834  26.458  1.00  0.00    -0.200 F 
ATOM     82  F   UNL A   1      43.637  23.771  24.668  1.00  0.00    -0.200 F 
ENDBRANCH  48  72
BRANCH  60  83
ATOM     83  C   UNL A   1      44.783  27.419  34.191  1.00  0.00     0.064 A 
ATOM     84  C   UNL A   1      44.690  26.240  34.944  1.00  0.00     0.173 A 
ATOM     85  C   UNL A   1      46.025  28.072  34.140  1.00  0.00     0.173 A 
ATOM     86  F   UNL A   1      43.520  25.589  35.037  1.00  0.00    -0.203 F 
ATOM     87  C   UNL A   1      45.790  25.749  35.643  1.00  0.00     0.198 A 
ATOM     88  C   UNL A   1      47.129  27.563  34.818  1.00  0.00     0.198 A 
ATOM     89  F   UNL A   1      46.166  29.199  33.428  1.00  0.00    -0.203 F 
ATOM     90  F   UNL A   1      45.667  24.647  36.395  1.00  0.00    -0.200 F 
ATOM     91  C   UNL A   1      47.009  26.407  35.574  1.00  0.00     0.200 A 
ATOM     92  F   UNL A   1      48.308  28.196  34.743  1.00  0.00    -0.200 F 
ATOM     93  F   UNL A   1      48.068  25.933  36.246  1.00  0.00    -0.200 F 
ENDBRANCH  60  83
ENDBRANCH  34  35
ENDBRANCH  26  29
ENDBRANCH  24  25
ENDBRANCH  23  24
ENDBRANCH  22  23
ENDBRANCH   1  22
TORSDOF 16
ENDMDL
MODEL 3
REMARK VINA RESULT:     -10.3      1.009      2.357
REMARK SMILES CC(C)NC(=O)C[N@@H+]1CCC[C@H]1C(=O)NCCCCCCNC(=O)c1ccc(-c2c3nc(c(-c4c(F)c(F)c(F)c(F)c4F)c4ccc([nH]4)c(-c4c(F)c(F)c(F)c(F)c4F)c4nc(c(-c5c(F)c(F)c(F)c(F)c5F)c5ccc2[nH]5)C=C4)C=C3)cc1
REMARK SMILES IDX 18 1 17 2 16 3 15 4 13 5 14 6 12 8 8 9 9 10 10 12 11 13 7 14
REMARK SMILES IDX 5 15 4 16 6 18 2 19 1 20 3 21 19 22 20 23 21 24 22 25 23 26
REMARK SMILES IDX 24 28 25 29 26 30 87 31 27 32 86 33 28 34 29 35 30 36 80 37
REMARK SMILES IDX 31 38 85 39 79 40 81 41 32 42 84 43 78 44 77 45 33 47 65 48
REMARK SMILES IDX 45 49 64 50 46 51 49 52 63 53 82 54 47 55 48 56 62 58 83 59
REMARK SMILES IDX 50 60 34 61 35 62 43 63 36 64 37 65 41 66 44 67 38 68 39 69
REMARK SMILES IDX 42 70 40 71 66 72 67 73 75 74 68 75 69 76 73 77 76 78 70 79
REMARK SMILES IDX 71 80 74 81 72 82 51 83 52 84 60 85 53 86 54 87 58 88 61 89
REMARK SMILES IDX 55 90 56 91 59 92 57 93
REMARK H PARENT 15 7 8 11 4 17 22 27 81 46 49 57
REMARK Flexibility Score: inf
ROOT
ATOM      1  C   UNL A   1      34.455  32.090  28.858  1.00  0.00     0.002 C 
ENDROOT
BRANCH   1   2
ATOM      2  C   UNL A   1      35.141  31.255  27.769  1.00  0.00     0.021 C 
BRANCH   2   3
ATOM      3  C   UNL A   1      34.408  29.960  27.410  1.00  0.00     0.116 C 
BRANCH   3   4
ATOM      4  N   UNL A   1      33.126  30.236  26.791  1.00  0.00    -0.351 N 
ATOM      5  C   UNL A   1      32.525  29.684  25.693  1.00  0.00     0.278 C 
ATOM      6  O   UNL A   1      31.430  30.150  25.370  1.00  0.00    -0.268 OA
ATOM      7  H   UNL A   1      32.599  30.938  27.236  1.00  0.00     0.163 HD
BRANCH   5   8
ATOM      8  C   UNL A   1      33.182  28.475  24.982  1.00  0.00     0.274 C 
ATOM      9  N   UNL A   1      32.135  27.497  24.533  1.00  0.00    -0.317 N 
ATOM     10  C   UNL A   1      32.117  27.563  23.068  1.00  0.00     0.263 C 
ATOM     11  H   UNL A   1      31.201  27.720  24.875  1.00  0.00     0.349 HD
ATOM     12  C   UNL A   1      33.540  27.845  22.670  1.00  0.00     0.068 C 
ATOM     13  C   UNL A   1      33.966  28.851  23.718  1.00  0.00     0.081 C 
BRANCH   9  14
ATOM     14  C   UNL A   1      32.416  26.158  25.096  1.00  0.00     0.364 C 
BRANCH  14  15
ATOM     15  C   UNL A   1      31.635  25.822  26.369  1.00  0.00     0.275 C 
ATOM     16  N   UNL A   1      31.606  24.560  26.876  1.00  0.00    -0.349 N 
ATOM     17  H   UNL A   1      31.027  24.438  27.663  1.00  0.00     0.163 HD
ATOM     18  O   UNL A   1      30.991  26.698  26.958  1.00  0.00    -0.268 OA
BRANCH  16  19
ATOM     19  C   UNL A   1      32.303  23.361  26.427  1.00  0.00     0.076 C 
ATOM     20  C   UNL A   1      32.882  22.614  27.628  1.00  0.00     0.030 C 
ATOM     21  C   UNL A   1      31.322  22.464  25.675  1.00  0.00     0.030 C 
ENDBRANCH  16  19
ENDBRANCH  14  15
ENDBRANCH   9  14
ENDBRANCH   5   8
ENDBRANCH   3   4
ENDBRANCH   2   3
ENDBRANCH   1   2
BRANCH   1  22
ATOM     22  C   UNL A   1      34.584  33.609  28.697  1.00  0.00     0.002 C 
BRANCH  22  23
ATOM     23  C   UNL A   1      33.265  34.386  28.727  1.00  0.00     0.021 C 
BRANCH  23  24
ATOM     24  C   UNL A   1      33.375  35.827  29.218  1.00  0.00     0.116 C 
BRANCH  24  25
ATOM     25  N   UNL A   1      32.545  36.082  30.383  1.00  0.00    -0.352 N 
ATOM     26  C   UNL A   1      32.683  35.642  31.673  1.00  0.00     0.251 C 
ATOM     27  H   UNL A   1      31.764  36.658  30.219  1.00  0.00     0.163 HD
ATOM     28  O   UNL A   1      31.780  35.846  32.484  1.00  0.00    -0.269 OA
BRANCH  26  29
ATOM     29  C   UNL A   1      33.897  34.912  32.105  1.00  0.00     0.039 A 
ATOM     30  C   UNL A   1      35.112  35.604  32.140  1.00  0.00     0.014 A 
ATOM     31  C   UNL A   1      33.864  33.548  32.411  1.00  0.00     0.014 A 
ATOM     32  C   UNL A   1      36.285  34.939  32.503  1.00  0.00     0.010 A 
ATOM     33  C   UNL A   1      35.024  32.900  32.835  1.00  0.00     0.010 A 
ATOM     34  C   UNL A   1      36.249  33.583  32.863  1.00  0.00    -0.014 A 
BRANCH  34  35
ATOM     35  C   UNL A   1      37.496  32.858  33.214  1.00  0.00     0.031 A 
ATOM     36  C   UNL A   1      38.178  33.125  34.527  1.00  0.00     0.074 A 
ATOM     37  C   UNL A   1      38.027  31.976  32.347  1.00  0.00     0.049 A 
ATOM     38  N   UNL A   1      39.275  32.601  35.015  1.00  0.00    -0.248 NA
ATOM     39  C   UNL A   1      37.556  34.133  35.400  1.00  0.00     0.031 C 
ATOM     40  C   UNL A   1      37.482  31.654  31.028  1.00  0.00     0.029 A 
ATOM     41  N   UNL A   1      39.145  31.186  32.449  1.00  0.00    -0.354 N 
ATOM     42  C   UNL A   1      39.479  33.224  36.239  1.00  0.00     0.074 A 
ATOM     43  C   UNL A   1      38.425  34.202  36.397  1.00  0.00     0.031 C 
ATOM     44  C   UNL A   1      38.246  30.709  30.457  1.00  0.00     0.029 A 
ATOM     45  C   UNL A   1      39.346  30.376  31.359  1.00  0.00     0.049 A 
ATOM     46  H   UNL A   1      39.745  31.198  33.229  1.00  0.00     0.167 HD
ATOM     47  C   UNL A   1      40.442  32.985  37.163  1.00  0.00     0.037 A 
ATOM     48  C   UNL A   1      40.303  29.460  31.123  1.00  0.00     0.037 A 
ATOM     49  C   UNL A   1      41.474  31.993  37.020  1.00  0.00     0.049 A 
ATOM     50  C   UNL A   1      41.353  29.202  32.168  1.00  0.00     0.074 A 
ATOM     51  C   UNL A   1      42.475  31.650  37.912  1.00  0.00     0.029 A 
ATOM     52  N   UNL A   1      41.632  31.178  35.910  1.00  0.00    -0.354 N 
ATOM     53  N   UNL A   1      41.505  29.760  33.344  1.00  0.00    -0.248 NA
ATOM     54  C   UNL A   1      42.358  28.176  31.855  1.00  0.00     0.031 C 
ATOM     55  C   UNL A   1      43.256  30.645  37.329  1.00  0.00     0.029 A 
ATOM     56  C   UNL A   1      42.718  30.337  36.090  1.00  0.00     0.049 A 
ATOM     57  H   UNL A   1      41.058  31.195  35.110  1.00  0.00     0.167 HD
ATOM     58  C   UNL A   1      42.596  29.128  33.927  1.00  0.00     0.074 A 
ATOM     59  C   UNL A   1      43.065  28.141  32.977  1.00  0.00     0.031 C 
ATOM     60  C   UNL A   1      43.157  29.345  35.142  1.00  0.00     0.037 A 
BRANCH  47  61
ATOM     61  C   UNL A   1      40.412  33.814  38.414  1.00  0.00     0.064 A 
ATOM     62  C   UNL A   1      41.184  34.982  38.538  1.00  0.00     0.173 A 
ATOM     63  C   UNL A   1      39.602  33.445  39.497  1.00  0.00     0.173 A 
ATOM     64  F   UNL A   1      41.986  35.369  37.536  1.00  0.00    -0.203 F 
ATOM     65  C   UNL A   1      41.173  35.726  39.714  1.00  0.00     0.198 A 
ATOM     66  C   UNL A   1      39.572  34.208  40.662  1.00  0.00     0.198 A 
ATOM     67  F   UNL A   1      38.843  32.342  39.429  1.00  0.00    -0.203 F 
ATOM     68  F   UNL A   1      41.961  36.803  39.831  1.00  0.00    -0.200 F 
ATOM     69  C   UNL A   1      40.364  35.342  40.773  1.00  0.00     0.200 A 
ATOM     70  F   UNL A   1      38.783  33.843  41.682  1.00  0.00    -0.200 F 
ATOM     71  F   UNL A   1      40.357  36.057  41.906  1.00  0.00    -0.200 F 
ENDBRANCH  47  61
BRANCH  48  72
ATOM     72  C   UNL A   1      40.274  28.667  29.867  1.00  0.00     0.064 A 
ATOM     73  C   UNL A   1      40.955  29.115  28.726  1.00  0.00     0.173 A 
ATOM     74  C   UNL A   1      39.575  27.456  29.780  1.00  0.00     0.173 A 
ATOM     75  F   UNL A   1      41.620  30.278  28.758  1.00  0.00    -0.203 F 
ATOM     76  C   UNL A   1      40.922  28.387  27.538  1.00  0.00     0.198 A 
ATOM     77  C   UNL A   1      39.562  26.719  28.598  1.00  0.00     0.198 A 
ATOM     78  F   UNL A   1      38.912  26.985  30.846  1.00  0.00    -0.203 F 
ATOM     79  F   UNL A   1      41.550  28.857  26.452  1.00  0.00    -0.200 F 
ATOM     80  C   UNL A   1      40.230  27.188  27.477  1.00  0.00     0.200 A 
ATOM     81  F   UNL A   1      38.901  25.554  28.544  1.00  0.00    -0.200 F 
ATOM     82  F   UNL A   1      40.201  26.487  26.334  1.00  0.00    -0.200 F 
ENDBRANCH  48  72
BRANCH  60  83
ATOM     83  C   UNL A   1      44.304  28.463  35.533  1.00  0.00     0.064 A 
ATOM     84  C   UNL A   1      44.105  27.242  36.193  1.00  0.00     0.173 A 
ATOM     85  C   UNL A   1      45.621  28.835  35.219  1.00  0.00     0.173 A 
ATOM     86  F   UNL A   1      42.866  26.852  36.529  1.00  0.00    -0.203 F 
ATOM     87  C   UNL A   1      45.185  26.438  36.551  1.00  0.00     0.198 A 
ATOM     88  C   UNL A   1      46.695  28.016  35.555  1.00  0.00     0.198 A 
ATOM     89  F   UNL A   1      45.863  29.990  34.583  1.00  0.00    -0.203 F 
ATOM     90  F   UNL A   1      44.975  25.298  37.223  1.00  0.00    -0.200 F 
ATOM     91  C   UNL A   1      46.477  26.823  36.226  1.00  0.00     0.200 A 
ATOM     92  F   UNL A   1      47.942  28.385  35.232  1.00  0.00    -0.200 F 
ATOM     93  F   UNL A   1      47.515  26.047  36.569  1.00  0.00    -0.200 F 
ENDBRANCH  60  83
ENDBRANCH  34  35
ENDBRANCH  26  29
ENDBRANCH  24  25
ENDBRANCH  23  24
ENDBRANCH  22  23
ENDBRANCH   1  22
TORSDOF 16
ENDMDL
