MODEL 1
REMARK VINA RESULT:     -12.7      0.000      0.000
REMARK SMILES Cc1n[nH]c(C)c1C(=O)N1CC(n2cc(C(=O)NCCCCCCNC(=O)c3ccc(-c4c5nc(c(-c6c(F)c(F)c(F)c(F)c6F)c6ccc([nH]6)c(-c6c(F)c(F)c(F)c(F)c6F)c6nc(c(-c7c(F)c(F)c(F)c(F)c7F)c7ccc4[nH]7)C=C6)C=C5)cc3)nn2)C1
REMARK SMILES IDX 21 1 20 2 19 3 18 4 16 5 17 6 15 8 13 9 14 10 92 11 91 12
REMARK SMILES IDX 12 13 8 14 9 15 10 16 11 17 93 18 7 19 1 20 2 21 3 22 4 23
REMARK SMILES IDX 5 24 6 26 22 27 23 28 24 29 25 30 26 31 27 33 28 34 29 35
REMARK SMILES IDX 90 36 30 37 89 38 31 39 32 40 33 41 83 42 34 43 88 44 82 45
REMARK SMILES IDX 84 46 35 47 87 48 81 49 80 50 36 52 68 53 48 54 67 55 49 56
REMARK SMILES IDX 52 57 66 58 85 59 50 60 51 61 65 63 86 64 53 65 37 66 38 67
REMARK SMILES IDX 46 68 39 69 40 70 44 71 47 72 41 73 42 74 45 75 43 76 69 77
REMARK SMILES IDX 70 78 78 79 71 80 72 81 76 82 79 83 73 84 74 85 77 86 75 87
REMARK SMILES IDX 54 88 55 89 63 90 56 91 57 92 61 93 64 94 58 95 59 96 62 97
REMARK SMILES IDX 60 98
REMARK H PARENT 18 7 4 25 25 32 84 51 52 62
REMARK Flexibility Score: inf
ROOT
ATOM      1  C   UNL A   1      40.032  21.228  26.626  1.00  0.00     0.002 C 
ENDROOT
BRANCH   1   2
ATOM      2  C   UNL A   1      39.306  22.574  26.496  1.00  0.00     0.021 C 
BRANCH   2   3
ATOM      3  C   UNL A   1      38.008  22.505  25.691  1.00  0.00     0.116 C 
BRANCH   3   4
ATOM      4  N   UNL A   1      37.684  21.137  25.346  1.00  0.00    -0.351 N 
ATOM      5  C   UNL A   1      36.485  20.493  25.155  1.00  0.00     0.273 C 
ATOM      6  O   UNL A   1      36.546  19.333  24.744  1.00  0.00    -0.267 OA
ATOM      7  H   UNL A   1      38.472  20.559  25.224  1.00  0.00     0.163 HD
BRANCH   5   8
ATOM      8  C   UNL A   1      35.206  21.158  25.382  1.00  0.00     0.170 A 
ATOM      9  N   UNL A   1      33.530  22.436  25.918  1.00  0.00    -0.245 N 
ATOM     10  C   UNL A   1      34.846  22.204  26.213  1.00  0.00     0.145 A 
ATOM     11  N   UNL A   1      33.070  21.549  25.028  1.00  0.00    -0.066 NA
ATOM     12  N   UNL A   1      34.072  20.740  24.717  1.00  0.00    -0.125 NA
BRANCH   9  13
ATOM     13  C   UNL A   1      32.782  23.553  26.415  1.00  0.00     0.148 C 
ATOM     14  C   UNL A   1      31.463  26.441  26.013  1.00  0.00     0.257 C 
ATOM     15  O   UNL A   1      30.620  26.365  26.904  1.00  0.00    -0.269 OA
ATOM     16  N   UNL A   1      32.105  25.317  25.530  1.00  0.00    -0.334 N 
ATOM     17  C   UNL A   1      31.557  23.953  25.595  1.00  0.00     0.149 C 
ATOM     18  C   UNL A   1      33.431  24.874  25.973  1.00  0.00     0.149 C 
BRANCH  14  19
ATOM     19  C   UNL A   1      31.804  27.705  25.362  1.00  0.00     0.083 A 
ATOM     20  C   UNL A   1      33.804  28.461  26.888  1.00  0.00     0.069 C 
ATOM     21  C   UNL A   1      32.844  28.604  25.763  1.00  0.00     0.072 A 
ATOM     22  N   UNL A   1      32.889  29.699  24.996  1.00  0.00    -0.180 NA
ATOM     23  N   UNL A   1      31.882  29.536  24.136  1.00  0.00    -0.282 N 
ATOM     24  C   UNL A   1      31.203  28.358  24.290  1.00  0.00     0.045 A 
ATOM     25  H   UNL A   1      31.650  30.203  23.451  1.00  0.00     0.190 HD
ATOM     26  C   UNL A   1      30.061  28.039  23.400  1.00  0.00     0.067 C 
ENDBRANCH  14  19
ENDBRANCH   9  13
ENDBRANCH   5   8
ENDBRANCH   3   4
ENDBRANCH   2   3
ENDBRANCH   1   2
BRANCH   1  27
ATOM     27  C   UNL A   1      41.280  21.221  27.526  1.00  0.00     0.002 C 
BRANCH  27  28
ATOM     28  C   UNL A   1      42.362  20.184  27.189  1.00  0.00     0.021 C 
BRANCH  28  29
ATOM     29  C   UNL A   1      42.282  19.645  25.769  1.00  0.00     0.116 C 
BRANCH  29  30
ATOM     30  N   UNL A   1      43.599  19.418  25.185  1.00  0.00    -0.352 N 
ATOM     31  C   UNL A   1      44.516  20.349  24.734  1.00  0.00     0.251 C 
ATOM     32  H   UNL A   1      43.873  18.476  25.099  1.00  0.00     0.163 HD
ATOM     33  O   UNL A   1      45.390  20.038  23.943  1.00  0.00    -0.269 OA
BRANCH  31  34
ATOM     34  C   UNL A   1      44.416  21.737  25.224  1.00  0.00     0.039 A 
ATOM     35  C   UNL A   1      43.446  22.605  24.718  1.00  0.00     0.014 A 
ATOM     36  C   UNL A   1      45.301  22.157  26.212  1.00  0.00     0.014 A 
ATOM     37  C   UNL A   1      43.323  23.873  25.281  1.00  0.00     0.010 A 
ATOM     38  C   UNL A   1      45.080  23.343  26.868  1.00  0.00     0.010 A 
ATOM     39  C   UNL A   1      44.128  24.227  26.377  1.00  0.00    -0.014 A 
BRANCH  39  40
ATOM     40  C   UNL A   1      43.888  25.476  27.094  1.00  0.00     0.031 A 
ATOM     41  C   UNL A   1      44.826  26.575  26.741  1.00  0.00     0.074 A 
ATOM     42  C   UNL A   1      42.798  25.705  27.859  1.00  0.00     0.049 A 
ATOM     43  N   UNL A   1      45.702  27.132  27.510  1.00  0.00    -0.248 NA
ATOM     44  C   UNL A   1      44.892  27.026  25.341  1.00  0.00     0.031 C 
ATOM     45  C   UNL A   1      41.628  24.845  28.062  1.00  0.00     0.029 A 
ATOM     46  N   UNL A   1      42.458  26.831  28.548  1.00  0.00    -0.354 N 
ATOM     47  C   UNL A   1      46.294  28.140  26.756  1.00  0.00     0.074 A 
ATOM     48  C   UNL A   1      45.888  27.912  25.393  1.00  0.00     0.031 C 
ATOM     49  C   UNL A   1      40.623  25.566  28.605  1.00  0.00     0.029 A 
ATOM     50  C   UNL A   1      41.127  26.884  28.945  1.00  0.00     0.049 A 
ATOM     51  H   UNL A   1      43.102  27.548  28.747  1.00  0.00     0.167 HD
ATOM     52  C   UNL A   1      46.849  29.223  27.366  1.00  0.00     0.037 A 
ATOM     53  C   UNL A   1      40.479  27.947  29.486  1.00  0.00     0.037 A 
ATOM     54  C   UNL A   1      47.113  28.952  28.761  1.00  0.00     0.049 A 
ATOM     55  C   UNL A   1      41.512  28.865  30.023  1.00  0.00     0.074 A 
ATOM     56  C   UNL A   1      47.832  27.986  29.441  1.00  0.00     0.029 A 
ATOM     57  N   UNL A   1      46.284  29.511  29.701  1.00  0.00    -0.354 N 
ATOM     58  N   UNL A   1      42.250  28.597  31.062  1.00  0.00    -0.248 NA
ATOM     59  C   UNL A   1      42.037  29.887  29.129  1.00  0.00     0.031 C 
ATOM     60  C   UNL A   1      47.034  27.669  30.582  1.00  0.00     0.029 A 
ATOM     61  C   UNL A   1      45.926  28.515  30.571  1.00  0.00     0.049 A 
ATOM     62  H   UNL A   1      45.999  30.453  29.742  1.00  0.00     0.167 HD
ATOM     63  C   UNL A   1      43.513  29.051  30.715  1.00  0.00     0.074 A 
ATOM     64  C   UNL A   1      43.301  29.922  29.560  1.00  0.00     0.031 C 
ATOM     65  C   UNL A   1      44.634  28.449  31.207  1.00  0.00     0.037 A 
BRANCH  52  66
ATOM     66  C   UNL A   1      46.758  30.635  26.831  1.00  0.00     0.064 A 
ATOM     67  C   UNL A   1      47.901  31.460  26.897  1.00  0.00     0.173 A 
ATOM     68  C   UNL A   1      45.542  31.308  26.579  1.00  0.00     0.173 A 
ATOM     69  F   UNL A   1      49.111  30.931  27.137  1.00  0.00    -0.203 F 
ATOM     70  C   UNL A   1      47.812  32.853  26.834  1.00  0.00     0.198 A 
ATOM     71  C   UNL A   1      45.466  32.694  26.462  1.00  0.00     0.198 A 
ATOM     72  F   UNL A   1      44.363  30.677  26.552  1.00  0.00    -0.203 F 
ATOM     73  F   UNL A   1      48.903  33.598  27.058  1.00  0.00    -0.200 F 
ATOM     74  C   UNL A   1      46.593  33.469  26.631  1.00  0.00     0.200 A 
ATOM     75  F   UNL A   1      44.271  33.273  26.280  1.00  0.00    -0.200 F 
ATOM     76  F   UNL A   1      46.491  34.805  26.648  1.00  0.00    -0.200 F 
ENDBRANCH  52  66
BRANCH  53  77
ATOM     77  C   UNL A   1      39.061  28.358  29.344  1.00  0.00     0.064 A 
ATOM     78  C   UNL A   1      38.246  28.530  30.476  1.00  0.00     0.173 A 
ATOM     79  C   UNL A   1      38.566  28.879  28.134  1.00  0.00     0.173 A 
ATOM     80  F   UNL A   1      38.657  28.094  31.676  1.00  0.00    -0.203 F 
ATOM     81  C   UNL A   1      37.033  29.222  30.410  1.00  0.00     0.198 A 
ATOM     82  C   UNL A   1      37.350  29.564  28.068  1.00  0.00     0.198 A 
ATOM     83  F   UNL A   1      39.296  28.828  27.010  1.00  0.00    -0.203 F 
ATOM     84  F   UNL A   1      36.322  29.433  31.527  1.00  0.00    -0.200 F 
ATOM     85  C   UNL A   1      36.593  29.752  29.209  1.00  0.00     0.200 A 
ATOM     86  F   UNL A   1      36.954  30.101  26.905  1.00  0.00    -0.200 F 
ATOM     87  F   UNL A   1      35.469  30.478  29.159  1.00  0.00    -0.200 F 
ENDBRANCH  53  77
BRANCH  65  88
ATOM     88  C   UNL A   1      44.474  27.487  32.350  1.00  0.00     0.064 A 
ATOM     89  C   UNL A   1      44.356  27.862  33.700  1.00  0.00     0.173 A 
ATOM     90  C   UNL A   1      44.330  26.126  32.048  1.00  0.00     0.173 A 
ATOM     91  F   UNL A   1      44.369  29.150  34.066  1.00  0.00    -0.203 F 
ATOM     92  C   UNL A   1      44.172  26.911  34.702  1.00  0.00     0.198 A 
ATOM     93  C   UNL A   1      44.105  25.182  33.045  1.00  0.00     0.198 A 
ATOM     94  F   UNL A   1      44.376  25.712  30.772  1.00  0.00    -0.203 F 
ATOM     95  F   UNL A   1      44.096  27.291  35.986  1.00  0.00    -0.200 F 
ATOM     96  C   UNL A   1      44.044  25.572  34.373  1.00  0.00     0.200 A 
ATOM     97  F   UNL A   1      43.931  23.895  32.716  1.00  0.00    -0.200 F 
ATOM     98  F   UNL A   1      43.838  24.658  35.332  1.00  0.00    -0.200 F 
ENDBRANCH  65  88
ENDBRANCH  39  40
ENDBRANCH  31  34
ENDBRANCH  29  30
ENDBRANCH  28  29
ENDBRANCH  27  28
ENDBRANCH   1  27
TORSDOF 15
ENDMDL
MODEL 2
REMARK VINA RESULT:     -12.2      2.543      3.625
REMARK SMILES Cc1n[nH]c(C)c1C(=O)N1CC(n2cc(C(=O)NCCCCCCNC(=O)c3ccc(-c4c5nc(c(-c6c(F)c(F)c(F)c(F)c6F)c6ccc([nH]6)c(-c6c(F)c(F)c(F)c(F)c6F)c6nc(c(-c7c(F)c(F)c(F)c(F)c7F)c7ccc4[nH]7)C=C6)C=C5)cc3)nn2)C1
REMARK SMILES IDX 21 1 20 2 19 3 18 4 16 5 17 6 15 8 13 9 14 10 92 11 91 12
REMARK SMILES IDX 12 13 8 14 9 15 10 16 11 17 93 18 7 19 1 20 2 21 3 22 4 23
REMARK SMILES IDX 5 24 6 26 22 27 23 28 24 29 25 30 26 31 27 33 28 34 29 35
REMARK SMILES IDX 90 36 30 37 89 38 31 39 32 40 33 41 83 42 34 43 88 44 82 45
REMARK SMILES IDX 84 46 35 47 87 48 81 49 80 50 36 52 68 53 48 54 67 55 49 56
REMARK SMILES IDX 52 57 66 58 85 59 50 60 51 61 65 63 86 64 53 65 37 66 38 67
REMARK SMILES IDX 46 68 39 69 40 70 44 71 47 72 41 73 42 74 45 75 43 76 69 77
REMARK SMILES IDX 70 78 78 79 71 80 72 81 76 82 79 83 73 84 74 85 77 86 75 87
REMARK SMILES IDX 54 88 55 89 63 90 56 91 57 92 61 93 64 94 58 95 59 96 62 97
REMARK SMILES IDX 60 98
REMARK H PARENT 18 7 4 25 25 32 84 51 52 62
REMARK Flexibility Score: inf
ROOT
ATOM      1  C   UNL A   1      36.916  22.354  25.357  1.00  0.00     0.002 C 
ENDROOT
BRANCH   1   2
ATOM      2  C   UNL A   1      35.832  21.376  25.831  1.00  0.00     0.021 C 
BRANCH   2   3
ATOM      3  C   UNL A   1      35.470  20.303  24.804  1.00  0.00     0.116 C 
BRANCH   3   4
ATOM      4  N   UNL A   1      34.389  19.469  25.285  1.00  0.00    -0.351 N 
ATOM      5  C   UNL A   1      33.023  19.600  25.218  1.00  0.00     0.273 C 
ATOM      6  O   UNL A   1      32.360  18.644  25.624  1.00  0.00    -0.267 OA
ATOM      7  H   UNL A   1      34.690  18.653  25.746  1.00  0.00     0.163 HD
BRANCH   5   8
ATOM      8  C   UNL A   1      32.388  20.789  24.656  1.00  0.00     0.170 A 
ATOM      9  N   UNL A   1      31.433  22.691  24.214  1.00  0.00    -0.245 N 
ATOM     10  C   UNL A   1      31.717  21.843  25.249  1.00  0.00     0.145 A 
ATOM     11  N   UNL A   1      31.820  22.173  23.043  1.00  0.00    -0.066 NA
ATOM     12  N   UNL A   1      32.374  20.996  23.292  1.00  0.00    -0.125 NA
BRANCH   9  13
ATOM     13  C   UNL A   1      30.894  24.009  24.382  1.00  0.00     0.148 C 
ATOM     14  C   UNL A   1      31.249  27.187  24.484  1.00  0.00     0.257 C 
ATOM     15  O   UNL A   1      30.086  27.494  24.233  1.00  0.00    -0.269 OA
ATOM     16  N   UNL A   1      31.729  25.915  24.239  1.00  0.00    -0.334 N 
ATOM     17  C   UNL A   1      31.165  24.990  23.244  1.00  0.00     0.149 C 
ATOM     18  C   UNL A   1      31.825  24.863  25.256  1.00  0.00     0.149 C 
BRANCH  14  19
ATOM     19  C   UNL A   1      32.219  28.152  25.000  1.00  0.00     0.083 A 
ATOM     20  C   UNL A   1      31.491  28.203  27.523  1.00  0.00     0.069 C 
ATOM     21  C   UNL A   1      32.316  28.605  26.354  1.00  0.00     0.072 A 
ATOM     22  N   UNL A   1      33.279  29.520  26.515  1.00  0.00    -0.180 NA
ATOM     23  N   UNL A   1      33.778  29.684  25.288  1.00  0.00    -0.282 N 
ATOM     24  C   UNL A   1      33.200  28.885  24.339  1.00  0.00     0.045 A 
ATOM     25  H   UNL A   1      34.499  30.323  25.084  1.00  0.00     0.190 HD
ATOM     26  C   UNL A   1      33.658  28.957  22.931  1.00  0.00     0.067 C 
ENDBRANCH  14  19
ENDBRANCH   9  13
ENDBRANCH   5   8
ENDBRANCH   3   4
ENDBRANCH   2   3
ENDBRANCH   1   2
BRANCH   1  27
ATOM     27  C   UNL A   1      38.364  21.982  25.717  1.00  0.00     0.002 C 
BRANCH  27  28
ATOM     28  C   UNL A   1      39.141  22.996  26.570  1.00  0.00     0.021 C 
BRANCH  28  29
ATOM     29  C   UNL A   1      40.349  22.406  27.283  1.00  0.00     0.116 C 
BRANCH  29  30
ATOM     30  N   UNL A   1      41.494  22.240  26.394  1.00  0.00    -0.352 N 
ATOM     31  C   UNL A   1      42.262  23.213  25.783  1.00  0.00     0.251 C 
ATOM     32  H   UNL A   1      41.755  21.310  26.202  1.00  0.00     0.163 HD
ATOM     33  O   UNL A   1      42.928  22.959  24.794  1.00  0.00    -0.269 OA
BRANCH  31  34
ATOM     34  C   UNL A   1      42.259  24.576  26.346  1.00  0.00     0.039 A 
ATOM     35  C   UNL A   1      41.557  25.607  25.719  1.00  0.00     0.014 A 
ATOM     36  C   UNL A   1      42.959  24.808  27.527  1.00  0.00     0.014 A 
ATOM     37  C   UNL A   1      41.497  26.852  26.340  1.00  0.00     0.010 A 
ATOM     38  C   UNL A   1      42.773  25.983  28.212  1.00  0.00     0.010 A 
ATOM     39  C   UNL A   1      42.087  27.026  27.603  1.00  0.00    -0.014 A 
BRANCH  39  40
ATOM     40  C   UNL A   1      41.878  28.265  28.348  1.00  0.00     0.031 A 
ATOM     41  C   UNL A   1      42.909  29.309  28.102  1.00  0.00     0.074 A 
ATOM     42  C   UNL A   1      40.755  28.541  29.046  1.00  0.00     0.049 A 
ATOM     43  N   UNL A   1      43.763  29.780  28.949  1.00  0.00    -0.248 NA
ATOM     44  C   UNL A   1      43.102  29.801  26.727  1.00  0.00     0.031 C 
ATOM     45  C   UNL A   1      39.520  27.755  29.137  1.00  0.00     0.029 A 
ATOM     46  N   UNL A   1      40.441  29.664  29.752  1.00  0.00    -0.354 N 
ATOM     47  C   UNL A   1      44.470  30.770  28.275  1.00  0.00     0.074 A 
ATOM     48  C   UNL A   1      44.148  30.616  26.880  1.00  0.00     0.031 C 
ATOM     49  C   UNL A   1      38.529  28.525  29.636  1.00  0.00     0.029 A 
ATOM     50  C   UNL A   1      39.091  29.794  30.059  1.00  0.00     0.049 A 
ATOM     51  H   UNL A   1      41.115  30.329  30.021  1.00  0.00     0.167 HD
ATOM     52  C   UNL A   1      45.050  31.792  28.962  1.00  0.00     0.037 A 
ATOM     53  C   UNL A   1      38.478  30.879  30.594  1.00  0.00     0.037 A 
ATOM     54  C   UNL A   1      45.198  31.458  30.360  1.00  0.00     0.049 A 
ATOM     55  C   UNL A   1      39.528  31.708  31.235  1.00  0.00     0.074 A 
ATOM     56  C   UNL A   1      45.803  30.424  31.051  1.00  0.00     0.029 A 
ATOM     57  N   UNL A   1      44.342  32.041  31.262  1.00  0.00    -0.354 N 
ATOM     58  N   UNL A   1      40.172  31.357  32.311  1.00  0.00    -0.248 NA
ATOM     59  C   UNL A   1      40.179  32.721  30.417  1.00  0.00     0.031 C 
ATOM     60  C   UNL A   1      44.908  30.125  32.123  1.00  0.00     0.029 A 
ATOM     61  C   UNL A   1      43.860  31.043  32.068  1.00  0.00     0.049 A 
ATOM     62  H   UNL A   1      44.117  32.998  31.319  1.00  0.00     0.167 HD
ATOM     63  C   UNL A   1      41.483  31.736  32.067  1.00  0.00     0.074 A 
ATOM     64  C   UNL A   1      41.410  32.656  30.934  1.00  0.00     0.031 C 
ATOM     65  C   UNL A   1      42.525  31.044  32.611  1.00  0.00     0.037 A 
BRANCH  52  66
ATOM     66  C   UNL A   1      45.089  33.225  28.476  1.00  0.00     0.064 A 
ATOM     67  C   UNL A   1      46.320  33.914  28.493  1.00  0.00     0.173 A 
ATOM     68  C   UNL A   1      43.944  34.037  28.320  1.00  0.00     0.173 A 
ATOM     69  F   UNL A   1      47.474  33.245  28.641  1.00  0.00    -0.203 F 
ATOM     70  C   UNL A   1      46.386  35.309  28.477  1.00  0.00     0.198 A 
ATOM     71  C   UNL A   1      44.020  35.427  28.249  1.00  0.00     0.198 A 
ATOM     72  F   UNL A   1      42.702  33.543  28.348  1.00  0.00    -0.203 F 
ATOM     73  F   UNL A   1      47.566  35.920  28.654  1.00  0.00    -0.200 F 
ATOM     74  C   UNL A   1      45.235  36.065  28.369  1.00  0.00     0.200 A 
ATOM     75  F   UNL A   1      42.890  36.142  28.159  1.00  0.00    -0.200 F 
ATOM     76  F   UNL A   1      45.287  37.402  28.432  1.00  0.00    -0.200 F 
ENDBRANCH  52  66
BRANCH  53  77
ATOM     77  C   UNL A   1      37.103  31.390  30.372  1.00  0.00     0.064 A 
ATOM     78  C   UNL A   1      36.230  31.596  31.453  1.00  0.00     0.173 A 
ATOM     79  C   UNL A   1      36.724  31.966  29.145  1.00  0.00     0.173 A 
ATOM     80  F   UNL A   1      36.531  31.111  32.667  1.00  0.00    -0.203 F 
ATOM     81  C   UNL A   1      35.072  32.371  31.327  1.00  0.00     0.198 A 
ATOM     82  C   UNL A   1      35.564  32.733  29.018  1.00  0.00     0.198 A 
ATOM     83  F   UNL A   1      37.520  31.885  28.069  1.00  0.00    -0.203 F 
ATOM     84  F   UNL A   1      34.307  32.610  32.400  1.00  0.00    -0.200 F 
ATOM     85  C   UNL A   1      34.748  32.952  30.112  1.00  0.00     0.200 A 
ATOM     86  F   UNL A   1      35.281  33.317  27.844  1.00  0.00    -0.200 F 
ATOM     87  F   UNL A   1      33.681  33.754  30.007  1.00  0.00    -0.200 F 
ENDBRANCH  53  77
BRANCH  65  88
ATOM     88  C   UNL A   1      42.223  30.057  33.704  1.00  0.00     0.064 A 
ATOM     89  C   UNL A   1      41.786  28.737  33.491  1.00  0.00     0.173 A 
ATOM     90  C   UNL A   1      42.488  30.439  35.026  1.00  0.00     0.173 A 
ATOM     91  F   UNL A   1      41.616  28.254  32.254  1.00  0.00    -0.203 F 
ATOM     92  C   UNL A   1      41.562  27.868  34.558  1.00  0.00     0.198 A 
ATOM     93  C   UNL A   1      42.303  29.557  36.086  1.00  0.00     0.198 A 
ATOM     94  F   UNL A   1      42.960  31.668  35.289  1.00  0.00    -0.203 F 
ATOM     95  F   UNL A   1      41.114  26.625  34.330  1.00  0.00    -0.200 F 
ATOM     96  C   UNL A   1      41.823  28.279  35.854  1.00  0.00     0.200 A 
ATOM     97  F   UNL A   1      42.606  29.943  37.333  1.00  0.00    -0.200 F 
ATOM     98  F   UNL A   1      41.636  27.435  36.879  1.00  0.00    -0.200 F 
ENDBRANCH  65  88
ENDBRANCH  39  40
ENDBRANCH  31  34
ENDBRANCH  29  30
ENDBRANCH  28  29
ENDBRANCH  27  28
ENDBRANCH   1  27
TORSDOF 15
ENDMDL
MODEL 3
REMARK VINA RESULT:     -12.2      4.989      8.918
REMARK SMILES Cc1n[nH]c(C)c1C(=O)N1CC(n2cc(C(=O)NCCCCCCNC(=O)c3ccc(-c4c5nc(c(-c6c(F)c(F)c(F)c(F)c6F)c6ccc([nH]6)c(-c6c(F)c(F)c(F)c(F)c6F)c6nc(c(-c7c(F)c(F)c(F)c(F)c7F)c7ccc4[nH]7)C=C6)C=C5)cc3)nn2)C1
REMARK SMILES IDX 21 1 20 2 19 3 18 4 16 5 17 6 15 8 13 9 14 10 92 11 91 12
REMARK SMILES IDX 12 13 8 14 9 15 10 16 11 17 93 18 7 19 1 20 2 21 3 22 4 23
REMARK SMILES IDX 5 24 6 26 22 27 23 28 24 29 25 30 26 31 27 33 28 34 29 35
REMARK SMILES IDX 90 36 30 37 89 38 31 39 32 40 33 41 83 42 34 43 88 44 82 45
REMARK SMILES IDX 84 46 35 47 87 48 81 49 80 50 36 52 68 53 48 54 67 55 49 56
REMARK SMILES IDX 52 57 66 58 85 59 50 60 51 61 65 63 86 64 53 65 37 66 38 67
REMARK SMILES IDX 46 68 39 69 40 70 44 71 47 72 41 73 42 74 45 75 43 76 69 77
REMARK SMILES IDX 70 78 78 79 71 80 72 81 76 82 79 83 73 84 74 85 77 86 75 87
REMARK SMILES IDX 54 88 55 89 63 90 56 91 57 92 61 93 64 94 58 95 59 96 62 97
REMARK SMILES IDX 60 98
REMARK H PARENT 18 7 4 25 25 32 84 51 52 62
REMARK Flexibility Score: inf
ROOT
ATOM      1  C   UNL A   1      42.270  27.887  34.341  1.00  0.00     0.002 C 
ENDROOT
BRANCH   1   2
ATOM      2  C   UNL A   1      41.240  28.786  33.644  1.00  0.00     0.021 C 
BRANCH   2   3
ATOM      3  C   UNL A   1      41.597  30.272  33.661  1.00  0.00     0.116 C 
BRANCH   3   4
ATOM      4  N   UNL A   1      41.885  30.751  32.325  1.00  0.00    -0.351 N 
ATOM      5  C   UNL A   1      41.086  31.293  31.347  1.00  0.00     0.273 C 
ATOM      6  O   UNL A   1      41.660  31.720  30.345  1.00  0.00    -0.267 OA
ATOM      7  H   UNL A   1      42.833  30.676  32.070  1.00  0.00     0.163 HD
BRANCH   5   8
ATOM      8  C   UNL A   1      39.638  31.398  31.503  1.00  0.00     0.170 A 
ATOM      9  N   UNL A   1      37.570  31.902  31.946  1.00  0.00    -0.245 N 
ATOM     10  C   UNL A   1      38.854  32.196  32.317  1.00  0.00     0.145 A 
ATOM     11  N   UNL A   1      37.542  30.931  31.027  1.00  0.00    -0.066 NA
ATOM     12  N   UNL A   1      38.795  30.588  30.771  1.00  0.00    -0.125 NA
BRANCH   9  13
ATOM     13  C   UNL A   1      36.419  32.624  32.405  1.00  0.00     0.148 C 
ATOM     14  C   UNL A   1      33.902  34.521  31.854  1.00  0.00     0.257 C 
ATOM     15  O   UNL A   1      33.235  34.204  32.836  1.00  0.00    -0.269 OA
ATOM     16  N   UNL A   1      34.962  33.748  31.422  1.00  0.00    -0.334 N 
ATOM     17  C   UNL A   1      35.107  32.309  31.689  1.00  0.00     0.149 C 
ATOM     18  C   UNL A   1      36.365  34.016  31.757  1.00  0.00     0.149 C 
BRANCH  14  19
ATOM     19  C   UNL A   1      33.589  35.695  31.040  1.00  0.00     0.083 A 
ATOM     20  C   UNL A   1      33.192  34.529  28.721  1.00  0.00     0.069 C 
ATOM     21  C   UNL A   1      33.280  35.691  29.642  1.00  0.00     0.072 A 
ATOM     22  N   UNL A   1      33.075  36.925  29.166  1.00  0.00    -0.180 NA
ATOM     23  N   UNL A   1      33.278  37.717  30.220  1.00  0.00    -0.282 N 
ATOM     24  C   UNL A   1      33.572  37.046  31.376  1.00  0.00     0.045 A 
ATOM     25  H   UNL A   1      33.219  38.699  30.171  1.00  0.00     0.190 HD
ATOM     26  C   UNL A   1      33.817  37.798  32.629  1.00  0.00     0.067 C 
ENDBRANCH  14  19
ENDBRANCH   9  13
ENDBRANCH   5   8
ENDBRANCH   3   4
ENDBRANCH   2   3
ENDBRANCH   1   2
BRANCH   1  27
ATOM     27  C   UNL A   1      41.765  26.505  34.790  1.00  0.00     0.002 C 
BRANCH  27  28
ATOM     28  C   UNL A   1      41.941  26.160  36.276  1.00  0.00     0.021 C 
BRANCH  28  29
ATOM     29  C   UNL A   1      42.392  24.729  36.528  1.00  0.00     0.116 C 
BRANCH  29  30
ATOM     30  N   UNL A   1      43.684  24.664  37.203  1.00  0.00    -0.352 N 
ATOM     31  C   UNL A   1      44.922  24.363  36.669  1.00  0.00     0.251 C 
ATOM     32  H   UNL A   1      43.673  24.860  38.167  1.00  0.00     0.163 HD
ATOM     33  O   UNL A   1      45.836  23.978  37.379  1.00  0.00    -0.269 OA
BRANCH  31  34
ATOM     34  C   UNL A   1      45.122  24.508  35.215  1.00  0.00     0.039 A 
ATOM     35  C   UNL A   1      45.038  23.401  34.368  1.00  0.00     0.014 A 
ATOM     36  C   UNL A   1      45.383  25.776  34.705  1.00  0.00     0.014 A 
ATOM     37  C   UNL A   1      45.132  23.601  32.993  1.00  0.00     0.010 A 
ATOM     38  C   UNL A   1      45.321  25.994  33.350  1.00  0.00     0.010 A 
ATOM     39  C   UNL A   1      45.247  24.908  32.488  1.00  0.00    -0.014 A 
BRANCH  39  40
ATOM     40  C   UNL A   1      45.163  25.152  31.050  1.00  0.00     0.031 A 
ATOM     41  C   UNL A   1      46.215  26.061  30.521  1.00  0.00     0.074 A 
ATOM     42  C   UNL A   1      44.345  24.470  30.220  1.00  0.00     0.049 A 
ATOM     43  N   UNL A   1      46.048  27.235  30.009  1.00  0.00    -0.248 NA
ATOM     44  C   UNL A   1      47.627  25.682  30.691  1.00  0.00     0.031 C 
ATOM     45  C   UNL A   1      43.472  23.333  30.529  1.00  0.00     0.029 A 
ATOM     46  N   UNL A   1      44.201  24.592  28.870  1.00  0.00    -0.354 N 
ATOM     47  C   UNL A   1      47.308  27.665  29.607  1.00  0.00     0.074 A 
ATOM     48  C   UNL A   1      48.252  26.758  30.208  1.00  0.00     0.031 C 
ATOM     49  C   UNL A   1      43.094  22.726  29.382  1.00  0.00     0.029 A 
ATOM     50  C   UNL A   1      43.550  23.525  28.261  1.00  0.00     0.049 A 
ATOM     51  H   UNL A   1      44.532  25.371  28.368  1.00  0.00     0.167 HD
ATOM     52  C   UNL A   1      47.440  28.571  28.600  1.00  0.00     0.037 A 
ATOM     53  C   UNL A   1      43.424  23.301  26.928  1.00  0.00     0.037 A 
ATOM     54  C   UNL A   1      46.200  29.280  28.377  1.00  0.00     0.049 A 
ATOM     55  C   UNL A   1      43.662  24.593  26.240  1.00  0.00     0.074 A 
ATOM     56  C   UNL A   1      45.355  30.032  29.175  1.00  0.00     0.029 A 
ATOM     57  N   UNL A   1      45.454  28.954  27.271  1.00  0.00    -0.354 N 
ATOM     58  N   UNL A   1      42.846  25.606  26.297  1.00  0.00    -0.248 NA
ATOM     59  C   UNL A   1      45.030  24.912  25.860  1.00  0.00     0.031 C 
ATOM     60  C   UNL A   1      44.038  29.666  28.762  1.00  0.00     0.029 A 
ATOM     61  C   UNL A   1      44.160  28.782  27.690  1.00  0.00     0.049 A 
ATOM     62  H   UNL A   1      45.787  28.860  26.350  1.00  0.00     0.167 HD
ATOM     63  C   UNL A   1      43.674  26.709  26.426  1.00  0.00     0.074 A 
ATOM     64  C   UNL A   1      45.005  26.234  26.052  1.00  0.00     0.031 C 
ATOM     65  C   UNL A   1      43.262  27.820  27.104  1.00  0.00     0.037 A 
BRANCH  52  66
ATOM     66  C   UNL A   1      48.529  28.521  27.551  1.00  0.00     0.064 A 
ATOM     67  C   UNL A   1      48.768  27.303  26.880  1.00  0.00     0.173 A 
ATOM     68  C   UNL A   1      49.546  29.492  27.422  1.00  0.00     0.173 A 
ATOM     69  F   UNL A   1      47.871  26.306  26.937  1.00  0.00    -0.203 F 
ATOM     70  C   UNL A   1      49.978  27.040  26.235  1.00  0.00     0.198 A 
ATOM     71  C   UNL A   1      50.730  29.244  26.730  1.00  0.00     0.198 A 
ATOM     72  F   UNL A   1      49.500  30.671  28.050  1.00  0.00    -0.203 F 
ATOM     73  F   UNL A   1      50.218  25.815  25.748  1.00  0.00    -0.200 F 
ATOM     74  C   UNL A   1      50.964  28.006  26.172  1.00  0.00     0.200 A 
ATOM     75  F   UNL A   1      51.680  30.189  26.694  1.00  0.00    -0.200 F 
ATOM     76  F   UNL A   1      52.155  27.732  25.623  1.00  0.00    -0.200 F 
ENDBRANCH  52  66
BRANCH  53  77
ATOM     77  C   UNL A   1      43.375  22.016  26.189  1.00  0.00     0.064 A 
ATOM     78  C   UNL A   1      44.557  21.388  25.761  1.00  0.00     0.173 A 
ATOM     79  C   UNL A   1      42.205  21.235  26.153  1.00  0.00     0.173 A 
ATOM     80  F   UNL A   1      45.724  22.049  25.796  1.00  0.00    -0.203 F 
ATOM     81  C   UNL A   1      44.576  20.046  25.366  1.00  0.00     0.198 A 
ATOM     82  C   UNL A   1      42.224  19.897  25.751  1.00  0.00     0.198 A 
ATOM     83  F   UNL A   1      41.038  21.718  26.603  1.00  0.00    -0.203 F 
ATOM     84  F   UNL A   1      45.737  19.461  25.040  1.00  0.00    -0.200 F 
ATOM     85  C   UNL A   1      43.411  19.298  25.376  1.00  0.00     0.200 A 
ATOM     86  F   UNL A   1      41.094  19.175  25.798  1.00  0.00    -0.200 F 
ATOM     87  F   UNL A   1      43.440  17.994  25.070  1.00  0.00    -0.200 F 
ENDBRANCH  53  77
BRANCH  65  88
ATOM     88  C   UNL A   1      41.803  27.935  27.448  1.00  0.00     0.064 A 
ATOM     89  C   UNL A   1      41.212  27.405  28.608  1.00  0.00     0.173 A 
ATOM     90  C   UNL A   1      40.990  28.710  26.610  1.00  0.00     0.173 A 
ATOM     91  F   UNL A   1      41.939  26.747  29.520  1.00  0.00    -0.203 F 
ATOM     92  C   UNL A   1      39.856  27.586  28.877  1.00  0.00     0.198 A 
ATOM     93  C   UNL A   1      39.647  28.924  26.901  1.00  0.00     0.198 A 
ATOM     94  F   UNL A   1      41.510  29.289  25.516  1.00  0.00    -0.203 F 
ATOM     95  F   UNL A   1      39.308  27.042  29.973  1.00  0.00    -0.200 F 
ATOM     96  C   UNL A   1      39.075  28.348  28.024  1.00  0.00     0.200 A 
ATOM     97  F   UNL A   1      38.908  29.703  26.099  1.00  0.00    -0.200 F 
ATOM     98  F   UNL A   1      37.778  28.547  28.295  1.00  0.00    -0.200 F 
ENDBRANCH  65  88
ENDBRANCH  39  40
ENDBRANCH  31  34
ENDBRANCH  29  30
ENDBRANCH  28  29
ENDBRANCH  27  28
ENDBRANCH   1  27
TORSDOF 15
ENDMDL
