MODEL 1
REMARK VINA RESULT:     -12.6      0.000      0.000
REMARK SMILES Cc1cccc(CS[C@@H]2CC[C@]([NH3+])(C(=O)NCCCCCCNC(=O)c3ccc(-c4c5nc(c(-c6c(F)c(F)c(F)c(F)c6F)c6ccc([nH]6)c(-c6c(F)c(F)c(F)c(F)c6F)c6nc(c(-c7c(F)c(F)c(F)c(F)c7F)c7ccc4[nH]7)C=C6)C=C5)cc3)C2)c1
REMARK SMILES IDX 19 1 18 2 17 3 16 4 14 5 15 6 12 8 9 9 10 10 89 11 11 12
REMARK SMILES IDX 8 13 7 14 6 15 1 16 2 17 3 18 90 19 4 20 5 21 13 22 20 26
REMARK SMILES IDX 21 27 22 28 23 29 24 30 25 32 26 33 27 34 88 35 28 36 87 37
REMARK SMILES IDX 29 38 30 39 31 40 81 41 32 42 86 43 80 44 82 45 33 46 85 47
REMARK SMILES IDX 79 48 78 49 34 51 66 52 46 53 65 54 47 55 50 56 64 57 83 58
REMARK SMILES IDX 48 59 49 60 63 62 84 63 51 64 35 65 36 66 44 67 37 68 38 69
REMARK SMILES IDX 42 70 45 71 39 72 40 73 43 74 41 75 67 76 68 77 76 78 69 79
REMARK SMILES IDX 70 80 74 81 77 82 71 83 72 84 75 85 73 86 52 87 53 88 61 89
REMARK SMILES IDX 54 90 55 91 59 92 62 93 56 94 57 95 60 96 58 97
REMARK H PARENT 16 7 13 23 13 24 13 25 23 31 82 50 50 61
REMARK Flexibility Score: inf
ROOT
ATOM      1  C   UNL A   1      33.636  28.944  23.808  1.00  0.00     0.002 C 
ENDROOT
BRANCH   1   2
ATOM      2  C   UNL A   1      33.843  27.687  22.956  1.00  0.00     0.021 C 
BRANCH   2   3
ATOM      3  C   UNL A   1      32.618  27.071  22.286  1.00  0.00     0.116 C 
BRANCH   3   4
ATOM      4  N   UNL A   1      31.450  27.920  22.266  1.00  0.00    -0.351 N 
ATOM      5  C   UNL A   1      30.265  27.738  22.927  1.00  0.00     0.281 C 
ATOM      6  O   UNL A   1      29.433  28.647  22.856  1.00  0.00    -0.268 OA
ATOM      7  H   UNL A   1      31.515  28.731  21.710  1.00  0.00     0.163 HD
BRANCH   5   8
ATOM      8  C   UNL A   1      29.954  26.401  23.671  1.00  0.00     0.175 C 
ATOM      9  C   UNL A   1      30.761  24.856  25.378  1.00  0.00     0.054 C 
ATOM     10  C   UNL A   1      30.662  24.090  24.058  1.00  0.00     0.022 C 
ATOM     11  C   UNL A   1      30.707  26.342  25.021  1.00  0.00     0.093 C 
ATOM     12  C   UNL A   1      30.501  25.151  22.970  1.00  0.00     0.080 C 
BRANCH   9  13
ATOM     13  S   UNL A   1      32.089  24.293  26.503  1.00  0.00    -0.154 SA
BRANCH  13  14
ATOM     14  C   UNL A   1      33.570  25.200  25.942  1.00  0.00     0.105 C 
BRANCH  14  15
ATOM     15  C   UNL A   1      34.577  24.389  25.168  1.00  0.00    -0.038 A 
ATOM     16  C   UNL A   1      37.976  22.745  25.746  1.00  0.00     0.044 C 
ATOM     17  C   UNL A   1      36.707  23.195  25.085  1.00  0.00    -0.051 A 
ATOM     18  C   UNL A   1      36.471  22.883  23.742  1.00  0.00     0.003 A 
ATOM     19  C   UNL A   1      35.754  23.943  25.791  1.00  0.00     0.008 A 
ATOM     20  C   UNL A   1      35.293  23.296  23.120  1.00  0.00     0.001 A 
ATOM     21  C   UNL A   1      34.346  24.033  23.831  1.00  0.00     0.004 A 
ENDBRANCH  14  15
ENDBRANCH  13  14
ENDBRANCH   9  13
BRANCH   8  22
ATOM     22  N   UNL A   1      28.491  26.298  23.882  1.00  0.00    -0.345 N 
ATOM     23  H   UNL A   1      28.297  25.553  24.550  1.00  0.00     0.345 HD
ATOM     24  H   UNL A   1      28.034  26.087  22.995  1.00  0.00     0.345 HD
ATOM     25  H   UNL A   1      28.137  27.182  24.247  1.00  0.00     0.345 HD
ENDBRANCH   8  22
ENDBRANCH   5   8
ENDBRANCH   3   4
ENDBRANCH   2   3
ENDBRANCH   1   2
BRANCH   1  26
ATOM     26  C   UNL A   1      33.639  28.797  25.336  1.00  0.00     0.002 C 
BRANCH  26  27
ATOM     27  C   UNL A   1      33.180  29.997  26.162  1.00  0.00     0.021 C 
BRANCH  27  28
ATOM     28  C   UNL A   1      33.558  29.973  27.634  1.00  0.00     0.116 C 
BRANCH  28  29
ATOM     29  N   UNL A   1      34.291  31.137  28.111  1.00  0.00    -0.352 N 
ATOM     30  C   UNL A   1      35.558  31.209  28.678  1.00  0.00     0.251 C 
ATOM     31  H   UNL A   1      33.822  31.998  28.017  1.00  0.00     0.163 HD
ATOM     32  O   UNL A   1      35.991  32.273  29.078  1.00  0.00    -0.269 OA
BRANCH  30  33
ATOM     33  C   UNL A   1      36.435  30.006  28.669  1.00  0.00     0.039 A 
ATOM     34  C   UNL A   1      36.653  29.337  29.881  1.00  0.00     0.014 A 
ATOM     35  C   UNL A   1      37.186  29.672  27.550  1.00  0.00     0.014 A 
ATOM     36  C   UNL A   1      37.791  28.544  30.031  1.00  0.00     0.010 A 
ATOM     37  C   UNL A   1      38.376  29.002  27.730  1.00  0.00     0.010 A 
ATOM     38  C   UNL A   1      38.712  28.493  28.989  1.00  0.00    -0.014 A 
BRANCH  38  39
ATOM     39  C   UNL A   1      40.093  28.049  29.130  1.00  0.00     0.031 A 
ATOM     40  C   UNL A   1      40.506  26.716  28.639  1.00  0.00     0.074 A 
ATOM     41  C   UNL A   1      41.026  28.953  29.508  1.00  0.00     0.049 A 
ATOM     42  N   UNL A   1      41.643  26.163  28.892  1.00  0.00    -0.248 NA
ATOM     43  C   UNL A   1      39.627  25.867  27.847  1.00  0.00     0.031 C 
ATOM     44  C   UNL A   1      42.470  28.874  29.303  1.00  0.00     0.029 A 
ATOM     45  N   UNL A   1      40.853  30.076  30.337  1.00  0.00    -0.354 N 
ATOM     46  C   UNL A   1      41.766  25.051  28.087  1.00  0.00     0.074 A 
ATOM     47  C   UNL A   1      40.452  24.868  27.522  1.00  0.00     0.031 C 
ATOM     48  C   UNL A   1      43.080  29.689  30.178  1.00  0.00     0.029 A 
ATOM     49  C   UNL A   1      42.054  30.180  31.079  1.00  0.00     0.049 A 
ATOM     50  H   UNL A   1      40.065  30.664  30.388  1.00  0.00     0.167 HD
ATOM     51  C   UNL A   1      43.009  24.510  27.911  1.00  0.00     0.037 A 
ATOM     52  C   UNL A   1      42.074  30.009  32.432  1.00  0.00     0.037 A 
ATOM     53  C   UNL A   1      43.974  25.129  28.825  1.00  0.00     0.049 A 
ATOM     54  C   UNL A   1      42.983  28.898  32.898  1.00  0.00     0.074 A 
ATOM     55  C   UNL A   1      44.954  26.095  28.657  1.00  0.00     0.029 A 
ATOM     56  N   UNL A   1      43.807  24.974  30.199  1.00  0.00    -0.354 N 
ATOM     57  N   UNL A   1      43.353  27.897  32.148  1.00  0.00    -0.248 NA
ATOM     58  C   UNL A   1      43.526  28.819  34.249  1.00  0.00     0.031 C 
ATOM     59  C   UNL A   1      45.349  26.547  29.942  1.00  0.00     0.029 A 
ATOM     60  C   UNL A   1      44.621  25.849  30.891  1.00  0.00     0.049 A 
ATOM     61  H   UNL A   1      43.193  24.331  30.619  1.00  0.00     0.167 HD
ATOM     62  C   UNL A   1      44.139  27.045  32.880  1.00  0.00     0.074 A 
ATOM     63  C   UNL A   1      44.234  27.678  34.182  1.00  0.00     0.031 C 
ATOM     64  C   UNL A   1      44.630  25.886  32.347  1.00  0.00     0.037 A 
BRANCH  51  65
ATOM     65  C   UNL A   1      43.431  23.621  26.746  1.00  0.00     0.064 A 
ATOM     66  C   UNL A   1      43.013  22.269  26.688  1.00  0.00     0.173 A 
ATOM     67  C   UNL A   1      44.300  23.993  25.703  1.00  0.00     0.173 A 
ATOM     68  F   UNL A   1      42.107  21.776  27.541  1.00  0.00    -0.203 F 
ATOM     69  C   UNL A   1      43.511  21.358  25.747  1.00  0.00     0.198 A 
ATOM     70  C   UNL A   1      44.825  23.076  24.783  1.00  0.00     0.198 A 
ATOM     71  F   UNL A   1      44.638  25.262  25.481  1.00  0.00    -0.203 F 
ATOM     72  F   UNL A   1      43.088  20.086  25.764  1.00  0.00    -0.200 F 
ATOM     73  C   UNL A   1      44.442  21.755  24.813  1.00  0.00     0.200 A 
ATOM     74  F   UNL A   1      45.707  23.495  23.863  1.00  0.00    -0.200 F 
ATOM     75  F   UNL A   1      44.945  20.881  23.932  1.00  0.00    -0.200 F 
ENDBRANCH  51  65
BRANCH  52  76
ATOM     76  C   UNL A   1      40.800  30.393  33.091  1.00  0.00     0.064 A 
ATOM     77  C   UNL A   1      40.528  31.763  33.269  1.00  0.00     0.173 A 
ATOM     78  C   UNL A   1      39.722  29.501  33.167  1.00  0.00     0.173 A 
ATOM     79  F   UNL A   1      41.528  32.657  33.203  1.00  0.00    -0.203 F 
ATOM     80  C   UNL A   1      39.223  32.231  33.391  1.00  0.00     0.198 A 
ATOM     81  C   UNL A   1      38.416  29.975  33.302  1.00  0.00     0.198 A 
ATOM     82  F   UNL A   1      39.915  28.187  32.986  1.00  0.00    -0.203 F 
ATOM     83  F   UNL A   1      38.988  33.550  33.442  1.00  0.00    -0.200 F 
ATOM     84  C   UNL A   1      38.164  31.338  33.376  1.00  0.00     0.200 A 
ATOM     85  F   UNL A   1      37.388  29.116  33.256  1.00  0.00    -0.200 F 
ATOM     86  F   UNL A   1      36.903  31.791  33.388  1.00  0.00    -0.200 F 
ENDBRANCH  52  76
BRANCH  64  87
ATOM     87  C   UNL A   1      45.253  24.733  33.109  1.00  0.00     0.064 A 
ATOM     88  C   UNL A   1      46.560  24.737  33.626  1.00  0.00     0.173 A 
ATOM     89  C   UNL A   1      44.471  23.606  33.473  1.00  0.00     0.173 A 
ATOM     90  F   UNL A   1      47.367  25.795  33.485  1.00  0.00    -0.203 F 
ATOM     91  C   UNL A   1      47.070  23.670  34.374  1.00  0.00     0.198 A 
ATOM     92  C   UNL A   1      44.963  22.573  34.273  1.00  0.00     0.198 A 
ATOM     93  F   UNL A   1      43.191  23.483  33.093  1.00  0.00    -0.203 F 
ATOM     94  F   UNL A   1      48.341  23.708  34.799  1.00  0.00    -0.200 F 
ATOM     95  C   UNL A   1      46.270  22.594  34.706  1.00  0.00     0.200 A 
ATOM     96  F   UNL A   1      44.152  21.570  34.636  1.00  0.00    -0.200 F 
ATOM     97  F   UNL A   1      46.749  21.599  35.463  1.00  0.00    -0.200 F 
ENDBRANCH  64  87
ENDBRANCH  38  39
ENDBRANCH  30  33
ENDBRANCH  28  29
ENDBRANCH  27  28
ENDBRANCH  26  27
ENDBRANCH   1  26
TORSDOF 17
ENDMDL
MODEL 2
REMARK VINA RESULT:     -12.4      1.209      1.981
REMARK SMILES Cc1cccc(CS[C@@H]2CC[C@]([NH3+])(C(=O)NCCCCCCNC(=O)c3ccc(-c4c5nc(c(-c6c(F)c(F)c(F)c(F)c6F)c6ccc([nH]6)c(-c6c(F)c(F)c(F)c(F)c6F)c6nc(c(-c7c(F)c(F)c(F)c(F)c7F)c7ccc4[nH]7)C=C6)C=C5)cc3)C2)c1
REMARK SMILES IDX 19 1 18 2 17 3 16 4 14 5 15 6 12 8 9 9 10 10 89 11 11 12
REMARK SMILES IDX 8 13 7 14 6 15 1 16 2 17 3 18 90 19 4 20 5 21 13 22 20 26
REMARK SMILES IDX 21 27 22 28 23 29 24 30 25 32 26 33 27 34 88 35 28 36 87 37
REMARK SMILES IDX 29 38 30 39 31 40 81 41 32 42 86 43 80 44 82 45 33 46 85 47
REMARK SMILES IDX 79 48 78 49 34 51 66 52 46 53 65 54 47 55 50 56 64 57 83 58
REMARK SMILES IDX 48 59 49 60 63 62 84 63 51 64 35 65 36 66 44 67 37 68 38 69
REMARK SMILES IDX 42 70 45 71 39 72 40 73 43 74 41 75 67 76 68 77 76 78 69 79
REMARK SMILES IDX 70 80 74 81 77 82 71 83 72 84 75 85 73 86 52 87 53 88 61 89
REMARK SMILES IDX 54 90 55 91 59 92 62 93 56 94 57 95 60 96 58 97
REMARK H PARENT 16 7 13 23 13 24 13 25 23 31 82 50 50 61
REMARK Flexibility Score: inf
ROOT
ATOM      1  C   UNL A   1      33.153  27.401  26.538  1.00  0.00     0.002 C 
ENDROOT
BRANCH   1   2
ATOM      2  C   UNL A   1      31.636  27.190  26.474  1.00  0.00     0.021 C 
BRANCH   2   3
ATOM      3  C   UNL A   1      31.066  26.477  25.252  1.00  0.00     0.116 C 
BRANCH   3   4
ATOM      4  N   UNL A   1      30.705  27.349  24.158  1.00  0.00    -0.351 N 
ATOM      5  C   UNL A   1      30.922  27.156  22.820  1.00  0.00     0.281 C 
ATOM      6  O   UNL A   1      30.432  27.981  22.044  1.00  0.00    -0.268 OA
ATOM      7  H   UNL A   1      30.244  28.183  24.406  1.00  0.00     0.163 HD
BRANCH   5   8
ATOM      8  C   UNL A   1      31.819  25.984  22.310  1.00  0.00     0.175 C 
ATOM      9  C   UNL A   1      32.543  23.702  22.776  1.00  0.00     0.054 C 
ATOM     10  C   UNL A   1      33.785  24.597  22.761  1.00  0.00     0.022 C 
ATOM     11  C   UNL A   1      31.339  24.636  22.896  1.00  0.00     0.093 C 
ATOM     12  C   UNL A   1      33.265  26.032  22.820  1.00  0.00     0.080 C 
BRANCH   9  13
ATOM     13  S   UNL A   1      32.634  22.271  23.912  1.00  0.00    -0.154 SA
BRANCH  13  14
ATOM     14  C   UNL A   1      33.455  22.930  25.403  1.00  0.00     0.105 C 
BRANCH  14  15
ATOM     15  C   UNL A   1      34.953  22.774  25.447  1.00  0.00    -0.038 A 
ATOM     16  C   UNL A   1      37.553  20.014  24.989  1.00  0.00     0.044 C 
ATOM     17  C   UNL A   1      36.931  21.356  25.235  1.00  0.00    -0.051 A 
ATOM     18  C   UNL A   1      37.742  22.458  25.529  1.00  0.00     0.003 A 
ATOM     19  C   UNL A   1      35.540  21.525  25.190  1.00  0.00     0.008 A 
ATOM     20  C   UNL A   1      37.173  23.710  25.757  1.00  0.00     0.001 A 
ATOM     21  C   UNL A   1      35.789  23.871  25.704  1.00  0.00     0.004 A 
ENDBRANCH  14  15
ENDBRANCH  13  14
ENDBRANCH   9  13
BRANCH   8  22
ATOM     22  N   UNL A   1      31.776  25.957  20.829  1.00  0.00    -0.345 N 
ATOM     23  H   UNL A   1      30.806  25.903  20.518  1.00  0.00     0.345 HD
ATOM     24  H   UNL A   1      32.287  25.143  20.489  1.00  0.00     0.345 HD
ATOM     25  H   UNL A   1      32.204  26.806  20.461  1.00  0.00     0.345 HD
ENDBRANCH   8  22
ENDBRANCH   5   8
ENDBRANCH   3   4
ENDBRANCH   2   3
ENDBRANCH   1   2
BRANCH   1  26
ATOM     26  C   UNL A   1      33.762  28.562  25.742  1.00  0.00     0.002 C 
BRANCH  26  27
ATOM     27  C   UNL A   1      33.238  29.968  26.029  1.00  0.00     0.021 C 
BRANCH  27  28
ATOM     28  C   UNL A   1      33.163  30.362  27.495  1.00  0.00     0.116 C 
BRANCH  28  29
ATOM     29  N   UNL A   1      33.926  31.546  27.864  1.00  0.00    -0.352 N 
ATOM     30  C   UNL A   1      35.221  31.641  28.358  1.00  0.00     0.251 C 
ATOM     31  H   UNL A   1      33.456  32.404  27.746  1.00  0.00     0.163 HD
ATOM     32  O   UNL A   1      35.680  32.724  28.672  1.00  0.00    -0.269 OA
BRANCH  30  33
ATOM     33  C   UNL A   1      36.091  30.434  28.372  1.00  0.00     0.039 A 
ATOM     34  C   UNL A   1      36.296  29.779  29.594  1.00  0.00     0.014 A 
ATOM     35  C   UNL A   1      36.850  30.080  27.263  1.00  0.00     0.014 A 
ATOM     36  C   UNL A   1      37.428  28.982  29.765  1.00  0.00     0.010 A 
ATOM     37  C   UNL A   1      38.035  29.406  27.462  1.00  0.00     0.010 A 
ATOM     38  C   UNL A   1      38.357  28.913  28.731  1.00  0.00    -0.014 A 
BRANCH  38  39
ATOM     39  C   UNL A   1      39.735  28.462  28.889  1.00  0.00     0.031 A 
ATOM     40  C   UNL A   1      40.107  27.064  28.583  1.00  0.00     0.074 A 
ATOM     41  C   UNL A   1      40.696  29.390  29.101  1.00  0.00     0.049 A 
ATOM     42  N   UNL A   1      41.242  26.528  28.876  1.00  0.00    -0.248 NA
ATOM     43  C   UNL A   1      39.185  26.128  27.952  1.00  0.00     0.031 C 
ATOM     44  C   UNL A   1      42.130  29.251  28.862  1.00  0.00     0.029 A 
ATOM     45  N   UNL A   1      40.572  30.625  29.763  1.00  0.00    -0.354 N 
ATOM     46  C   UNL A   1      41.317  25.308  28.237  1.00  0.00     0.074 A 
ATOM     47  C   UNL A   1      39.981  25.075  27.748  1.00  0.00     0.031 C 
ATOM     48  C   UNL A   1      42.785  30.169  29.589  1.00  0.00     0.029 A 
ATOM     49  C   UNL A   1      41.801  30.809  30.442  1.00  0.00     0.049 A 
ATOM     50  H   UNL A   1      39.797  31.232  29.755  1.00  0.00     0.167 HD
ATOM     51  C   UNL A   1      42.544  24.720  28.101  1.00  0.00     0.037 A 
ATOM     52  C   UNL A   1      41.867  30.834  31.804  1.00  0.00     0.037 A 
ATOM     53  C   UNL A   1      43.551  25.443  28.883  1.00  0.00     0.049 A 
ATOM     54  C   UNL A   1      42.773  29.782  32.396  1.00  0.00     0.074 A 
ATOM     55  C   UNL A   1      44.541  26.352  28.544  1.00  0.00     0.029 A 
ATOM     56  N   UNL A   1      43.431  25.492  30.269  1.00  0.00    -0.354 N 
ATOM     57  N   UNL A   1      43.098  28.675  31.787  1.00  0.00    -0.248 NA
ATOM     58  C   UNL A   1      43.362  29.886  33.725  1.00  0.00     0.031 C 
ATOM     59  C   UNL A   1      44.990  26.977  29.736  1.00  0.00     0.029 A 
ATOM     60  C   UNL A   1      44.285  26.439  30.799  1.00  0.00     0.049 A 
ATOM     61  H   UNL A   1      42.821  24.930  30.799  1.00  0.00     0.167 HD
ATOM     62  C   UNL A   1      43.895  27.920  32.610  1.00  0.00     0.074 A 
ATOM     63  C   UNL A   1      44.048  28.732  33.802  1.00  0.00     0.031 C 
ATOM     64  C   UNL A   1      44.346  26.685  32.234  1.00  0.00     0.037 A 
BRANCH  51  65
ATOM     65  C   UNL A   1      42.908  23.663  27.064  1.00  0.00     0.064 A 
ATOM     66  C   UNL A   1      42.579  22.303  27.281  1.00  0.00     0.173 A 
ATOM     67  C   UNL A   1      43.643  23.889  25.884  1.00  0.00     0.173 A 
ATOM     68  F   UNL A   1      41.797  21.923  28.298  1.00  0.00    -0.203 F 
ATOM     69  C   UNL A   1      43.043  21.267  26.459  1.00  0.00     0.198 A 
ATOM     70  C   UNL A   1      44.135  22.853  25.080  1.00  0.00     0.198 A 
ATOM     71  F   UNL A   1      43.870  25.116  25.415  1.00  0.00    -0.203 F 
ATOM     72  F   UNL A   1      42.711  19.999  26.736  1.00  0.00    -0.200 F 
ATOM     73  C   UNL A   1      43.848  21.540  25.375  1.00  0.00     0.200 A 
ATOM     74  F   UNL A   1      44.891  23.148  24.013  1.00  0.00    -0.200 F 
ATOM     75  F   UNL A   1      44.319  20.552  24.605  1.00  0.00    -0.200 F 
ENDBRANCH  51  65
BRANCH  52  76
ATOM     76  C   UNL A   1      40.624  31.337  32.442  1.00  0.00     0.064 A 
ATOM     77  C   UNL A   1      39.671  30.396  32.877  1.00  0.00     0.173 A 
ATOM     78  C   UNL A   1      40.550  32.629  32.976  1.00  0.00     0.173 A 
ATOM     79  F   UNL A   1      39.701  29.142  32.395  1.00  0.00    -0.203 F 
ATOM     80  C   UNL A   1      38.766  30.698  33.891  1.00  0.00     0.198 A 
ATOM     81  C   UNL A   1      39.633  32.931  33.984  1.00  0.00     0.198 A 
ATOM     82  F   UNL A   1      41.442  33.564  32.616  1.00  0.00    -0.203 F 
ATOM     83  F   UNL A   1      37.950  29.746  34.364  1.00  0.00    -0.200 F 
ATOM     84  C   UNL A   1      38.769  31.958  34.467  1.00  0.00     0.200 A 
ATOM     85  F   UNL A   1      39.655  34.140  34.565  1.00  0.00    -0.200 F 
ATOM     86  F   UNL A   1      37.973  32.221  35.512  1.00  0.00    -0.200 F 
ENDBRANCH  52  76
BRANCH  64  87
ATOM     87  C   UNL A   1      44.976  25.641  33.134  1.00  0.00     0.064 A 
ATOM     88  C   UNL A   1      46.342  25.307  33.128  1.00  0.00     0.173 A 
ATOM     89  C   UNL A   1      44.216  25.026  34.163  1.00  0.00     0.173 A 
ATOM     90  F   UNL A   1      47.208  25.912  32.308  1.00  0.00    -0.203 F 
ATOM     91  C   UNL A   1      46.886  24.376  34.021  1.00  0.00     0.198 A 
ATOM     92  C   UNL A   1      44.775  24.148  35.092  1.00  0.00     0.198 A 
ATOM     93  F   UNL A   1      42.910  25.283  34.324  1.00  0.00    -0.203 F 
ATOM     94  F   UNL A   1      48.186  24.060  33.935  1.00  0.00    -0.200 F 
ATOM     95  C   UNL A   1      46.107  23.805  35.007  1.00  0.00     0.200 A 
ATOM     96  F   UNL A   1      44.017  23.653  36.080  1.00  0.00    -0.200 F 
ATOM     97  F   UNL A   1      46.644  22.953  35.889  1.00  0.00    -0.200 F 
ENDBRANCH  64  87
ENDBRANCH  38  39
ENDBRANCH  30  33
ENDBRANCH  28  29
ENDBRANCH  27  28
ENDBRANCH  26  27
ENDBRANCH   1  26
TORSDOF 17
ENDMDL
MODEL 3
REMARK VINA RESULT:     -12.3      1.498      2.888
REMARK SMILES Cc1cccc(CS[C@@H]2CC[C@]([NH3+])(C(=O)NCCCCCCNC(=O)c3ccc(-c4c5nc(c(-c6c(F)c(F)c(F)c(F)c6F)c6ccc([nH]6)c(-c6c(F)c(F)c(F)c(F)c6F)c6nc(c(-c7c(F)c(F)c(F)c(F)c7F)c7ccc4[nH]7)C=C6)C=C5)cc3)C2)c1
REMARK SMILES IDX 19 1 18 2 17 3 16 4 14 5 15 6 12 8 9 9 10 10 89 11 11 12
REMARK SMILES IDX 8 13 7 14 6 15 1 16 2 17 3 18 90 19 4 20 5 21 13 22 20 26
REMARK SMILES IDX 21 27 22 28 23 29 24 30 25 32 26 33 27 34 88 35 28 36 87 37
REMARK SMILES IDX 29 38 30 39 31 40 81 41 32 42 86 43 80 44 82 45 33 46 85 47
REMARK SMILES IDX 79 48 78 49 34 51 66 52 46 53 65 54 47 55 50 56 64 57 83 58
REMARK SMILES IDX 48 59 49 60 63 62 84 63 51 64 35 65 36 66 44 67 37 68 38 69
REMARK SMILES IDX 42 70 45 71 39 72 40 73 43 74 41 75 67 76 68 77 76 78 69 79
REMARK SMILES IDX 70 80 74 81 77 82 71 83 72 84 75 85 73 86 52 87 53 88 61 89
REMARK SMILES IDX 54 90 55 91 59 92 62 93 56 94 57 95 60 96 58 97
REMARK H PARENT 16 7 13 23 13 24 13 25 23 31 82 50 50 61
REMARK Flexibility Score: inf
ROOT
ATOM      1  C   UNL A   1      31.716  28.143  26.159  1.00  0.00     0.002 C 
ENDROOT
BRANCH   1   2
ATOM      2  C   UNL A   1      31.147  26.896  26.844  1.00  0.00     0.021 C 
BRANCH   2   3
ATOM      3  C   UNL A   1      30.451  25.857  25.970  1.00  0.00     0.116 C 
BRANCH   3   4
ATOM      4  N   UNL A   1      29.827  24.777  26.698  1.00  0.00    -0.351 N 
ATOM      5  C   UNL A   1      30.165  23.450  26.689  1.00  0.00     0.281 C 
ATOM      6  O   UNL A   1      29.565  22.709  27.474  1.00  0.00    -0.268 OA
ATOM      7  H   UNL A   1      29.066  25.025  27.272  1.00  0.00     0.163 HD
BRANCH   5   8
ATOM      8  C   UNL A   1      31.210  22.891  25.673  1.00  0.00     0.175 C 
ATOM      9  C   UNL A   1      33.234  23.429  24.422  1.00  0.00     0.054 C 
ATOM     10  C   UNL A   1      32.136  23.079  23.415  1.00  0.00     0.022 C 
ATOM     11  C   UNL A   1      32.531  23.691  25.754  1.00  0.00     0.093 C 
ATOM     12  C   UNL A   1      30.827  23.097  24.202  1.00  0.00     0.080 C 
BRANCH   9  13
ATOM     13  S   UNL A   1      34.455  24.660  23.840  1.00  0.00    -0.154 SA
BRANCH  13  14
ATOM     14  C   UNL A   1      33.705  25.360  22.330  1.00  0.00     0.105 C 
BRANCH  14  15
ATOM     15  C   UNL A   1      32.977  26.668  22.509  1.00  0.00    -0.038 A 
ATOM     16  C   UNL A   1      29.386  27.911  22.895  1.00  0.00     0.044 C 
ATOM     17  C   UNL A   1      30.882  27.893  22.792  1.00  0.00    -0.051 A 
ATOM     18  C   UNL A   1      31.600  29.094  22.836  1.00  0.00     0.003 A 
ATOM     19  C   UNL A   1      31.579  26.687  22.634  1.00  0.00     0.008 A 
ATOM     20  C   UNL A   1      32.992  29.086  22.743  1.00  0.00     0.001 A 
ATOM     21  C   UNL A   1      33.677  27.881  22.593  1.00  0.00     0.004 A 
ENDBRANCH  14  15
ENDBRANCH  13  14
ENDBRANCH   9  13
BRANCH   8  22
ATOM     22  N   UNL A   1      31.447  21.458  25.967  1.00  0.00    -0.345 N 
ATOM     23  H   UNL A   1      32.378  21.195  25.646  1.00  0.00     0.345 HD
ATOM     24  H   UNL A   1      30.748  20.892  25.486  1.00  0.00     0.345 HD
ATOM     25  H   UNL A   1      31.378  21.301  26.973  1.00  0.00     0.345 HD
ENDBRANCH   8  22
ENDBRANCH   5   8
ENDBRANCH   3   4
ENDBRANCH   2   3
ENDBRANCH   1   2
BRANCH   1  26
ATOM     26  C   UNL A   1      31.951  29.399  27.009  1.00  0.00     0.002 C 
BRANCH  26  27
ATOM     27  C   UNL A   1      33.322  29.566  27.660  1.00  0.00     0.021 C 
BRANCH  27  28
ATOM     28  C   UNL A   1      34.161  30.728  27.152  1.00  0.00     0.116 C 
BRANCH  28  29
ATOM     29  N   UNL A   1      34.691  31.613  28.179  1.00  0.00    -0.352 N 
ATOM     30  C   UNL A   1      35.733  31.401  29.073  1.00  0.00     0.251 C 
ATOM     31  H   UNL A   1      34.247  32.489  28.251  1.00  0.00     0.163 HD
ATOM     32  O   UNL A   1      36.001  32.240  29.913  1.00  0.00    -0.269 OA
BRANCH  30  33
ATOM     33  C   UNL A   1      36.608  30.207  28.911  1.00  0.00     0.039 A 
ATOM     34  C   UNL A   1      36.718  29.316  29.987  1.00  0.00     0.014 A 
ATOM     35  C   UNL A   1      37.455  30.079  27.818  1.00  0.00     0.014 A 
ATOM     36  C   UNL A   1      37.838  28.490  30.082  1.00  0.00     0.010 A 
ATOM     37  C   UNL A   1      38.624  29.367  27.969  1.00  0.00     0.010 A 
ATOM     38  C   UNL A   1      38.847  28.623  29.133  1.00  0.00    -0.014 A 
BRANCH  38  39
ATOM     39  C   UNL A   1      40.211  28.136  29.306  1.00  0.00     0.031 A 
ATOM     40  C   UNL A   1      40.601  26.801  28.801  1.00  0.00     0.074 A 
ATOM     41  C   UNL A   1      41.156  29.005  29.729  1.00  0.00     0.049 A 
ATOM     42  N   UNL A   1      41.713  26.211  29.077  1.00  0.00    -0.248 NA
ATOM     43  C   UNL A   1      39.722  25.992  27.967  1.00  0.00     0.031 C 
ATOM     44  C   UNL A   1      42.603  28.889  29.565  1.00  0.00     0.029 A 
ATOM     45  N   UNL A   1      40.990  30.117  30.574  1.00  0.00    -0.354 N 
ATOM     46  C   UNL A   1      41.829  25.111  28.254  1.00  0.00     0.074 A 
ATOM     47  C   UNL A   1      40.528  24.977  27.647  1.00  0.00     0.031 C 
ATOM     48  C   UNL A   1      43.209  29.669  30.474  1.00  0.00     0.029 A 
ATOM     49  C   UNL A   1      42.171  30.173  31.353  1.00  0.00     0.049 A 
ATOM     50  H   UNL A   1      40.218  30.727  30.614  1.00  0.00     0.167 HD
ATOM     51  C   UNL A   1      43.061  24.538  28.104  1.00  0.00     0.037 A 
ATOM     52  C   UNL A   1      42.146  29.976  32.703  1.00  0.00     0.037 A 
ATOM     53  C   UNL A   1      44.015  25.112  29.059  1.00  0.00     0.049 A 
ATOM     54  C   UNL A   1      43.009  28.830  33.174  1.00  0.00     0.074 A 
ATOM     55  C   UNL A   1      45.026  26.052  28.939  1.00  0.00     0.029 A 
ATOM     56  N   UNL A   1      43.803  24.936  30.424  1.00  0.00    -0.354 N 
ATOM     57  N   UNL A   1      43.372  27.833  32.415  1.00  0.00    -0.248 NA
ATOM     58  C   UNL A   1      43.508  28.710  34.538  1.00  0.00     0.031 C 
ATOM     59  C   UNL A   1      45.396  26.469  30.243  1.00  0.00     0.029 A 
ATOM     60  C   UNL A   1      44.620  25.774  31.156  1.00  0.00     0.049 A 
ATOM     61  H   UNL A   1      43.158  24.303  30.813  1.00  0.00     0.167 HD
ATOM     62  C   UNL A   1      44.112  26.945  33.154  1.00  0.00     0.074 A 
ATOM     63  C   UNL A   1      44.185  27.551  34.470  1.00  0.00     0.031 C 
ATOM     64  C   UNL A   1      44.585  25.783  32.612  1.00  0.00     0.037 A 
BRANCH  51  65
ATOM     65  C   UNL A   1      43.493  23.660  26.935  1.00  0.00     0.064 A 
ATOM     66  C   UNL A   1      43.090  22.304  26.871  1.00  0.00     0.173 A 
ATOM     67  C   UNL A   1      44.358  24.046  25.893  1.00  0.00     0.173 A 
ATOM     68  F   UNL A   1      42.189  21.797  27.721  1.00  0.00    -0.203 F 
ATOM     69  C   UNL A   1      43.598  21.403  25.925  1.00  0.00     0.198 A 
ATOM     70  C   UNL A   1      44.893  23.140  24.969  1.00  0.00     0.198 A 
ATOM     71  F   UNL A   1      44.681  25.320  25.677  1.00  0.00    -0.203 F 
ATOM     72  F   UNL A   1      43.189  20.126  25.936  1.00  0.00    -0.200 F 
ATOM     73  C   UNL A   1      44.525  21.814  24.993  1.00  0.00     0.200 A 
ATOM     74  F   UNL A   1      45.769  23.573  24.051  1.00  0.00    -0.200 F 
ATOM     75  F   UNL A   1      45.037  20.950  24.108  1.00  0.00    -0.200 F 
ENDBRANCH  51  65
BRANCH  52  76
ATOM     76  C   UNL A   1      40.864  30.383  33.331  1.00  0.00     0.064 A 
ATOM     77  C   UNL A   1      40.640  31.754  33.560  1.00  0.00     0.173 A 
ATOM     78  C   UNL A   1      39.749  29.535  33.328  1.00  0.00     0.173 A 
ATOM     79  F   UNL A   1      41.677  32.608  33.571  1.00  0.00    -0.203 F 
ATOM     80  C   UNL A   1      39.351  32.271  33.656  1.00  0.00     0.198 A 
ATOM     81  C   UNL A   1      38.458  30.057  33.437  1.00  0.00     0.198 A 
ATOM     82  F   UNL A   1      39.896  28.223  33.096  1.00  0.00    -0.203 F 
ATOM     83  F   UNL A   1      39.167  33.595  33.757  1.00  0.00    -0.200 F 
ATOM     84  C   UNL A   1      38.259  31.425  33.562  1.00  0.00     0.200 A 
ATOM     85  F   UNL A   1      37.399  29.244  33.315  1.00  0.00    -0.200 F 
ATOM     86  F   UNL A   1      37.017  31.928  33.548  1.00  0.00    -0.200 F 
ENDBRANCH  52  76
BRANCH  64  87
ATOM     87  C   UNL A   1      45.153  24.599  33.370  1.00  0.00     0.064 A 
ATOM     88  C   UNL A   1      44.452  23.406  33.621  1.00  0.00     0.173 A 
ATOM     89  C   UNL A   1      46.518  24.580  33.756  1.00  0.00     0.173 A 
ATOM     90  F   UNL A   1      43.199  23.225  33.187  1.00  0.00    -0.203 F 
ATOM     91  C   UNL A   1      45.040  22.318  34.276  1.00  0.00     0.198 A 
ATOM     92  C   UNL A   1      47.119  23.470  34.351  1.00  0.00     0.198 A 
ATOM     93  F   UNL A   1      47.326  25.628  33.540  1.00  0.00    -0.203 F 
ATOM     94  F   UNL A   1      44.308  21.226  34.532  1.00  0.00    -0.200 F 
ATOM     95  C   UNL A   1      46.374  22.346  34.631  1.00  0.00     0.200 A 
ATOM     96  F   UNL A   1      48.430  23.493  34.631  1.00  0.00    -0.200 F 
ATOM     97  F   UNL A   1      46.945  21.283  35.212  1.00  0.00    -0.200 F 
ENDBRANCH  64  87
ENDBRANCH  38  39
ENDBRANCH  30  33
ENDBRANCH  28  29
ENDBRANCH  27  28
ENDBRANCH  26  27
ENDBRANCH   1  26
TORSDOF 17
ENDMDL
