MODEL 1
REMARK VINA RESULT:     -12.9      0.000      0.000
REMARK SMILES CCn1ncc(Br)c1C(=O)N[C@H]1C(=O)N2C(C(=O)NCCCCCCNC(=O)c3ccc(-c4c5nc(c(-c6c(F)c(F)c(F)c(F)c6F)c6ccc([nH]6)c(-c6c(F)c(F)c(F)c(F)c6F)c6nc(c(-c7c(F)c(F)c(F)c(F)c7F)c7ccc4[nH]7)C=C6)C=C5)cc3)=C(C)CS[C@H]12
REMARK SMILES IDX 22 1 21 2 20 3 19 4 17 5 18 6 16 8 12 9 13 10 96 11 14 12
REMARK SMILES IDX 15 13 95 14 94 15 92 16 93 17 11 18 9 19 10 20 8 22 3 23
REMARK SMILES IDX 4 24 5 25 6 26 7 27 2 28 1 29 23 30 24 31 25 32 26 33 27 34
REMARK SMILES IDX 28 36 29 37 30 38 91 39 31 40 90 41 32 42 33 43 34 44 84 45
REMARK SMILES IDX 35 46 89 47 83 48 85 49 36 50 88 51 82 52 81 53 37 55 69 56
REMARK SMILES IDX 49 57 68 58 50 59 53 60 67 61 86 62 51 63 52 64 66 66 87 67
REMARK SMILES IDX 54 68 38 69 39 70 47 71 40 72 41 73 45 74 48 75 42 76 43 77
REMARK SMILES IDX 46 78 44 79 70 80 71 81 79 82 72 83 73 84 77 85 80 86 74 87
REMARK SMILES IDX 75 88 78 89 76 90 55 91 56 92 64 93 57 94 58 95 62 96 65 97
REMARK SMILES IDX 59 98 60 99 63 100 61 101
REMARK H PARENT 19 7 11 21 26 35 85 54 53 65
REMARK Flexibility Score: inf
ROOT
ATOM      1  C   UNL A   1      39.889  21.738  26.486  1.00  0.00     0.002 C 
ENDROOT
BRANCH   1   2
ATOM      2  C   UNL A   1      39.179  23.097  26.552  1.00  0.00     0.021 C 
BRANCH   2   3
ATOM      3  C   UNL A   1      37.798  23.235  25.919  1.00  0.00     0.116 C 
BRANCH   3   4
ATOM      4  N   UNL A   1      37.701  23.034  24.492  1.00  0.00    -0.351 N 
ATOM      5  C   UNL A   1      36.579  22.805  23.739  1.00  0.00     0.268 C 
ATOM      6  O   UNL A   1      36.613  23.031  22.529  1.00  0.00    -0.268 OA
ATOM      7  H   UNL A   1      38.551  23.064  23.996  1.00  0.00     0.163 HD
BRANCH   5   8
ATOM      8  C   UNL A   1      35.299  22.263  24.341  1.00  0.00     0.110 C 
ATOM      9  C   UNL A   1      33.083  24.412  25.729  1.00  0.00     0.206 C 
ATOM     10  C   UNL A   1      33.315  23.821  24.333  1.00  0.00     0.253 C 
ATOM     11  C   UNL A   1      33.969  23.202  26.162  1.00  0.00     0.181 C 
ATOM     12  O   UNL A   1      32.671  23.796  23.287  1.00  0.00    -0.272 OA
ATOM     13  N   UNL A   1      34.438  23.227  24.782  1.00  0.00    -0.290 N 
ATOM     14  S   UNL A   1      32.966  21.684  26.459  1.00  0.00    -0.129 SA
ATOM     15  C   UNL A   1      33.907  20.508  25.455  1.00  0.00     0.104 C 
ATOM     16  C   UNL A   1      35.188  21.016  24.844  1.00  0.00    -0.034 C 
ATOM     17  C   UNL A   1      36.314  20.023  24.882  1.00  0.00     0.043 C 
BRANCH   9  18
ATOM     18  N   UNL A   1      33.558  25.786  26.035  1.00  0.00    -0.336 N 
ATOM     19  C   UNL A   1      33.010  27.049  25.991  1.00  0.00     0.271 C 
ATOM     20  O   UNL A   1      33.546  27.840  26.775  1.00  0.00    -0.267 OA
ATOM     21  H   UNL A   1      34.493  25.796  26.344  1.00  0.00     0.164 HD
BRANCH  19  22
ATOM     22  C   UNL A   1      32.075  27.531  25.001  1.00  0.00     0.140 A 
ATOM     23  N   UNL A   1      32.240  28.310  23.863  1.00  0.00    -0.259 N 
ATOM     24  N   UNL A   1      31.188  28.249  23.002  1.00  0.00    -0.180 NA
ATOM     25  C   UNL A   1      30.331  27.420  23.588  1.00  0.00     0.151 A 
ATOM     26  C   UNL A   1      30.818  26.970  24.812  1.00  0.00     0.069 A 
ATOM     27  Br  UNL A   1      29.914  25.705  25.865  1.00  0.00    -0.047 Br
BRANCH  23  28
ATOM     28  C   UNL A   1      33.402  29.009  23.341  1.00  0.00     0.142 C 
ATOM     29  C   UNL A   1      34.083  28.277  22.179  1.00  0.00     0.029 C 
ENDBRANCH  23  28
ENDBRANCH  19  22
ENDBRANCH   9  18
ENDBRANCH   5   8
ENDBRANCH   3   4
ENDBRANCH   2   3
ENDBRANCH   1   2
BRANCH   1  30
ATOM     30  C   UNL A   1      40.937  21.369  27.548  1.00  0.00     0.002 C 
BRANCH  30  31
ATOM     31  C   UNL A   1      41.956  20.262  27.249  1.00  0.00     0.021 C 
BRANCH  31  32
ATOM     32  C   UNL A   1      42.090  19.852  25.791  1.00  0.00     0.116 C 
BRANCH  32  33
ATOM     33  N   UNL A   1      43.438  19.468  25.383  1.00  0.00    -0.352 N 
ATOM     34  C   UNL A   1      44.462  20.311  24.977  1.00  0.00     0.251 C 
ATOM     35  H   UNL A   1      43.643  18.506  25.396  1.00  0.00     0.163 HD
ATOM     36  O   UNL A   1      45.406  19.888  24.319  1.00  0.00    -0.269 OA
BRANCH  34  37
ATOM     37  C   UNL A   1      44.393  21.743  25.336  1.00  0.00     0.039 A 
ATOM     38  C   UNL A   1      43.489  22.607  24.715  1.00  0.00     0.014 A 
ATOM     39  C   UNL A   1      45.232  22.213  26.345  1.00  0.00     0.014 A 
ATOM     40  C   UNL A   1      43.370  23.912  25.194  1.00  0.00     0.010 A 
ATOM     41  C   UNL A   1      45.005  23.444  26.917  1.00  0.00     0.010 A 
ATOM     42  C   UNL A   1      44.101  24.316  26.329  1.00  0.00    -0.014 A 
BRANCH  42  43
ATOM     43  C   UNL A   1      43.812  25.598  26.978  1.00  0.00     0.031 A 
ATOM     44  C   UNL A   1      44.779  26.672  26.625  1.00  0.00     0.074 A 
ATOM     45  C   UNL A   1      42.711  25.869  27.716  1.00  0.00     0.049 A 
ATOM     46  N   UNL A   1      45.678  27.176  27.399  1.00  0.00    -0.248 NA
ATOM     47  C   UNL A   1      44.869  27.139  25.233  1.00  0.00     0.031 C 
ATOM     48  C   UNL A   1      41.531  25.020  27.927  1.00  0.00     0.029 A 
ATOM     49  N   UNL A   1      42.376  27.011  28.392  1.00  0.00    -0.354 N 
ATOM     50  C   UNL A   1      46.316  28.171  26.665  1.00  0.00     0.074 A 
ATOM     51  C   UNL A   1      45.894  27.996  25.300  1.00  0.00     0.031 C 
ATOM     52  C   UNL A   1      40.531  25.748  28.476  1.00  0.00     0.029 A 
ATOM     53  C   UNL A   1      41.056  27.052  28.837  1.00  0.00     0.049 A 
ATOM     54  H   UNL A   1      43.014  27.744  28.551  1.00  0.00     0.167 HD
ATOM     55  C   UNL A   1      46.924  29.204  27.312  1.00  0.00     0.037 A 
ATOM     56  C   UNL A   1      40.440  28.063  29.496  1.00  0.00     0.037 A 
ATOM     57  C   UNL A   1      47.029  28.920  28.721  1.00  0.00     0.049 A 
ATOM     58  C   UNL A   1      41.490  28.860  30.159  1.00  0.00     0.074 A 
ATOM     59  C   UNL A   1      47.846  28.172  29.539  1.00  0.00     0.029 A 
ATOM     60  N   UNL A   1      45.878  29.177  29.415  1.00  0.00    -0.354 N 
ATOM     61  N   UNL A   1      42.197  28.414  31.157  1.00  0.00    -0.248 NA
ATOM     62  C   UNL A   1      42.004  30.058  29.507  1.00  0.00     0.031 C 
ATOM     63  C   UNL A   1      47.074  27.863  30.699  1.00  0.00     0.029 A 
ATOM     64  C   UNL A   1      45.825  28.466  30.582  1.00  0.00     0.049 A 
ATOM     65  H   UNL A   1      45.176  29.797  29.113  1.00  0.00     0.167 HD
ATOM     66  C   UNL A   1      43.435  28.985  30.965  1.00  0.00     0.074 A 
ATOM     67  C   UNL A   1      43.210  30.116  30.076  1.00  0.00     0.031 C 
ATOM     68  C   UNL A   1      44.567  28.288  31.266  1.00  0.00     0.037 A 
BRANCH  55  69
ATOM     69  C   UNL A   1      46.979  30.637  26.830  1.00  0.00     0.064 A 
ATOM     70  C   UNL A   1      48.199  31.342  26.925  1.00  0.00     0.173 A 
ATOM     71  C   UNL A   1      45.836  31.434  26.611  1.00  0.00     0.173 A 
ATOM     72  F   UNL A   1      49.351  30.689  27.147  1.00  0.00    -0.203 F 
ATOM     73  C   UNL A   1      48.256  32.739  26.884  1.00  0.00     0.198 A 
ATOM     74  C   UNL A   1      45.902  32.825  26.523  1.00  0.00     0.198 A 
ATOM     75  F   UNL A   1      44.603  30.916  26.590  1.00  0.00    -0.203 F 
ATOM     76  F   UNL A   1      49.419  33.367  27.100  1.00  0.00    -0.200 F 
ATOM     77  C   UNL A   1      47.105  33.479  26.691  1.00  0.00     0.200 A 
ATOM     78  F   UNL A   1      44.772  33.528  26.360  1.00  0.00    -0.200 F 
ATOM     79  F   UNL A   1      47.144  34.818  26.712  1.00  0.00    -0.200 F 
ENDBRANCH  55  69
BRANCH  56  80
ATOM     80  C   UNL A   1      39.025  28.500  29.505  1.00  0.00     0.064 A 
ATOM     81  C   UNL A   1      38.299  28.595  30.705  1.00  0.00     0.173 A 
ATOM     82  C   UNL A   1      38.477  29.147  28.383  1.00  0.00     0.173 A 
ATOM     83  F   UNL A   1      38.768  28.030  31.826  1.00  0.00    -0.203 F 
ATOM     84  C   UNL A   1      37.123  29.346  30.792  1.00  0.00     0.198 A 
ATOM     85  C   UNL A   1      37.302  29.897  28.473  1.00  0.00     0.198 A 
ATOM     86  F   UNL A   1      39.132  29.152  27.213  1.00  0.00    -0.203 F 
ATOM     87  F   UNL A   1      36.501  29.480  31.973  1.00  0.00    -0.200 F 
ATOM     88  C   UNL A   1      36.637  30.012  29.681  1.00  0.00     0.200 A 
ATOM     89  F   UNL A   1      36.861  30.570  27.401  1.00  0.00    -0.200 F 
ATOM     90  F   UNL A   1      35.557  30.801  29.783  1.00  0.00    -0.200 F 
ENDBRANCH  56  80
BRANCH  68  91
ATOM     91  C   UNL A   1      44.438  27.181  32.262  1.00  0.00     0.064 A 
ATOM     92  C   UNL A   1      44.307  25.822  31.936  1.00  0.00     0.173 A 
ATOM     93  C   UNL A   1      44.494  27.522  33.619  1.00  0.00     0.173 A 
ATOM     94  F   UNL A   1      44.315  25.412  30.661  1.00  0.00    -0.203 F 
ATOM     95  C   UNL A   1      44.193  24.853  32.933  1.00  0.00     0.198 A 
ATOM     96  C   UNL A   1      44.416  26.552  34.610  1.00  0.00     0.198 A 
ATOM     97  F   UNL A   1      44.652  28.805  33.982  1.00  0.00    -0.203 F 
ATOM     98  F   UNL A   1      44.042  23.562  32.602  1.00  0.00    -0.200 F 
ATOM     99  C   UNL A   1      44.252  25.219  34.267  1.00  0.00     0.200 A 
ATOM    100  F   UNL A   1      44.511  26.908  35.898  1.00  0.00    -0.200 F 
ATOM    101  F   UNL A   1      44.169  24.286  35.227  1.00  0.00    -0.200 F 
ENDBRANCH  68  91
ENDBRANCH  42  43
ENDBRANCH  34  37
ENDBRANCH  32  33
ENDBRANCH  31  32
ENDBRANCH  30  31
ENDBRANCH   1  30
TORSDOF 16
ENDMDL
MODEL 2
REMARK VINA RESULT:     -12.3      2.734      3.949
REMARK SMILES CCn1ncc(Br)c1C(=O)N[C@H]1C(=O)N2C(C(=O)NCCCCCCNC(=O)c3ccc(-c4c5nc(c(-c6c(F)c(F)c(F)c(F)c6F)c6ccc([nH]6)c(-c6c(F)c(F)c(F)c(F)c6F)c6nc(c(-c7c(F)c(F)c(F)c(F)c7F)c7ccc4[nH]7)C=C6)C=C5)cc3)=C(C)CS[C@H]12
REMARK SMILES IDX 22 1 21 2 20 3 19 4 17 5 18 6 16 8 12 9 13 10 96 11 14 12
REMARK SMILES IDX 15 13 95 14 94 15 92 16 93 17 11 18 9 19 10 20 8 22 3 23
REMARK SMILES IDX 4 24 5 25 6 26 7 27 2 28 1 29 23 30 24 31 25 32 26 33 27 34
REMARK SMILES IDX 28 36 29 37 30 38 91 39 31 40 90 41 32 42 33 43 34 44 84 45
REMARK SMILES IDX 35 46 89 47 83 48 85 49 36 50 88 51 82 52 81 53 37 55 69 56
REMARK SMILES IDX 49 57 68 58 50 59 53 60 67 61 86 62 51 63 52 64 66 66 87 67
REMARK SMILES IDX 54 68 38 69 39 70 47 71 40 72 41 73 45 74 48 75 42 76 43 77
REMARK SMILES IDX 46 78 44 79 70 80 71 81 79 82 72 83 73 84 77 85 80 86 74 87
REMARK SMILES IDX 75 88 78 89 76 90 55 91 56 92 64 93 57 94 58 95 62 96 65 97
REMARK SMILES IDX 59 98 60 99 63 100 61 101
REMARK H PARENT 19 7 11 21 26 35 85 54 53 65
REMARK Flexibility Score: inf
ROOT
ATOM      1  C   UNL A   1      36.190  21.091  24.871  1.00  0.00     0.002 C 
ENDROOT
BRANCH   1   2
ATOM      2  C   UNL A   1      35.231  21.168  26.066  1.00  0.00     0.021 C 
BRANCH   2   3
ATOM      3  C   UNL A   1      33.903  20.420  25.993  1.00  0.00     0.116 C 
BRANCH   3   4
ATOM      4  N   UNL A   1      32.705  21.170  26.290  1.00  0.00    -0.351 N 
ATOM      5  C   UNL A   1      32.103  22.144  25.536  1.00  0.00     0.268 C 
ATOM      6  O   UNL A   1      30.916  22.407  25.734  1.00  0.00    -0.268 OA
ATOM      7  H   UNL A   1      32.265  20.956  27.144  1.00  0.00     0.163 HD
BRANCH   5   8
ATOM      8  C   UNL A   1      32.852  22.925  24.477  1.00  0.00     0.110 C 
ATOM      9  C   UNL A   1      33.584  26.182  25.033  1.00  0.00     0.206 C 
ATOM     10  C   UNL A   1      34.274  24.839  25.300  1.00  0.00     0.253 C 
ATOM     11  C   UNL A   1      32.762  25.323  24.022  1.00  0.00     0.181 C 
ATOM     12  O   UNL A   1      35.401  24.502  25.652  1.00  0.00    -0.272 OA
ATOM     13  N   UNL A   1      33.179  24.198  24.849  1.00  0.00    -0.290 N 
ATOM     14  S   UNL A   1      33.580  25.228  22.373  1.00  0.00    -0.129 SA
ATOM     15  C   UNL A   1      33.540  23.436  22.126  1.00  0.00     0.104 C 
ATOM     16  C   UNL A   1      32.798  22.628  23.162  1.00  0.00    -0.034 C 
ATOM     17  C   UNL A   1      31.985  21.505  22.587  1.00  0.00     0.043 C 
BRANCH   9  18
ATOM     18  N   UNL A   1      32.861  26.871  26.133  1.00  0.00    -0.336 N 
ATOM     19  C   UNL A   1      31.738  27.663  26.227  1.00  0.00     0.271 C 
ATOM     20  O   UNL A   1      31.204  27.620  27.340  1.00  0.00    -0.267 OA
ATOM     21  H   UNL A   1      33.289  26.726  27.007  1.00  0.00     0.164 HD
BRANCH  19  22
ATOM     22  C   UNL A   1      31.312  28.644  25.255  1.00  0.00     0.140 A 
ATOM     23  N   UNL A   1      30.461  28.566  24.161  1.00  0.00    -0.259 N 
ATOM     24  N   UNL A   1      30.034  29.777  23.712  1.00  0.00    -0.180 NA
ATOM     25  C   UNL A   1      30.615  30.653  24.526  1.00  0.00     0.151 A 
ATOM     26  C   UNL A   1      31.414  30.013  25.470  1.00  0.00     0.069 A 
ATOM     27  Br  UNL A   1      32.302  30.935  26.843  1.00  0.00    -0.047 Br
BRANCH  23  28
ATOM     28  C   UNL A   1      29.795  27.430  23.545  1.00  0.00     0.142 C 
ATOM     29  C   UNL A   1      28.278  27.607  23.419  1.00  0.00     0.029 C 
ENDBRANCH  23  28
ENDBRANCH  19  22
ENDBRANCH   9  18
ENDBRANCH   5   8
ENDBRANCH   3   4
ENDBRANCH   2   3
ENDBRANCH   1   2
BRANCH   1  30
ATOM     30  C   UNL A   1      37.552  21.799  24.934  1.00  0.00     0.002 C 
BRANCH  30  31
ATOM     31  C   UNL A   1      38.728  21.111  25.639  1.00  0.00     0.021 C 
BRANCH  31  32
ATOM     32  C   UNL A   1      39.637  22.013  26.460  1.00  0.00     0.116 C 
BRANCH  32  33
ATOM     33  N   UNL A   1      41.036  22.018  26.042  1.00  0.00    -0.352 N 
ATOM     34  C   UNL A   1      41.883  23.113  25.966  1.00  0.00     0.251 C 
ATOM     35  H   UNL A   1      41.420  21.150  25.784  1.00  0.00     0.163 HD
ATOM     36  O   UNL A   1      42.894  23.085  25.273  1.00  0.00    -0.269 OA
BRANCH  34  37
ATOM     37  C   UNL A   1      41.541  24.334  26.725  1.00  0.00     0.039 A 
ATOM     38  C   UNL A   1      42.165  24.637  27.936  1.00  0.00     0.014 A 
ATOM     39  C   UNL A   1      40.596  25.206  26.186  1.00  0.00     0.014 A 
ATOM     40  C   UNL A   1      41.906  25.871  28.535  1.00  0.00     0.010 A 
ATOM     41  C   UNL A   1      40.461  26.479  26.690  1.00  0.00     0.010 A 
ATOM     42  C   UNL A   1      41.083  26.812  27.885  1.00  0.00    -0.014 A 
BRANCH  42  43
ATOM     43  C   UNL A   1      40.992  28.186  28.384  1.00  0.00     0.031 A 
ATOM     44  C   UNL A   1      42.081  29.070  27.890  1.00  0.00     0.074 A 
ATOM     45  C   UNL A   1      39.963  28.688  29.106  1.00  0.00     0.049 A 
ATOM     46  N   UNL A   1      43.066  29.531  28.583  1.00  0.00    -0.248 NA
ATOM     47  C   UNL A   1      42.185  29.360  26.452  1.00  0.00     0.031 C 
ATOM     48  C   UNL A   1      38.687  28.039  29.438  1.00  0.00     0.029 A 
ATOM     49  N   UNL A   1      39.808  29.935  29.650  1.00  0.00    -0.354 N 
ATOM     50  C   UNL A   1      43.806  30.339  27.725  1.00  0.00     0.074 A 
ATOM     51  C   UNL A   1      43.318  30.070  26.399  1.00  0.00     0.031 C 
ATOM     52  C   UNL A   1      37.815  28.955  29.917  1.00  0.00     0.029 A 
ATOM     53  C   UNL A   1      38.522  30.207  30.112  1.00  0.00     0.049 A 
ATOM     54  H   UNL A   1      40.544  30.587  29.710  1.00  0.00     0.167 HD
ATOM     55  C   UNL A   1      44.569  31.346  28.235  1.00  0.00     0.037 A 
ATOM     56  C   UNL A   1      38.070  31.361  30.659  1.00  0.00     0.037 A 
ATOM     57  C   UNL A   1      44.684  31.212  29.666  1.00  0.00     0.049 A 
ATOM     58  C   UNL A   1      39.240  32.076  31.205  1.00  0.00     0.074 A 
ATOM     59  C   UNL A   1      45.421  30.456  30.550  1.00  0.00     0.029 A 
ATOM     60  N   UNL A   1      43.603  31.702  30.347  1.00  0.00    -0.354 N 
ATOM     61  N   UNL A   1      39.914  31.654  32.235  1.00  0.00    -0.248 NA
ATOM     62  C   UNL A   1      39.887  33.111  30.408  1.00  0.00     0.031 C 
ATOM     63  C   UNL A   1      44.655  30.390  31.753  1.00  0.00     0.029 A 
ATOM     64  C   UNL A   1      43.495  31.142  31.589  1.00  0.00     0.049 A 
ATOM     65  H   UNL A   1      42.980  32.374  29.987  1.00  0.00     0.167 HD
ATOM     66  C   UNL A   1      41.211  32.023  31.954  1.00  0.00     0.074 A 
ATOM     67  C   UNL A   1      41.109  33.066  30.943  1.00  0.00     0.031 C 
ATOM     68  C   UNL A   1      42.249  31.217  32.313  1.00  0.00     0.037 A 
BRANCH  55  69
ATOM     69  C   UNL A   1      44.800  32.694  27.588  1.00  0.00     0.064 A 
ATOM     70  C   UNL A   1      46.038  32.945  26.958  1.00  0.00     0.173 A 
ATOM     71  C   UNL A   1      44.015  33.835  27.856  1.00  0.00     0.173 A 
ATOM     72  F   UNL A   1      46.874  31.935  26.667  1.00  0.00    -0.203 F 
ATOM     73  C   UNL A   1      46.487  34.242  26.691  1.00  0.00     0.198 A 
ATOM     74  C   UNL A   1      44.447  35.125  27.546  1.00  0.00     0.198 A 
ATOM     75  F   UNL A   1      42.862  33.762  28.530  1.00  0.00    -0.203 F 
ATOM     76  F   UNL A   1      47.720  34.435  26.203  1.00  0.00    -0.200 F 
ATOM     77  C   UNL A   1      45.693  35.332  26.993  1.00  0.00     0.200 A 
ATOM     78  F   UNL A   1      43.673  36.172  27.869  1.00  0.00    -0.200 F 
ATOM     79  F   UNL A   1      46.143  36.578  26.798  1.00  0.00    -0.200 F 
ENDBRANCH  55  69
BRANCH  56  80
ATOM     80  C   UNL A   1      36.728  31.986  30.643  1.00  0.00     0.064 A 
ATOM     81  C   UNL A   1      35.912  31.990  31.788  1.00  0.00     0.173 A 
ATOM     82  C   UNL A   1      36.373  32.875  29.614  1.00  0.00     0.173 A 
ATOM     83  F   UNL A   1      36.199  31.191  32.826  1.00  0.00    -0.203 F 
ATOM     84  C   UNL A   1      34.838  32.875  31.919  1.00  0.00     0.198 A 
ATOM     85  C   UNL A   1      35.300  33.760  29.748  1.00  0.00     0.198 A 
ATOM     86  F   UNL A   1      37.129  32.976  28.511  1.00  0.00    -0.203 F 
ATOM     87  F   UNL A   1      34.131  32.905  33.059  1.00  0.00    -0.200 F 
ATOM     88  C   UNL A   1      34.546  33.773  30.908  1.00  0.00     0.200 A 
ATOM     89  F   UNL A   1      35.050  34.652  28.779  1.00  0.00    -0.200 F 
ATOM     90  F   UNL A   1      33.571  34.679  31.068  1.00  0.00    -0.200 F 
ENDBRANCH  56  80
BRANCH  68  91
ATOM     91  C   UNL A   1      42.007  30.258  33.434  1.00  0.00     0.064 A 
ATOM     92  C   UNL A   1      41.616  28.920  33.273  1.00  0.00     0.173 A 
ATOM     93  C   UNL A   1      42.226  30.719  34.738  1.00  0.00     0.173 A 
ATOM     94  F   UNL A   1      41.453  28.389  32.055  1.00  0.00    -0.203 F 
ATOM     95  C   UNL A   1      41.412  28.094  34.378  1.00  0.00     0.198 A 
ATOM     96  C   UNL A   1      42.058  29.885  35.836  1.00  0.00     0.198 A 
ATOM     97  F   UNL A   1      42.634  31.981  34.944  1.00  0.00    -0.203 F 
ATOM     98  F   UNL A   1      41.014  26.824  34.205  1.00  0.00    -0.200 F 
ATOM     99  C   UNL A   1      41.639  28.576  35.657  1.00  0.00     0.200 A 
ATOM    100  F   UNL A   1      42.315  30.346  37.067  1.00  0.00    -0.200 F 
ATOM    101  F   UNL A   1      41.469  27.775  36.719  1.00  0.00    -0.200 F 
ENDBRANCH  68  91
ENDBRANCH  42  43
ENDBRANCH  34  37
ENDBRANCH  32  33
ENDBRANCH  31  32
ENDBRANCH  30  31
ENDBRANCH   1  30
TORSDOF 16
ENDMDL
MODEL 3
REMARK VINA RESULT:     -12.3      2.642      3.646
REMARK SMILES CCn1ncc(Br)c1C(=O)N[C@H]1C(=O)N2C(C(=O)NCCCCCCNC(=O)c3ccc(-c4c5nc(c(-c6c(F)c(F)c(F)c(F)c6F)c6ccc([nH]6)c(-c6c(F)c(F)c(F)c(F)c6F)c6nc(c(-c7c(F)c(F)c(F)c(F)c7F)c7ccc4[nH]7)C=C6)C=C5)cc3)=C(C)CS[C@H]12
REMARK SMILES IDX 22 1 21 2 20 3 19 4 17 5 18 6 16 8 12 9 13 10 96 11 14 12
REMARK SMILES IDX 15 13 95 14 94 15 92 16 93 17 11 18 9 19 10 20 8 22 3 23
REMARK SMILES IDX 4 24 5 25 6 26 7 27 2 28 1 29 23 30 24 31 25 32 26 33 27 34
REMARK SMILES IDX 28 36 29 37 30 38 91 39 31 40 90 41 32 42 33 43 34 44 84 45
REMARK SMILES IDX 35 46 89 47 83 48 85 49 36 50 88 51 82 52 81 53 37 55 69 56
REMARK SMILES IDX 49 57 68 58 50 59 53 60 67 61 86 62 51 63 52 64 66 66 87 67
REMARK SMILES IDX 54 68 38 69 39 70 47 71 40 72 41 73 45 74 48 75 42 76 43 77
REMARK SMILES IDX 46 78 44 79 70 80 71 81 79 82 72 83 73 84 77 85 80 86 74 87
REMARK SMILES IDX 75 88 78 89 76 90 55 91 56 92 64 93 57 94 58 95 62 96 65 97
REMARK SMILES IDX 59 98 60 99 63 100 61 101
REMARK H PARENT 19 7 11 21 26 35 85 54 53 65
REMARK Flexibility Score: inf
ROOT
ATOM      1  C   UNL A   1      37.784  23.301  25.471  1.00  0.00     0.002 C 
ENDROOT
BRANCH   1   2
ATOM      2  C   UNL A   1      37.247  22.103  24.677  1.00  0.00     0.021 C 
BRANCH   2   3
ATOM      3  C   UNL A   1      36.557  20.971  25.431  1.00  0.00     0.116 C 
BRANCH   3   4
ATOM      4  N   UNL A   1      35.609  21.342  26.456  1.00  0.00    -0.351 N 
ATOM      5  C   UNL A   1      34.245  21.438  26.359  1.00  0.00     0.268 C 
ATOM      6  O   UNL A   1      33.566  21.391  27.385  1.00  0.00    -0.268 OA
ATOM      7  H   UNL A   1      35.991  21.555  27.338  1.00  0.00     0.163 HD
BRANCH   5   8
ATOM      8  C   UNL A   1      33.541  21.620  25.030  1.00  0.00     0.110 C 
ATOM      9  C   UNL A   1      32.244  24.647  24.247  1.00  0.00     0.206 C 
ATOM     10  C   UNL A   1      33.593  23.943  24.050  1.00  0.00     0.253 C 
ATOM     11  C   UNL A   1      31.749  23.183  24.473  1.00  0.00     0.181 C 
ATOM     12  O   UNL A   1      34.601  24.180  23.390  1.00  0.00    -0.272 OA
ATOM     13  N   UNL A   1      33.146  22.904  24.780  1.00  0.00    -0.290 N 
ATOM     14  S   UNL A   1      31.276  22.365  22.890  1.00  0.00    -0.129 SA
ATOM     15  C   UNL A   1      32.216  20.827  23.061  1.00  0.00     0.104 C 
ATOM     16  C   UNL A   1      32.927  20.614  24.374  1.00  0.00    -0.034 C 
ATOM     17  C   UNL A   1      32.855  19.202  24.881  1.00  0.00     0.043 C 
BRANCH   9  18
ATOM     18  N   UNL A   1      32.080  25.630  25.349  1.00  0.00    -0.336 N 
ATOM     19  C   UNL A   1      31.339  26.774  25.543  1.00  0.00     0.271 C 
ATOM     20  O   UNL A   1      31.110  27.009  26.735  1.00  0.00    -0.267 OA
ATOM     21  H   UNL A   1      32.637  25.409  26.130  1.00  0.00     0.164 HD
BRANCH  19  22
ATOM     22  C   UNL A   1      31.033  27.765  24.537  1.00  0.00     0.140 A 
ATOM     23  N   UNL A   1      31.819  28.701  23.879  1.00  0.00    -0.259 N 
ATOM     24  N   UNL A   1      31.245  29.203  22.752  1.00  0.00    -0.180 NA
ATOM     25  C   UNL A   1      30.071  28.584  22.679  1.00  0.00     0.151 A 
ATOM     26  C   UNL A   1      29.889  27.713  23.749  1.00  0.00     0.069 A 
ATOM     27  Br  UNL A   1      28.388  26.597  23.910  1.00  0.00    -0.047 Br
BRANCH  23  28
ATOM     28  C   UNL A   1      33.209  29.085  24.065  1.00  0.00     0.142 C 
ATOM     29  C   UNL A   1      34.140  28.552  22.971  1.00  0.00     0.029 C 
ENDBRANCH  23  28
ENDBRANCH  19  22
ENDBRANCH   9  18
ENDBRANCH   5   8
ENDBRANCH   3   4
ENDBRANCH   2   3
ENDBRANCH   1   2
BRANCH   1  30
ATOM     30  C   UNL A   1      38.885  23.093  26.523  1.00  0.00     0.002 C 
BRANCH  30  31
ATOM     31  C   UNL A   1      39.816  21.879  26.411  1.00  0.00     0.021 C 
BRANCH  31  32
ATOM     32  C   UNL A   1      41.157  21.997  27.120  1.00  0.00     0.116 C 
BRANCH  32  33
ATOM     33  N   UNL A   1      42.283  22.325  26.252  1.00  0.00    -0.352 N 
ATOM     34  C   UNL A   1      42.692  23.588  25.851  1.00  0.00     0.251 C 
ATOM     35  H   UNL A   1      42.811  21.567  25.912  1.00  0.00     0.163 HD
ATOM     36  O   UNL A   1      43.394  23.741  24.858  1.00  0.00    -0.269 OA
BRANCH  34  37
ATOM     37  C   UNL A   1      42.252  24.762  26.634  1.00  0.00     0.039 A 
ATOM     38  C   UNL A   1      42.799  25.048  27.886  1.00  0.00     0.014 A 
ATOM     39  C   UNL A   1      41.296  25.609  26.077  1.00  0.00     0.014 A 
ATOM     40  C   UNL A   1      42.450  26.244  28.514  1.00  0.00     0.010 A 
ATOM     41  C   UNL A   1      41.073  26.854  26.619  1.00  0.00     0.010 A 
ATOM     42  C   UNL A   1      41.617  27.170  27.856  1.00  0.00    -0.014 A 
BRANCH  42  43
ATOM     43  C   UNL A   1      41.434  28.519  28.398  1.00  0.00     0.031 A 
ATOM     44  C   UNL A   1      42.513  29.465  28.010  1.00  0.00     0.074 A 
ATOM     45  C   UNL A   1      40.340  28.949  29.069  1.00  0.00     0.049 A 
ATOM     46  N   UNL A   1      43.431  29.938  28.783  1.00  0.00    -0.248 NA
ATOM     47  C   UNL A   1      42.697  29.816  26.593  1.00  0.00     0.031 C 
ATOM     48  C   UNL A   1      39.075  28.235  29.291  1.00  0.00     0.029 A 
ATOM     49  N   UNL A   1      40.096  30.166  29.647  1.00  0.00    -0.354 N 
ATOM     50  C   UNL A   1      44.188  30.809  28.006  1.00  0.00     0.074 A 
ATOM     51  C   UNL A   1      43.799  30.573  26.641  1.00  0.00     0.031 C 
ATOM     52  C   UNL A   1      38.134  29.094  29.745  1.00  0.00     0.029 A 
ATOM     53  C   UNL A   1      38.772  30.366  30.033  1.00  0.00     0.049 A 
ATOM     54  H   UNL A   1      40.798  30.844  29.779  1.00  0.00     0.167 HD
ATOM     55  C   UNL A   1      44.873  31.825  28.602  1.00  0.00     0.037 A 
ATOM     56  C   UNL A   1      38.236  31.478  30.591  1.00  0.00     0.037 A 
ATOM     57  C   UNL A   1      44.900  31.640  30.031  1.00  0.00     0.049 A 
ATOM     58  C   UNL A   1      39.336  32.218  31.238  1.00  0.00     0.074 A 
ATOM     59  C   UNL A   1      45.612  30.881  30.934  1.00  0.00     0.029 A 
ATOM     60  N   UNL A   1      43.757  32.057  30.657  1.00  0.00    -0.354 N 
ATOM     61  N   UNL A   1      39.961  31.784  32.295  1.00  0.00    -0.248 NA
ATOM     62  C   UNL A   1      39.988  33.310  30.524  1.00  0.00     0.031 C 
ATOM     63  C   UNL A   1      44.773  30.735  32.080  1.00  0.00     0.029 A 
ATOM     64  C   UNL A   1      43.594  31.445  31.868  1.00  0.00     0.049 A 
ATOM     65  H   UNL A   1      43.131  32.717  30.282  1.00  0.00     0.167 HD
ATOM     66  C   UNL A   1      41.256  32.217  32.114  1.00  0.00     0.074 A 
ATOM     67  C   UNL A   1      41.174  33.294  31.137  1.00  0.00     0.031 C 
ATOM     68  C   UNL A   1      42.302  31.440  32.510  1.00  0.00     0.037 A 
BRANCH  55  69
ATOM     69  C   UNL A   1      45.085  33.206  28.022  1.00  0.00     0.064 A 
ATOM     70  C   UNL A   1      46.403  33.634  27.745  1.00  0.00     0.173 A 
ATOM     71  C   UNL A   1      44.112  34.227  28.052  1.00  0.00     0.173 A 
ATOM     72  F   UNL A   1      47.414  32.753  27.705  1.00  0.00    -0.203 F 
ATOM     73  C   UNL A   1      46.728  34.986  27.591  1.00  0.00     0.198 A 
ATOM     74  C   UNL A   1      44.433  35.569  27.851  1.00  0.00     0.198 A 
ATOM     75  F   UNL A   1      42.840  33.985  28.390  1.00  0.00    -0.203 F 
ATOM     76  F   UNL A   1      48.008  35.352  27.451  1.00  0.00    -0.200 F 
ATOM     77  C   UNL A   1      45.743  35.953  27.652  1.00  0.00     0.200 A 
ATOM     78  F   UNL A   1      43.468  36.496  27.938  1.00  0.00    -0.200 F 
ATOM     79  F   UNL A   1      46.057  37.252  27.567  1.00  0.00    -0.200 F 
ENDBRANCH  55  69
BRANCH  56  80
ATOM     80  C   UNL A   1      36.872  32.047  30.509  1.00  0.00     0.064 A 
ATOM     81  C   UNL A   1      35.988  31.981  31.601  1.00  0.00     0.173 A 
ATOM     82  C   UNL A   1      36.543  32.954  29.487  1.00  0.00     0.173 A 
ATOM     83  F   UNL A   1      36.245  31.161  32.630  1.00  0.00    -0.203 F 
ATOM     84  C   UNL A   1      34.871  32.816  31.690  1.00  0.00     0.198 A 
ATOM     85  C   UNL A   1      35.427  33.789  29.579  1.00  0.00     0.198 A 
ATOM     86  F   UNL A   1      37.361  33.121  28.436  1.00  0.00    -0.203 F 
ATOM     87  F   UNL A   1      34.095  32.780  32.784  1.00  0.00    -0.200 F 
ATOM     88  C   UNL A   1      34.603  33.734  30.690  1.00  0.00     0.200 A 
ATOM     89  F   UNL A   1      35.198  34.701  28.623  1.00  0.00    -0.200 F 
ATOM     90  F   UNL A   1      33.582  34.594  30.815  1.00  0.00    -0.200 F 
ENDBRANCH  56  80
BRANCH  68  91
ATOM     91  C   UNL A   1      42.030  30.429  33.577  1.00  0.00     0.064 A 
ATOM     92  C   UNL A   1      41.631  29.104  33.342  1.00  0.00     0.173 A 
ATOM     93  C   UNL A   1      42.229  30.821  34.906  1.00  0.00     0.173 A 
ATOM     94  F   UNL A   1      41.486  28.636  32.095  1.00  0.00    -0.203 F 
ATOM     95  C   UNL A   1      41.399  28.225  34.399  1.00  0.00     0.198 A 
ATOM     96  C   UNL A   1      42.033  29.934  35.958  1.00  0.00     0.198 A 
ATOM     97  F   UNL A   1      42.645  32.067  35.183  1.00  0.00    -0.203 F 
ATOM     98  F   UNL A   1      40.992  26.970  34.155  1.00  0.00    -0.200 F 
ATOM     99  C   UNL A   1      41.605  28.641  35.705  1.00  0.00     0.200 A 
ATOM    100  F   UNL A   1      42.270  30.331  37.215  1.00  0.00    -0.200 F 
ATOM    101  F   UNL A   1      41.409  27.789  36.722  1.00  0.00    -0.200 F 
ENDBRANCH  68  91
ENDBRANCH  42  43
ENDBRANCH  34  37
ENDBRANCH  32  33
ENDBRANCH  31  32
ENDBRANCH  30  31
ENDBRANCH   1  30
TORSDOF 16
ENDMDL
