MODEL 1
REMARK VINA RESULT:     -12.0      0.000      0.000
REMARK SMILES Cc1nc[nH]c1C(=O)N1CCC2(CC1)C[C@@H](C(=O)NCCCCCCNC(=O)c1ccc(-c3c4nc(c(-c5c(F)c(F)c(F)c(F)c5F)c5ccc([nH]5)c(-c5c(F)c(F)c(F)c(F)c5F)c5nc(c(-c6c(F)c(F)c(F)c(F)c6F)c6ccc3[nH]6)C=C5)C=C4)cc1)N(C(=O)C1CC1)C2
REMARK SMILES IDX 22 1 21 2 20 3 19 4 17 5 18 6 16 8 7 9 8 10 9 11 10 12 14 13
REMARK SMILES IDX 11 14 13 15 12 16 15 17 98 18 92 19 6 20 1 21 2 22 3 23 4 24
REMARK SMILES IDX 5 25 93 27 94 28 95 29 96 30 97 31 23 32 24 33 25 34 26 35
REMARK SMILES IDX 27 36 28 38 29 39 30 40 91 41 31 42 90 43 32 44 33 45 34 46
REMARK SMILES IDX 84 47 35 48 89 49 83 50 85 51 36 52 88 53 82 54 81 55 37 57
REMARK SMILES IDX 69 58 49 59 68 60 50 61 53 62 67 63 86 64 51 65 52 66 66 68
REMARK SMILES IDX 87 69 54 70 38 71 39 72 47 73 40 74 41 75 45 76 48 77 42 78
REMARK SMILES IDX 43 79 46 80 44 81 70 82 71 83 79 84 72 85 73 86 77 87 80 88
REMARK SMILES IDX 74 89 75 90 78 91 76 92 55 93 56 94 64 95 57 96 58 97 62 98
REMARK SMILES IDX 65 99 59 100 60 101 63 102 61 103
REMARK H PARENT 19 7 5 26 26 37 85 56 53 67
REMARK Flexibility Score: inf
ROOT
ATOM      1  C   UNL A   1      34.036  31.489  27.516  1.00  0.00     0.002 C 
ENDROOT
BRANCH   1   2
ATOM      2  C   UNL A   1      32.653  31.248  26.911  1.00  0.00     0.021 C 
BRANCH   2   3
ATOM      3  C   UNL A   1      32.047  29.901  27.268  1.00  0.00     0.116 C 
BRANCH   3   4
ATOM      4  N   UNL A   1      32.948  28.797  27.432  1.00  0.00    -0.354 N 
ATOM      5  C   UNL A   1      33.104  27.719  26.599  1.00  0.00     0.242 C 
ATOM      6  O   UNL A   1      34.245  27.247  26.531  1.00  0.00    -0.273 OA
ATOM      7  H   UNL A   1      33.520  28.816  28.234  1.00  0.00     0.163 HD
BRANCH   5   8
ATOM      8  C   UNL A   1      31.982  27.188  25.648  1.00  0.00     0.175 C 
ATOM      9  C   UNL A   1      32.152  20.919  23.069  1.00  0.00     0.272 C 
ATOM     10  O   UNL A   1      31.798  20.643  21.923  1.00  0.00    -0.267 OA
ATOM     11  N   UNL A   1      32.171  22.234  23.504  1.00  0.00    -0.337 N 
ATOM     12  C   UNL A   1      31.162  23.148  22.995  1.00  0.00     0.120 C 
ATOM     13  C   UNL A   1      33.363  22.852  24.052  1.00  0.00     0.120 C 
ATOM     14  C   UNL A   1      30.715  24.090  24.122  1.00  0.00     0.030 C 
ATOM     15  C   UNL A   1      32.988  23.866  25.122  1.00  0.00     0.030 C 
ATOM     16  C   UNL A   1      31.916  24.900  24.685  1.00  0.00    -0.006 C 
ATOM     17  C   UNL A   1      31.521  25.755  25.917  1.00  0.00     0.044 C 
ATOM     18  C   UNL A   1      32.339  25.931  23.612  1.00  0.00     0.127 C 
ATOM     19  N   UNL A   1      32.260  27.248  24.217  1.00  0.00    -0.330 N 
BRANCH   9  20
ATOM     20  C   UNL A   1      32.461  19.872  24.018  1.00  0.00     0.127 A 
ATOM     21  C   UNL A   1      33.242  17.703  22.779  1.00  0.00     0.069 C 
ATOM     22  C   UNL A   1      32.918  18.561  23.939  1.00  0.00     0.068 A 
ATOM     23  N   UNL A   1      33.165  18.052  25.196  1.00  0.00    -0.241 NA
ATOM     24  C   UNL A   1      32.933  19.036  26.029  1.00  0.00     0.197 A 
ATOM     25  N   UNL A   1      32.486  20.139  25.372  1.00  0.00    -0.340 N 
ATOM     26  H   UNL A   1      32.223  20.989  25.794  1.00  0.00     0.168 HD
ENDBRANCH   9  20
BRANCH  19  27
ATOM     27  C   UNL A   1      32.165  28.487  23.600  1.00  0.00     0.226 C 
ATOM     28  O   UNL A   1      33.162  29.050  23.161  1.00  0.00    -0.275 OA
BRANCH  27  29
ATOM     29  C   UNL A   1      30.873  29.198  23.395  1.00  0.00     0.079 C 
ATOM     30  C   UNL A   1      30.214  29.663  22.130  1.00  0.00     0.014 C 
ATOM     31  C   UNL A   1      29.658  28.475  22.864  1.00  0.00     0.014 C 
ENDBRANCH  27  29
ENDBRANCH  19  27
ENDBRANCH   5   8
ENDBRANCH   3   4
ENDBRANCH   2   3
ENDBRANCH   1   2
BRANCH   1  32
ATOM     32  C   UNL A   1      34.215  32.810  28.280  1.00  0.00     0.002 C 
BRANCH  32  33
ATOM     33  C   UNL A   1      33.082  33.832  28.146  1.00  0.00     0.021 C 
BRANCH  33  34
ATOM     34  C   UNL A   1      33.439  35.254  28.566  1.00  0.00     0.116 C 
BRANCH  34  35
ATOM     35  N   UNL A   1      32.796  35.642  29.811  1.00  0.00    -0.352 N 
ATOM     36  C   UNL A   1      33.040  35.235  31.098  1.00  0.00     0.251 C 
ATOM     37  H   UNL A   1      32.071  36.300  29.717  1.00  0.00     0.163 HD
ATOM     38  O   UNL A   1      32.257  35.532  31.995  1.00  0.00    -0.269 OA
BRANCH  36  39
ATOM     39  C   UNL A   1      34.238  34.428  31.408  1.00  0.00     0.039 A 
ATOM     40  C   UNL A   1      35.495  34.915  31.040  1.00  0.00     0.014 A 
ATOM     41  C   UNL A   1      34.122  33.183  32.032  1.00  0.00     0.014 A 
ATOM     42  C   UNL A   1      36.639  34.180  31.350  1.00  0.00     0.010 A 
ATOM     43  C   UNL A   1      35.267  32.489  32.410  1.00  0.00     0.010 A 
ATOM     44  C   UNL A   1      36.536  32.976  32.067  1.00  0.00    -0.014 A 
BRANCH  44  45
ATOM     45  C   UNL A   1      37.744  32.211  32.464  1.00  0.00     0.031 A 
ATOM     46  C   UNL A   1      38.444  32.519  33.757  1.00  0.00     0.074 A 
ATOM     47  C   UNL A   1      38.242  31.278  31.630  1.00  0.00     0.049 A 
ATOM     48  N   UNL A   1      39.540  32.001  34.252  1.00  0.00    -0.248 NA
ATOM     49  C   UNL A   1      37.850  33.574  34.592  1.00  0.00     0.031 C 
ATOM     50  C   UNL A   1      37.671  30.914  30.333  1.00  0.00     0.029 A 
ATOM     51  N   UNL A   1      39.343  30.468  31.747  1.00  0.00    -0.354 N 
ATOM     52  C   UNL A   1      39.768  32.669  35.448  1.00  0.00     0.074 A 
ATOM     53  C   UNL A   1      38.738  33.678  35.569  1.00  0.00     0.031 C 
ATOM     54  C   UNL A   1      38.403  29.927  29.792  1.00  0.00     0.029 A 
ATOM     55  C   UNL A   1      39.520  29.622  30.681  1.00  0.00     0.049 A 
ATOM     56  H   UNL A   1      39.948  30.492  32.523  1.00  0.00     0.167 HD
ATOM     57  C   UNL A   1      40.730  32.444  36.374  1.00  0.00     0.037 A 
ATOM     58  C   UNL A   1      40.477  28.705  30.447  1.00  0.00     0.037 A 
ATOM     59  C   UNL A   1      41.750  31.434  36.247  1.00  0.00     0.049 A 
ATOM     60  C   UNL A   1      41.565  28.507  31.468  1.00  0.00     0.074 A 
ATOM     61  C   UNL A   1      42.745  31.093  37.145  1.00  0.00     0.029 A 
ATOM     62  N   UNL A   1      41.908  30.607  35.144  1.00  0.00    -0.354 N 
ATOM     63  N   UNL A   1      41.733  29.096  32.628  1.00  0.00    -0.248 NA
ATOM     64  C   UNL A   1      42.596  27.511  31.146  1.00  0.00     0.031 C 
ATOM     65  C   UNL A   1      43.541  30.103  36.560  1.00  0.00     0.029 A 
ATOM     66  C   UNL A   1      43.004  29.778  35.325  1.00  0.00     0.049 A 
ATOM     67  H   UNL A   1      41.326  30.609  34.349  1.00  0.00     0.167 HD
ATOM     68  C   UNL A   1      42.863  28.520  33.190  1.00  0.00     0.074 A 
ATOM     69  C   UNL A   1      43.334  27.525  32.248  1.00  0.00     0.031 C 
ATOM     70  C   UNL A   1      43.457  28.787  34.379  1.00  0.00     0.037 A 
BRANCH  57  71
ATOM     71  C   UNL A   1      40.728  33.319  37.597  1.00  0.00     0.064 A 
ATOM     72  C   UNL A   1      39.809  33.125  38.642  1.00  0.00     0.173 A 
ATOM     73  C   UNL A   1      41.655  34.364  37.731  1.00  0.00     0.173 A 
ATOM     74  F   UNL A   1      38.894  32.147  38.563  1.00  0.00    -0.203 F 
ATOM     75  C   UNL A   1      39.786  33.974  39.746  1.00  0.00     0.198 A 
ATOM     76  C   UNL A   1      41.655  35.186  38.855  1.00  0.00     0.198 A 
ATOM     77  F   UNL A   1      42.562  34.591  36.769  1.00  0.00    -0.203 F 
ATOM     78  F   UNL A   1      38.851  33.812  40.693  1.00  0.00    -0.200 F 
ATOM     79  C   UNL A   1      40.712  34.999  39.854  1.00  0.00     0.200 A 
ATOM     80  F   UNL A   1      42.560  36.169  38.965  1.00  0.00    -0.200 F 
ATOM     81  F   UNL A   1      40.687  35.817  40.916  1.00  0.00    -0.200 F 
ENDBRANCH  57  71
BRANCH  58  82
ATOM     82  C   UNL A   1      40.428  27.877  29.214  1.00  0.00     0.064 A 
ATOM     83  C   UNL A   1      39.640  26.718  29.163  1.00  0.00     0.173 A 
ATOM     84  C   UNL A   1      41.158  28.220  28.066  1.00  0.00     0.173 A 
ATOM     85  F   UNL A   1      38.937  26.339  30.241  1.00  0.00    -0.203 F 
ATOM     86  C   UNL A   1      39.601  25.923  28.020  1.00  0.00     0.198 A 
ATOM     87  C   UNL A   1      41.093  27.441  26.913  1.00  0.00     0.198 A 
ATOM     88  F   UNL A   1      41.922  29.322  28.058  1.00  0.00    -0.203 F 
ATOM     89  F   UNL A   1      38.875  24.797  28.015  1.00  0.00    -0.200 F 
ATOM     90  C   UNL A   1      40.322  26.289  26.894  1.00  0.00     0.200 A 
ATOM     91  F   UNL A   1      41.778  27.807  25.820  1.00  0.00    -0.200 F 
ATOM     92  F   UNL A   1      40.280  25.527  25.792  1.00  0.00    -0.200 F 
ENDBRANCH  58  82
BRANCH  70  93
ATOM     93  C   UNL A   1      44.657  27.964  34.751  1.00  0.00     0.064 A 
ATOM     94  C   UNL A   1      45.963  28.378  34.449  1.00  0.00     0.173 A 
ATOM     95  C   UNL A   1      44.498  26.756  35.449  1.00  0.00     0.173 A 
ATOM     96  F   UNL A   1      46.171  29.515  33.769  1.00  0.00    -0.203 F 
ATOM     97  C   UNL A   1      47.062  27.599  34.807  1.00  0.00     0.198 A 
ATOM     98  C   UNL A   1      45.600  25.998  35.835  1.00  0.00     0.198 A 
ATOM     99  F   UNL A   1      43.272  26.315  35.768  1.00  0.00    -0.203 F 
ATOM    100  F   UNL A   1      48.296  27.988  34.458  1.00  0.00    -0.200 F 
ATOM    101  C   UNL A   1      46.880  26.417  35.506  1.00  0.00     0.200 A 
ATOM    102  F   UNL A   1      45.423  24.864  36.526  1.00  0.00    -0.200 F 
ATOM    103  F   UNL A   1      47.939  25.673  35.856  1.00  0.00    -0.200 F 
ENDBRANCH  70  93
ENDBRANCH  44  45
ENDBRANCH  36  39
ENDBRANCH  34  35
ENDBRANCH  33  34
ENDBRANCH  32  33
ENDBRANCH   1  32
TORSDOF 16
ENDMDL
MODEL 2
REMARK VINA RESULT:     -11.9      4.934      9.414
REMARK SMILES Cc1nc[nH]c1C(=O)N1CCC2(CC1)C[C@@H](C(=O)NCCCCCCNC(=O)c1ccc(-c3c4nc(c(-c5c(F)c(F)c(F)c(F)c5F)c5ccc([nH]5)c(-c5c(F)c(F)c(F)c(F)c5F)c5nc(c(-c6c(F)c(F)c(F)c(F)c6F)c6ccc3[nH]6)C=C5)C=C4)cc1)N(C(=O)C1CC1)C2
REMARK SMILES IDX 22 1 21 2 20 3 19 4 17 5 18 6 16 8 7 9 8 10 9 11 10 12 14 13
REMARK SMILES IDX 11 14 13 15 12 16 15 17 98 18 92 19 6 20 1 21 2 22 3 23 4 24
REMARK SMILES IDX 5 25 93 27 94 28 95 29 96 30 97 31 23 32 24 33 25 34 26 35
REMARK SMILES IDX 27 36 28 38 29 39 30 40 91 41 31 42 90 43 32 44 33 45 34 46
REMARK SMILES IDX 84 47 35 48 89 49 83 50 85 51 36 52 88 53 82 54 81 55 37 57
REMARK SMILES IDX 69 58 49 59 68 60 50 61 53 62 67 63 86 64 51 65 52 66 66 68
REMARK SMILES IDX 87 69 54 70 38 71 39 72 47 73 40 74 41 75 45 76 48 77 42 78
REMARK SMILES IDX 43 79 46 80 44 81 70 82 71 83 79 84 72 85 73 86 77 87 80 88
REMARK SMILES IDX 74 89 75 90 78 91 76 92 55 93 56 94 64 95 57 96 58 97 62 98
REMARK SMILES IDX 65 99 59 100 60 101 63 102 61 103
REMARK H PARENT 19 7 5 26 26 37 85 56 53 67
REMARK Flexibility Score: inf
ROOT
ATOM      1  C   UNL A   1      36.049  34.141  31.942  1.00  0.00     0.002 C 
ENDROOT
BRANCH   1   2
ATOM      2  C   UNL A   1      37.267  33.236  31.761  1.00  0.00     0.021 C 
BRANCH   2   3
ATOM      3  C   UNL A   1      37.513  32.287  32.922  1.00  0.00     0.116 C 
BRANCH   3   4
ATOM      4  N   UNL A   1      37.574  30.884  32.623  1.00  0.00    -0.354 N 
ATOM      5  C   UNL A   1      38.374  29.941  33.217  1.00  0.00     0.242 C 
ATOM      6  O   UNL A   1      37.896  28.805  33.306  1.00  0.00    -0.273 OA
ATOM      7  H   UNL A   1      36.972  30.563  31.913  1.00  0.00     0.163 HD
BRANCH   5   8
ATOM      8  C   UNL A   1      39.741  30.271  33.900  1.00  0.00     0.175 C 
ATOM      9  C   UNL A   1      43.967  25.389  35.973  1.00  0.00     0.272 C 
ATOM     10  O   UNL A   1      44.627  25.453  37.009  1.00  0.00    -0.267 OA
ATOM     11  N   UNL A   1      43.059  26.385  35.652  1.00  0.00    -0.337 N 
ATOM     12  C   UNL A   1      43.365  27.753  36.036  1.00  0.00     0.120 C 
ATOM     13  C   UNL A   1      41.662  26.103  35.383  1.00  0.00     0.120 C 
ATOM     14  C   UNL A   1      42.910  28.707  34.923  1.00  0.00     0.030 C 
ATOM     15  C   UNL A   1      41.118  27.073  34.344  1.00  0.00     0.030 C 
ATOM     16  C   UNL A   1      41.386  28.570  34.655  1.00  0.00    -0.006 C 
ATOM     17  C   UNL A   1      40.923  29.417  33.441  1.00  0.00     0.044 C 
ATOM     18  C   UNL A   1      40.633  29.174  35.864  1.00  0.00     0.127 C 
ATOM     19  N   UNL A   1      39.767  30.223  35.358  1.00  0.00    -0.330 N 
BRANCH   9  20
ATOM     20  C   UNL A   1      44.192  24.325  35.018  1.00  0.00     0.127 A 
ATOM     21  C   UNL A   1      44.530  25.299  32.613  1.00  0.00     0.069 C 
ATOM     22  C   UNL A   1      44.438  24.251  33.652  1.00  0.00     0.068 A 
ATOM     23  N   UNL A   1      44.708  22.953  33.273  1.00  0.00    -0.241 NA
ATOM     24  C   UNL A   1      44.697  22.252  34.379  1.00  0.00     0.197 A 
ATOM     25  N   UNL A   1      44.370  23.025  35.448  1.00  0.00    -0.340 N 
ATOM     26  H   UNL A   1      44.274  22.710  36.376  1.00  0.00     0.168 HD
ENDBRANCH   9  20
BRANCH  19  27
ATOM     27  C   UNL A   1      39.195  31.287  36.042  1.00  0.00     0.226 C 
ATOM     28  O   UNL A   1      38.009  31.272  36.352  1.00  0.00    -0.275 OA
BRANCH  27  29
ATOM     29  C   UNL A   1      39.966  32.486  36.474  1.00  0.00     0.079 C 
ATOM     30  C   UNL A   1      41.447  32.714  36.535  1.00  0.00     0.014 C 
ATOM     31  C   UNL A   1      40.634  33.391  35.468  1.00  0.00     0.014 C 
ENDBRANCH  27  29
ENDBRANCH  19  27
ENDBRANCH   5   8
ENDBRANCH   3   4
ENDBRANCH   2   3
ENDBRANCH   1   2
BRANCH   1  32
ATOM     32  C   UNL A   1      34.851  33.848  31.024  1.00  0.00     0.002 C 
BRANCH  32  33
ATOM     33  C   UNL A   1      34.810  32.458  30.383  1.00  0.00     0.021 C 
BRANCH  33  34
ATOM     34  C   UNL A   1      34.706  32.450  28.861  1.00  0.00     0.116 C 
BRANCH  34  35
ATOM     35  N   UNL A   1      34.091  31.233  28.355  1.00  0.00    -0.352 N 
ATOM     36  C   UNL A   1      34.662  30.048  27.967  1.00  0.00     0.251 C 
ATOM     37  H   UNL A   1      33.111  31.264  28.279  1.00  0.00     0.163 HD
ATOM     38  O   UNL A   1      33.989  29.204  27.383  1.00  0.00    -0.269 OA
BRANCH  36  39
ATOM     39  C   UNL A   1      36.090  29.786  28.239  1.00  0.00     0.039 A 
ATOM     40  C   UNL A   1      36.458  29.280  29.489  1.00  0.00     0.014 A 
ATOM     41  C   UNL A   1      37.066  30.064  27.279  1.00  0.00     0.014 A 
ATOM     42  C   UNL A   1      37.799  28.999  29.754  1.00  0.00     0.010 A 
ATOM     43  C   UNL A   1      38.390  29.711  27.516  1.00  0.00     0.010 A 
ATOM     44  C   UNL A   1      38.772  29.182  28.757  1.00  0.00    -0.014 A 
BRANCH  44  45
ATOM     45  C   UNL A   1      40.193  28.830  28.996  1.00  0.00     0.031 A 
ATOM     46  C   UNL A   1      41.104  29.796  29.700  1.00  0.00     0.074 A 
ATOM     47  C   UNL A   1      40.677  27.664  28.526  1.00  0.00     0.049 A 
ATOM     48  N   UNL A   1      42.384  29.696  29.954  1.00  0.00    -0.248 NA
ATOM     49  C   UNL A   1      40.500  31.059  30.152  1.00  0.00     0.031 C 
ATOM     50  C   UNL A   1      39.899  26.661  27.798  1.00  0.00     0.029 A 
ATOM     51  N   UNL A   1      41.938  27.127  28.588  1.00  0.00    -0.354 N 
ATOM     52  C   UNL A   1      42.738  30.880  30.587  1.00  0.00     0.074 A 
ATOM     53  C   UNL A   1      41.555  31.713  30.615  1.00  0.00     0.031 C 
ATOM     54  C   UNL A   1      40.690  25.614  27.514  1.00  0.00     0.029 A 
ATOM     55  C   UNL A   1      42.039  25.892  27.999  1.00  0.00     0.049 A 
ATOM     56  H   UNL A   1      42.697  27.585  29.015  1.00  0.00     0.167 HD
ATOM     57  C   UNL A   1      43.932  31.231  31.122  1.00  0.00     0.037 A 
ATOM     58  C   UNL A   1      43.102  25.078  27.863  1.00  0.00     0.037 A 
ATOM     59  C   UNL A   1      45.104  30.393  31.094  1.00  0.00     0.049 A 
ATOM     60  C   UNL A   1      44.431  25.510  28.422  1.00  0.00     0.074 A 
ATOM     61  C   UNL A   1      46.351  30.633  31.643  1.00  0.00     0.029 A 
ATOM     62  N   UNL A   1      45.174  29.154  30.472  1.00  0.00    -0.354 N 
ATOM     63  N   UNL A   1      44.739  26.602  29.079  1.00  0.00    -0.248 NA
ATOM     64  C   UNL A   1      45.560  24.591  28.221  1.00  0.00     0.031 C 
ATOM     65  C   UNL A   1      47.191  29.567  31.302  1.00  0.00     0.029 A 
ATOM     66  C   UNL A   1      46.452  28.632  30.597  1.00  0.00     0.049 A 
ATOM     67  H   UNL A   1      44.425  28.712  30.011  1.00  0.00     0.167 HD
ATOM     68  C   UNL A   1      46.084  26.487  29.403  1.00  0.00     0.074 A 
ATOM     69  C   UNL A   1      46.529  25.212  28.879  1.00  0.00     0.031 C 
ATOM     70  C   UNL A   1      46.879  27.357  30.075  1.00  0.00     0.037 A 
BRANCH  57  71
ATOM     71  C   UNL A   1      44.027  32.584  31.769  1.00  0.00     0.064 A 
ATOM     72  C   UNL A   1      44.256  33.749  31.018  1.00  0.00     0.173 A 
ATOM     73  C   UNL A   1      43.888  32.724  33.158  1.00  0.00     0.173 A 
ATOM     74  F   UNL A   1      44.406  33.674  29.686  1.00  0.00    -0.203 F 
ATOM     75  C   UNL A   1      44.391  34.990  31.636  1.00  0.00     0.198 A 
ATOM     76  C   UNL A   1      43.985  33.971  33.770  1.00  0.00     0.198 A 
ATOM     77  F   UNL A   1      43.659  31.647  33.927  1.00  0.00    -0.203 F 
ATOM     78  F   UNL A   1      44.683  36.073  30.903  1.00  0.00    -0.200 F 
ATOM     79  C   UNL A   1      44.250  35.100  33.010  1.00  0.00     0.200 A 
ATOM     80  F   UNL A   1      43.833  34.079  35.098  1.00  0.00    -0.200 F 
ATOM     81  F   UNL A   1      44.384  36.294  33.605  1.00  0.00    -0.200 F 
ENDBRANCH  57  71
BRANCH  58  82
ATOM     82  C   UNL A   1      42.945  23.754  27.205  1.00  0.00     0.064 A 
ATOM     83  C   UNL A   1      42.380  22.674  27.899  1.00  0.00     0.173 A 
ATOM     84  C   UNL A   1      43.349  23.537  25.879  1.00  0.00     0.173 A 
ATOM     85  F   UNL A   1      41.994  22.827  29.175  1.00  0.00    -0.203 F 
ATOM     86  C   UNL A   1      42.246  21.423  27.300  1.00  0.00     0.198 A 
ATOM     87  C   UNL A   1      43.185  22.294  25.272  1.00  0.00     0.198 A 
ATOM     88  F   UNL A   1      43.889  24.537  25.168  1.00  0.00    -0.203 F 
ATOM     89  F   UNL A   1      41.745  20.398  28.002  1.00  0.00    -0.200 F 
ATOM     90  C   UNL A   1      42.642  21.236  25.985  1.00  0.00     0.200 A 
ATOM     91  F   UNL A   1      43.553  22.122  23.994  1.00  0.00    -0.200 F 
ATOM     92  F   UNL A   1      42.508  20.035  25.406  1.00  0.00    -0.200 F 
ENDBRANCH  58  82
BRANCH  70  93
ATOM     93  C   UNL A   1      48.302  26.941  30.320  1.00  0.00     0.064 A 
ATOM     94  C   UNL A   1      49.339  27.293  29.443  1.00  0.00     0.173 A 
ATOM     95  C   UNL A   1      48.636  26.207  31.469  1.00  0.00     0.173 A 
ATOM     96  F   UNL A   1      49.072  27.980  28.322  1.00  0.00    -0.203 F 
ATOM     97  C   UNL A   1      50.651  26.900  29.693  1.00  0.00     0.198 A 
ATOM     98  C   UNL A   1      49.954  25.846  31.733  1.00  0.00     0.198 A 
ATOM     99  F   UNL A   1      47.684  25.848  32.344  1.00  0.00    -0.203 F 
ATOM    100  F   UNL A   1      51.616  27.199  28.812  1.00  0.00    -0.200 F 
ATOM    101  C   UNL A   1      50.959  26.185  30.840  1.00  0.00     0.200 A 
ATOM    102  F   UNL A   1      50.252  25.171  32.851  1.00  0.00    -0.200 F 
ATOM    103  F   UNL A   1      52.224  25.816  31.083  1.00  0.00    -0.200 F 
ENDBRANCH  70  93
ENDBRANCH  44  45
ENDBRANCH  36  39
ENDBRANCH  34  35
ENDBRANCH  33  34
ENDBRANCH  32  33
ENDBRANCH   1  32
TORSDOF 16
ENDMDL
MODEL 3
REMARK VINA RESULT:     -11.9      5.832     11.656
REMARK SMILES Cc1nc[nH]c1C(=O)N1CCC2(CC1)C[C@@H](C(=O)NCCCCCCNC(=O)c1ccc(-c3c4nc(c(-c5c(F)c(F)c(F)c(F)c5F)c5ccc([nH]5)c(-c5c(F)c(F)c(F)c(F)c5F)c5nc(c(-c6c(F)c(F)c(F)c(F)c6F)c6ccc3[nH]6)C=C5)C=C4)cc1)N(C(=O)C1CC1)C2
REMARK SMILES IDX 22 1 21 2 20 3 19 4 17 5 18 6 16 8 7 9 8 10 9 11 10 12 14 13
REMARK SMILES IDX 11 14 13 15 12 16 15 17 98 18 92 19 6 20 1 21 2 22 3 23 4 24
REMARK SMILES IDX 5 25 93 27 94 28 95 29 96 30 97 31 23 32 24 33 25 34 26 35
REMARK SMILES IDX 27 36 28 38 29 39 30 40 91 41 31 42 90 43 32 44 33 45 34 46
REMARK SMILES IDX 84 47 35 48 89 49 83 50 85 51 36 52 88 53 82 54 81 55 37 57
REMARK SMILES IDX 69 58 49 59 68 60 50 61 53 62 67 63 86 64 51 65 52 66 66 68
REMARK SMILES IDX 87 69 54 70 38 71 39 72 47 73 40 74 41 75 45 76 48 77 42 78
REMARK SMILES IDX 43 79 46 80 44 81 70 82 71 83 79 84 72 85 73 86 77 87 80 88
REMARK SMILES IDX 74 89 75 90 78 91 76 92 55 93 56 94 64 95 57 96 58 97 62 98
REMARK SMILES IDX 65 99 59 100 60 101 63 102 61 103
REMARK H PARENT 19 7 5 26 26 37 85 56 53 67
REMARK Flexibility Score: inf
ROOT
ATOM      1  C   UNL A   1      42.132  34.983  37.630  1.00  0.00     0.002 C 
ENDROOT
BRANCH   1   2
ATOM      2  C   UNL A   1      40.759  34.775  38.268  1.00  0.00     0.021 C 
BRANCH   2   3
ATOM      3  C   UNL A   1      40.469  33.335  38.658  1.00  0.00     0.116 C 
BRANCH   3   4
ATOM      4  N   UNL A   1      39.118  32.873  38.510  1.00  0.00    -0.354 N 
ATOM      5  C   UNL A   1      38.558  32.281  37.407  1.00  0.00     0.242 C 
ATOM      6  O   UNL A   1      37.683  31.436  37.631  1.00  0.00    -0.273 OA
ATOM      7  H   UNL A   1      38.528  32.994  39.289  1.00  0.00     0.163 HD
BRANCH   5   8
ATOM      8  C   UNL A   1      39.074  32.503  35.948  1.00  0.00     0.175 C 
ATOM      9  C   UNL A   1      34.841  33.905  30.838  1.00  0.00     0.272 C 
ATOM     10  O   UNL A   1      34.976  33.459  29.699  1.00  0.00    -0.267 OA
ATOM     11  N   UNL A   1      35.695  33.510  31.855  1.00  0.00    -0.337 N 
ATOM     12  C   UNL A   1      37.082  33.226  31.527  1.00  0.00     0.120 C 
ATOM     13  C   UNL A   1      35.209  32.934  33.094  1.00  0.00     0.120 C 
ATOM     14  C   UNL A   1      37.986  33.737  32.657  1.00  0.00     0.030 C 
ATOM     15  C   UNL A   1      36.113  33.331  34.252  1.00  0.00     0.030 C 
ATOM     16  C   UNL A   1      37.624  33.068  34.011  1.00  0.00    -0.006 C 
ATOM     17  C   UNL A   1      38.425  33.667  35.196  1.00  0.00     0.044 C 
ATOM     18  C   UNL A   1      38.070  31.588  33.945  1.00  0.00     0.127 C 
ATOM     19  N   UNL A   1      38.987  31.359  35.047  1.00  0.00    -0.330 N 
BRANCH   9  20
ATOM     20  C   UNL A   1      33.853  34.923  31.120  1.00  0.00     0.127 A 
ATOM     21  C   UNL A   1      33.420  36.401  29.004  1.00  0.00     0.069 C 
ATOM     22  C   UNL A   1      33.242  35.943  30.399  1.00  0.00     0.068 A 
ATOM     23  N   UNL A   1      32.255  36.548  31.147  1.00  0.00    -0.241 NA
ATOM     24  C   UNL A   1      32.206  35.883  32.274  1.00  0.00     0.197 A 
ATOM     25  N   UNL A   1      33.160  34.915  32.314  1.00  0.00    -0.340 N 
ATOM     26  H   UNL A   1      33.330  34.309  33.071  1.00  0.00     0.168 HD
ENDBRANCH   9  20
BRANCH  19  27
ATOM     27  C   UNL A   1      39.930  30.353  35.201  1.00  0.00     0.226 C 
ATOM     28  O   UNL A   1      39.911  29.617  36.181  1.00  0.00    -0.275 OA
BRANCH  27  29
ATOM     29  C   UNL A   1      40.994  30.072  34.197  1.00  0.00     0.079 C 
ATOM     30  C   UNL A   1      42.275  29.303  34.333  1.00  0.00     0.014 C 
ATOM     31  C   UNL A   1      41.129  28.709  33.562  1.00  0.00     0.014 C 
ENDBRANCH  27  29
ENDBRANCH  19  27
ENDBRANCH   5   8
ENDBRANCH   3   4
ENDBRANCH   2   3
ENDBRANCH   1   2
BRANCH   1  32
ATOM     32  C   UNL A   1      42.215  36.082  36.557  1.00  0.00     0.002 C 
BRANCH  32  33
ATOM     33  C   UNL A   1      41.859  35.663  35.128  1.00  0.00     0.021 C 
BRANCH  33  34
ATOM     34  C   UNL A   1      42.425  36.560  34.030  1.00  0.00     0.116 C 
BRANCH  34  35
ATOM     35  N   UNL A   1      43.831  36.867  34.236  1.00  0.00    -0.352 N 
ATOM     36  C   UNL A   1      44.944  36.089  34.047  1.00  0.00     0.251 C 
ATOM     37  H   UNL A   1      44.014  37.777  34.563  1.00  0.00     0.163 HD
ATOM     38  O   UNL A   1      46.035  36.465  34.464  1.00  0.00    -0.269 OA
BRANCH  36  39
ATOM     39  C   UNL A   1      44.834  34.790  33.353  1.00  0.00     0.039 A 
ATOM     40  C   UNL A   1      44.624  33.634  34.109  1.00  0.00     0.014 A 
ATOM     41  C   UNL A   1      44.965  34.705  31.964  1.00  0.00     0.014 A 
ATOM     42  C   UNL A   1      44.489  32.402  33.469  1.00  0.00     0.010 A 
ATOM     43  C   UNL A   1      44.751  33.490  31.321  1.00  0.00     0.010 A 
ATOM     44  C   UNL A   1      44.519  32.325  32.066  1.00  0.00    -0.014 A 
BRANCH  44  45
ATOM     45  C   UNL A   1      44.313  31.036  31.362  1.00  0.00     0.031 A 
ATOM     46  C   UNL A   1      42.946  30.652  30.871  1.00  0.00     0.074 A 
ATOM     47  C   UNL A   1      45.348  30.187  31.216  1.00  0.00     0.049 A 
ATOM     48  N   UNL A   1      42.554  29.549  30.284  1.00  0.00    -0.248 NA
ATOM     49  C   UNL A   1      41.867  31.626  31.099  1.00  0.00     0.031 C 
ATOM     50  C   UNL A   1      46.714  30.433  31.680  1.00  0.00     0.029 A 
ATOM     51  N   UNL A   1      45.412  28.944  30.639  1.00  0.00    -0.354 N 
ATOM     52  C   UNL A   1      41.188  29.695  30.080  1.00  0.00     0.074 A 
ATOM     53  C   UNL A   1      40.806  30.960  30.669  1.00  0.00     0.031 C 
ATOM     54  C   UNL A   1      47.488  29.393  31.336  1.00  0.00     0.029 A 
ATOM     55  C   UNL A   1      46.666  28.387  30.669  1.00  0.00     0.049 A 
ATOM     56  H   UNL A   1      44.632  28.495  30.240  1.00  0.00     0.167 HD
ATOM     57  C   UNL A   1      40.334  28.863  29.435  1.00  0.00     0.037 A 
ATOM     58  C   UNL A   1      47.101  27.198  30.213  1.00  0.00     0.037 A 
ATOM     59  C   UNL A   1      40.724  27.607  28.846  1.00  0.00     0.049 A 
ATOM     60  C   UNL A   1      46.124  26.270  29.544  1.00  0.00     0.074 A 
ATOM     61  C   UNL A   1      39.950  26.710  28.133  1.00  0.00     0.029 A 
ATOM     62  N   UNL A   1      42.001  27.068  28.913  1.00  0.00    -0.354 N 
ATOM     63  N   UNL A   1      44.849  26.445  29.294  1.00  0.00    -0.248 NA
ATOM     64  C   UNL A   1      46.652  24.976  29.089  1.00  0.00     0.031 C 
ATOM     65  C   UNL A   1      40.743  25.601  27.821  1.00  0.00     0.029 A 
ATOM     66  C   UNL A   1      42.029  25.834  28.280  1.00  0.00     0.049 A 
ATOM     67  H   UNL A   1      42.774  27.498  29.345  1.00  0.00     0.167 HD
ATOM     68  C   UNL A   1      44.429  25.305  28.624  1.00  0.00     0.074 A 
ATOM     69  C   UNL A   1      45.590  24.449  28.494  1.00  0.00     0.031 C 
ATOM     70  C   UNL A   1      43.195  24.995  28.154  1.00  0.00     0.037 A 
BRANCH  57  71
ATOM     71  C   UNL A   1      38.894  29.286  29.348  1.00  0.00     0.064 A 
ATOM     72  C   UNL A   1      38.307  29.661  28.128  1.00  0.00     0.173 A 
ATOM     73  C   UNL A   1      38.087  29.317  30.495  1.00  0.00     0.173 A 
ATOM     74  F   UNL A   1      39.034  29.659  26.999  1.00  0.00    -0.203 F 
ATOM     75  C   UNL A   1      36.985  30.098  28.069  1.00  0.00     0.198 A 
ATOM     76  C   UNL A   1      36.755  29.718  30.427  1.00  0.00     0.198 A 
ATOM     77  F   UNL A   1      38.591  28.962  31.687  1.00  0.00    -0.203 F 
ATOM     78  F   UNL A   1      36.472  30.520  26.905  1.00  0.00    -0.200 F 
ATOM     79  C   UNL A   1      36.210  30.121  29.218  1.00  0.00     0.200 A 
ATOM     80  F   UNL A   1      36.001  29.725  31.536  1.00  0.00    -0.200 F 
ATOM     81  F   UNL A   1      34.939  30.544  29.161  1.00  0.00    -0.200 F 
ENDBRANCH  57  71
BRANCH  58  82
ATOM     82  C   UNL A   1      48.537  26.836  30.337  1.00  0.00     0.064 A 
ATOM     83  C   UNL A   1      48.991  26.076  31.425  1.00  0.00     0.173 A 
ATOM     84  C   UNL A   1      49.484  27.234  29.381  1.00  0.00     0.173 A 
ATOM     85  F   UNL A   1      48.128  25.686  32.374  1.00  0.00    -0.203 F 
ATOM     86  C   UNL A   1      50.338  25.747  31.562  1.00  0.00     0.198 A 
ATOM     87  C   UNL A   1      50.824  26.878  29.504  1.00  0.00     0.198 A 
ATOM     88  F   UNL A   1      49.102  27.957  28.317  1.00  0.00    -0.203 F 
ATOM     89  F   UNL A   1      50.750  25.059  32.635  1.00  0.00    -0.200 F 
ATOM     90  C   UNL A   1      51.252  26.143  30.598  1.00  0.00     0.200 A 
ATOM     91  F   UNL A   1      51.702  27.248  28.560  1.00  0.00    -0.200 F 
ATOM     92  F   UNL A   1      52.547  25.821  30.727  1.00  0.00    -0.200 F 
ENDBRANCH  58  82
BRANCH  70  93
ATOM     93  C   UNL A   1      43.044  23.694  27.419  1.00  0.00     0.064 A 
ATOM     94  C   UNL A   1      42.496  22.556  28.030  1.00  0.00     0.173 A 
ATOM     95  C   UNL A   1      43.426  23.595  26.071  1.00  0.00     0.173 A 
ATOM     96  F   UNL A   1      42.130  22.592  29.320  1.00  0.00    -0.203 F 
ATOM     97  C   UNL A   1      42.362  21.361  27.328  1.00  0.00     0.198 A 
ATOM     98  C   UNL A   1      43.257  22.408  25.363  1.00  0.00     0.198 A 
ATOM     99  F   UNL A   1      43.951  24.653  25.436  1.00  0.00    -0.203 F 
ATOM    100  F   UNL A   1      41.888  20.272  27.949  1.00  0.00    -0.200 F 
ATOM    101  C   UNL A   1      42.735  21.290  25.995  1.00  0.00     0.200 A 
ATOM    102  F   UNL A   1      43.602  22.347  24.070  1.00  0.00    -0.200 F 
ATOM    103  F   UNL A   1      42.597  20.141  25.318  1.00  0.00    -0.200 F 
ENDBRANCH  70  93
ENDBRANCH  44  45
ENDBRANCH  36  39
ENDBRANCH  34  35
ENDBRANCH  33  34
ENDBRANCH  32  33
ENDBRANCH   1  32
TORSDOF 16
ENDMDL
