MODEL 1
REMARK VINA RESULT:     -13.8      0.000      0.000
REMARK SMILES O=C(NCCCCCCNC(=O)[C@H]1CC2(CCN(C(=O)C3CC3)CC2)CN1C(=O)CCn1cccn1)c1ccc(-c2c3nc(c(-c4c(F)c(F)c(F)c(F)c4F)c4ccc([nH]4)c(-c4c(F)c(F)c(F)c(F)c4F)c4nc(c(-c5c(F)c(F)c(F)c(F)c5F)c5ccc2[nH]5)C=C4)C=C3)cc1
REMARK SMILES IDX 7 1 6 2 5 3 4 4 3 5 1 6 2 7 37 9 38 10 99 11 39 12 98 13
REMARK SMILES IDX 40 14 41 15 42 16 92 17 43 18 97 19 91 20 93 21 44 22 96 23
REMARK SMILES IDX 90 24 89 25 45 27 77 28 57 29 76 30 58 31 61 32 75 33 94 34
REMARK SMILES IDX 59 35 60 36 74 38 95 39 62 40 46 41 47 42 55 43 48 44 49 45
REMARK SMILES IDX 53 46 56 47 50 48 51 49 54 50 52 51 78 52 79 53 87 54 80 55
REMARK SMILES IDX 81 56 85 57 88 58 82 59 83 60 86 61 84 62 63 63 64 64 72 65
REMARK SMILES IDX 65 66 66 67 70 68 73 69 67 70 68 71 71 72 69 73 8 74 9 75
REMARK SMILES IDX 10 76 11 77 12 79 13 80 14 81 27 82 15 83 26 84 16 85 25 86
REMARK SMILES IDX 17 87 24 88 18 89 19 90 20 91 28 92 29 93 30 94 31 95 32 96
REMARK SMILES IDX 33 97 36 98 34 99 35 100 21 101 22 102 23 103
REMARK H PARENT 3 8 93 26 61 37 10 78
REMARK Flexibility Score: inf
ROOT
ATOM      1  C   UNL A   1      40.840  21.558  27.427  1.00  0.00     0.002 C 
ENDROOT
BRANCH   1   2
ATOM      2  C   UNL A   1      41.378  20.133  27.525  1.00  0.00     0.002 C 
BRANCH   2   3
ATOM      3  C   UNL A   1      41.792  19.560  26.162  1.00  0.00     0.021 C 
BRANCH   3   4
ATOM      4  C   UNL A   1      43.228  19.033  26.171  1.00  0.00     0.116 C 
BRANCH   4   5
ATOM      5  N   UNL A   1      43.912  19.340  24.942  1.00  0.00    -0.352 N 
ATOM      6  O   UNL A   1      44.842  20.488  23.292  1.00  0.00    -0.269 OA
ATOM      7  C   UNL A   1      44.332  20.525  24.412  1.00  0.00     0.251 C 
ATOM      8  H   UNL A   1      44.114  18.554  24.385  1.00  0.00     0.163 HD
BRANCH   7   9
ATOM      9  C   UNL A   1      44.084  21.844  25.059  1.00  0.00     0.039 A 
ATOM     10  C   UNL A   1      43.087  22.766  24.726  1.00  0.00     0.014 A 
ATOM     11  C   UNL A   1      44.980  22.167  26.087  1.00  0.00     0.014 A 
ATOM     12  C   UNL A   1      43.098  24.046  25.281  1.00  0.00     0.010 A 
ATOM     13  C   UNL A   1      44.968  23.419  26.678  1.00  0.00     0.010 A 
ATOM     14  C   UNL A   1      44.070  24.386  26.233  1.00  0.00    -0.014 A 
BRANCH  14  15
ATOM     15  C   UNL A   1      43.891  25.582  27.064  1.00  0.00     0.031 A 
ATOM     16  C   UNL A   1      44.938  26.587  26.694  1.00  0.00     0.074 A 
ATOM     17  C   UNL A   1      42.840  25.789  27.901  1.00  0.00     0.049 A 
ATOM     18  N   UNL A   1      45.937  26.958  27.425  1.00  0.00    -0.248 NA
ATOM     19  C   UNL A   1      45.068  27.021  25.285  1.00  0.00     0.031 C 
ATOM     20  C   UNL A   1      41.720  24.879  28.168  1.00  0.00     0.029 A 
ATOM     21  N   UNL A   1      42.488  26.900  28.645  1.00  0.00    -0.354 N 
ATOM     22  C   UNL A   1      46.625  27.907  26.667  1.00  0.00     0.074 A 
ATOM     23  C   UNL A   1      46.216  27.703  25.311  1.00  0.00     0.031 C 
ATOM     24  C   UNL A   1      40.713  25.541  28.786  1.00  0.00     0.029 A 
ATOM     25  C   UNL A   1      41.140  26.894  29.081  1.00  0.00     0.049 A 
ATOM     26  H   UNL A   1      43.118  27.628  28.853  1.00  0.00     0.167 HD
ATOM     27  C   UNL A   1      47.106  29.018  27.296  1.00  0.00     0.037 A 
ATOM     28  C   UNL A   1      40.441  27.934  29.635  1.00  0.00     0.037 A 
ATOM     29  C   UNL A   1      47.212  28.744  28.714  1.00  0.00     0.049 A 
ATOM     30  C   UNL A   1      41.446  28.882  30.161  1.00  0.00     0.074 A 
ATOM     31  C   UNL A   1      47.922  27.897  29.536  1.00  0.00     0.029 A 
ATOM     32  N   UNL A   1      46.086  29.102  29.397  1.00  0.00    -0.354 N 
ATOM     33  N   UNL A   1      42.227  28.606  31.166  1.00  0.00    -0.248 NA
ATOM     34  C   UNL A   1      41.918  29.894  29.237  1.00  0.00     0.031 C 
ATOM     35  C   UNL A   1      47.038  27.573  30.617  1.00  0.00     0.029 A 
ATOM     36  C   UNL A   1      45.870  28.322  30.486  1.00  0.00     0.049 A 
ATOM     37  H   UNL A   1      45.496  29.844  29.131  1.00  0.00     0.167 HD
ATOM     38  C   UNL A   1      43.478  29.005  30.727  1.00  0.00     0.074 A 
ATOM     39  C   UNL A   1      43.209  29.873  29.572  1.00  0.00     0.031 C 
ATOM     40  C   UNL A   1      44.590  28.327  31.150  1.00  0.00     0.037 A 
BRANCH  27  41
ATOM     41  C   UNL A   1      46.808  30.448  26.807  1.00  0.00     0.064 A 
ATOM     42  C   UNL A   1      47.845  31.404  26.897  1.00  0.00     0.173 A 
ATOM     43  C   UNL A   1      45.519  30.997  26.608  1.00  0.00     0.173 A 
ATOM     44  F   UNL A   1      49.114  31.017  27.096  1.00  0.00    -0.203 F 
ATOM     45  C   UNL A   1      47.596  32.783  26.901  1.00  0.00     0.198 A 
ATOM     46  C   UNL A   1      45.280  32.373  26.573  1.00  0.00     0.198 A 
ATOM     47  F   UNL A   1      44.412  30.254  26.537  1.00  0.00    -0.203 F 
ATOM     48  F   UNL A   1      48.600  33.640  27.128  1.00  0.00    -0.200 F 
ATOM     49  C   UNL A   1      46.311  33.265  26.751  1.00  0.00     0.200 A 
ATOM     50  F   UNL A   1      44.021  32.817  26.450  1.00  0.00    -0.200 F 
ATOM     51  F   UNL A   1      46.059  34.579  26.818  1.00  0.00    -0.200 F 
ENDBRANCH  27  41
BRANCH  28  52
ATOM     52  C   UNL A   1      39.021  28.371  29.452  1.00  0.00     0.064 A 
ATOM     53  C   UNL A   1      38.156  28.608  30.547  1.00  0.00     0.173 A 
ATOM     54  C   UNL A   1      38.587  28.884  28.217  1.00  0.00     0.173 A 
ATOM     55  F   UNL A   1      38.502  28.213  31.782  1.00  0.00    -0.203 F 
ATOM     56  C   UNL A   1      36.956  29.326  30.411  1.00  0.00     0.198 A 
ATOM     57  C   UNL A   1      37.394  29.603  28.084  1.00  0.00     0.198 A 
ATOM     58  F   UNL A   1      39.364  28.785  27.131  1.00  0.00    -0.203 F 
ATOM     59  F   UNL A   1      36.193  29.579  31.486  1.00  0.00    -0.200 F 
ATOM     60  C   UNL A   1      36.584  29.836  29.180  1.00  0.00     0.200 A 
ATOM     61  F   UNL A   1      37.070  30.130  26.895  1.00  0.00    -0.200 F 
ATOM     62  F   UNL A   1      35.476  30.582  29.056  1.00  0.00    -0.200 F 
ENDBRANCH  28  52
BRANCH  40  63
ATOM     63  C   UNL A   1      44.448  27.442  32.355  1.00  0.00     0.064 A 
ATOM     64  C   UNL A   1      44.198  26.059  32.322  1.00  0.00     0.173 A 
ATOM     65  C   UNL A   1      44.686  28.028  33.605  1.00  0.00     0.173 A 
ATOM     66  F   UNL A   1      44.061  25.410  31.157  1.00  0.00    -0.203 F 
ATOM     67  C   UNL A   1      44.136  25.315  33.501  1.00  0.00     0.198 A 
ATOM     68  C   UNL A   1      44.663  27.277  34.773  1.00  0.00     0.198 A 
ATOM     69  F   UNL A   1      44.988  29.333  33.688  1.00  0.00    -0.203 F 
ATOM     70  F   UNL A   1      43.882  23.998  33.454  1.00  0.00    -0.200 F 
ATOM     71  C   UNL A   1      44.370  25.925  34.724  1.00  0.00     0.200 A 
ATOM     72  F   UNL A   1      44.949  27.863  35.943  1.00  0.00    -0.200 F 
ATOM     73  F   UNL A   1      44.342  25.205  35.854  1.00  0.00    -0.200 F 
ENDBRANCH  40  63
ENDBRANCH  14  15
ENDBRANCH   7   9
ENDBRANCH   4   5
ENDBRANCH   3   4
ENDBRANCH   2   3
ENDBRANCH   1   2
BRANCH   1  74
ATOM     74  C   UNL A   1      39.846  21.672  26.284  1.00  0.00     0.021 C 
BRANCH  74  75
ATOM     75  C   UNL A   1      38.872  22.861  26.513  1.00  0.00     0.116 C 
BRANCH  75  76
ATOM     76  N   UNL A   1      38.164  23.294  25.087  1.00  0.00    -0.354 N 
ATOM     77  C   UNL A   1      36.276  23.592  24.320  1.00  0.00     0.242 C 
ATOM     78  H   UNL A   1      38.848  23.457  24.397  1.00  0.00     0.163 HD
ATOM     79  O   UNL A   1      35.831  23.474  23.130  1.00  0.00    -0.273 OA
BRANCH  77  80
ATOM     80  C   UNL A   1      34.844  24.180  25.224  1.00  0.00     0.175 C 
ATOM     81  C   UNL A   1      33.976  25.390  24.865  1.00  0.00     0.044 C 
ATOM     82  N   UNL A   1      33.839  23.233  25.680  1.00  0.00    -0.330 N 
ATOM     83  C   UNL A   1      32.716  25.394  25.705  1.00  0.00    -0.006 C 
ATOM     84  C   UNL A   1      32.789  24.005  26.402  1.00  0.00     0.127 C 
ATOM     85  C   UNL A   1      31.463  25.479  24.807  1.00  0.00     0.030 C 
ATOM     86  C   UNL A   1      32.782  26.715  26.515  1.00  0.00     0.030 C 
ATOM     87  C   UNL A   1      31.501  26.687  23.873  1.00  0.00     0.120 C 
ATOM     88  C   UNL A   1      32.761  27.961  25.568  1.00  0.00     0.120 C 
ATOM     89  N   UNL A   1      31.643  27.930  24.616  1.00  0.00    -0.342 N 
ATOM     90  C   UNL A   1      30.997  29.137  24.338  1.00  0.00     0.225 C 
ATOM     91  O   UNL A   1      31.408  30.195  24.814  1.00  0.00    -0.275 OA
BRANCH  82  92
ATOM     92  C   UNL A   1      33.822  21.860  25.552  1.00  0.00     0.225 C 
ATOM     93  O   UNL A   1      34.121  21.162  26.531  1.00  0.00    -0.275 OA
BRANCH  92  94
ATOM     94  C   UNL A   1      33.530  21.122  24.224  1.00  0.00     0.124 C 
BRANCH  94  95
ATOM     95  C   UNL A   1      32.218  20.351  23.955  1.00  0.00     0.154 C 
BRANCH  95  96
ATOM     96  N   UNL A   1      32.202  18.890  24.082  1.00  0.00    -0.272 N 
ATOM     97  C   UNL A   1      33.032  17.885  22.741  1.00  0.00     0.108 A 
ATOM     98  N   UNL A   1      32.478  18.056  25.755  1.00  0.00    -0.182 NA
ATOM     99  C   UNL A   1      33.955  16.515  23.584  1.00  0.00     0.042 A 
ATOM    100  C   UNL A   1      33.573  16.696  25.514  1.00  0.00     0.135 A 
ENDBRANCH  95  96
ENDBRANCH  94  95
ENDBRANCH  92  94
ENDBRANCH  82  92
BRANCH  90 101
ATOM    101  C   UNL A   1      29.738  29.239  23.534  1.00  0.00     0.079 C 
ATOM    102  C   UNL A   1      28.977  30.458  23.096  1.00  0.00     0.014 C 
ATOM    103  C   UNL A   1      29.756  29.654  22.083  1.00  0.00     0.014 C 
ENDBRANCH  90 101
ENDBRANCH  77  80
ENDBRANCH  75  76
ENDBRANCH  74  75
ENDBRANCH   1  74
TORSDOF 18
ENDMDL
MODEL 2
REMARK VINA RESULT:     -12.8      2.689      9.102
REMARK SMILES O=C(NCCCCCCNC(=O)[C@H]1CC2(CCN(C(=O)C3CC3)CC2)CN1C(=O)CCn1cccn1)c1ccc(-c2c3nc(c(-c4c(F)c(F)c(F)c(F)c4F)c4ccc([nH]4)c(-c4c(F)c(F)c(F)c(F)c4F)c4nc(c(-c5c(F)c(F)c(F)c(F)c5F)c5ccc2[nH]5)C=C4)C=C3)cc1
REMARK SMILES IDX 7 1 6 2 5 3 4 4 3 5 1 6 2 7 37 9 38 10 99 11 39 12 98 13
REMARK SMILES IDX 40 14 41 15 42 16 92 17 43 18 97 19 91 20 93 21 44 22 96 23
REMARK SMILES IDX 90 24 89 25 45 27 77 28 57 29 76 30 58 31 61 32 75 33 94 34
REMARK SMILES IDX 59 35 60 36 74 38 95 39 62 40 46 41 47 42 55 43 48 44 49 45
REMARK SMILES IDX 53 46 56 47 50 48 51 49 54 50 52 51 78 52 79 53 87 54 80 55
REMARK SMILES IDX 81 56 85 57 88 58 82 59 83 60 86 61 84 62 63 63 64 64 72 65
REMARK SMILES IDX 65 66 66 67 70 68 73 69 67 70 68 71 71 72 69 73 8 74 9 75
REMARK SMILES IDX 10 76 11 77 12 79 13 80 14 81 27 82 15 83 26 84 16 85 25 86
REMARK SMILES IDX 17 87 24 88 18 89 19 90 20 91 28 92 29 93 30 94 31 95 32 96
REMARK SMILES IDX 33 97 36 98 34 99 35 100 21 101 22 102 23 103
REMARK H PARENT 3 8 93 26 61 37 10 78
REMARK Flexibility Score: inf
ROOT
ATOM      1  C   UNL A   1      33.023  26.515  25.565  1.00  0.00     0.002 C 
ENDROOT
BRANCH   1   2
ATOM      2  C   UNL A   1      34.043  27.613  25.856  1.00  0.00     0.002 C 
BRANCH   2   3
ATOM      3  C   UNL A   1      33.384  28.950  26.227  1.00  0.00     0.021 C 
BRANCH   3   4
ATOM      4  C   UNL A   1      33.729  29.387  27.651  1.00  0.00     0.116 C 
BRANCH   4   5
ATOM      5  N   UNL A   1      33.993  30.800  27.723  1.00  0.00    -0.352 N 
ATOM      6  O   UNL A   1      35.069  32.720  27.965  1.00  0.00    -0.269 OA
ATOM      7  C   UNL A   1      35.158  31.496  27.870  1.00  0.00     0.251 C 
ATOM      8  H   UNL A   1      33.190  31.365  27.653  1.00  0.00     0.163 HD
BRANCH   7   9
ATOM      9  C   UNL A   1      36.484  30.842  28.049  1.00  0.00     0.039 A 
ATOM     10  C   UNL A   1      36.866  29.582  27.578  1.00  0.00     0.014 A 
ATOM     11  C   UNL A   1      37.408  31.589  28.792  1.00  0.00     0.014 A 
ATOM     12  C   UNL A   1      38.071  29.012  27.991  1.00  0.00     0.010 A 
ATOM     13  C   UNL A   1      38.627  31.049  29.166  1.00  0.00     0.010 A 
ATOM     14  C   UNL A   1      38.937  29.735  28.824  1.00  0.00    -0.014 A 
BRANCH  14  15
ATOM     15  C   UNL A   1      40.330  29.302  28.981  1.00  0.00     0.031 A 
ATOM     16  C   UNL A   1      40.612  29.108  30.439  1.00  0.00     0.074 A 
ATOM     17  C   UNL A   1      41.156  28.972  27.953  1.00  0.00     0.049 A 
ATOM     18  N   UNL A   1      41.382  29.840  31.175  1.00  0.00    -0.248 NA
ATOM     19  C   UNL A   1      39.755  28.201  31.234  1.00  0.00     0.031 C 
ATOM     20  C   UNL A   1      40.852  29.011  26.518  1.00  0.00     0.029 A 
ATOM     21  N   UNL A   1      42.434  28.445  27.961  1.00  0.00    -0.354 N 
ATOM     22  C   UNL A   1      41.335  29.272  32.450  1.00  0.00     0.074 A 
ATOM     23  C   UNL A   1      40.150  28.469  32.481  1.00  0.00     0.031 C 
ATOM     24  C   UNL A   1      41.781  28.312  25.822  1.00  0.00     0.029 A 
ATOM     25  C   UNL A   1      42.823  27.869  26.726  1.00  0.00     0.049 A 
ATOM     26  H   UNL A   1      43.020  28.469  28.752  1.00  0.00     0.167 HD
ATOM     27  C   UNL A   1      42.493  29.181  33.165  1.00  0.00     0.037 A 
ATOM     28  C   UNL A   1      43.919  27.084  26.484  1.00  0.00     0.037 A 
ATOM     29  C   UNL A   1      43.447  30.133  32.634  1.00  0.00     0.049 A 
ATOM     30  C   UNL A   1      44.878  27.354  27.576  1.00  0.00     0.074 A 
ATOM     31  C   UNL A   1      43.558  31.501  32.512  1.00  0.00     0.029 A 
ATOM     32  N   UNL A   1      44.245  29.586  31.672  1.00  0.00    -0.354 N 
ATOM     33  N   UNL A   1      45.480  28.499  27.728  1.00  0.00    -0.248 NA
ATOM     34  C   UNL A   1      44.746  26.534  28.764  1.00  0.00     0.031 C 
ATOM     35  C   UNL A   1      44.248  31.726  31.276  1.00  0.00     0.029 A 
ATOM     36  C   UNL A   1      44.641  30.496  30.747  1.00  0.00     0.049 A 
ATOM     37  H   UNL A   1      44.507  28.637  31.651  1.00  0.00     0.167 HD
ATOM     38  C   UNL A   1      45.331  28.771  29.077  1.00  0.00     0.074 A 
ATOM     39  C   UNL A   1      44.953  27.484  29.677  1.00  0.00     0.031 C 
ATOM     40  C   UNL A   1      45.215  30.070  29.495  1.00  0.00     0.037 A 
BRANCH  27  41
ATOM     41  C   UNL A   1      42.986  27.863  33.789  1.00  0.00     0.064 A 
ATOM     42  C   UNL A   1      43.440  27.897  35.128  1.00  0.00     0.173 A 
ATOM     43  C   UNL A   1      43.364  26.703  33.072  1.00  0.00     0.173 A 
ATOM     44  F   UNL A   1      43.160  28.947  35.916  1.00  0.00    -0.203 F 
ATOM     45  C   UNL A   1      44.288  26.916  35.659  1.00  0.00     0.198 A 
ATOM     46  C   UNL A   1      44.177  25.706  33.617  1.00  0.00     0.198 A 
ATOM     47  F   UNL A   1      43.060  26.509  31.787  1.00  0.00    -0.203 F 
ATOM     48  F   UNL A   1      44.799  27.071  36.887  1.00  0.00    -0.200 F 
ATOM     49  C   UNL A   1      44.664  25.827  34.898  1.00  0.00     0.200 A 
ATOM     50  F   UNL A   1      44.548  24.671  32.852  1.00  0.00    -0.200 F 
ATOM     51  F   UNL A   1      45.525  24.920  35.377  1.00  0.00    -0.200 F 
ENDBRANCH  27  41
BRANCH  28  52
ATOM     52  C   UNL A   1      44.090  25.874  25.618  1.00  0.00     0.064 A 
ATOM     53  C   UNL A   1      45.356  25.457  25.143  1.00  0.00     0.173 A 
ATOM     54  C   UNL A   1      43.062  24.921  25.516  1.00  0.00     0.173 A 
ATOM     55  F   UNL A   1      46.420  26.268  25.248  1.00  0.00    -0.203 F 
ATOM     56  C   UNL A   1      45.574  24.169  24.626  1.00  0.00     0.198 A 
ATOM     57  C   UNL A   1      43.282  23.637  25.005  1.00  0.00     0.198 A 
ATOM     58  F   UNL A   1      41.844  25.182  26.006  1.00  0.00    -0.203 F 
ATOM     59  F   UNL A   1      46.804  23.793  24.240  1.00  0.00    -0.200 F 
ATOM     60  C   UNL A   1      44.537  23.255  24.571  1.00  0.00     0.200 A 
ATOM     61  F   UNL A   1      42.279  22.747  25.001  1.00  0.00    -0.200 F 
ATOM     62  F   UNL A   1      44.753  22.002  24.144  1.00  0.00    -0.200 F 
ENDBRANCH  28  52
BRANCH  40  63
ATOM     63  C   UNL A   1      45.637  31.148  28.540  1.00  0.00     0.064 A 
ATOM     64  C   UNL A   1      46.960  31.568  28.323  1.00  0.00     0.173 A 
ATOM     65  C   UNL A   1      44.639  31.707  27.732  1.00  0.00     0.173 A 
ATOM     66  F   UNL A   1      47.981  31.007  28.987  1.00  0.00    -0.203 F 
ATOM     67  C   UNL A   1      47.254  32.547  27.372  1.00  0.00     0.198 A 
ATOM     68  C   UNL A   1      44.939  32.651  26.759  1.00  0.00     0.198 A 
ATOM     69  F   UNL A   1      43.366  31.298  27.857  1.00  0.00    -0.203 F 
ATOM     70  F   UNL A   1      48.521  32.948  27.186  1.00  0.00    -0.200 F 
ATOM     71  C   UNL A   1      46.243  33.085  26.590  1.00  0.00     0.200 A 
ATOM     72  F   UNL A   1      43.965  33.122  25.968  1.00  0.00    -0.200 F 
ATOM     73  F   UNL A   1      46.528  34.002  25.656  1.00  0.00    -0.200 F 
ENDBRANCH  40  63
ENDBRANCH  14  15
ENDBRANCH   7   9
ENDBRANCH   4   5
ENDBRANCH   3   4
ENDBRANCH   2   3
ENDBRANCH   1   2
BRANCH   1  74
ATOM     74  C   UNL A   1      31.700  26.826  26.243  1.00  0.00     0.021 C 
BRANCH  74  75
ATOM     75  C   UNL A   1      30.721  25.625  26.125  1.00  0.00     0.116 C 
BRANCH  75  76
ATOM     76  N   UNL A   1      31.359  24.301  26.874  1.00  0.00    -0.354 N 
ATOM     77  C   UNL A   1      32.810  22.878  26.539  1.00  0.00     0.242 C 
ATOM     78  H   UNL A   1      30.913  24.143  27.737  1.00  0.00     0.163 HD
ATOM     79  O   UNL A   1      32.905  21.672  26.944  1.00  0.00    -0.273 OA
BRANCH  77  80
ATOM     80  C   UNL A   1      34.334  23.112  25.625  1.00  0.00     0.175 C 
ATOM     81  C   UNL A   1      35.721  22.593  26.020  1.00  0.00     0.044 C 
ATOM     82  N   UNL A   1      34.352  22.906  24.185  1.00  0.00    -0.330 N 
ATOM     83  C   UNL A   1      36.686  22.758  24.866  1.00  0.00    -0.006 C 
ATOM     84  C   UNL A   1      35.737  23.183  23.709  1.00  0.00     0.127 C 
ATOM     85  C   UNL A   1      37.370  21.414  24.532  1.00  0.00     0.030 C 
ATOM     86  C   UNL A   1      37.791  23.705  25.402  1.00  0.00     0.030 C 
ATOM     87  C   UNL A   1      38.068  20.802  25.746  1.00  0.00     0.120 C 
ATOM     88  C   UNL A   1      38.552  23.062  26.609  1.00  0.00     0.120 C 
ATOM     89  N   UNL A   1      39.052  21.714  26.309  1.00  0.00    -0.342 N 
ATOM     90  C   UNL A   1      40.311  21.367  26.805  1.00  0.00     0.225 C 
ATOM     91  O   UNL A   1      40.934  22.137  27.535  1.00  0.00    -0.275 OA
BRANCH  82  92
ATOM     92  C   UNL A   1      33.311  22.569  23.346  1.00  0.00     0.225 C 
ATOM     93  O   UNL A   1      32.888  21.405  23.353  1.00  0.00    -0.275 OA
BRANCH  92  94
ATOM     94  C   UNL A   1      32.681  23.541  22.321  1.00  0.00     0.124 C 
BRANCH  94  95
ATOM     95  C   UNL A   1      31.745  24.703  22.722  1.00  0.00     0.154 C 
BRANCH  95  96
ATOM     96  N   UNL A   1      31.938  26.025  22.118  1.00  0.00    -0.272 N 
ATOM     97  C   UNL A   1      30.773  27.399  22.623  1.00  0.00     0.108 A 
ATOM     98  N   UNL A   1      33.671  26.733  21.860  1.00  0.00    -0.182 NA
ATOM     99  C   UNL A   1      31.799  28.929  22.833  1.00  0.00     0.042 A 
ATOM    100  C   UNL A   1      33.648  28.427  22.348  1.00  0.00     0.135 A 
ENDBRANCH  95  96
ENDBRANCH  94  95
ENDBRANCH  92  94
ENDBRANCH  82  92
BRANCH  90 101
ATOM    101  C   UNL A   1      41.029  20.105  26.438  1.00  0.00     0.079 C 
ATOM    102  C   UNL A   1      42.469  19.896  26.065  1.00  0.00     0.014 C 
ATOM    103  C   UNL A   1      41.962  19.415  27.402  1.00  0.00     0.014 C 
ENDBRANCH  90 101
ENDBRANCH  77  80
ENDBRANCH  75  76
ENDBRANCH  74  75
ENDBRANCH   1  74
TORSDOF 18
ENDMDL
MODEL 3
REMARK VINA RESULT:     -12.8      2.531      8.776
REMARK SMILES O=C(NCCCCCCNC(=O)[C@H]1CC2(CCN(C(=O)C3CC3)CC2)CN1C(=O)CCn1cccn1)c1ccc(-c2c3nc(c(-c4c(F)c(F)c(F)c(F)c4F)c4ccc([nH]4)c(-c4c(F)c(F)c(F)c(F)c4F)c4nc(c(-c5c(F)c(F)c(F)c(F)c5F)c5ccc2[nH]5)C=C4)C=C3)cc1
REMARK SMILES IDX 7 1 6 2 5 3 4 4 3 5 1 6 2 7 37 9 38 10 99 11 39 12 98 13
REMARK SMILES IDX 40 14 41 15 42 16 92 17 43 18 97 19 91 20 93 21 44 22 96 23
REMARK SMILES IDX 90 24 89 25 45 27 77 28 57 29 76 30 58 31 61 32 75 33 94 34
REMARK SMILES IDX 59 35 60 36 74 38 95 39 62 40 46 41 47 42 55 43 48 44 49 45
REMARK SMILES IDX 53 46 56 47 50 48 51 49 54 50 52 51 78 52 79 53 87 54 80 55
REMARK SMILES IDX 81 56 85 57 88 58 82 59 83 60 86 61 84 62 63 63 64 64 72 65
REMARK SMILES IDX 65 66 66 67 70 68 73 69 67 70 68 71 71 72 69 73 8 74 9 75
REMARK SMILES IDX 10 76 11 77 12 79 13 80 14 81 27 82 15 83 26 84 16 85 25 86
REMARK SMILES IDX 17 87 24 88 18 89 19 90 20 91 28 92 29 93 30 94 31 95 32 96
REMARK SMILES IDX 33 97 36 98 34 99 35 100 21 101 22 102 23 103
REMARK H PARENT 3 8 93 26 61 37 10 78
REMARK Flexibility Score: inf
ROOT
ATOM      1  C   UNL A   1      32.322  26.444  25.009  1.00  0.00     0.002 C 
ENDROOT
BRANCH   1   2
ATOM      2  C   UNL A   1      33.420  26.972  25.928  1.00  0.00     0.002 C 
BRANCH   2   3
ATOM      3  C   UNL A   1      33.430  28.505  26.020  1.00  0.00     0.021 C 
BRANCH   3   4
ATOM      4  C   UNL A   1      33.504  28.994  27.468  1.00  0.00     0.116 C 
BRANCH   4   5
ATOM      5  N   UNL A   1      33.630  30.426  27.537  1.00  0.00    -0.352 N 
ATOM      6  O   UNL A   1      34.502  32.440  27.834  1.00  0.00    -0.269 OA
ATOM      7  C   UNL A   1      34.710  31.229  27.767  1.00  0.00     0.251 C 
ATOM      8  H   UNL A   1      32.788  30.914  27.391  1.00  0.00     0.163 HD
BRANCH   7   9
ATOM      9  C   UNL A   1      36.071  30.702  28.065  1.00  0.00     0.039 A 
ATOM     10  C   UNL A   1      36.544  29.410  27.812  1.00  0.00     0.014 A 
ATOM     11  C   UNL A   1      36.929  31.620  28.685  1.00  0.00     0.014 A 
ATOM     12  C   UNL A   1      37.773  28.997  28.325  1.00  0.00     0.010 A 
ATOM     13  C   UNL A   1      38.172  31.230  29.156  1.00  0.00     0.010 A 
ATOM     14  C   UNL A   1      38.573  29.902  29.037  1.00  0.00    -0.014 A 
BRANCH  14  15
ATOM     15  C   UNL A   1      39.987  29.594  29.278  1.00  0.00     0.031 A 
ATOM     16  C   UNL A   1      40.266  29.730  30.744  1.00  0.00     0.074 A 
ATOM     17  C   UNL A   1      40.840  29.103  28.341  1.00  0.00     0.049 A 
ATOM     18  N   UNL A   1      40.985  30.645  31.306  1.00  0.00    -0.248 NA
ATOM     19  C   UNL A   1      39.455  28.963  31.715  1.00  0.00     0.031 C 
ATOM     20  C   UNL A   1      40.548  28.820  26.931  1.00  0.00     0.029 A 
ATOM     21  N   UNL A   1      42.146  28.666  28.456  1.00  0.00    -0.354 N 
ATOM     22  C   UNL A   1      40.960  30.357  32.672  1.00  0.00     0.074 A 
ATOM     23  C   UNL A   1      39.823  29.512  32.876  1.00  0.00     0.031 C 
ATOM     24  C   UNL A   1      41.522  28.045  26.396  1.00  0.00     0.029 A 
ATOM     25  C   UNL A   1      42.580  27.864  27.370  1.00  0.00     0.049 A 
ATOM     26  H   UNL A   1      42.723  28.890  29.222  1.00  0.00     0.167 HD
ATOM     27  C   UNL A   1      42.114  30.487  33.387  1.00  0.00     0.037 A 
ATOM     28  C   UNL A   1      43.721  27.111  27.296  1.00  0.00     0.037 A 
ATOM     29  C   UNL A   1      43.016  31.360  32.663  1.00  0.00     0.049 A 
ATOM     30  C   UNL A   1      44.653  27.662  28.304  1.00  0.00     0.074 A 
ATOM     31  C   UNL A   1      43.049  32.675  32.254  1.00  0.00     0.029 A 
ATOM     32  N   UNL A   1      43.854  30.670  31.836  1.00  0.00    -0.354 N 
ATOM     33  N   UNL A   1      45.186  28.847  28.208  1.00  0.00    -0.248 NA
ATOM     34  C   UNL A   1      44.557  27.106  29.639  1.00  0.00     0.031 C 
ATOM     35  C   UNL A   1      43.737  32.673  30.996  1.00  0.00     0.029 A 
ATOM     36  C   UNL A   1      44.205  31.385  30.739  1.00  0.00     0.049 A 
ATOM     37  H   UNL A   1      44.170  29.754  32.016  1.00  0.00     0.167 HD
ATOM     38  C   UNL A   1      45.009  29.388  29.470  1.00  0.00     0.074 A 
ATOM     39  C   UNL A   1      44.701  28.238  30.330  1.00  0.00     0.031 C 
ATOM     40  C   UNL A   1      44.814  30.737  29.603  1.00  0.00     0.037 A 
BRANCH  27  41
ATOM     41  C   UNL A   1      42.677  29.362  34.274  1.00  0.00     0.064 A 
ATOM     42  C   UNL A   1      43.269  29.728  35.505  1.00  0.00     0.173 A 
ATOM     43  C   UNL A   1      42.982  28.049  33.844  1.00  0.00     0.173 A 
ATOM     44  F   UNL A   1      43.069  30.951  36.021  1.00  0.00    -0.203 F 
ATOM     45  C   UNL A   1      44.172  28.897  36.180  1.00  0.00     0.198 A 
ATOM     46  C   UNL A   1      43.852  27.208  34.540  1.00  0.00     0.198 A 
ATOM     47  F   UNL A   1      42.545  27.540  32.690  1.00  0.00    -0.203 F 
ATOM     48  F   UNL A   1      44.810  29.350  37.267  1.00  0.00    -0.200 F 
ATOM     49  C   UNL A   1      44.472  27.641  35.690  1.00  0.00     0.200 A 
ATOM     50  F   UNL A   1      44.146  26.002  34.032  1.00  0.00    -0.200 F 
ATOM     51  F   UNL A   1      45.383  26.867  36.295  1.00  0.00    -0.200 F 
ENDBRANCH  27  41
BRANCH  28  52
ATOM     52  C   UNL A   1      43.970  25.759  26.706  1.00  0.00     0.064 A 
ATOM     53  C   UNL A   1      44.867  25.557  25.630  1.00  0.00     0.173 A 
ATOM     54  C   UNL A   1      43.588  24.598  27.400  1.00  0.00     0.173 A 
ATOM     55  F   UNL A   1      45.342  26.603  24.938  1.00  0.00    -0.203 F 
ATOM     56  C   UNL A   1      45.357  24.284  25.293  1.00  0.00     0.198 A 
ATOM     57  C   UNL A   1      44.081  23.331  27.067  1.00  0.00     0.198 A 
ATOM     58  F   UNL A   1      42.805  24.682  28.483  1.00  0.00    -0.203 F 
ATOM     59  F   UNL A   1      46.252  24.143  24.302  1.00  0.00    -0.200 F 
ATOM     60  C   UNL A   1      44.974  23.173  26.024  1.00  0.00     0.200 A 
ATOM     61  F   UNL A   1      43.737  22.271  27.812  1.00  0.00    -0.200 F 
ATOM     62  F   UNL A   1      45.491  21.965  25.753  1.00  0.00    -0.200 F 
ENDBRANCH  28  52
BRANCH  40  63
ATOM     63  C   UNL A   1      45.182  31.613  28.441  1.00  0.00     0.064 A 
ATOM     64  C   UNL A   1      44.367  31.862  27.323  1.00  0.00     0.173 A 
ATOM     65  C   UNL A   1      46.391  32.313  28.529  1.00  0.00     0.173 A 
ATOM     66  F   UNL A   1      43.151  31.307  27.217  1.00  0.00    -0.203 F 
ATOM     67  C   UNL A   1      44.781  32.736  26.316  1.00  0.00     0.198 A 
ATOM     68  C   UNL A   1      46.782  33.212  27.546  1.00  0.00     0.198 A 
ATOM     69  F   UNL A   1      47.180  32.157  29.605  1.00  0.00    -0.203 F 
ATOM     70  F   UNL A   1      43.997  32.953  25.248  1.00  0.00    -0.200 F 
ATOM     71  C   UNL A   1      45.987  33.411  26.431  1.00  0.00     0.200 A 
ATOM     72  F   UNL A   1      47.920  33.904  27.694  1.00  0.00    -0.200 F 
ATOM     73  F   UNL A   1      46.370  34.273  25.480  1.00  0.00    -0.200 F 
ENDBRANCH  40  63
ENDBRANCH  14  15
ENDBRANCH   7   9
ENDBRANCH   4   5
ENDBRANCH   3   4
ENDBRANCH   2   3
ENDBRANCH   1   2
BRANCH   1  74
ATOM     74  C   UNL A   1      30.951  26.767  25.579  1.00  0.00     0.021 C 
BRANCH  74  75
ATOM     75  C   UNL A   1      30.145  25.468  25.855  1.00  0.00     0.116 C 
BRANCH  75  76
ATOM     76  N   UNL A   1      30.986  24.490  26.884  1.00  0.00    -0.354 N 
ATOM     77  C   UNL A   1      32.589  23.198  26.832  1.00  0.00     0.242 C 
ATOM     78  H   UNL A   1      30.608  24.536  27.792  1.00  0.00     0.163 HD
ATOM     79  O   UNL A   1      32.859  22.175  27.545  1.00  0.00    -0.273 OA
BRANCH  77  80
ATOM     80  C   UNL A   1      34.022  23.327  25.762  1.00  0.00     0.175 C 
ATOM     81  C   UNL A   1      35.439  22.839  26.078  1.00  0.00     0.044 C 
ATOM     82  N   UNL A   1      33.907  22.978  24.355  1.00  0.00    -0.330 N 
ATOM     83  C   UNL A   1      36.294  22.880  24.830  1.00  0.00    -0.006 C 
ATOM     84  C   UNL A   1      35.241  23.195  23.729  1.00  0.00     0.127 C 
ATOM     85  C   UNL A   1      36.945  21.504  24.571  1.00  0.00     0.030 C 
ATOM     86  C   UNL A   1      37.442  23.867  25.164  1.00  0.00     0.030 C 
ATOM     87  C   UNL A   1      37.754  21.012  25.770  1.00  0.00     0.120 C 
ATOM     88  C   UNL A   1      38.312  23.343  26.354  1.00  0.00     0.120 C 
ATOM     89  N   UNL A   1      38.785  21.967  26.146  1.00  0.00    -0.342 N 
ATOM     90  C   UNL A   1      40.084  21.661  26.557  1.00  0.00     0.225 C 
ATOM     91  O   UNL A   1      40.771  22.496  27.144  1.00  0.00    -0.275 OA
BRANCH  82  92
ATOM     92  C   UNL A   1      32.793  22.567  23.654  1.00  0.00     0.225 C 
ATOM     93  O   UNL A   1      32.074  23.421  23.116  1.00  0.00    -0.275 OA
BRANCH  92  94
ATOM     94  C   UNL A   1      32.327  21.095  23.561  1.00  0.00     0.124 C 
BRANCH  94  95
ATOM     95  C   UNL A   1      32.557  20.062  24.687  1.00  0.00     0.154 C 
BRANCH  95  96
ATOM     96  N   UNL A   1      32.402  18.633  24.396  1.00  0.00    -0.272 N 
ATOM     97  C   UNL A   1      33.461  17.894  23.044  1.00  0.00     0.108 A 
ATOM     98  N   UNL A   1      32.192  17.374  25.790  1.00  0.00    -0.182 NA
ATOM     99  C   UNL A   1      34.042  16.241  23.654  1.00  0.00     0.042 A 
ATOM    100  C   UNL A   1      33.208  15.981  25.426  1.00  0.00     0.135 A 
ENDBRANCH  95  96
ENDBRANCH  94  95
ENDBRANCH  92  94
ENDBRANCH  82  92
BRANCH  90 101
ATOM    101  C   UNL A   1      40.767  20.363  26.254  1.00  0.00     0.079 C 
ATOM    102  C   UNL A   1      42.203  20.096  25.903  1.00  0.00     0.014 C 
ATOM    103  C   UNL A   1      41.672  19.691  27.256  1.00  0.00     0.014 C 
ENDBRANCH  90 101
ENDBRANCH  77  80
ENDBRANCH  75  76
ENDBRANCH  74  75
ENDBRANCH   1  74
TORSDOF 18
ENDMDL
