MODEL 1
REMARK VINA RESULT:     -12.0      0.000      0.000
REMARK SMILES Cc1n[nH]c(C)c1S(=O)(=O)N[C@H](C(=O)NCCCCCCNC(=O)c1ccc(-c2c3nc(c(-c4c(F)c(F)c(F)c(F)c4F)c4ccc([nH]4)c(-c4c(F)c(F)c(F)c(F)c4F)c4nc(c(-c5c(F)c(F)c(F)c(F)c5F)c5ccc2[nH]5)C=C4)C=C3)cc1)C(C)C
REMARK SMILES IDX 18 1 17 2 16 3 15 4 13 5 14 6 12 8 11 9 8 11 9 12 10 13 7 14
REMARK SMILES IDX 1 15 2 16 3 17 4 18 5 19 6 21 88 22 89 23 90 24 19 25 20 26
REMARK SMILES IDX 21 27 22 28 23 29 24 31 25 32 26 33 87 34 27 35 86 36 28 37
REMARK SMILES IDX 29 38 30 39 80 40 31 41 85 42 79 43 81 44 32 45 84 46 78 47
REMARK SMILES IDX 77 48 33 50 65 51 45 52 64 53 46 54 49 55 63 56 82 57 47 58
REMARK SMILES IDX 48 59 62 61 83 62 50 63 34 64 35 65 43 66 36 67 37 68 41 69
REMARK SMILES IDX 44 70 38 71 39 72 42 73 40 74 66 75 67 76 75 77 68 78 69 79
REMARK SMILES IDX 73 80 76 81 70 82 71 83 74 84 72 85 51 86 52 87 60 88 53 89
REMARK SMILES IDX 54 90 58 91 61 92 55 93 56 94 59 95 57 96
REMARK H PARENT 15 7 11 10 4 20 22 30 81 49 49 60
REMARK Flexibility Score: inf
ROOT
ATOM      1  C   UNL A   1      32.973  29.854  26.758  1.00  0.00     0.002 C 
ENDROOT
BRANCH   1   2
ATOM      2  C   UNL A   1      32.632  28.494  27.378  1.00  0.00     0.021 C 
BRANCH   2   3
ATOM      3  C   UNL A   1      31.605  27.672  26.592  1.00  0.00     0.116 C 
BRANCH   3   4
ATOM      4  N   UNL A   1      31.538  26.326  27.127  1.00  0.00    -0.355 N 
ATOM      5  C   UNL A   1      31.508  25.125  26.485  1.00  0.00     0.238 C 
ATOM      6  O   UNL A   1      31.134  24.146  27.144  1.00  0.00    -0.273 OA
ATOM      7  H   UNL A   1      31.511  26.272  28.110  1.00  0.00     0.163 HD
BRANCH   5   8
ATOM      8  C   UNL A   1      32.003  24.949  25.004  1.00  0.00     0.161 C 
BRANCH   8   9
ATOM      9  N   UNL A   1      32.653  23.618  25.161  1.00  0.00    -0.198 NA
ATOM     10  H   UNL A   1      32.237  23.223  26.006  1.00  0.00     0.142 HD
BRANCH   9  11
ATOM     11  S   UNL A   1      34.271  23.296  25.295  1.00  0.00     0.244 S 
ATOM     12  O   UNL A   1      34.700  23.625  26.627  1.00  0.00    -0.207 OA
ATOM     13  O   UNL A   1      34.905  23.900  24.141  1.00  0.00    -0.207 OA
BRANCH  11  14
ATOM     14  C   UNL A   1      34.566  21.618  25.096  1.00  0.00     0.125 A 
ATOM     15  C   UNL A   1      32.113  20.701  24.952  1.00  0.00     0.070 C 
ATOM     16  C   UNL A   1      33.596  20.599  24.957  1.00  0.00     0.079 A 
ATOM     17  N   UNL A   1      34.177  19.398  24.816  1.00  0.00    -0.179 NA
ATOM     18  N   UNL A   1      35.490  19.648  24.935  1.00  0.00    -0.281 N 
ATOM     19  C   UNL A   1      35.789  20.973  25.094  1.00  0.00     0.052 A 
ATOM     20  H   UNL A   1      36.175  18.941  24.909  1.00  0.00     0.190 HD
ATOM     21  C   UNL A   1      37.178  21.456  25.259  1.00  0.00     0.067 C 
ENDBRANCH  11  14
ENDBRANCH   9  11
ENDBRANCH   8   9
BRANCH   8  22
ATOM     22  C   UNL A   1      30.825  24.981  24.003  1.00  0.00     0.010 C 
ATOM     23  C   UNL A   1      30.932  26.162  23.031  1.00  0.00     0.009 C 
ATOM     24  C   UNL A   1      30.718  23.714  23.144  1.00  0.00     0.009 C 
ENDBRANCH   8  22
ENDBRANCH   5   8
ENDBRANCH   3   4
ENDBRANCH   2   3
ENDBRANCH   1   2
BRANCH   1  25
ATOM     25  C   UNL A   1      31.793  30.598  26.126  1.00  0.00     0.002 C 
BRANCH  25  26
ATOM     26  C   UNL A   1      31.467  31.964  26.736  1.00  0.00     0.021 C 
BRANCH  26  27
ATOM     27  C   UNL A   1      32.652  32.707  27.351  1.00  0.00     0.116 C 
BRANCH  27  28
ATOM     28  N   UNL A   1      32.355  34.104  27.619  1.00  0.00    -0.352 N 
ATOM     29  C   UNL A   1      32.935  34.967  28.518  1.00  0.00     0.251 C 
ATOM     30  H   UNL A   1      31.630  34.491  27.075  1.00  0.00     0.163 HD
ATOM     31  O   UNL A   1      32.440  36.070  28.729  1.00  0.00    -0.269 OA
BRANCH  29  32
ATOM     32  C   UNL A   1      34.145  34.553  29.258  1.00  0.00     0.039 A 
ATOM     33  C   UNL A   1      34.007  34.083  30.567  1.00  0.00     0.014 A 
ATOM     34  C   UNL A   1      35.407  34.619  28.663  1.00  0.00     0.014 A 
ATOM     35  C   UNL A   1      35.124  33.593  31.247  1.00  0.00     0.010 A 
ATOM     36  C   UNL A   1      36.510  34.078  29.320  1.00  0.00     0.010 A 
ATOM     37  C   UNL A   1      36.374  33.542  30.611  1.00  0.00    -0.014 A 
BRANCH  37  38
ATOM     38  C   UNL A   1      37.543  32.885  31.249  1.00  0.00     0.031 A 
ATOM     39  C   UNL A   1      38.194  31.695  30.603  1.00  0.00     0.074 A 
ATOM     40  C   UNL A   1      37.947  33.298  32.465  1.00  0.00     0.049 A 
ATOM     41  N   UNL A   1      39.128  30.908  31.072  1.00  0.00    -0.248 NA
ATOM     42  C   UNL A   1      37.713  31.328  29.261  1.00  0.00     0.031 C 
ATOM     43  C   UNL A   1      37.367  34.413  33.215  1.00  0.00     0.029 A 
ATOM     44  N   UNL A   1      38.921  32.809  33.301  1.00  0.00    -0.354 N 
ATOM     45  C   UNL A   1      39.334  29.942  30.095  1.00  0.00     0.074 A 
ATOM     46  C   UNL A   1      38.405  30.223  29.020  1.00  0.00     0.031 C 
ATOM     47  C   UNL A   1      37.990  34.520  34.399  1.00  0.00     0.029 A 
ATOM     48  C   UNL A   1      38.984  33.458  34.511  1.00  0.00     0.049 A 
ATOM     49  H   UNL A   1      39.518  32.064  33.057  1.00  0.00     0.167 HD
ATOM     50  C   UNL A   1      40.225  28.923  30.096  1.00  0.00     0.037 A 
ATOM     51  C   UNL A   1      39.738  33.209  35.599  1.00  0.00     0.037 A 
ATOM     52  C   UNL A   1      41.168  28.668  31.152  1.00  0.00     0.049 A 
ATOM     53  C   UNL A   1      40.712  32.062  35.573  1.00  0.00     0.074 A 
ATOM     54  C   UNL A   1      42.177  27.721  31.197  1.00  0.00     0.029 A 
ATOM     55  N   UNL A   1      41.216  29.358  32.353  1.00  0.00    -0.354 N 
ATOM     56  N   UNL A   1      40.952  31.205  34.612  1.00  0.00    -0.248 NA
ATOM     57  C   UNL A   1      41.517  31.848  36.784  1.00  0.00     0.031 C 
ATOM     58  C   UNL A   1      42.802  27.805  32.444  1.00  0.00     0.029 A 
ATOM     59  C   UNL A   1      42.213  28.834  33.160  1.00  0.00     0.049 A 
ATOM     60  H   UNL A   1      40.628  30.111  32.596  1.00  0.00     0.167 HD
ATOM     61  C   UNL A   1      41.944  30.361  35.094  1.00  0.00     0.074 A 
ATOM     62  C   UNL A   1      42.274  30.821  36.426  1.00  0.00     0.031 C 
ATOM     63  C   UNL A   1      42.525  29.298  34.487  1.00  0.00     0.037 A 
BRANCH  50  64
ATOM     64  C   UNL A   1      40.231  27.997  28.914  1.00  0.00     0.064 A 
ATOM     65  C   UNL A   1      40.955  28.294  27.751  1.00  0.00     0.173 A 
ATOM     66  C   UNL A   1      39.557  26.768  28.975  1.00  0.00     0.173 A 
ATOM     67  F   UNL A   1      41.608  29.461  27.641  1.00  0.00    -0.203 F 
ATOM     68  C   UNL A   1      40.990  27.400  26.684  1.00  0.00     0.198 A 
ATOM     69  C   UNL A   1      39.616  25.866  27.918  1.00  0.00     0.198 A 
ATOM     70  F   UNL A   1      38.855  26.435  30.069  1.00  0.00    -0.203 F 
ATOM     71  F   UNL A   1      41.663  27.718  25.569  1.00  0.00    -0.200 F 
ATOM     72  C   UNL A   1      40.329  26.184  26.771  1.00  0.00     0.200 A 
ATOM     73  F   UNL A   1      38.986  24.687  28.008  1.00  0.00    -0.200 F 
ATOM     74  F   UNL A   1      40.376  25.320  25.748  1.00  0.00    -0.200 F 
ENDBRANCH  50  64
BRANCH  51  75
ATOM     75  C   UNL A   1      39.591  34.053  36.813  1.00  0.00     0.064 A 
ATOM     76  C   UNL A   1      40.246  35.286  36.917  1.00  0.00     0.173 A 
ATOM     77  C   UNL A   1      38.800  33.639  37.895  1.00  0.00     0.173 A 
ATOM     78  F   UNL A   1      41.030  35.714  35.917  1.00  0.00    -0.203 F 
ATOM     79  C   UNL A   1      40.132  36.067  38.066  1.00  0.00     0.198 A 
ATOM     80  C   UNL A   1      38.663  34.432  39.031  1.00  0.00     0.198 A 
ATOM     81  F   UNL A   1      38.147  32.468  37.842  1.00  0.00    -0.203 F 
ATOM     82  F   UNL A   1      40.804  37.222  38.158  1.00  0.00    -0.200 F 
ATOM     83  C   UNL A   1      39.335  35.642  39.120  1.00  0.00     0.200 A 
ATOM     84  F   UNL A   1      37.882  34.025  40.041  1.00  0.00    -0.200 F 
ATOM     85  F   UNL A   1      39.223  36.395  40.223  1.00  0.00    -0.200 F 
ENDBRANCH  51  75
BRANCH  63  86
ATOM     86  C   UNL A   1      43.584  28.563  35.253  1.00  0.00     0.064 A 
ATOM     87  C   UNL A   1      44.942  28.885  35.112  1.00  0.00     0.173 A 
ATOM     88  C   UNL A   1      43.236  27.560  36.169  1.00  0.00     0.173 A 
ATOM     89  F   UNL A   1      45.326  29.824  34.236  1.00  0.00    -0.203 F 
ATOM     90  C   UNL A   1      45.915  28.216  35.851  1.00  0.00     0.198 A 
ATOM     91  C   UNL A   1      44.209  26.912  36.925  1.00  0.00     0.198 A 
ATOM     92  F   UNL A   1      41.950  27.219  36.342  1.00  0.00    -0.203 F 
ATOM     93  F   UNL A   1      47.210  28.512  35.673  1.00  0.00    -0.200 F 
ATOM     94  C   UNL A   1      45.547  27.237  36.762  1.00  0.00     0.200 A 
ATOM     95  F   UNL A   1      43.852  25.974  37.813  1.00  0.00    -0.200 F 
ATOM     96  F   UNL A   1      46.484  26.601  37.479  1.00  0.00    -0.200 F 
ENDBRANCH  63  86
ENDBRANCH  37  38
ENDBRANCH  29  32
ENDBRANCH  27  28
ENDBRANCH  26  27
ENDBRANCH  25  26
ENDBRANCH   1  25
TORSDOF 17
ENDMDL
MODEL 2
REMARK VINA RESULT:     -11.9      1.326      2.465
REMARK SMILES Cc1n[nH]c(C)c1S(=O)(=O)N[C@H](C(=O)NCCCCCCNC(=O)c1ccc(-c2c3nc(c(-c4c(F)c(F)c(F)c(F)c4F)c4ccc([nH]4)c(-c4c(F)c(F)c(F)c(F)c4F)c4nc(c(-c5c(F)c(F)c(F)c(F)c5F)c5ccc2[nH]5)C=C4)C=C3)cc1)C(C)C
REMARK SMILES IDX 18 1 17 2 16 3 15 4 13 5 14 6 12 8 11 9 8 11 9 12 10 13 7 14
REMARK SMILES IDX 1 15 2 16 3 17 4 18 5 19 6 21 88 22 89 23 90 24 19 25 20 26
REMARK SMILES IDX 21 27 22 28 23 29 24 31 25 32 26 33 87 34 27 35 86 36 28 37
REMARK SMILES IDX 29 38 30 39 80 40 31 41 85 42 79 43 81 44 32 45 84 46 78 47
REMARK SMILES IDX 77 48 33 50 65 51 45 52 64 53 46 54 49 55 63 56 82 57 47 58
REMARK SMILES IDX 48 59 62 61 83 62 50 63 34 64 35 65 43 66 36 67 37 68 41 69
REMARK SMILES IDX 44 70 38 71 39 72 42 73 40 74 66 75 67 76 75 77 68 78 69 79
REMARK SMILES IDX 73 80 76 81 70 82 71 83 74 84 72 85 51 86 52 87 60 88 53 89
REMARK SMILES IDX 54 90 58 91 61 92 55 93 56 94 59 95 57 96
REMARK H PARENT 15 7 11 10 4 20 22 30 81 49 49 60
REMARK Flexibility Score: inf
ROOT
ATOM      1  C   UNL A   1      32.562  28.809  26.326  1.00  0.00     0.002 C 
ENDROOT
BRANCH   1   2
ATOM      2  C   UNL A   1      33.671  28.094  25.545  1.00  0.00     0.021 C 
BRANCH   2   3
ATOM      3  C   UNL A   1      33.524  26.570  25.474  1.00  0.00     0.116 C 
BRANCH   3   4
ATOM      4  N   UNL A   1      33.404  26.151  24.092  1.00  0.00    -0.355 N 
ATOM      5  C   UNL A   1      33.932  25.069  23.453  1.00  0.00     0.238 C 
ATOM      6  O   UNL A   1      33.947  25.102  22.215  1.00  0.00    -0.273 OA
ATOM      7  H   UNL A   1      32.854  26.739  23.526  1.00  0.00     0.163 HD
BRANCH   5   8
ATOM      8  C   UNL A   1      34.423  23.792  24.224  1.00  0.00     0.161 C 
BRANCH   8   9
ATOM      9  N   UNL A   1      33.890  22.766  23.284  1.00  0.00    -0.198 NA
ATOM     10  H   UNL A   1      33.823  23.246  22.386  1.00  0.00     0.142 HD
BRANCH   9  11
ATOM     11  S   UNL A   1      32.477  21.915  23.416  1.00  0.00     0.244 S 
ATOM     12  O   UNL A   1      32.148  21.361  22.132  1.00  0.00    -0.207 OA
ATOM     13  O   UNL A   1      31.544  22.777  24.113  1.00  0.00    -0.207 OA
BRANCH  11  14
ATOM     14  C   UNL A   1      32.678  20.583  24.478  1.00  0.00     0.125 A 
ATOM     15  C   UNL A   1      32.154  18.584  22.862  1.00  0.00     0.070 C 
ATOM     16  C   UNL A   1      32.523  19.215  24.156  1.00  0.00     0.079 A 
ATOM     17  N   UNL A   1      32.760  18.441  25.226  1.00  0.00    -0.179 NA
ATOM     18  N   UNL A   1      32.990  19.310  26.222  1.00  0.00    -0.281 N 
ATOM     19  C   UNL A   1      32.965  20.619  25.830  1.00  0.00     0.052 A 
ATOM     20  H   UNL A   1      33.161  19.029  27.150  1.00  0.00     0.190 HD
ATOM     21  C   UNL A   1      33.179  21.734  26.780  1.00  0.00     0.067 C 
ENDBRANCH  11  14
ENDBRANCH   9  11
ENDBRANCH   8   9
BRANCH   8  22
ATOM     22  C   UNL A   1      35.961  23.783  24.389  1.00  0.00     0.010 C 
ATOM     23  C   UNL A   1      36.379  23.480  25.832  1.00  0.00     0.009 C 
ATOM     24  C   UNL A   1      36.665  22.749  23.500  1.00  0.00     0.009 C 
ENDBRANCH   8  22
ENDBRANCH   5   8
ENDBRANCH   3   4
ENDBRANCH   2   3
ENDBRANCH   1   2
BRANCH   1  25
ATOM     25  C   UNL A   1      32.014  30.078  25.668  1.00  0.00     0.002 C 
BRANCH  25  26
ATOM     26  C   UNL A   1      31.671  31.224  26.624  1.00  0.00     0.021 C 
BRANCH  26  27
ATOM     27  C   UNL A   1      32.863  32.035  27.130  1.00  0.00     0.116 C 
BRANCH  27  28
ATOM     28  N   UNL A   1      32.528  33.429  27.369  1.00  0.00    -0.352 N 
ATOM     29  C   UNL A   1      33.052  34.313  28.281  1.00  0.00     0.251 C 
ATOM     30  H   UNL A   1      31.820  33.795  26.789  1.00  0.00     0.163 HD
ATOM     31  O   UNL A   1      32.527  35.408  28.457  1.00  0.00    -0.269 OA
BRANCH  29  32
ATOM     32  C   UNL A   1      34.236  33.931  29.077  1.00  0.00     0.039 A 
ATOM     33  C   UNL A   1      34.054  33.166  30.232  1.00  0.00     0.014 A 
ATOM     34  C   UNL A   1      35.520  34.318  28.684  1.00  0.00     0.014 A 
ATOM     35  C   UNL A   1      35.167  32.710  30.943  1.00  0.00     0.010 A 
ATOM     36  C   UNL A   1      36.630  33.816  29.360  1.00  0.00     0.010 A 
ATOM     37  C   UNL A   1      36.463  32.991  30.484  1.00  0.00    -0.014 A 
BRANCH  37  38
ATOM     38  C   UNL A   1      37.660  32.391  31.126  1.00  0.00     0.031 A 
ATOM     39  C   UNL A   1      38.368  31.232  30.485  1.00  0.00     0.074 A 
ATOM     40  C   UNL A   1      38.042  32.827  32.342  1.00  0.00     0.049 A 
ATOM     41  N   UNL A   1      39.337  30.491  30.959  1.00  0.00    -0.248 NA
ATOM     42  C   UNL A   1      37.907  30.838  29.144  1.00  0.00     0.031 C 
ATOM     43  C   UNL A   1      37.408  33.916  33.087  1.00  0.00     0.029 A 
ATOM     44  N   UNL A   1      39.036  32.388  33.182  1.00  0.00    -0.354 N 
ATOM     45  C   UNL A   1      39.590  29.533  29.986  1.00  0.00     0.074 A 
ATOM     46  C   UNL A   1      38.652  29.767  28.908  1.00  0.00     0.031 C 
ATOM     47  C   UNL A   1      38.023  34.056  34.272  1.00  0.00     0.029 A 
ATOM     48  C   UNL A   1      39.066  33.042  34.389  1.00  0.00     0.049 A 
ATOM     49  H   UNL A   1      39.668  31.671  32.941  1.00  0.00     0.167 HD
ATOM     50  C   UNL A   1      40.529  28.557  29.991  1.00  0.00     0.037 A 
ATOM     51  C   UNL A   1      39.828  32.832  35.480  1.00  0.00     0.037 A 
ATOM     52  C   UNL A   1      41.480  28.350  31.050  1.00  0.00     0.049 A 
ATOM     53  C   UNL A   1      40.855  31.733  35.459  1.00  0.00     0.074 A 
ATOM     54  C   UNL A   1      42.532  27.452  31.100  1.00  0.00     0.029 A 
ATOM     55  N   UNL A   1      41.493  29.046  32.249  1.00  0.00    -0.354 N 
ATOM     56  N   UNL A   1      41.138  30.885  34.502  1.00  0.00    -0.248 NA
ATOM     57  C   UNL A   1      41.667  31.560  36.673  1.00  0.00     0.031 C 
ATOM     58  C   UNL A   1      43.150  27.569  32.349  1.00  0.00     0.029 A 
ATOM     59  C   UNL A   1      42.512  28.571  33.060  1.00  0.00     0.049 A 
ATOM     60  H   UNL A   1      40.870  29.770  32.488  1.00  0.00     0.167 HD
ATOM     61  C   UNL A   1      42.168  30.090  34.988  1.00  0.00     0.074 A 
ATOM     62  C   UNL A   1      42.472  30.569  36.320  1.00  0.00     0.031 C 
ATOM     63  C   UNL A   1      42.799  29.054  34.386  1.00  0.00     0.037 A 
BRANCH  50  64
ATOM     64  C   UNL A   1      40.580  27.629  28.813  1.00  0.00     0.064 A 
ATOM     65  C   UNL A   1      39.795  26.469  28.756  1.00  0.00     0.173 A 
ATOM     66  C   UNL A   1      41.374  27.942  27.700  1.00  0.00     0.173 A 
ATOM     67  F   UNL A   1      39.026  26.122  29.799  1.00  0.00    -0.203 F 
ATOM     68  C   UNL A   1      39.817  25.646  27.633  1.00  0.00     0.198 A 
ATOM     69  C   UNL A   1      41.374  27.131  26.569  1.00  0.00     0.198 A 
ATOM     70  F   UNL A   1      42.138  29.044  27.702  1.00  0.00    -0.203 F 
ATOM     71  F   UNL A   1      39.082  24.524  27.613  1.00  0.00    -0.200 F 
ATOM     72  C   UNL A   1      40.598  25.981  26.538  1.00  0.00     0.200 A 
ATOM     73  F   UNL A   1      42.121  27.463  25.507  1.00  0.00    -0.200 F 
ATOM     74  F   UNL A   1      40.607  25.194  25.453  1.00  0.00    -0.200 F 
ENDBRANCH  50  64
BRANCH  51  75
ATOM     75  C   UNL A   1      39.639  33.672  36.691  1.00  0.00     0.064 A 
ATOM     76  C   UNL A   1      40.308  34.895  36.832  1.00  0.00     0.173 A 
ATOM     77  C   UNL A   1      38.793  33.266  37.733  1.00  0.00     0.173 A 
ATOM     78  F   UNL A   1      41.145  35.315  35.872  1.00  0.00    -0.203 F 
ATOM     79  C   UNL A   1      40.154  35.671  37.979  1.00  0.00     0.198 A 
ATOM     80  C   UNL A   1      38.617  34.055  38.866  1.00  0.00     0.198 A 
ATOM     81  F   UNL A   1      38.125  32.106  37.644  1.00  0.00    -0.203 F 
ATOM     82  F   UNL A   1      40.839  36.814  38.109  1.00  0.00    -0.200 F 
ATOM     83  C   UNL A   1      39.304  35.253  38.993  1.00  0.00     0.200 A 
ATOM     84  F   UNL A   1      37.784  33.656  39.837  1.00  0.00    -0.200 F 
ATOM     85  F   UNL A   1      39.152  36.002  40.094  1.00  0.00    -0.200 F 
ENDBRANCH  51  75
BRANCH  63  86
ATOM     86  C   UNL A   1      43.890  28.372  35.156  1.00  0.00     0.064 A 
ATOM     87  C   UNL A   1      43.636  27.221  35.917  1.00  0.00     0.173 A 
ATOM     88  C   UNL A   1      45.208  28.847  35.098  1.00  0.00     0.173 A 
ATOM     89  F   UNL A   1      42.388  26.741  36.017  1.00  0.00    -0.203 F 
ATOM     90  C   UNL A   1      44.663  26.578  36.604  1.00  0.00     0.198 A 
ATOM     91  C   UNL A   1      46.237  28.187  35.766  1.00  0.00     0.198 A 
ATOM     92  F   UNL A   1      45.503  29.942  34.382  1.00  0.00    -0.203 F 
ATOM     93  F   UNL A   1      44.391  25.503  37.355  1.00  0.00    -0.200 F 
ATOM     94  C   UNL A   1      45.963  27.056  36.521  1.00  0.00     0.200 A 
ATOM     95  F   UNL A   1      47.494  28.642  35.676  1.00  0.00    -0.200 F 
ATOM     96  F   UNL A   1      46.950  26.431  37.176  1.00  0.00    -0.200 F 
ENDBRANCH  63  86
ENDBRANCH  37  38
ENDBRANCH  29  32
ENDBRANCH  27  28
ENDBRANCH  26  27
ENDBRANCH  25  26
ENDBRANCH   1  25
TORSDOF 17
ENDMDL
MODEL 3
REMARK VINA RESULT:     -11.8      0.449      2.172
REMARK SMILES Cc1n[nH]c(C)c1S(=O)(=O)N[C@H](C(=O)NCCCCCCNC(=O)c1ccc(-c2c3nc(c(-c4c(F)c(F)c(F)c(F)c4F)c4ccc([nH]4)c(-c4c(F)c(F)c(F)c(F)c4F)c4nc(c(-c5c(F)c(F)c(F)c(F)c5F)c5ccc2[nH]5)C=C4)C=C3)cc1)C(C)C
REMARK SMILES IDX 18 1 17 2 16 3 15 4 13 5 14 6 12 8 11 9 8 11 9 12 10 13 7 14
REMARK SMILES IDX 1 15 2 16 3 17 4 18 5 19 6 21 88 22 89 23 90 24 19 25 20 26
REMARK SMILES IDX 21 27 22 28 23 29 24 31 25 32 26 33 87 34 27 35 86 36 28 37
REMARK SMILES IDX 29 38 30 39 80 40 31 41 85 42 79 43 81 44 32 45 84 46 78 47
REMARK SMILES IDX 77 48 33 50 65 51 45 52 64 53 46 54 49 55 63 56 82 57 47 58
REMARK SMILES IDX 48 59 62 61 83 62 50 63 34 64 35 65 43 66 36 67 37 68 41 69
REMARK SMILES IDX 44 70 38 71 39 72 42 73 40 74 66 75 67 76 75 77 68 78 69 79
REMARK SMILES IDX 73 80 76 81 70 82 71 83 74 84 72 85 51 86 52 87 60 88 53 89
REMARK SMILES IDX 54 90 58 91 61 92 55 93 56 94 59 95 57 96
REMARK H PARENT 15 7 11 10 4 20 22 30 81 49 49 60
REMARK Flexibility Score: inf
ROOT
ATOM      1  C   UNL A   1      32.082  29.283  27.184  1.00  0.00     0.002 C 
ENDROOT
BRANCH   1   2
ATOM      2  C   UNL A   1      33.298  28.366  27.010  1.00  0.00     0.021 C 
BRANCH   2   3
ATOM      3  C   UNL A   1      33.069  27.171  26.078  1.00  0.00     0.116 C 
BRANCH   3   4
ATOM      4  N   UNL A   1      32.406  26.104  26.800  1.00  0.00    -0.355 N 
ATOM      5  C   UNL A   1      31.898  24.922  26.350  1.00  0.00     0.238 C 
ATOM      6  O   UNL A   1      31.107  24.331  27.098  1.00  0.00    -0.273 OA
ATOM      7  H   UNL A   1      32.308  26.256  27.768  1.00  0.00     0.163 HD
BRANCH   5   8
ATOM      8  C   UNL A   1      32.345  24.276  24.990  1.00  0.00     0.161 C 
BRANCH   8   9
ATOM      9  N   UNL A   1      33.213  23.201  25.548  1.00  0.00    -0.198 NA
ATOM     10  H   UNL A   1      33.083  23.260  26.559  1.00  0.00     0.142 HD
BRANCH   9  11
ATOM     11  S   UNL A   1      34.844  23.014  25.341  1.00  0.00     0.244 S 
ATOM     12  O   UNL A   1      35.517  23.461  26.530  1.00  0.00    -0.207 OA
ATOM     13  O   UNL A   1      35.161  23.590  24.049  1.00  0.00    -0.207 OA
BRANCH  11  14
ATOM     14  C   UNL A   1      35.239  21.355  25.160  1.00  0.00     0.125 A 
ATOM     15  C   UNL A   1      37.856  21.483  25.039  1.00  0.00     0.070 C 
ATOM     16  C   UNL A   1      36.535  20.802  25.042  1.00  0.00     0.079 A 
ATOM     17  N   UNL A   1      36.478  19.467  24.919  1.00  0.00    -0.179 NA
ATOM     18  N   UNL A   1      35.165  19.192  24.888  1.00  0.00    -0.281 N 
ATOM     19  C   UNL A   1      34.365  20.289  25.040  1.00  0.00     0.052 A 
ATOM     20  H   UNL A   1      34.811  18.281  24.767  1.00  0.00     0.190 HD
ATOM     21  C   UNL A   1      32.888  20.202  25.019  1.00  0.00     0.067 C 
ENDBRANCH  11  14
ENDBRANCH   9  11
ENDBRANCH   8   9
BRANCH   8  22
ATOM     22  C   UNL A   1      31.132  23.770  24.174  1.00  0.00     0.010 C 
ATOM     23  C   UNL A   1      30.350  24.925  23.538  1.00  0.00     0.009 C 
ATOM     24  C   UNL A   1      31.517  22.819  23.033  1.00  0.00     0.009 C 
ENDBRANCH   8  22
ENDBRANCH   5   8
ENDBRANCH   3   4
ENDBRANCH   2   3
ENDBRANCH   1   2
BRANCH   1  25
ATOM     25  C   UNL A   1      31.960  30.409  26.153  1.00  0.00     0.002 C 
BRANCH  25  26
ATOM     26  C   UNL A   1      31.610  31.789  26.717  1.00  0.00     0.021 C 
BRANCH  26  27
ATOM     27  C   UNL A   1      32.762  32.534  27.391  1.00  0.00     0.116 C 
BRANCH  27  28
ATOM     28  N   UNL A   1      32.451  33.932  27.641  1.00  0.00    -0.352 N 
ATOM     29  C   UNL A   1      33.012  34.807  28.539  1.00  0.00     0.251 C 
ATOM     30  H   UNL A   1      31.731  34.307  27.083  1.00  0.00     0.163 HD
ATOM     31  O   UNL A   1      32.506  35.908  28.732  1.00  0.00    -0.269 OA
BRANCH  29  32
ATOM     32  C   UNL A   1      34.214  34.409  29.300  1.00  0.00     0.039 A 
ATOM     33  C   UNL A   1      34.053  33.846  30.569  1.00  0.00     0.014 A 
ATOM     34  C   UNL A   1      35.492  34.582  28.763  1.00  0.00     0.014 A 
ATOM     35  C   UNL A   1      35.169  33.372  31.262  1.00  0.00     0.010 A 
ATOM     36  C   UNL A   1      36.598  34.057  29.429  1.00  0.00     0.010 A 
ATOM     37  C   UNL A   1      36.443  33.430  30.676  1.00  0.00    -0.014 A 
BRANCH  37  38
ATOM     38  C   UNL A   1      37.622  32.794  31.317  1.00  0.00     0.031 A 
ATOM     39  C   UNL A   1      38.288  31.608  30.681  1.00  0.00     0.074 A 
ATOM     40  C   UNL A   1      38.022  33.223  32.530  1.00  0.00     0.049 A 
ATOM     41  N   UNL A   1      39.234  30.838  31.156  1.00  0.00    -0.248 NA
ATOM     42  C   UNL A   1      37.811  31.223  29.344  1.00  0.00     0.031 C 
ATOM     43  C   UNL A   1      37.427  34.337  33.271  1.00  0.00     0.029 A 
ATOM     44  N   UNL A   1      39.004  32.755  33.369  1.00  0.00    -0.354 N 
ATOM     45  C   UNL A   1      39.452  29.867  30.187  1.00  0.00     0.074 A 
ATOM     46  C   UNL A   1      38.518  30.126  29.111  1.00  0.00     0.031 C 
ATOM     47  C   UNL A   1      38.050  34.462  34.453  1.00  0.00     0.029 A 
ATOM     48  C   UNL A   1      39.059  33.415  34.573  1.00  0.00     0.049 A 
ATOM     49  H   UNL A   1      39.610  32.017  33.130  1.00  0.00     0.167 HD
ATOM     50  C   UNL A   1      40.357  28.860  30.195  1.00  0.00     0.037 A 
ATOM     51  C   UNL A   1      39.817  33.186  35.662  1.00  0.00     0.037 A 
ATOM     52  C   UNL A   1      41.305  28.628  31.252  1.00  0.00     0.049 A 
ATOM     53  C   UNL A   1      40.807  32.053  35.645  1.00  0.00     0.074 A 
ATOM     54  C   UNL A   1      42.327  27.695  31.304  1.00  0.00     0.029 A 
ATOM     55  N   UNL A   1      41.345  29.329  32.448  1.00  0.00    -0.354 N 
ATOM     56  N   UNL A   1      41.058  31.191  34.691  1.00  0.00    -0.248 NA
ATOM     57  C   UNL A   1      41.617  31.860  36.857  1.00  0.00     0.031 C 
ATOM     58  C   UNL A   1      42.952  27.798  32.550  1.00  0.00     0.029 A 
ATOM     59  C   UNL A   1      42.350  28.825  33.258  1.00  0.00     0.049 A 
ATOM     60  H   UNL A   1      40.747  30.075  32.685  1.00  0.00     0.167 HD
ATOM     61  C   UNL A   1      42.063  30.365  35.179  1.00  0.00     0.074 A 
ATOM     62  C   UNL A   1      42.387  30.840  36.506  1.00  0.00     0.031 C 
ATOM     63  C   UNL A   1      42.657  29.305  34.580  1.00  0.00     0.037 A 
BRANCH  50  64
ATOM     64  C   UNL A   1      40.374  27.925  29.022  1.00  0.00     0.064 A 
ATOM     65  C   UNL A   1      39.609  26.750  29.008  1.00  0.00     0.173 A 
ATOM     66  C   UNL A   1      41.111  28.244  27.872  1.00  0.00     0.173 A 
ATOM     67  F   UNL A   1      38.894  26.396  30.086  1.00  0.00    -0.203 F 
ATOM     68  C   UNL A   1      39.597  25.918  27.890  1.00  0.00     0.198 A 
ATOM     69  C   UNL A   1      41.076  27.425  26.748  1.00  0.00     0.198 A 
ATOM     70  F   UNL A   1      41.854  29.361  27.833  1.00  0.00    -0.203 F 
ATOM     71  F   UNL A   1      38.884  24.783  27.911  1.00  0.00    -0.200 F 
ATOM     72  C   UNL A   1      40.323  26.260  26.759  1.00  0.00     0.200 A 
ATOM     73  F   UNL A   1      41.769  27.763  25.651  1.00  0.00    -0.200 F 
ATOM     74  F   UNL A   1      40.298  25.466  25.680  1.00  0.00    -0.200 F 
ENDBRANCH  50  64
BRANCH  51  75
ATOM     75  C   UNL A   1      39.660  34.038  36.869  1.00  0.00     0.064 A 
ATOM     76  C   UNL A   1      38.851  33.633  37.938  1.00  0.00     0.173 A 
ATOM     77  C   UNL A   1      40.309  35.278  36.974  1.00  0.00     0.173 A 
ATOM     78  F   UNL A   1      38.194  32.465  37.874  1.00  0.00    -0.203 F 
ATOM     79  C   UNL A   1      38.680  34.443  39.059  1.00  0.00     0.198 A 
ATOM     80  C   UNL A   1      40.160  36.074  38.106  1.00  0.00     0.198 A 
ATOM     81  F   UNL A   1      41.100  35.709  35.979  1.00  0.00    -0.203 F 
ATOM     82  F   UNL A   1      37.866  34.051  40.048  1.00  0.00    -0.200 F 
ATOM     83  C   UNL A   1      39.340  35.660  39.144  1.00  0.00     0.200 A 
ATOM     84  F   UNL A   1      40.811  37.243  38.191  1.00  0.00    -0.200 F 
ATOM     85  F   UNL A   1      39.178  36.437  40.224  1.00  0.00    -0.200 F 
ENDBRANCH  51  75
BRANCH  63  86
ATOM     86  C   UNL A   1      43.727  28.591  35.351  1.00  0.00     0.064 A 
ATOM     87  C   UNL A   1      43.417  27.541  36.228  1.00  0.00     0.173 A 
ATOM     88  C   UNL A   1      45.077  28.929  35.178  1.00  0.00     0.173 A 
ATOM     89  F   UNL A   1      42.139  27.194  36.440  1.00  0.00    -0.203 F 
ATOM     90  C   UNL A   1      44.422  26.865  36.916  1.00  0.00     0.198 A 
ATOM     91  C   UNL A   1      46.080  28.234  35.848  1.00  0.00     0.198 A 
ATOM     92  F   UNL A   1      45.425  29.924  34.348  1.00  0.00    -0.203 F 
ATOM     93  F   UNL A   1      44.101  25.891  37.778  1.00  0.00    -0.200 F 
ATOM     94  C   UNL A   1      45.752  27.206  36.719  1.00  0.00     0.200 A 
ATOM     95  F   UNL A   1      47.366  28.556  35.648  1.00  0.00    -0.200 F 
ATOM     96  F   UNL A   1      46.717  26.548  37.375  1.00  0.00    -0.200 F 
ENDBRANCH  63  86
ENDBRANCH  37  38
ENDBRANCH  29  32
ENDBRANCH  27  28
ENDBRANCH  26  27
ENDBRANCH  25  26
ENDBRANCH   1  25
TORSDOF 17
ENDMDL
