MODEL 1
REMARK VINA RESULT:     -11.8      0.000      0.000
REMARK SMILES CC(C)C[C@H](CNC(=O)N[C@@H]1CCC[C@@H](C)[C@H]1C)C(=O)NCCCCCCNC(=O)c1ccc(-c2c3nc(c(-c4c(F)c(F)c(F)c(F)c4F)c4ccc([nH]4)c(-c4c(F)c(F)c(F)c(F)c4F)c4nc(c(-c5c(F)c(F)c(F)c(F)c5F)c5ccc2[nH]5)C=C4)C=C3)cc1
REMARK SMILES IDX 24 1 23 2 22 3 21 4 19 5 20 6 5 8 4 9 2 10 1 11 3 12 6 13
REMARK SMILES IDX 7 14 8 15 9 17 10 18 11 20 12 21 17 22 13 23 15 24 18 25
REMARK SMILES IDX 14 26 16 27 25 28 26 29 27 30 28 31 29 32 30 34 31 35 32 36
REMARK SMILES IDX 93 37 33 38 92 39 34 40 35 41 36 42 86 43 37 44 91 45 85 46
REMARK SMILES IDX 87 47 38 48 90 49 84 50 83 51 39 53 71 54 51 55 70 56 52 57
REMARK SMILES IDX 55 58 69 59 88 60 53 61 54 62 68 64 89 65 56 66 40 67 41 68
REMARK SMILES IDX 49 69 42 70 43 71 47 72 50 73 44 74 45 75 48 76 46 77 72 78
REMARK SMILES IDX 73 79 81 80 74 81 75 82 79 83 82 84 76 85 77 86 80 87 78 88
REMARK SMILES IDX 57 89 58 90 66 91 59 92 60 93 64 94 67 95 61 96 62 97 65 98
REMARK SMILES IDX 63 99
REMARK H PARENT 21 7 7 16 10 19 28 33 87 52 55 63
REMARK Flexibility Score: inf
ROOT
ATOM      1  C   UNL A   1      37.787  22.181  25.233  1.00  0.00     0.002 C 
ENDROOT
BRANCH   1   2
ATOM      2  C   UNL A   1      36.789  23.324  25.034  1.00  0.00     0.021 C 
BRANCH   2   3
ATOM      3  C   UNL A   1      35.361  22.829  24.816  1.00  0.00     0.116 C 
BRANCH   3   4
ATOM      4  N   UNL A   1      34.878  23.277  23.527  1.00  0.00    -0.356 N 
ATOM      5  C   UNL A   1      33.722  22.983  22.878  1.00  0.00     0.224 C 
ATOM      6  O   UNL A   1      33.625  23.313  21.694  1.00  0.00    -0.275 OA
ATOM      7  H   UNL A   1      35.482  23.889  23.047  1.00  0.00     0.163 HD
BRANCH   5   8
ATOM      8  C   UNL A   1      32.562  22.312  23.597  1.00  0.00     0.098 C 
BRANCH   8   9
ATOM      9  C   UNL A   1      32.185  20.962  22.945  1.00  0.00     0.018 C 
BRANCH   9  10
ATOM     10  C   UNL A   1      32.310  19.739  23.883  1.00  0.00    -0.017 C 
ATOM     11  C   UNL A   1      32.508  18.437  23.105  1.00  0.00     0.007 C 
ATOM     12  C   UNL A   1      33.480  19.951  24.847  1.00  0.00     0.007 C 
ENDBRANCH   9  10
ENDBRANCH   8   9
BRANCH   8  13
ATOM     13  C   UNL A   1      31.399  23.304  23.796  1.00  0.00     0.131 C 
BRANCH  13  14
ATOM     14  N   UNL A   1      30.758  23.217  25.092  1.00  0.00    -0.337 N 
ATOM     15  C   UNL A   1      30.934  23.911  26.225  1.00  0.00     0.315 C 
ATOM     16  H   UNL A   1      30.067  22.518  25.152  1.00  0.00     0.165 HD
ATOM     17  O   UNL A   1      30.512  23.425  27.275  1.00  0.00    -0.249 OA
ATOM     18  N   UNL A   1      31.564  25.092  26.261  1.00  0.00    -0.335 N 
ATOM     19  H   UNL A   1      31.947  25.319  27.140  1.00  0.00     0.165 HD
BRANCH  18  20
ATOM     20  C   UNL A   1      31.785  26.103  25.229  1.00  0.00     0.087 C 
ATOM     21  C   UNL A   1      33.241  26.078  24.753  1.00  0.00     0.025 C 
ATOM     22  C   UNL A   1      31.324  27.490  25.738  1.00  0.00     0.011 C 
ATOM     23  C   UNL A   1      34.209  26.677  25.765  1.00  0.00     0.002 C 
ATOM     24  C   UNL A   1      32.333  28.052  26.769  1.00  0.00    -0.009 C 
ATOM     25  C   UNL A   1      31.044  28.430  24.558  1.00  0.00     0.010 C 
ATOM     26  C   UNL A   1      33.767  28.064  26.219  1.00  0.00     0.004 C 
ATOM     27  C   UNL A   1      31.943  29.435  27.289  1.00  0.00     0.008 C 
ENDBRANCH  18  20
ENDBRANCH  13  14
ENDBRANCH   8  13
ENDBRANCH   5   8
ENDBRANCH   3   4
ENDBRANCH   2   3
ENDBRANCH   1   2
BRANCH   1  28
ATOM     28  C   UNL A   1      37.345  20.853  24.608  1.00  0.00     0.002 C 
BRANCH  28  29
ATOM     29  C   UNL A   1      38.237  19.660  24.964  1.00  0.00     0.021 C 
BRANCH  29  30
ATOM     30  C   UNL A   1      39.253  19.959  26.058  1.00  0.00     0.116 C 
BRANCH  30  31
ATOM     31  N   UNL A   1      40.375  19.038  26.001  1.00  0.00    -0.352 N 
ATOM     32  C   UNL A   1      41.717  19.312  26.031  1.00  0.00     0.251 C 
ATOM     33  H   UNL A   1      40.139  18.085  25.932  1.00  0.00     0.163 HD
ATOM     34  O   UNL A   1      42.533  18.455  25.715  1.00  0.00    -0.269 OA
BRANCH  32  35
ATOM     35  C   UNL A   1      42.170  20.654  26.444  1.00  0.00     0.039 A 
ATOM     36  C   UNL A   1      42.536  21.573  25.460  1.00  0.00     0.014 A 
ATOM     37  C   UNL A   1      42.251  20.993  27.798  1.00  0.00     0.014 A 
ATOM     38  C   UNL A   1      42.955  22.849  25.835  1.00  0.00     0.010 A 
ATOM     39  C   UNL A   1      42.590  22.290  28.166  1.00  0.00     0.010 A 
ATOM     40  C   UNL A   1      42.965  23.224  27.190  1.00  0.00    -0.014 A 
BRANCH  40  41
ATOM     41  C   UNL A   1      43.402  24.579  27.601  1.00  0.00     0.031 A 
ATOM     42  C   UNL A   1      42.378  25.634  27.920  1.00  0.00     0.074 A 
ATOM     43  C   UNL A   1      44.716  24.870  27.651  1.00  0.00     0.049 A 
ATOM     44  N   UNL A   1      42.554  26.887  28.256  1.00  0.00    -0.248 NA
ATOM     45  C   UNL A   1      40.964  25.234  27.826  1.00  0.00     0.031 C 
ATOM     46  C   UNL A   1      45.799  23.944  27.319  1.00  0.00     0.029 A 
ATOM     47  N   UNL A   1      45.363  26.029  27.995  1.00  0.00    -0.354 N 
ATOM     48  C   UNL A   1      41.281  27.419  28.410  1.00  0.00     0.074 A 
ATOM     49  C   UNL A   1      40.340  26.378  28.061  1.00  0.00     0.031 C 
ATOM     50  C   UNL A   1      46.977  24.564  27.497  1.00  0.00     0.029 A 
ATOM     51  C   UNL A   1      46.731  25.939  27.919  1.00  0.00     0.049 A 
ATOM     52  H   UNL A   1      44.892  26.849  28.270  1.00  0.00     0.167 HD
ATOM     53  C   UNL A   1      40.927  28.654  28.838  1.00  0.00     0.037 A 
ATOM     54  C   UNL A   1      47.678  26.867  28.158  1.00  0.00     0.037 A 
ATOM     55  C   UNL A   1      41.867  29.683  29.194  1.00  0.00     0.049 A 
ATOM     56  C   UNL A   1      47.255  28.239  28.613  1.00  0.00     0.074 A 
ATOM     57  C   UNL A   1      41.615  30.963  29.658  1.00  0.00     0.029 A 
ATOM     58  N   UNL A   1      43.247  29.549  29.125  1.00  0.00    -0.354 N 
ATOM     59  N   UNL A   1      46.049  28.713  28.811  1.00  0.00    -0.248 NA
ATOM     60  C   UNL A   1      48.329  29.201  28.891  1.00  0.00     0.031 C 
ATOM     61  C   UNL A   1      42.840  31.616  29.829  1.00  0.00     0.029 A 
ATOM     62  C   UNL A   1      43.858  30.725  29.528  1.00  0.00     0.049 A 
ATOM     63  H   UNL A   1      43.721  28.737  28.833  1.00  0.00     0.167 HD
ATOM     64  C   UNL A   1      46.220  30.011  29.273  1.00  0.00     0.074 A 
ATOM     65  C   UNL A   1      47.648  30.244  29.340  1.00  0.00     0.031 C 
ATOM     66  C   UNL A   1      45.282  30.931  29.608  1.00  0.00     0.037 A 
BRANCH  53  67
ATOM     67  C   UNL A   1      39.459  28.952  28.959  1.00  0.00     0.064 A 
ATOM     68  C   UNL A   1      38.790  28.847  30.189  1.00  0.00     0.173 A 
ATOM     69  C   UNL A   1      38.720  29.379  27.846  1.00  0.00     0.173 A 
ATOM     70  F   UNL A   1      39.446  28.428  31.281  1.00  0.00    -0.203 F 
ATOM     71  C   UNL A   1      37.431  29.130  30.292  1.00  0.00     0.198 A 
ATOM     72  C   UNL A   1      37.369  29.695  27.961  1.00  0.00     0.198 A 
ATOM     73  F   UNL A   1      39.310  29.502  26.647  1.00  0.00    -0.203 F 
ATOM     74  F   UNL A   1      36.802  28.970  31.466  1.00  0.00    -0.200 F 
ATOM     75  C   UNL A   1      36.723  29.561  29.181  1.00  0.00     0.200 A 
ATOM     76  F   UNL A   1      36.689  30.126  26.889  1.00  0.00    -0.200 F 
ATOM     77  F   UNL A   1      35.417  29.843  29.284  1.00  0.00    -0.200 F 
ENDBRANCH  53  67
BRANCH  54  78
ATOM     78  C   UNL A   1      49.116  26.529  27.990  1.00  0.00     0.064 A 
ATOM     79  C   UNL A   1      49.932  26.264  29.099  1.00  0.00     0.173 A 
ATOM     80  C   UNL A   1      49.713  26.496  26.721  1.00  0.00     0.173 A 
ATOM     81  F   UNL A   1      49.413  26.299  30.335  1.00  0.00    -0.203 F 
ATOM     82  C   UNL A   1      51.295  26.016  28.950  1.00  0.00     0.198 A 
ATOM     83  C   UNL A   1      51.069  26.214  26.570  1.00  0.00     0.198 A 
ATOM     84  F   UNL A   1      48.977  26.732  25.625  1.00  0.00    -0.203 F 
ATOM     85  F   UNL A   1      52.062  25.831  30.032  1.00  0.00    -0.200 F 
ATOM     86  C   UNL A   1      51.861  25.989  27.684  1.00  0.00     0.200 A 
ATOM     87  F   UNL A   1      51.609  26.171  25.343  1.00  0.00    -0.200 F 
ATOM     88  F   UNL A   1      53.173  25.755  27.540  1.00  0.00    -0.200 F 
ENDBRANCH  54  78
BRANCH  66  89
ATOM     89  C   UNL A   1      45.770  32.250  30.134  1.00  0.00     0.064 A 
ATOM     90  C   UNL A   1      45.972  33.356  29.295  1.00  0.00     0.173 A 
ATOM     91  C   UNL A   1      46.016  32.414  31.506  1.00  0.00     0.173 A 
ATOM     92  F   UNL A   1      45.765  33.247  27.974  1.00  0.00    -0.203 F 
ATOM     93  C   UNL A   1      46.440  34.564  29.803  1.00  0.00     0.198 A 
ATOM     94  C   UNL A   1      46.449  33.635  32.016  1.00  0.00     0.198 A 
ATOM     95  F   UNL A   1      45.829  31.392  32.355  1.00  0.00    -0.203 F 
ATOM     96  F   UNL A   1      46.686  35.587  28.973  1.00  0.00    -0.200 F 
ATOM     97  C   UNL A   1      46.671  34.705  31.163  1.00  0.00     0.200 A 
ATOM     98  F   UNL A   1      46.655  33.774  33.333  1.00  0.00    -0.200 F 
ATOM     99  F   UNL A   1      47.117  35.871  31.652  1.00  0.00    -0.200 F 
ENDBRANCH  66  89
ENDBRANCH  40  41
ENDBRANCH  32  35
ENDBRANCH  30  31
ENDBRANCH  29  30
ENDBRANCH  28  29
ENDBRANCH   1  28
TORSDOF 18
ENDMDL
MODEL 2
REMARK VINA RESULT:     -11.8      4.932      9.378
REMARK SMILES CC(C)C[C@H](CNC(=O)N[C@@H]1CCC[C@@H](C)[C@H]1C)C(=O)NCCCCCCNC(=O)c1ccc(-c2c3nc(c(-c4c(F)c(F)c(F)c(F)c4F)c4ccc([nH]4)c(-c4c(F)c(F)c(F)c(F)c4F)c4nc(c(-c5c(F)c(F)c(F)c(F)c5F)c5ccc2[nH]5)C=C4)C=C3)cc1
REMARK SMILES IDX 24 1 23 2 22 3 21 4 19 5 20 6 5 8 4 9 2 10 1 11 3 12 6 13
REMARK SMILES IDX 7 14 8 15 9 17 10 18 11 20 12 21 17 22 13 23 15 24 18 25
REMARK SMILES IDX 14 26 16 27 25 28 26 29 27 30 28 31 29 32 30 34 31 35 32 36
REMARK SMILES IDX 93 37 33 38 92 39 34 40 35 41 36 42 86 43 37 44 91 45 85 46
REMARK SMILES IDX 87 47 38 48 90 49 84 50 83 51 39 53 71 54 51 55 70 56 52 57
REMARK SMILES IDX 55 58 69 59 88 60 53 61 54 62 68 64 89 65 56 66 40 67 41 68
REMARK SMILES IDX 49 69 42 70 43 71 47 72 50 73 44 74 45 75 48 76 46 77 72 78
REMARK SMILES IDX 73 79 81 80 74 81 75 82 79 83 82 84 76 85 77 86 80 87 78 88
REMARK SMILES IDX 57 89 58 90 66 91 59 92 60 93 64 94 67 95 61 96 62 97 65 98
REMARK SMILES IDX 63 99
REMARK H PARENT 21 7 7 16 10 19 28 33 87 52 55 63
REMARK Flexibility Score: inf
ROOT
ATOM      1  C   UNL A   1      32.144  29.641  27.250  1.00  0.00     0.002 C 
ENDROOT
BRANCH   1   2
ATOM      2  C   UNL A   1      33.200  28.703  26.661  1.00  0.00     0.021 C 
BRANCH   2   3
ATOM      3  C   UNL A   1      32.634  27.774  25.589  1.00  0.00     0.116 C 
BRANCH   3   4
ATOM      4  N   UNL A   1      31.711  26.836  26.192  1.00  0.00    -0.356 N 
ATOM      5  C   UNL A   1      30.604  26.246  25.672  1.00  0.00     0.224 C 
ATOM      6  O   UNL A   1      29.853  25.647  26.444  1.00  0.00    -0.275 OA
ATOM      7  H   UNL A   1      31.917  26.589  27.122  1.00  0.00     0.163 HD
BRANCH   5   8
ATOM      8  C   UNL A   1      30.320  26.278  24.178  1.00  0.00     0.098 C 
BRANCH   8   9
ATOM      9  C   UNL A   1      28.881  26.756  23.876  1.00  0.00     0.018 C 
BRANCH   9  10
ATOM     10  C   UNL A   1      28.796  27.990  22.949  1.00  0.00    -0.017 C 
ATOM     11  C   UNL A   1      27.480  28.751  23.126  1.00  0.00     0.007 C 
ATOM     12  C   UNL A   1      29.977  28.923  23.228  1.00  0.00     0.007 C 
ENDBRANCH   9  10
ENDBRANCH   8   9
BRANCH   8  13
ATOM     13  C   UNL A   1      30.732  24.948  23.517  1.00  0.00     0.131 C 
BRANCH  13  14
ATOM     14  N   UNL A   1      31.525  25.102  22.314  1.00  0.00    -0.337 N 
ATOM     15  C   UNL A   1      32.848  25.084  22.105  1.00  0.00     0.315 C 
ATOM     16  H   UNL A   1      30.991  25.248  21.499  1.00  0.00     0.165 HD
ATOM     17  O   UNL A   1      33.278  25.572  21.060  1.00  0.00    -0.249 OA
ATOM     18  N   UNL A   1      33.714  24.579  22.993  1.00  0.00    -0.335 N 
ATOM     19  H   UNL A   1      34.629  24.936  22.914  1.00  0.00     0.165 HD
BRANCH  18  20
ATOM     20  C   UNL A   1      33.545  23.592  24.057  1.00  0.00     0.087 C 
ATOM     21  C   UNL A   1      33.619  24.263  25.432  1.00  0.00     0.025 C 
ATOM     22  C   UNL A   1      34.561  22.437  23.877  1.00  0.00     0.011 C 
ATOM     23  C   UNL A   1      35.033  24.669  25.823  1.00  0.00     0.002 C 
ATOM     24  C   UNL A   1      35.983  22.900  24.277  1.00  0.00    -0.009 C 
ATOM     25  C   UNL A   1      34.081  21.180  24.613  1.00  0.00     0.010 C 
ATOM     26  C   UNL A   1      36.013  23.508  25.687  1.00  0.00     0.004 C 
ATOM     27  C   UNL A   1      37.027  21.793  24.144  1.00  0.00     0.008 C 
ENDBRANCH  18  20
ENDBRANCH  13  14
ENDBRANCH   8  13
ENDBRANCH   5   8
ENDBRANCH   3   4
ENDBRANCH   2   3
ENDBRANCH   1   2
BRANCH   1  28
ATOM     28  C   UNL A   1      31.408  30.484  26.202  1.00  0.00     0.002 C 
BRANCH  28  29
ATOM     29  C   UNL A   1      31.376  31.984  26.509  1.00  0.00     0.021 C 
BRANCH  29  30
ATOM     30  C   UNL A   1      32.726  32.556  26.918  1.00  0.00     0.116 C 
BRANCH  30  31
ATOM     31  N   UNL A   1      32.591  33.902  27.448  1.00  0.00    -0.352 N 
ATOM     32  C   UNL A   1      33.202  34.464  28.537  1.00  0.00     0.251 C 
ATOM     33  H   UNL A   1      31.975  34.491  26.956  1.00  0.00     0.163 HD
ATOM     34  O   UNL A   1      32.790  35.519  29.005  1.00  0.00    -0.269 OA
BRANCH  32  35
ATOM     35  C   UNL A   1      34.360  33.784  29.146  1.00  0.00     0.039 A 
ATOM     36  C   UNL A   1      35.645  34.213  28.812  1.00  0.00     0.014 A 
ATOM     37  C   UNL A   1      34.176  32.714  30.028  1.00  0.00     0.014 A 
ATOM     38  C   UNL A   1      36.750  33.587  29.389  1.00  0.00     0.010 A 
ATOM     39  C   UNL A   1      35.273  32.146  30.664  1.00  0.00     0.010 A 
ATOM     40  C   UNL A   1      36.571  32.562  30.336  1.00  0.00    -0.014 A 
BRANCH  40  41
ATOM     41  C   UNL A   1      37.737  31.893  30.961  1.00  0.00     0.031 A 
ATOM     42  C   UNL A   1      38.191  32.305  32.334  1.00  0.00     0.074 A 
ATOM     43  C   UNL A   1      38.406  30.945  30.278  1.00  0.00     0.049 A 
ATOM     44  N   UNL A   1      39.210  31.875  33.034  1.00  0.00    -0.248 NA
ATOM     45  C   UNL A   1      37.411  33.360  33.001  1.00  0.00     0.031 C 
ATOM     46  C   UNL A   1      38.087  30.495  28.923  1.00  0.00     0.029 A 
ATOM     47  N   UNL A   1      39.497  30.191  30.631  1.00  0.00    -0.354 N 
ATOM     48  C   UNL A   1      39.190  32.604  34.216  1.00  0.00     0.074 A 
ATOM     49  C   UNL A   1      38.107  33.556  34.110  1.00  0.00     0.031 C 
ATOM     50  C   UNL A   1      38.949  29.528  28.567  1.00  0.00     0.029 A 
ATOM     51  C   UNL A   1      39.901  29.316  29.653  1.00  0.00     0.049 A 
ATOM     52  H   UNL A   1      39.948  30.269  31.503  1.00  0.00     0.167 HD
ATOM     53  C   UNL A   1      39.983  32.469  35.306  1.00  0.00     0.037 A 
ATOM     54  C   UNL A   1      40.930  28.448  29.635  1.00  0.00     0.037 A 
ATOM     55  C   UNL A   1      41.054  31.514  35.410  1.00  0.00     0.049 A 
ATOM     56  C   UNL A   1      41.808  28.333  30.853  1.00  0.00     0.074 A 
ATOM     57  C   UNL A   1      41.905  31.282  36.476  1.00  0.00     0.029 A 
ATOM     58  N   UNL A   1      41.421  30.629  34.405  1.00  0.00    -0.354 N 
ATOM     59  N   UNL A   1      41.744  28.987  31.987  1.00  0.00    -0.248 NA
ATOM     60  C   UNL A   1      42.894  27.346  30.792  1.00  0.00     0.031 C 
ATOM     61  C   UNL A   1      42.814  30.286  36.102  1.00  0.00     0.029 A 
ATOM     62  C   UNL A   1      42.492  29.856  34.824  1.00  0.00     0.049 A 
ATOM     63  H   UNL A   1      40.984  30.561  33.526  1.00  0.00     0.167 HD
ATOM     64  C   UNL A   1      42.754  28.466  32.786  1.00  0.00     0.074 A 
ATOM     65  C   UNL A   1      43.404  27.430  32.011  1.00  0.00     0.031 C 
ATOM     66  C   UNL A   1      43.113  28.815  34.046  1.00  0.00     0.037 A 
BRANCH  53  67
ATOM     67  C   UNL A   1      39.709  33.368  36.478  1.00  0.00     0.064 A 
ATOM     68  C   UNL A   1      40.312  34.632  36.587  1.00  0.00     0.173 A 
ATOM     69  C   UNL A   1      38.812  32.982  37.484  1.00  0.00     0.173 A 
ATOM     70  F   UNL A   1      41.189  35.045  35.660  1.00  0.00    -0.203 F 
ATOM     71  C   UNL A   1      40.048  35.461  37.674  1.00  0.00     0.198 A 
ATOM     72  C   UNL A   1      38.524  33.829  38.552  1.00  0.00     0.198 A 
ATOM     73  F   UNL A   1      38.204  31.787  37.428  1.00  0.00    -0.203 F 
ATOM     74  F   UNL A   1      40.676  36.640  37.784  1.00  0.00    -0.200 F 
ATOM     75  C   UNL A   1      39.149  35.062  38.651  1.00  0.00     0.200 A 
ATOM     76  F   UNL A   1      37.644  33.448  39.489  1.00  0.00    -0.200 F 
ATOM     77  F   UNL A   1      38.888  35.866  39.692  1.00  0.00    -0.200 F 
ENDBRANCH  53  67
BRANCH  54  78
ATOM     78  C   UNL A   1      41.178  27.605  28.435  1.00  0.00     0.064 A 
ATOM     79  C   UNL A   1      42.080  28.008  27.441  1.00  0.00     0.173 A 
ATOM     80  C   UNL A   1      40.496  26.394  28.241  1.00  0.00     0.173 A 
ATOM     81  F   UNL A   1      42.745  29.166  27.570  1.00  0.00    -0.203 F 
ATOM     82  C   UNL A   1      42.262  27.255  26.282  1.00  0.00     0.198 A 
ATOM     83  C   UNL A   1      40.705  25.624  27.100  1.00  0.00     0.198 A 
ATOM     84  F   UNL A   1      39.629  25.956  29.167  1.00  0.00    -0.203 F 
ATOM     85  F   UNL A   1      43.081  27.698  25.320  1.00  0.00    -0.200 F 
ATOM     86  C   UNL A   1      41.576  26.062  26.115  1.00  0.00     0.200 A 
ATOM     87  F   UNL A   1      40.053  24.462  26.950  1.00  0.00    -0.200 F 
ATOM     88  F   UNL A   1      41.748  25.339  25.000  1.00  0.00    -0.200 F 
ENDBRANCH  54  78
BRANCH  66  89
ATOM     89  C   UNL A   1      44.222  28.029  34.686  1.00  0.00     0.064 A 
ATOM     90  C   UNL A   1      45.562  28.437  34.609  1.00  0.00     0.173 A 
ATOM     91  C   UNL A   1      43.932  26.861  35.408  1.00  0.00     0.173 A 
ATOM     92  F   UNL A   1      45.894  29.538  33.919  1.00  0.00    -0.203 F 
ATOM     93  C   UNL A   1      46.574  27.683  35.198  1.00  0.00     0.198 A 
ATOM     94  C   UNL A   1      44.942  26.130  36.026  1.00  0.00     0.198 A 
ATOM     95  F   UNL A   1      42.666  26.431  35.521  1.00  0.00    -0.203 F 
ATOM     96  F   UNL A   1      47.853  28.059  35.057  1.00  0.00    -0.200 F 
ATOM     97  C   UNL A   1      46.263  26.535  35.911  1.00  0.00     0.200 A 
ATOM     98  F   UNL A   1      44.638  25.030  36.729  1.00  0.00    -0.200 F 
ATOM     99  F   UNL A   1      47.239  25.814  36.481  1.00  0.00    -0.200 F 
ENDBRANCH  66  89
ENDBRANCH  40  41
ENDBRANCH  32  35
ENDBRANCH  30  31
ENDBRANCH  29  30
ENDBRANCH  28  29
ENDBRANCH   1  28
TORSDOF 18
ENDMDL
MODEL 3
REMARK VINA RESULT:     -11.8      1.367      7.356
REMARK SMILES CC(C)C[C@H](CNC(=O)N[C@@H]1CCC[C@@H](C)[C@H]1C)C(=O)NCCCCCCNC(=O)c1ccc(-c2c3nc(c(-c4c(F)c(F)c(F)c(F)c4F)c4ccc([nH]4)c(-c4c(F)c(F)c(F)c(F)c4F)c4nc(c(-c5c(F)c(F)c(F)c(F)c5F)c5ccc2[nH]5)C=C4)C=C3)cc1
REMARK SMILES IDX 24 1 23 2 22 3 21 4 19 5 20 6 5 8 4 9 2 10 1 11 3 12 6 13
REMARK SMILES IDX 7 14 8 15 9 17 10 18 11 20 12 21 17 22 13 23 15 24 18 25
REMARK SMILES IDX 14 26 16 27 25 28 26 29 27 30 28 31 29 32 30 34 31 35 32 36
REMARK SMILES IDX 93 37 33 38 92 39 34 40 35 41 36 42 86 43 37 44 91 45 85 46
REMARK SMILES IDX 87 47 38 48 90 49 84 50 83 51 39 53 71 54 51 55 70 56 52 57
REMARK SMILES IDX 55 58 69 59 88 60 53 61 54 62 68 64 89 65 56 66 40 67 41 68
REMARK SMILES IDX 49 69 42 70 43 71 47 72 50 73 44 74 45 75 48 76 46 77 72 78
REMARK SMILES IDX 73 79 81 80 74 81 75 82 79 83 82 84 76 85 77 86 80 87 78 88
REMARK SMILES IDX 57 89 58 90 66 91 59 92 60 93 64 94 67 95 61 96 62 97 65 98
REMARK SMILES IDX 63 99
REMARK H PARENT 21 7 7 16 10 19 28 33 87 52 55 63
REMARK Flexibility Score: inf
ROOT
ATOM      1  C   UNL A   1      37.595  22.078  25.299  1.00  0.00     0.002 C 
ENDROOT
BRANCH   1   2
ATOM      2  C   UNL A   1      36.768  23.254  24.776  1.00  0.00     0.021 C 
BRANCH   2   3
ATOM      3  C   UNL A   1      35.265  23.035  24.934  1.00  0.00     0.116 C 
BRANCH   3   4
ATOM      4  N   UNL A   1      34.972  22.612  26.287  1.00  0.00    -0.356 N 
ATOM      5  C   UNL A   1      34.000  21.785  26.751  1.00  0.00     0.224 C 
ATOM      6  O   UNL A   1      33.812  21.741  27.969  1.00  0.00    -0.275 OA
ATOM      7  H   UNL A   1      35.570  22.982  26.977  1.00  0.00     0.163 HD
BRANCH   5   8
ATOM      8  C   UNL A   1      33.198  20.903  25.808  1.00  0.00     0.098 C 
BRANCH   8   9
ATOM      9  C   UNL A   1      34.110  20.114  24.842  1.00  0.00     0.018 C 
BRANCH   9  10
ATOM     10  C   UNL A   1      33.621  18.682  24.522  1.00  0.00    -0.017 C 
ATOM     11  C   UNL A   1      34.785  17.712  24.312  1.00  0.00     0.007 C 
ATOM     12  C   UNL A   1      32.726  18.181  25.657  1.00  0.00     0.007 C 
ENDBRANCH   9  10
ENDBRANCH   8   9
BRANCH   8  13
ATOM     13  C   UNL A   1      32.062  21.708  25.144  1.00  0.00     0.131 C 
BRANCH  13  14
ATOM     14  N   UNL A   1      30.953  22.010  26.026  1.00  0.00    -0.337 N 
ATOM     15  C   UNL A   1      30.681  23.077  26.790  1.00  0.00     0.315 C 
ATOM     16  H   UNL A   1      30.273  21.299  26.073  1.00  0.00     0.165 HD
ATOM     17  O   UNL A   1      29.858  22.948  27.696  1.00  0.00    -0.249 OA
ATOM     18  N   UNL A   1      31.283  24.261  26.619  1.00  0.00    -0.335 N 
ATOM     19  H   UNL A   1      31.288  24.831  27.422  1.00  0.00     0.165 HD
BRANCH  18  20
ATOM     20  C   UNL A   1      31.932  24.859  25.454  1.00  0.00     0.087 C 
ATOM     21  C   UNL A   1      32.795  26.053  25.871  1.00  0.00     0.025 C 
ATOM     22  C   UNL A   1      30.876  25.205  24.376  1.00  0.00     0.011 C 
ATOM     23  C   UNL A   1      31.975  27.283  26.237  1.00  0.00     0.002 C 
ATOM     24  C   UNL A   1      30.063  26.453  24.797  1.00  0.00    -0.009 C 
ATOM     25  C   UNL A   1      31.535  25.321  22.996  1.00  0.00     0.010 C 
ATOM     26  C   UNL A   1      30.973  27.640  25.144  1.00  0.00     0.004 C 
ATOM     27  C   UNL A   1      29.019  26.860  23.758  1.00  0.00     0.008 C 
ENDBRANCH  18  20
ENDBRANCH  13  14
ENDBRANCH   8  13
ENDBRANCH   5   8
ENDBRANCH   3   4
ENDBRANCH   2   3
ENDBRANCH   1   2
BRANCH   1  28
ATOM     28  C   UNL A   1      37.407  20.782  24.504  1.00  0.00     0.002 C 
BRANCH  28  29
ATOM     29  C   UNL A   1      38.337  19.641  24.927  1.00  0.00     0.021 C 
BRANCH  29  30
ATOM     30  C   UNL A   1      39.307  20.020  26.038  1.00  0.00     0.116 C 
BRANCH  30  31
ATOM     31  N   UNL A   1      40.469  19.148  26.045  1.00  0.00    -0.352 N 
ATOM     32  C   UNL A   1      41.797  19.482  26.078  1.00  0.00     0.251 C 
ATOM     33  H   UNL A   1      40.275  18.184  26.022  1.00  0.00     0.163 HD
ATOM     34  O   UNL A   1      42.654  18.647  25.818  1.00  0.00    -0.269 OA
BRANCH  32  35
ATOM     35  C   UNL A   1      42.185  20.862  26.426  1.00  0.00     0.039 A 
ATOM     36  C   UNL A   1      42.322  21.802  25.403  1.00  0.00     0.014 A 
ATOM     37  C   UNL A   1      42.430  21.219  27.756  1.00  0.00     0.014 A 
ATOM     38  C   UNL A   1      42.676  23.113  25.719  1.00  0.00     0.010 A 
ATOM     39  C   UNL A   1      42.703  22.544  28.077  1.00  0.00     0.010 A 
ATOM     40  C   UNL A   1      42.849  23.499  27.060  1.00  0.00    -0.014 A 
BRANCH  40  41
ATOM     41  C   UNL A   1      43.220  24.891  27.409  1.00  0.00     0.031 A 
ATOM     42  C   UNL A   1      44.631  25.367  27.199  1.00  0.00     0.074 A 
ATOM     43  C   UNL A   1      42.298  25.711  27.949  1.00  0.00     0.049 A 
ATOM     44  N   UNL A   1      45.164  26.529  27.478  1.00  0.00    -0.248 NA
ATOM     45  C   UNL A   1      45.577  24.399  26.619  1.00  0.00     0.031 C 
ATOM     46  C   UNL A   1      40.911  25.348  28.242  1.00  0.00     0.029 A 
ATOM     47  N   UNL A   1      42.391  27.020  28.350  1.00  0.00    -0.354 N 
ATOM     48  C   UNL A   1      46.500  26.430  27.110  1.00  0.00     0.074 A 
ATOM     49  C   UNL A   1      46.716  25.074  26.656  1.00  0.00     0.031 C 
ATOM     50  C   UNL A   1      40.277  26.414  28.756  1.00  0.00     0.029 A 
ATOM     51  C   UNL A   1      41.220  27.523  28.862  1.00  0.00     0.049 A 
ATOM     52  H   UNL A   1      43.218  27.549  28.278  1.00  0.00     0.167 HD
ATOM     53  C   UNL A   1      47.452  27.392  27.117  1.00  0.00     0.037 A 
ATOM     54  C   UNL A   1      40.944  28.740  29.366  1.00  0.00     0.037 A 
ATOM     55  C   UNL A   1      47.230  28.743  27.560  1.00  0.00     0.049 A 
ATOM     56  C   UNL A   1      42.028  29.786  29.380  1.00  0.00     0.074 A 
ATOM     57  C   UNL A   1      48.121  29.801  27.590  1.00  0.00     0.029 A 
ATOM     58  N   UNL A   1      46.024  29.222  28.053  1.00  0.00    -0.354 N 
ATOM     59  N   UNL A   1      43.272  29.697  28.975  1.00  0.00    -0.248 NA
ATOM     60  C   UNL A   1      41.664  31.106  29.909  1.00  0.00     0.031 C 
ATOM     61  C   UNL A   1      47.467  30.909  28.140  1.00  0.00     0.029 A 
ATOM     62  C   UNL A   1      46.152  30.558  28.398  1.00  0.00     0.049 A 
ATOM     63  H   UNL A   1      45.200  28.691  28.143  1.00  0.00     0.167 HD
ATOM     64  C   UNL A   1      43.826  30.957  29.164  1.00  0.00     0.074 A 
ATOM     65  C   UNL A   1      42.777  31.795  29.705  1.00  0.00     0.031 C 
ATOM     66  C   UNL A   1      45.089  31.382  28.916  1.00  0.00     0.037 A 
BRANCH  53  67
ATOM     67  C   UNL A   1      48.818  27.019  26.615  1.00  0.00     0.064 A 
ATOM     68  C   UNL A   1      49.818  26.560  27.487  1.00  0.00     0.173 A 
ATOM     69  C   UNL A   1      49.124  27.086  25.247  1.00  0.00     0.173 A 
ATOM     70  F   UNL A   1      49.584  26.490  28.806  1.00  0.00    -0.203 F 
ATOM     71  C   UNL A   1      51.080  26.211  27.013  1.00  0.00     0.198 A 
ATOM     72  C   UNL A   1      50.376  26.704  24.772  1.00  0.00     0.198 A 
ATOM     73  F   UNL A   1      48.204  27.514  24.368  1.00  0.00    -0.203 F 
ATOM     74  F   UNL A   1      52.035  25.827  27.872  1.00  0.00    -0.200 F 
ATOM     75  C   UNL A   1      51.355  26.275  25.655  1.00  0.00     0.200 A 
ATOM     76  F   UNL A   1      50.636  26.752  23.458  1.00  0.00    -0.200 F 
ATOM     77  F   UNL A   1      52.567  25.930  25.199  1.00  0.00    -0.200 F 
ENDBRANCH  53  67
BRANCH  54  78
ATOM     78  C   UNL A   1      39.584  29.047  29.882  1.00  0.00     0.064 A 
ATOM     79  C   UNL A   1      38.607  29.616  29.053  1.00  0.00     0.173 A 
ATOM     80  C   UNL A   1      39.241  28.808  31.220  1.00  0.00     0.173 A 
ATOM     81  F   UNL A   1      38.889  29.880  27.768  1.00  0.00    -0.203 F 
ATOM     82  C   UNL A   1      37.354  29.969  29.551  1.00  0.00     0.198 A 
ATOM     83  C   UNL A   1      37.978  29.128  31.710  1.00  0.00     0.198 A 
ATOM     84  F   UNL A   1      40.136  28.255  32.054  1.00  0.00    -0.203 F 
ATOM     85  F   UNL A   1      36.463  30.571  28.753  1.00  0.00    -0.200 F 
ATOM     86  C   UNL A   1      37.040  29.722  30.879  1.00  0.00     0.200 A 
ATOM     87  F   UNL A   1      37.672  28.871  32.990  1.00  0.00    -0.200 F 
ATOM     88  F   UNL A   1      35.837  30.064  31.360  1.00  0.00    -0.200 F 
ENDBRANCH  54  78
BRANCH  66  89
ATOM     89  C   UNL A   1      45.389  32.831  29.172  1.00  0.00     0.064 A 
ATOM     90  C   UNL A   1      45.931  33.275  30.387  1.00  0.00     0.173 A 
ATOM     91  C   UNL A   1      45.150  33.788  28.172  1.00  0.00     0.173 A 
ATOM     92  F   UNL A   1      46.166  32.404  31.380  1.00  0.00    -0.203 F 
ATOM     93  C   UNL A   1      46.186  34.626  30.606  1.00  0.00     0.198 A 
ATOM     94  C   UNL A   1      45.440  35.132  28.381  1.00  0.00     0.198 A 
ATOM     95  F   UNL A   1      44.641  33.416  26.987  1.00  0.00    -0.203 F 
ATOM     96  F   UNL A   1      46.645  35.034  31.797  1.00  0.00    -0.200 F 
ATOM     97  C   UNL A   1      45.947  35.552  29.601  1.00  0.00     0.200 A 
ATOM     98  F   UNL A   1      45.224  36.023  27.403  1.00  0.00    -0.200 F 
ATOM     99  F   UNL A   1      46.197  36.852  29.813  1.00  0.00    -0.200 F 
ENDBRANCH  66  89
ENDBRANCH  40  41
ENDBRANCH  32  35
ENDBRANCH  30  31
ENDBRANCH  29  30
ENDBRANCH  28  29
ENDBRANCH   1  28
TORSDOF 18
ENDMDL
