MODEL 1
REMARK VINA RESULT:     -14.6      0.000      0.000
REMARK SMILES Cc1cc(N2CC[NH+]([C@@H](C(=O)NCCCCCCNC(=O)c3ccc(-c4c5nc(c(-c6c(F)c(F)c(F)c(F)c6F)c6ccc([nH]6)c(-c6c(F)c(F)c(F)c(F)c6F)c6nc(c(-c7c(F)c(F)c(F)c(F)c7F)c7ccc4[nH]7)C=C6)C=C5)cc3)c3c[nH]c4ccccc34)CC2)nc2ccccc12
REMARK SMILES IDX 15 1 14 2 13 3 12 4 10 5 11 6 9 8 8 9 5 10 6 11 95 12 7 13
REMARK SMILES IDX 94 14 4 16 1 17 2 18 3 19 102 20 97 21 101 22 96 23 98 24
REMARK SMILES IDX 100 25 99 26 85 27 86 28 93 29 87 30 88 31 92 32 89 34 91 35
REMARK SMILES IDX 90 36 16 37 17 38 18 39 19 40 20 41 21 43 22 44 23 45 84 46
REMARK SMILES IDX 24 47 83 48 25 49 26 50 27 51 77 52 28 53 82 54 76 55 78 56
REMARK SMILES IDX 29 57 81 58 75 59 74 60 30 62 62 63 42 64 61 65 43 66 46 67
REMARK SMILES IDX 60 68 79 69 44 70 45 71 59 73 80 74 47 75 31 76 32 77 40 78
REMARK SMILES IDX 33 79 34 80 38 81 41 82 35 83 36 84 39 85 37 86 63 87 64 88
REMARK SMILES IDX 72 89 65 90 66 91 70 92 73 93 67 94 68 95 71 96 69 97 48 98
REMARK SMILES IDX 49 99 57 100 50 101 51 102 55 103 58 104 52 105 53 106
REMARK SMILES IDX 56 107 54 108
REMARK H PARENT 12 7 8 15 87 33 19 42 78 61 46 72
REMARK Flexibility Score: inf
ROOT
ATOM      1  C   UNL A   1      31.774  29.421  27.173  1.00  0.00     0.002 C 
ENDROOT
BRANCH   1   2
ATOM      2  C   UNL A   1      33.141  28.712  27.234  1.00  0.00     0.021 C 
BRANCH   2   3
ATOM      3  C   UNL A   1      34.033  28.773  25.954  1.00  0.00     0.116 C 
BRANCH   3   4
ATOM      4  N   UNL A   1      33.980  27.609  25.058  1.00  0.00    -0.351 N 
ATOM      5  C   UNL A   1      33.047  26.866  24.367  1.00  0.00     0.283 C 
ATOM      6  O   UNL A   1      33.560  26.018  23.623  1.00  0.00    -0.268 OA
ATOM      7  H   UNL A   1      34.885  27.251  24.907  1.00  0.00     0.163 HD
BRANCH   5   8
ATOM      8  C   UNL A   1      31.500  27.093  24.409  1.00  0.00     0.307 C 
BRANCH   8   9
ATOM      9  N   UNL A   1      30.599  25.983  24.912  1.00  0.00    -0.318 N 
ATOM     10  N   UNL A   1      31.738  23.288  24.966  1.00  0.00    -0.345 N 
ATOM     11  C   UNL A   1      31.346  23.866  23.688  1.00  0.00     0.179 C 
ATOM     12  C   UNL A   1      32.109  24.264  25.988  1.00  0.00     0.179 C 
ATOM     13  C   UNL A   1      30.219  24.858  24.027  1.00  0.00     0.284 C 
ATOM     14  C   UNL A   1      31.018  25.346  26.159  1.00  0.00     0.284 C 
ATOM     15  H   UNL A   1      29.783  26.588  25.012  1.00  0.00     0.349 HD
BRANCH  10  16
ATOM     16  C   UNL A   1      32.560  22.175  24.995  1.00  0.00     0.129 A 
ATOM     17  C   UNL A   1      36.282  21.755  25.308  1.00  0.00     0.045 C 
ATOM     18  C   UNL A   1      34.840  21.406  25.096  1.00  0.00    -0.038 A 
ATOM     19  C   UNL A   1      33.904  22.419  25.240  1.00  0.00     0.051 A 
ATOM     20  C   UNL A   1      34.378  20.122  24.752  1.00  0.00     0.003 A 
ATOM     21  C   UNL A   1      32.988  19.959  24.521  1.00  0.00     0.073 A 
ATOM     22  C   UNL A   1      35.235  19.011  24.626  1.00  0.00     0.010 A 
ATOM     23  N   UNL A   1      32.102  20.963  24.645  1.00  0.00    -0.231 NA
ATOM     24  C   UNL A   1      32.528  18.711  24.124  1.00  0.00     0.029 A 
ATOM     25  C   UNL A   1      34.739  17.764  24.251  1.00  0.00     0.001 A 
ATOM     26  C   UNL A   1      33.386  17.616  23.986  1.00  0.00     0.002 A 
ENDBRANCH  10  16
ENDBRANCH   8   9
BRANCH   8  27
ATOM     27  C   UNL A   1      30.885  27.718  23.111  1.00  0.00     0.044 A 
ATOM     28  C   UNL A   1      31.656  28.391  22.160  1.00  0.00     0.094 A 
ATOM     29  C   UNL A   1      29.589  28.342  22.914  1.00  0.00     0.009 A 
ATOM     30  N   UNL A   1      31.250  29.703  22.348  1.00  0.00    -0.361 N 
ATOM     31  C   UNL A   1      29.904  29.685  22.650  1.00  0.00     0.046 A 
ATOM     32  C   UNL A   1      28.231  28.028  23.125  1.00  0.00     0.011 A 
ATOM     33  H   UNL A   1      31.819  30.503  22.278  1.00  0.00     0.166 HD
ATOM     34  C   UNL A   1      29.001  30.736  22.851  1.00  0.00     0.026 A 
ATOM     35  C   UNL A   1      27.279  29.062  23.165  1.00  0.00     0.001 A 
ATOM     36  C   UNL A   1      27.675  30.397  23.115  1.00  0.00     0.002 A 
ENDBRANCH   8  27
ENDBRANCH   5   8
ENDBRANCH   3   4
ENDBRANCH   2   3
ENDBRANCH   1   2
BRANCH   1  37
ATOM     37  C   UNL A   1      31.647  30.486  26.080  1.00  0.00     0.002 C 
BRANCH  37  38
ATOM     38  C   UNL A   1      31.444  31.921  26.576  1.00  0.00     0.021 C 
BRANCH  38  39
ATOM     39  C   UNL A   1      32.659  32.554  27.251  1.00  0.00     0.116 C 
BRANCH  39  40
ATOM     40  N   UNL A   1      32.461  33.971  27.516  1.00  0.00    -0.352 N 
ATOM     41  C   UNL A   1      33.020  34.751  28.505  1.00  0.00     0.251 C 
ATOM     42  H   UNL A   1      31.843  34.436  26.906  1.00  0.00     0.163 HD
ATOM     43  O   UNL A   1      32.572  35.855  28.767  1.00  0.00    -0.269 OA
BRANCH  41  44
ATOM     44  C   UNL A   1      34.181  34.230  29.259  1.00  0.00     0.039 A 
ATOM     45  C   UNL A   1      33.973  33.563  30.468  1.00  0.00     0.014 A 
ATOM     46  C   UNL A   1      35.475  34.402  28.760  1.00  0.00     0.014 A 
ATOM     47  C   UNL A   1      35.063  33.016  31.149  1.00  0.00     0.010 A 
ATOM     48  C   UNL A   1      36.549  33.790  29.399  1.00  0.00     0.010 A 
ATOM     49  C   UNL A   1      36.355  33.097  30.604  1.00  0.00    -0.014 A 
BRANCH  49  50
ATOM     50  C   UNL A   1      37.517  32.464  31.282  1.00  0.00     0.031 A 
ATOM     51  C   UNL A   1      38.229  31.305  30.642  1.00  0.00     0.074 A 
ATOM     52  C   UNL A   1      37.885  32.886  32.507  1.00  0.00     0.049 A 
ATOM     53  N   UNL A   1      39.229  30.593  31.097  1.00  0.00    -0.248 NA
ATOM     54  C   UNL A   1      37.729  30.868  29.330  1.00  0.00     0.031 C 
ATOM     55  C   UNL A   1      37.232  33.955  33.261  1.00  0.00     0.029 A 
ATOM     56  N   UNL A   1      38.888  32.454  33.338  1.00  0.00    -0.354 N 
ATOM     57  C   UNL A   1      39.464  29.616  30.138  1.00  0.00     0.074 A 
ATOM     58  C   UNL A   1      38.464  29.790  29.107  1.00  0.00     0.031 C 
ATOM     59  C   UNL A   1      37.860  34.109  34.437  1.00  0.00     0.029 A 
ATOM     60  C   UNL A   1      38.934  33.125  34.536  1.00  0.00     0.049 A 
ATOM     61  H   UNL A   1      39.515  31.733  33.100  1.00  0.00     0.167 HD
ATOM     62  C   UNL A   1      40.439  28.675  30.109  1.00  0.00     0.037 A 
ATOM     63  C   UNL A   1      39.742  32.959  35.601  1.00  0.00     0.037 A 
ATOM     64  C   UNL A   1      41.440  28.519  31.132  1.00  0.00     0.049 A 
ATOM     65  C   UNL A   1      40.824  31.915  35.547  1.00  0.00     0.074 A 
ATOM     66  C   UNL A   1      42.520  27.657  31.158  1.00  0.00     0.029 A 
ATOM     67  N   UNL A   1      41.471  29.234  32.322  1.00  0.00    -0.354 N 
ATOM     68  N   UNL A   1      41.100  31.060  34.591  1.00  0.00    -0.248 NA
ATOM     69  C   UNL A   1      41.712  31.821  36.712  1.00  0.00     0.031 C 
ATOM     70  C   UNL A   1      43.164  27.799  32.393  1.00  0.00     0.029 A 
ATOM     71  C   UNL A   1      42.528  28.802  33.107  1.00  0.00     0.049 A 
ATOM     72  H   UNL A   1      40.835  29.944  32.572  1.00  0.00     0.167 HD
ATOM     73  C   UNL A   1      42.202  30.338  35.030  1.00  0.00     0.074 A 
ATOM     74  C   UNL A   1      42.554  30.870  36.331  1.00  0.00     0.031 C 
ATOM     75  C   UNL A   1      42.861  29.328  34.409  1.00  0.00     0.037 A 
BRANCH  62  76
ATOM     76  C   UNL A   1      40.450  27.728  28.939  1.00  0.00     0.064 A 
ATOM     77  C   UNL A   1      41.233  27.963  27.798  1.00  0.00     0.173 A 
ATOM     78  C   UNL A   1      39.665  26.565  28.962  1.00  0.00     0.173 A 
ATOM     79  F   UNL A   1      41.998  29.063  27.717  1.00  0.00    -0.203 F 
ATOM     80  C   UNL A   1      41.188  27.101  26.704  1.00  0.00     0.198 A 
ATOM     81  C   UNL A   1      39.653  25.684  27.883  1.00  0.00     0.198 A 
ATOM     82  F   UNL A   1      38.903  26.282  30.029  1.00  0.00    -0.203 F 
ATOM     83  F   UNL A   1      41.886  27.388  25.598  1.00  0.00    -0.200 F 
ATOM     84  C   UNL A   1      40.403  25.960  26.750  1.00  0.00     0.200 A 
ATOM     85  F   UNL A   1      38.906  24.572  27.936  1.00  0.00    -0.200 F 
ATOM     86  F   UNL A   1      40.358  25.133  25.697  1.00  0.00    -0.200 F 
ENDBRANCH  62  76
BRANCH  63  87
ATOM     87  C   UNL A   1      39.557  33.822  36.797  1.00  0.00     0.064 A 
ATOM     88  C   UNL A   1      40.129  35.100  36.866  1.00  0.00     0.173 A 
ATOM     89  C   UNL A   1      38.767  33.402  37.877  1.00  0.00     0.173 A 
ATOM     90  F   UNL A   1      40.908  35.539  35.866  1.00  0.00    -0.203 F 
ATOM     91  C   UNL A   1      39.922  35.922  37.971  1.00  0.00     0.198 A 
ATOM     92  C   UNL A   1      38.537  34.236  38.969  1.00  0.00     0.198 A 
ATOM     93  F   UNL A   1      38.191  32.191  37.857  1.00  0.00    -0.203 F 
ATOM     94  F   UNL A   1      40.504  37.128  38.025  1.00  0.00    -0.200 F 
ATOM     95  C   UNL A   1      39.118  35.494  39.017  1.00  0.00     0.200 A 
ATOM     96  F   UNL A   1      37.742  33.825  39.967  1.00  0.00    -0.200 F 
ATOM     97  F   UNL A   1      38.903  36.292  40.071  1.00  0.00    -0.200 F 
ENDBRANCH  63  87
BRANCH  75  98
ATOM     98  C   UNL A   1      44.047  28.739  35.121  1.00  0.00     0.064 A 
ATOM     99  C   UNL A   1      45.329  29.297  35.008  1.00  0.00     0.173 A 
ATOM    100  C   UNL A   1      43.889  27.626  35.962  1.00  0.00     0.173 A 
ATOM    101  F   UNL A   1      45.538  30.353  34.207  1.00  0.00    -0.203 F 
ATOM    102  C   UNL A   1      46.413  28.745  35.688  1.00  0.00     0.198 A 
ATOM    103  C   UNL A   1      44.967  27.100  36.667  1.00  0.00     0.198 A 
ATOM    104  F   UNL A   1      42.683  27.057  36.112  1.00  0.00    -0.203 F 
ATOM    105  F   UNL A   1      47.638  29.264  35.524  1.00  0.00    -0.200 F 
ATOM    106  C   UNL A   1      46.229  27.654  36.523  1.00  0.00     0.200 A 
ATOM    107  F   UNL A   1      44.783  26.056  37.488  1.00  0.00    -0.200 F 
ATOM    108  F   UNL A   1      47.271  27.132  37.185  1.00  0.00    -0.200 F 
ENDBRANCH  75  98
ENDBRANCH  49  50
ENDBRANCH  41  44
ENDBRANCH  39  40
ENDBRANCH  38  39
ENDBRANCH  37  38
ENDBRANCH   1  37
TORSDOF 16
ENDMDL
MODEL 2
REMARK VINA RESULT:     -14.1      0.864      7.119
REMARK SMILES Cc1cc(N2CC[NH+]([C@@H](C(=O)NCCCCCCNC(=O)c3ccc(-c4c5nc(c(-c6c(F)c(F)c(F)c(F)c6F)c6ccc([nH]6)c(-c6c(F)c(F)c(F)c(F)c6F)c6nc(c(-c7c(F)c(F)c(F)c(F)c7F)c7ccc4[nH]7)C=C6)C=C5)cc3)c3c[nH]c4ccccc34)CC2)nc2ccccc12
REMARK SMILES IDX 15 1 14 2 13 3 12 4 10 5 11 6 9 8 8 9 5 10 6 11 95 12 7 13
REMARK SMILES IDX 94 14 4 16 1 17 2 18 3 19 102 20 97 21 101 22 96 23 98 24
REMARK SMILES IDX 100 25 99 26 85 27 86 28 93 29 87 30 88 31 92 32 89 34 91 35
REMARK SMILES IDX 90 36 16 37 17 38 18 39 19 40 20 41 21 43 22 44 23 45 84 46
REMARK SMILES IDX 24 47 83 48 25 49 26 50 27 51 77 52 28 53 82 54 76 55 78 56
REMARK SMILES IDX 29 57 81 58 75 59 74 60 30 62 62 63 42 64 61 65 43 66 46 67
REMARK SMILES IDX 60 68 79 69 44 70 45 71 59 73 80 74 47 75 31 76 32 77 40 78
REMARK SMILES IDX 33 79 34 80 38 81 41 82 35 83 36 84 39 85 37 86 63 87 64 88
REMARK SMILES IDX 72 89 65 90 66 91 70 92 73 93 67 94 68 95 71 96 69 97 48 98
REMARK SMILES IDX 49 99 57 100 50 101 51 102 55 103 58 104 52 105 53 106
REMARK SMILES IDX 56 107 54 108
REMARK H PARENT 12 7 8 15 87 33 19 42 78 61 46 72
REMARK Flexibility Score: inf
ROOT
ATOM      1  C   UNL A   1      32.070  30.408  26.077  1.00  0.00     0.002 C 
ENDROOT
BRANCH   1   2
ATOM      2  C   UNL A   1      31.942  29.314  27.155  1.00  0.00     0.021 C 
BRANCH   2   3
ATOM      3  C   UNL A   1      33.105  28.278  27.259  1.00  0.00     0.116 C 
BRANCH   3   4
ATOM      4  N   UNL A   1      33.479  27.581  26.019  1.00  0.00    -0.351 N 
ATOM      5  C   UNL A   1      32.875  27.034  24.907  1.00  0.00     0.283 C 
ATOM      6  O   UNL A   1      33.689  26.657  24.053  1.00  0.00    -0.268 OA
ATOM      7  H   UNL A   1      34.456  27.472  25.969  1.00  0.00     0.163 HD
BRANCH   5   8
ATOM      8  C   UNL A   1      31.333  26.963  24.658  1.00  0.00     0.307 C 
BRANCH   8   9
ATOM      9  N   UNL A   1      30.613  25.641  24.834  1.00  0.00    -0.318 N 
ATOM     10  N   UNL A   1      32.231  23.217  24.575  1.00  0.00    -0.345 N 
ATOM     11  C   UNL A   1      31.871  23.959  23.375  1.00  0.00     0.179 C 
ATOM     12  C   UNL A   1      32.302  24.023  25.792  1.00  0.00     0.179 C 
ATOM     13  C   UNL A   1      30.547  24.663  23.723  1.00  0.00     0.284 C 
ATOM     14  C   UNL A   1      31.013  24.853  25.997  1.00  0.00     0.284 C 
ATOM     15  H   UNL A   1      29.691  26.069  24.925  1.00  0.00     0.349 HD
BRANCH  10  16
ATOM     16  C   UNL A   1      33.242  22.273  24.523  1.00  0.00     0.129 A 
ATOM     17  C   UNL A   1      33.261  18.529  24.857  1.00  0.00     0.045 C 
ATOM     18  C   UNL A   1      33.771  19.933  24.733  1.00  0.00    -0.038 A 
ATOM     19  C   UNL A   1      32.838  20.947  24.579  1.00  0.00     0.051 A 
ATOM     20  C   UNL A   1      35.132  20.287  24.771  1.00  0.00     0.003 A 
ATOM     21  C   UNL A   1      35.459  21.666  24.706  1.00  0.00     0.073 A 
ATOM     22  C   UNL A   1      36.167  19.336  24.876  1.00  0.00     0.010 A 
ATOM     23  N   UNL A   1      34.534  22.633  24.579  1.00  0.00    -0.231 NA
ATOM     24  C   UNL A   1      36.795  22.032  24.801  1.00  0.00     0.029 A 
ATOM     25  C   UNL A   1      37.500  19.733  24.944  1.00  0.00     0.001 A 
ATOM     26  C   UNL A   1      37.815  21.084  24.921  1.00  0.00     0.002 A 
ENDBRANCH  10  16
ENDBRANCH   8   9
BRANCH   8  27
ATOM     27  C   UNL A   1      30.838  27.659  23.345  1.00  0.00     0.044 A 
ATOM     28  C   UNL A   1      31.692  28.377  22.505  1.00  0.00     0.094 A 
ATOM     29  C   UNL A   1      29.566  28.298  23.065  1.00  0.00     0.009 A 
ATOM     30  N   UNL A   1      31.270  29.679  22.725  1.00  0.00    -0.361 N 
ATOM     31  C   UNL A   1      29.902  29.651  22.902  1.00  0.00     0.046 A 
ATOM     32  C   UNL A   1      28.194  27.979  23.136  1.00  0.00     0.011 A 
ATOM     33  H   UNL A   1      31.843  30.479  22.749  1.00  0.00     0.166 HD
ATOM     34  C   UNL A   1      28.985  30.695  23.075  1.00  0.00     0.026 A 
ATOM     35  C   UNL A   1      27.242  29.015  23.144  1.00  0.00     0.001 A 
ATOM     36  C   UNL A   1      27.641  30.349  23.201  1.00  0.00     0.002 A 
ENDBRANCH   8  27
ENDBRANCH   5   8
ENDBRANCH   3   4
ENDBRANCH   2   3
ENDBRANCH   1   2
BRANCH   1  37
ATOM     37  C   UNL A   1      30.962  31.466  26.097  1.00  0.00     0.002 C 
BRANCH  37  38
ATOM     38  C   UNL A   1      31.430  32.908  26.313  1.00  0.00     0.021 C 
BRANCH  38  39
ATOM     39  C   UNL A   1      32.541  33.083  27.348  1.00  0.00     0.116 C 
BRANCH  39  40
ATOM     40  N   UNL A   1      32.620  34.451  27.839  1.00  0.00    -0.352 N 
ATOM     41  C   UNL A   1      33.399  34.959  28.855  1.00  0.00     0.251 C 
ATOM     42  H   UNL A   1      32.037  35.101  27.384  1.00  0.00     0.163 HD
ATOM     43  O   UNL A   1      33.178  36.062  29.329  1.00  0.00    -0.269 OA
BRANCH  41  44
ATOM     44  C   UNL A   1      34.518  34.145  29.377  1.00  0.00     0.039 A 
ATOM     45  C   UNL A   1      35.813  34.372  28.904  1.00  0.00     0.014 A 
ATOM     46  C   UNL A   1      34.279  33.160  30.339  1.00  0.00     0.014 A 
ATOM     47  C   UNL A   1      36.878  33.647  29.442  1.00  0.00     0.010 A 
ATOM     48  C   UNL A   1      35.350  32.495  30.928  1.00  0.00     0.010 A 
ATOM     49  C   UNL A   1      36.660  32.726  30.481  1.00  0.00    -0.014 A 
BRANCH  49  50
ATOM     50  C   UNL A   1      37.791  31.994  31.109  1.00  0.00     0.031 A 
ATOM     51  C   UNL A   1      38.258  32.363  32.490  1.00  0.00     0.074 A 
ATOM     52  C   UNL A   1      38.443  31.046  30.410  1.00  0.00     0.049 A 
ATOM     53  N   UNL A   1      39.254  31.875  33.186  1.00  0.00    -0.248 NA
ATOM     54  C   UNL A   1      37.531  33.448  33.164  1.00  0.00     0.031 C 
ATOM     55  C   UNL A   1      38.128  30.645  29.040  1.00  0.00     0.029 A 
ATOM     56  N   UNL A   1      39.515  30.260  30.751  1.00  0.00    -0.354 N 
ATOM     57  C   UNL A   1      39.282  32.605  34.368  1.00  0.00     0.074 A 
ATOM     58  C   UNL A   1      38.244  33.607  34.268  1.00  0.00     0.031 C 
ATOM     59  C   UNL A   1      38.976  29.675  28.661  1.00  0.00     0.029 A 
ATOM     60  C   UNL A   1      39.918  29.415  29.745  1.00  0.00     0.049 A 
ATOM     61  H   UNL A   1      39.955  30.298  31.631  1.00  0.00     0.167 HD
ATOM     62  C   UNL A   1      40.085  32.438  35.447  1.00  0.00     0.037 A 
ATOM     63  C   UNL A   1      40.938  28.538  29.697  1.00  0.00     0.037 A 
ATOM     64  C   UNL A   1      41.105  31.428  35.544  1.00  0.00     0.049 A 
ATOM     65  C   UNL A   1      41.814  28.361  30.907  1.00  0.00     0.074 A 
ATOM     66  C   UNL A   1      41.914  31.118  36.622  1.00  0.00     0.029 A 
ATOM     67  N   UNL A   1      41.470  30.571  34.514  1.00  0.00    -0.354 N 
ATOM     68  N   UNL A   1      41.769  28.988  32.058  1.00  0.00    -0.248 NA
ATOM     69  C   UNL A   1      42.873  27.348  30.816  1.00  0.00     0.031 C 
ATOM     70  C   UNL A   1      42.815  30.124  36.222  1.00  0.00     0.029 A 
ATOM     71  C   UNL A   1      42.521  29.762  34.918  1.00  0.00     0.049 A 
ATOM     72  H   UNL A   1      41.045  30.542  33.625  1.00  0.00     0.167 HD
ATOM     73  C   UNL A   1      42.779  28.437  32.835  1.00  0.00     0.074 A 
ATOM     74  C   UNL A   1      43.407  27.409  32.029  1.00  0.00     0.031 C 
ATOM     75  C   UNL A   1      43.149  28.752  34.101  1.00  0.00     0.037 A 
BRANCH  62  76
ATOM     76  C   UNL A   1      39.900  33.389  36.598  1.00  0.00     0.064 A 
ATOM     77  C   UNL A   1      39.001  33.129  37.643  1.00  0.00     0.173 A 
ATOM     78  C   UNL A   1      40.638  34.582  36.657  1.00  0.00     0.173 A 
ATOM     79  F   UNL A   1      38.263  32.008  37.637  1.00  0.00    -0.203 F 
ATOM     80  C   UNL A   1      38.807  34.048  38.672  1.00  0.00     0.198 A 
ATOM     81  C   UNL A   1      40.472  35.480  37.708  1.00  0.00     0.198 A 
ATOM     82  F   UNL A   1      41.520  34.881  35.691  1.00  0.00    -0.203 F 
ATOM     83  F   UNL A   1      37.887  33.810  39.617  1.00  0.00    -0.200 F 
ATOM     84  C   UNL A   1      39.546  35.220  38.707  1.00  0.00     0.200 A 
ATOM     85  F   UNL A   1      41.200  36.605  37.748  1.00  0.00    -0.200 F 
ATOM     86  F   UNL A   1      39.357  36.104  39.695  1.00  0.00    -0.200 F 
ENDBRANCH  62  76
BRANCH  63  87
ATOM     87  C   UNL A   1      41.165  27.754  28.455  1.00  0.00     0.064 A 
ATOM     88  C   UNL A   1      40.464  26.566  28.208  1.00  0.00     0.173 A 
ATOM     89  C   UNL A   1      42.057  28.201  27.469  1.00  0.00     0.173 A 
ATOM     90  F   UNL A   1      39.614  26.087  29.129  1.00  0.00    -0.203 F 
ATOM     91  C   UNL A   1      40.650  25.852  27.026  1.00  0.00     0.198 A 
ATOM     92  C   UNL A   1      42.221  27.503  26.275  1.00  0.00     0.198 A 
ATOM     93  F   UNL A   1      42.747  29.337  27.653  1.00  0.00    -0.203 F 
ATOM     94  F   UNL A   1      39.990  24.704  26.827  1.00  0.00    -0.200 F 
ATOM     95  C   UNL A   1      41.521  26.327  26.056  1.00  0.00     0.200 A 
ATOM     96  F   UNL A   1      43.048  27.978  25.332  1.00  0.00    -0.200 F 
ATOM     97  F   UNL A   1      41.685  25.652  24.910  1.00  0.00    -0.200 F 
ENDBRANCH  63  87
BRANCH  75  98
ATOM     98  C   UNL A   1      44.279  27.966  34.705  1.00  0.00     0.064 A 
ATOM     99  C   UNL A   1      44.059  26.752  35.373  1.00  0.00     0.173 A 
ATOM    100  C   UNL A   1      45.604  28.411  34.576  1.00  0.00     0.173 A 
ATOM    101  F   UNL A   1      42.811  26.287  35.538  1.00  0.00    -0.203 F 
ATOM    102  C   UNL A   1      45.121  26.029  35.914  1.00  0.00     0.198 A 
ATOM    103  C   UNL A   1      46.664  27.668  35.085  1.00  0.00     0.198 A 
ATOM    104  F   UNL A   1      45.871  29.562  33.939  1.00  0.00    -0.203 F 
ATOM    105  F   UNL A   1      44.882  24.899  36.593  1.00  0.00    -0.200 F 
ATOM    106  C   UNL A   1      46.422  26.483  35.761  1.00  0.00     0.200 A 
ATOM    107  F   UNL A   1      47.922  28.100  34.921  1.00  0.00    -0.200 F 
ATOM    108  F   UNL A   1      47.443  25.781  36.272  1.00  0.00    -0.200 F 
ENDBRANCH  75  98
ENDBRANCH  49  50
ENDBRANCH  41  44
ENDBRANCH  39  40
ENDBRANCH  38  39
ENDBRANCH  37  38
ENDBRANCH   1  37
TORSDOF 16
ENDMDL
MODEL 3
REMARK VINA RESULT:     -14.0      0.912      2.203
REMARK SMILES Cc1cc(N2CC[NH+]([C@@H](C(=O)NCCCCCCNC(=O)c3ccc(-c4c5nc(c(-c6c(F)c(F)c(F)c(F)c6F)c6ccc([nH]6)c(-c6c(F)c(F)c(F)c(F)c6F)c6nc(c(-c7c(F)c(F)c(F)c(F)c7F)c7ccc4[nH]7)C=C6)C=C5)cc3)c3c[nH]c4ccccc34)CC2)nc2ccccc12
REMARK SMILES IDX 15 1 14 2 13 3 12 4 10 5 11 6 9 8 8 9 5 10 6 11 95 12 7 13
REMARK SMILES IDX 94 14 4 16 1 17 2 18 3 19 102 20 97 21 101 22 96 23 98 24
REMARK SMILES IDX 100 25 99 26 85 27 86 28 93 29 87 30 88 31 92 32 89 34 91 35
REMARK SMILES IDX 90 36 16 37 17 38 18 39 19 40 20 41 21 43 22 44 23 45 84 46
REMARK SMILES IDX 24 47 83 48 25 49 26 50 27 51 77 52 28 53 82 54 76 55 78 56
REMARK SMILES IDX 29 57 81 58 75 59 74 60 30 62 62 63 42 64 61 65 43 66 46 67
REMARK SMILES IDX 60 68 79 69 44 70 45 71 59 73 80 74 47 75 31 76 32 77 40 78
REMARK SMILES IDX 33 79 34 80 38 81 41 82 35 83 36 84 39 85 37 86 63 87 64 88
REMARK SMILES IDX 72 89 65 90 66 91 70 92 73 93 67 94 68 95 71 96 69 97 48 98
REMARK SMILES IDX 49 99 57 100 50 101 51 102 55 103 58 104 52 105 53 106
REMARK SMILES IDX 56 107 54 108
REMARK H PARENT 12 7 8 15 87 33 19 42 78 61 46 72
REMARK Flexibility Score: inf
ROOT
ATOM      1  C   UNL A   1      32.638  30.160  25.627  1.00  0.00     0.002 C 
ENDROOT
BRANCH   1   2
ATOM      2  C   UNL A   1      32.902  28.662  25.878  1.00  0.00     0.021 C 
BRANCH   2   3
ATOM      3  C   UNL A   1      32.223  28.018  27.126  1.00  0.00     0.116 C 
BRANCH   3   4
ATOM      4  N   UNL A   1      31.061  27.154  26.872  1.00  0.00    -0.351 N 
ATOM      5  C   UNL A   1      30.644  26.209  25.958  1.00  0.00     0.283 C 
ATOM      6  O   UNL A   1      29.579  25.665  26.280  1.00  0.00    -0.268 OA
ATOM      7  H   UNL A   1      30.372  27.293  27.561  1.00  0.00     0.163 HD
BRANCH   5   8
ATOM      8  C   UNL A   1      31.441  25.766  24.688  1.00  0.00     0.307 C 
BRANCH   8   9
ATOM      9  N   UNL A   1      32.949  25.642  24.763  1.00  0.00    -0.318 N 
ATOM     10  N   UNL A   1      34.036  22.936  25.006  1.00  0.00    -0.345 N 
ATOM     11  C   UNL A   1      33.411  23.555  26.166  1.00  0.00     0.179 C 
ATOM     12  C   UNL A   1      33.541  23.418  23.718  1.00  0.00     0.179 C 
ATOM     13  C   UNL A   1      33.601  25.069  25.963  1.00  0.00     0.284 C 
ATOM     14  C   UNL A   1      33.585  24.962  23.637  1.00  0.00     0.284 C 
ATOM     15  H   UNL A   1      33.107  26.651  24.776  1.00  0.00     0.349 HD
BRANCH  10  16
ATOM     16  C   UNL A   1      34.263  21.571  24.992  1.00  0.00     0.129 A 
ATOM     17  C   UNL A   1      37.400  19.503  24.899  1.00  0.00     0.045 C 
ATOM     18  C   UNL A   1      35.942  19.850  24.869  1.00  0.00    -0.038 A 
ATOM     19  C   UNL A   1      35.591  21.176  25.072  1.00  0.00     0.051 A 
ATOM     20  C   UNL A   1      34.912  18.920  24.639  1.00  0.00     0.003 A 
ATOM     21  C   UNL A   1      33.582  19.408  24.575  1.00  0.00     0.073 A 
ATOM     22  C   UNL A   1      35.151  17.541  24.468  1.00  0.00     0.010 A 
ATOM     23  N   UNL A   1      33.268  20.703  24.753  1.00  0.00    -0.231 NA
ATOM     24  C   UNL A   1      32.563  18.509  24.291  1.00  0.00     0.029 A 
ATOM     25  C   UNL A   1      34.104  16.660  24.209  1.00  0.00     0.001 A 
ATOM     26  C   UNL A   1      32.809  17.146  24.106  1.00  0.00     0.002 A 
ENDBRANCH  10  16
ENDBRANCH   8   9
BRANCH   8  27
ATOM     27  C   UNL A   1      31.041  26.500  23.362  1.00  0.00     0.044 A 
ATOM     28  C   UNL A   1      31.985  26.954  22.437  1.00  0.00     0.094 A 
ATOM     29  C   UNL A   1      29.941  27.412  23.111  1.00  0.00     0.009 A 
ATOM     30  N   UNL A   1      31.899  28.327  22.601  1.00  0.00    -0.361 N 
ATOM     31  C   UNL A   1      30.577  28.636  22.850  1.00  0.00     0.046 A 
ATOM     32  C   UNL A   1      28.540  27.435  23.271  1.00  0.00     0.011 A 
ATOM     33  H   UNL A   1      32.645  28.967  22.548  1.00  0.00     0.166 HD
ATOM     34  C   UNL A   1      29.946  29.876  23.008  1.00  0.00     0.026 A 
ATOM     35  C   UNL A   1      27.863  28.668  23.266  1.00  0.00     0.001 A 
ATOM     36  C   UNL A   1      28.569  29.868  23.222  1.00  0.00     0.002 A 
ENDBRANCH   8  27
ENDBRANCH   5   8
ENDBRANCH   3   4
ENDBRANCH   2   3
ENDBRANCH   1   2
BRANCH   1  37
ATOM     37  C   UNL A   1      31.410  30.727  26.345  1.00  0.00     0.002 C 
BRANCH  37  38
ATOM     38  C   UNL A   1      31.397  32.248  26.531  1.00  0.00     0.021 C 
BRANCH  38  39
ATOM     39  C   UNL A   1      32.499  32.802  27.432  1.00  0.00     0.116 C 
BRANCH  39  40
ATOM     40  N   UNL A   1      32.354  34.232  27.657  1.00  0.00    -0.352 N 
ATOM     41  C   UNL A   1      32.958  35.021  28.612  1.00  0.00     0.251 C 
ATOM     42  H   UNL A   1      31.740  34.700  27.045  1.00  0.00     0.163 HD
ATOM     43  O   UNL A   1      32.552  36.147  28.849  1.00  0.00    -0.269 OA
BRANCH  41  44
ATOM     44  C   UNL A   1      34.115  34.483  29.360  1.00  0.00     0.039 A 
ATOM     45  C   UNL A   1      33.911  33.892  30.610  1.00  0.00     0.014 A 
ATOM     46  C   UNL A   1      35.399  34.563  28.817  1.00  0.00     0.014 A 
ATOM     47  C   UNL A   1      34.993  33.329  31.288  1.00  0.00     0.010 A 
ATOM     48  C   UNL A   1      36.461  33.933  29.458  1.00  0.00     0.010 A 
ATOM     49  C   UNL A   1      36.271  33.316  30.704  1.00  0.00    -0.014 A 
BRANCH  49  50
ATOM     50  C   UNL A   1      37.421  32.662  31.383  1.00  0.00     0.031 A 
ATOM     51  C   UNL A   1      38.113  31.491  30.742  1.00  0.00     0.074 A 
ATOM     52  C   UNL A   1      37.795  33.076  32.608  1.00  0.00     0.049 A 
ATOM     53  N   UNL A   1      39.100  30.761  31.198  1.00  0.00    -0.248 NA
ATOM     54  C   UNL A   1      37.607  31.064  29.430  1.00  0.00     0.031 C 
ATOM     55  C   UNL A   1      37.160  34.156  33.363  1.00  0.00     0.029 A 
ATOM     56  N   UNL A   1      38.790  32.627  33.440  1.00  0.00    -0.354 N 
ATOM     57  C   UNL A   1      39.319  29.781  30.238  1.00  0.00     0.074 A 
ATOM     58  C   UNL A   1      38.324  29.973  29.207  1.00  0.00     0.031 C 
ATOM     59  C   UNL A   1      37.790  34.299  34.539  1.00  0.00     0.029 A 
ATOM     60  C   UNL A   1      38.846  33.296  34.639  1.00  0.00     0.049 A 
ATOM     61  H   UNL A   1      39.404  31.895  33.203  1.00  0.00     0.167 HD
ATOM     62  C   UNL A   1      40.277  28.823  30.210  1.00  0.00     0.037 A 
ATOM     63  C   UNL A   1      39.650  33.115  35.704  1.00  0.00     0.037 A 
ATOM     64  C   UNL A   1      41.274  28.649  31.233  1.00  0.00     0.049 A 
ATOM     65  C   UNL A   1      40.714  32.053  35.650  1.00  0.00     0.074 A 
ATOM     66  C   UNL A   1      42.340  27.769  31.261  1.00  0.00     0.029 A 
ATOM     67  N   UNL A   1      41.317  29.362  32.424  1.00  0.00    -0.354 N 
ATOM     68  N   UNL A   1      40.976  31.194  34.694  1.00  0.00    -0.248 NA
ATOM     69  C   UNL A   1      41.599  31.942  36.817  1.00  0.00     0.031 C 
ATOM     70  C   UNL A   1      42.984  27.899  32.496  1.00  0.00     0.029 A 
ATOM     71  C   UNL A   1      42.366  28.912  33.210  1.00  0.00     0.049 A 
ATOM     72  H   UNL A   1      40.693  30.083  32.674  1.00  0.00     0.167 HD
ATOM     73  C   UNL A   1      42.064  30.452  35.134  1.00  0.00     0.074 A 
ATOM     74  C   UNL A   1      42.425  30.977  36.435  1.00  0.00     0.031 C 
ATOM     75  C   UNL A   1      42.707  29.432  34.512  1.00  0.00     0.037 A 
BRANCH  62  76
ATOM     76  C   UNL A   1      40.273  27.877  29.040  1.00  0.00     0.064 A 
ATOM     77  C   UNL A   1      39.555  26.672  29.059  1.00  0.00     0.173 A 
ATOM     78  C   UNL A   1      41.000  28.183  27.879  1.00  0.00     0.173 A 
ATOM     79  F   UNL A   1      38.848  26.323  30.145  1.00  0.00    -0.203 F 
ATOM     80  C   UNL A   1      39.607  25.785  27.986  1.00  0.00     0.198 A 
ATOM     81  C   UNL A   1      41.019  27.314  26.791  1.00  0.00     0.198 A 
ATOM     82  F   UNL A   1      41.699  29.326  27.798  1.00  0.00    -0.203 F 
ATOM     83  F   UNL A   1      38.974  24.607  28.060  1.00  0.00    -0.200 F 
ATOM     84  C   UNL A   1      40.334  26.109  26.850  1.00  0.00     0.200 A 
ATOM     85  F   UNL A   1      41.708  27.637  25.688  1.00  0.00    -0.200 F 
ATOM     86  F   UNL A   1      40.387  25.255  25.820  1.00  0.00    -0.200 F 
ENDBRANCH  62  76
BRANCH  63  87
ATOM     87  C   UNL A   1      39.479  33.981  36.900  1.00  0.00     0.064 A 
ATOM     88  C   UNL A   1      38.769  33.535  38.023  1.00  0.00     0.173 A 
ATOM     89  C   UNL A   1      40.060  35.256  36.961  1.00  0.00     0.173 A 
ATOM     90  F   UNL A   1      38.179  32.330  38.006  1.00  0.00    -0.203 F 
ATOM     91  C   UNL A   1      38.642  34.332  39.158  1.00  0.00     0.198 A 
ATOM     92  C   UNL A   1      39.958  36.041  38.106  1.00  0.00     0.198 A 
ATOM     93  F   UNL A   1      40.757  35.727  35.915  1.00  0.00    -0.203 F 
ATOM     94  F   UNL A   1      37.933  33.894  40.207  1.00  0.00    -0.200 F 
ATOM     95  C   UNL A   1      39.245  35.581  39.203  1.00  0.00     0.200 A 
ATOM     96  F   UNL A   1      40.561  37.237  38.152  1.00  0.00    -0.200 F 
ATOM     97  F   UNL A   1      39.141  36.340  40.302  1.00  0.00    -0.200 F 
ENDBRANCH  63  87
BRANCH  75  98
ATOM     98  C   UNL A   1      43.881  28.821  35.225  1.00  0.00     0.064 A 
ATOM     99  C   UNL A   1      43.736  27.710  36.070  1.00  0.00     0.173 A 
ATOM    100  C   UNL A   1      45.175  29.327  35.026  1.00  0.00     0.173 A 
ATOM    101  F   UNL A   1      42.520  27.195  36.306  1.00  0.00    -0.203 F 
ATOM    102  C   UNL A   1      44.839  27.148  36.710  1.00  0.00     0.198 A 
ATOM    103  C   UNL A   1      46.278  28.741  35.640  1.00  0.00     0.198 A 
ATOM    104  F   UNL A   1      45.372  30.384  34.222  1.00  0.00    -0.203 F 
ATOM    105  F   UNL A   1      44.669  26.121  37.554  1.00  0.00    -0.200 F 
ATOM    106  C   UNL A   1      46.109  27.658  36.488  1.00  0.00     0.200 A 
ATOM    107  F   UNL A   1      47.506  29.225  35.408  1.00  0.00    -0.200 F 
ATOM    108  F   UNL A   1      47.169  27.109  37.096  1.00  0.00    -0.200 F 
ENDBRANCH  75  98
ENDBRANCH  49  50
ENDBRANCH  41  44
ENDBRANCH  39  40
ENDBRANCH  38  39
ENDBRANCH  37  38
ENDBRANCH   1  37
TORSDOF 16
ENDMDL
