MODEL 1
REMARK VINA RESULT:     -12.5      0.000      0.000
REMARK SMILES O=C(NCCCCCCNC(=O)[C@@H]1[NH2+]CC[C@H]1c1cccc2cccnc12)c1ccc(-c2c3nc(c(-c4c(F)c(F)c(F)c(F)c4F)c4ccc([nH]4)c(-c4c(F)c(F)c(F)c(F)c4F)c4nc(c(-c5c(F)c(F)c(F)c(F)c5F)c5ccc2[nH]5)C=C4)C=C3)cc1
REMARK SMILES IDX 6 1 5 2 4 3 3 4 1 5 2 6 28 8 29 9 90 10 30 11 89 12 31 13
REMARK SMILES IDX 32 14 33 15 83 16 34 17 88 18 82 19 84 20 35 21 87 22 81 23
REMARK SMILES IDX 80 24 36 26 68 27 48 28 67 29 49 30 52 31 66 32 85 33 50 34
REMARK SMILES IDX 51 35 65 37 86 38 53 39 37 40 38 41 46 42 39 43 40 44 44 45
REMARK SMILES IDX 47 46 41 47 42 48 45 49 43 50 69 51 70 52 78 53 71 54 72 55
REMARK SMILES IDX 76 56 79 57 73 58 74 59 77 60 75 61 54 62 55 63 63 64 56 65
REMARK SMILES IDX 57 66 61 67 64 68 58 69 59 70 62 71 60 72 7 73 8 74 9 75
REMARK SMILES IDX 10 76 11 77 12 79 13 80 14 81 17 82 15 83 16 86 18 87 19 88
REMARK SMILES IDX 27 89 20 90 22 91 26 92 21 93 23 94 25 95 24 96
REMARK H PARENT 3 7 84 25 52 36 10 78 14 84 14 85
REMARK Flexibility Score: inf
ROOT
ATOM      1  C   UNL A   1      31.689  30.471  25.821  1.00  0.00     0.002 C 
ENDROOT
BRANCH   1   2
ATOM      2  C   UNL A   1      31.409  31.807  26.505  1.00  0.00     0.021 C 
BRANCH   2   3
ATOM      3  C   UNL A   1      32.631  32.450  27.144  1.00  0.00     0.116 C 
BRANCH   3   4
ATOM      4  N   UNL A   1      32.402  33.845  27.483  1.00  0.00    -0.352 N 
ATOM      5  O   UNL A   1      32.588  35.713  28.743  1.00  0.00    -0.269 OA
ATOM      6  C   UNL A   1      33.020  34.603  28.444  1.00  0.00     0.251 C 
ATOM      7  H   UNL A   1      31.713  34.307  26.953  1.00  0.00     0.163 HD
BRANCH   6   8
ATOM      8  C   UNL A   1      34.212  34.064  29.132  1.00  0.00     0.039 A 
ATOM      9  C   UNL A   1      34.066  33.170  30.196  1.00  0.00     0.014 A 
ATOM     10  C   UNL A   1      35.483  34.447  28.698  1.00  0.00     0.014 A 
ATOM     11  C   UNL A   1      35.186  32.743  30.897  1.00  0.00     0.010 A 
ATOM     12  C   UNL A   1      36.612  33.946  29.347  1.00  0.00     0.010 A 
ATOM     13  C   UNL A   1      36.471  33.095  30.455  1.00  0.00    -0.014 A 
BRANCH  13  14
ATOM     14  C   UNL A   1      37.653  32.454  31.080  1.00  0.00     0.031 A 
ATOM     15  C   UNL A   1      38.388  31.337  30.400  1.00  0.00     0.074 A 
ATOM     16  C   UNL A   1      38.038  32.890  32.294  1.00  0.00     0.049 A 
ATOM     17  N   UNL A   1      39.405  30.638  30.838  1.00  0.00    -0.248 NA
ATOM     18  C   UNL A   1      37.922  30.946  29.061  1.00  0.00     0.031 C 
ATOM     19  C   UNL A   1      37.381  33.962  33.050  1.00  0.00     0.029 A 
ATOM     20  N   UNL A   1      39.063  32.491  33.113  1.00  0.00    -0.354 N 
ATOM     21  C   UNL A   1      39.686  29.710  29.844  1.00  0.00     0.074 A 
ATOM     22  C   UNL A   1      38.727  29.926  28.783  1.00  0.00     0.031 C 
ATOM     23  C   UNL A   1      38.027  34.146  34.209  1.00  0.00     0.029 A 
ATOM     24  C   UNL A   1      39.094  33.159  34.313  1.00  0.00     0.049 A 
ATOM     25  H   UNL A   1      39.712  31.794  32.865  1.00  0.00     0.167 HD
ATOM     26  C   UNL A   1      40.660  28.769  29.831  1.00  0.00     0.037 A 
ATOM     27  C   UNL A   1      39.867  32.970  35.398  1.00  0.00     0.037 A 
ATOM     28  C   UNL A   1      41.619  28.582  30.891  1.00  0.00     0.049 A 
ATOM     29  C   UNL A   1      40.907  31.887  35.364  1.00  0.00     0.074 A 
ATOM     30  C   UNL A   1      42.694  27.711  30.935  1.00  0.00     0.029 A 
ATOM     31  N   UNL A   1      41.608  29.263  32.099  1.00  0.00    -0.354 N 
ATOM     32  N   UNL A   1      41.215  31.069  34.388  1.00  0.00    -0.248 NA
ATOM     33  C   UNL A   1      41.701  31.695  36.584  1.00  0.00     0.031 C 
ATOM     34  C   UNL A   1      43.287  27.812  32.196  1.00  0.00     0.029 A 
ATOM     35  C   UNL A   1      42.625  28.794  32.916  1.00  0.00     0.049 A 
ATOM     36  H   UNL A   1      40.972  29.975  32.342  1.00  0.00     0.167 HD
ATOM     37  C   UNL A   1      42.245  30.275  34.868  1.00  0.00     0.074 A 
ATOM     38  C   UNL A   1      42.530  30.730  36.214  1.00  0.00     0.031 C 
ATOM     39  C   UNL A   1      42.893  29.257  34.253  1.00  0.00     0.037 A 
BRANCH  26  40
ATOM     40  C   UNL A   1      40.737  27.841  28.654  1.00  0.00     0.064 A 
ATOM     41  C   UNL A   1      39.982  26.663  28.585  1.00  0.00     0.173 A 
ATOM     42  C   UNL A   1      41.511  28.190  27.535  1.00  0.00     0.173 A 
ATOM     43  F   UNL A   1      39.230  26.280  29.628  1.00  0.00    -0.203 F 
ATOM     44  C   UNL A   1      40.004  25.863  27.444  1.00  0.00     0.198 A 
ATOM     45  C   UNL A   1      41.511  27.403  26.387  1.00  0.00     0.198 A 
ATOM     46  F   UNL A   1      42.247  29.311  27.545  1.00  0.00    -0.203 F 
ATOM     47  F   UNL A   1      39.294  24.727  27.410  1.00  0.00    -0.200 F 
ATOM     48  C   UNL A   1      40.760  26.238  26.343  1.00  0.00     0.200 A 
ATOM     49  F   UNL A   1      42.229  27.776  25.318  1.00  0.00    -0.200 F 
ATOM     50  F   UNL A   1      40.764  25.478  25.239  1.00  0.00    -0.200 F 
ENDBRANCH  26  40
BRANCH  27  51
ATOM     51  C   UNL A   1      39.648  33.790  36.618  1.00  0.00     0.064 A 
ATOM     52  C   UNL A   1      38.833  33.336  37.663  1.00  0.00     0.173 A 
ATOM     53  C   UNL A   1      40.242  35.056  36.757  1.00  0.00     0.173 A 
ATOM     54  F   UNL A   1      38.231  32.141  37.570  1.00  0.00    -0.203 F 
ATOM     55  C   UNL A   1      38.595  34.127  38.784  1.00  0.00     0.198 A 
ATOM     56  C   UNL A   1      40.033  35.829  37.897  1.00  0.00     0.198 A 
ATOM     57  F   UNL A   1      41.037  35.537  35.790  1.00  0.00    -0.203 F 
ATOM     58  F   UNL A   1      37.763  33.693  39.742  1.00  0.00    -0.200 F 
ATOM     59  C   UNL A   1      39.199  35.369  38.904  1.00  0.00     0.200 A 
ATOM     60  F   UNL A   1      40.636  37.020  38.014  1.00  0.00    -0.200 F 
ATOM     61  F   UNL A   1      38.970  36.129  39.983  1.00  0.00    -0.200 F 
ENDBRANCH  27  51
BRANCH  39  62
ATOM     62  C   UNL A   1      43.984  28.574  35.024  1.00  0.00     0.064 A 
ATOM     63  C   UNL A   1      45.306  29.041  34.993  1.00  0.00     0.173 A 
ATOM     64  C   UNL A   1      43.696  27.469  35.841  1.00  0.00     0.173 A 
ATOM     65  F   UNL A   1      45.636  30.081  34.212  1.00  0.00    -0.203 F 
ATOM     66  C   UNL A   1      46.303  28.417  35.737  1.00  0.00     0.198 A 
ATOM     67  C   UNL A   1      44.688  26.868  36.609  1.00  0.00     0.198 A 
ATOM     68  F   UNL A   1      42.446  26.986  35.908  1.00  0.00    -0.203 F 
ATOM     69  F   UNL A   1      47.567  28.852  35.657  1.00  0.00    -0.200 F 
ATOM     70  C   UNL A   1      45.991  27.339  36.552  1.00  0.00     0.200 A 
ATOM     71  F   UNL A   1      44.382  25.837  37.407  1.00  0.00    -0.200 F 
ATOM     72  F   UNL A   1      46.949  26.748  37.280  1.00  0.00    -0.200 F 
ENDBRANCH  39  62
ENDBRANCH  13  14
ENDBRANCH   6   8
ENDBRANCH   3   4
ENDBRANCH   2   3
ENDBRANCH   1   2
BRANCH   1  73
ATOM     73  C   UNL A   1      31.832  29.275  26.768  1.00  0.00     0.002 C 
BRANCH  73  74
ATOM     74  C   UNL A   1      33.073  28.402  26.544  1.00  0.00     0.021 C 
BRANCH  74  75
ATOM     75  C   UNL A   1      32.815  26.901  26.597  1.00  0.00     0.116 C 
BRANCH  75  76
ATOM     76  N   UNL A   1      33.746  26.167  25.769  1.00  0.00    -0.351 N 
ATOM     77  C   UNL A   1      33.560  25.579  24.553  1.00  0.00     0.278 C 
ATOM     78  H   UNL A   1      34.654  26.079  26.141  1.00  0.00     0.163 HD
ATOM     79  O   UNL A   1      34.539  25.031  24.044  1.00  0.00    -0.268 OA
BRANCH  77  80
ATOM     80  C   UNL A   1      32.169  25.642  23.882  1.00  0.00     0.280 C 
ATOM     81  N   UNL A   1      32.126  24.735  22.704  1.00  0.00    -0.335 N 
ATOM     82  C   UNL A   1      31.852  27.053  23.345  1.00  0.00     0.095 C 
ATOM     83  C   UNL A   1      32.466  25.569  21.533  1.00  0.00     0.262 C 
ATOM     84  H   UNL A   1      31.194  24.337  22.598  1.00  0.00     0.346 HD
ATOM     85  H   UNL A   1      32.778  23.957  22.809  1.00  0.00     0.346 HD
ATOM     86  C   UNL A   1      32.592  27.009  22.007  1.00  0.00     0.076 C 
BRANCH  82  87
ATOM     87  C   UNL A   1      30.335  27.313  23.398  1.00  0.00    -0.012 A 
ATOM     88  C   UNL A   1      29.571  26.371  24.135  1.00  0.00     0.006 A 
ATOM     89  C   UNL A   1      29.680  28.399  22.790  1.00  0.00     0.074 A 
ATOM     90  C   UNL A   1      28.186  26.458  24.217  1.00  0.00     0.001 A 
ATOM     91  C   UNL A   1      28.270  28.488  22.909  1.00  0.00     0.000 A 
ATOM     92  N   UNL A   1      30.351  29.348  22.110  1.00  0.00    -0.256 NA
ATOM     93  C   UNL A   1      27.536  27.514  23.600  1.00  0.00     0.010 A 
ATOM     94  C   UNL A   1      27.605  29.579  22.330  1.00  0.00     0.012 A 
ATOM     95  C   UNL A   1      29.688  30.396  21.577  1.00  0.00     0.112 A 
ATOM     96  C   UNL A   1      28.325  30.556  21.660  1.00  0.00     0.021 A 
ENDBRANCH  82  87
ENDBRANCH  77  80
ENDBRANCH  75  76
ENDBRANCH  74  75
ENDBRANCH  73  74
ENDBRANCH   1  73
TORSDOF 14
ENDMDL
MODEL 2
REMARK VINA RESULT:     -12.4      0.567      1.677
REMARK SMILES O=C(NCCCCCCNC(=O)[C@@H]1[NH2+]CC[C@H]1c1cccc2cccnc12)c1ccc(-c2c3nc(c(-c4c(F)c(F)c(F)c(F)c4F)c4ccc([nH]4)c(-c4c(F)c(F)c(F)c(F)c4F)c4nc(c(-c5c(F)c(F)c(F)c(F)c5F)c5ccc2[nH]5)C=C4)C=C3)cc1
REMARK SMILES IDX 6 1 5 2 4 3 3 4 1 5 2 6 28 8 29 9 90 10 30 11 89 12 31 13
REMARK SMILES IDX 32 14 33 15 83 16 34 17 88 18 82 19 84 20 35 21 87 22 81 23
REMARK SMILES IDX 80 24 36 26 68 27 48 28 67 29 49 30 52 31 66 32 85 33 50 34
REMARK SMILES IDX 51 35 65 37 86 38 53 39 37 40 38 41 46 42 39 43 40 44 44 45
REMARK SMILES IDX 47 46 41 47 42 48 45 49 43 50 69 51 70 52 78 53 71 54 72 55
REMARK SMILES IDX 76 56 79 57 73 58 74 59 77 60 75 61 54 62 55 63 63 64 56 65
REMARK SMILES IDX 57 66 61 67 64 68 58 69 59 70 62 71 60 72 7 73 8 74 9 75
REMARK SMILES IDX 10 76 11 77 12 79 13 80 14 81 17 82 15 83 16 86 18 87 19 88
REMARK SMILES IDX 27 89 20 90 22 91 26 92 21 93 23 94 25 95 24 96
REMARK H PARENT 3 7 84 25 52 36 10 78 14 84 14 85
REMARK Flexibility Score: inf
ROOT
ATOM      1  C   UNL A   1      31.718  30.180  25.750  1.00  0.00     0.002 C 
ENDROOT
BRANCH   1   2
ATOM      2  C   UNL A   1      31.481  31.480  26.519  1.00  0.00     0.021 C 
BRANCH   2   3
ATOM      3  C   UNL A   1      32.750  32.254  26.842  1.00  0.00     0.116 C 
BRANCH   3   4
ATOM      4  N   UNL A   1      32.466  33.606  27.295  1.00  0.00    -0.352 N 
ATOM      5  O   UNL A   1      32.558  35.361  28.716  1.00  0.00    -0.269 OA
ATOM      6  C   UNL A   1      33.035  34.296  28.334  1.00  0.00     0.251 C 
ATOM      7  H   UNL A   1      31.774  34.090  26.789  1.00  0.00     0.163 HD
BRANCH   6   8
ATOM      8  C   UNL A   1      34.228  33.737  29.003  1.00  0.00     0.039 A 
ATOM      9  C   UNL A   1      34.091  32.724  29.955  1.00  0.00     0.014 A 
ATOM     10  C   UNL A   1      35.493  34.223  28.663  1.00  0.00     0.014 A 
ATOM     11  C   UNL A   1      35.207  32.271  30.647  1.00  0.00     0.010 A 
ATOM     12  C   UNL A   1      36.623  33.703  29.296  1.00  0.00     0.010 A 
ATOM     13  C   UNL A   1      36.487  32.727  30.296  1.00  0.00    -0.014 A 
BRANCH  13  14
ATOM     14  C   UNL A   1      37.678  32.074  30.891  1.00  0.00     0.031 A 
ATOM     15  C   UNL A   1      38.453  31.030  30.143  1.00  0.00     0.074 A 
ATOM     16  C   UNL A   1      38.034  32.429  32.140  1.00  0.00     0.049 A 
ATOM     17  N   UNL A   1      39.483  30.328  30.544  1.00  0.00    -0.248 NA
ATOM     18  C   UNL A   1      38.017  30.727  28.772  1.00  0.00     0.031 C 
ATOM     19  C   UNL A   1      37.336  33.424  32.963  1.00  0.00     0.029 A 
ATOM     20  N   UNL A   1      39.058  31.999  32.943  1.00  0.00    -0.354 N 
ATOM     21  C   UNL A   1      39.804  29.485  29.490  1.00  0.00     0.074 A 
ATOM     22  C   UNL A   1      38.853  29.752  28.432  1.00  0.00     0.031 C 
ATOM     23  C   UNL A   1      37.961  33.539  34.142  1.00  0.00     0.029 A 
ATOM     24  C   UNL A   1      39.053  32.576  34.190  1.00  0.00     0.049 A 
ATOM     25  H   UNL A   1      39.730  31.339  32.656  1.00  0.00     0.167 HD
ATOM     26  C   UNL A   1      40.804  28.573  29.423  1.00  0.00     0.037 A 
ATOM     27  C   UNL A   1      39.815  32.328  35.271  1.00  0.00     0.037 A 
ATOM     28  C   UNL A   1      41.752  28.334  30.482  1.00  0.00     0.049 A 
ATOM     29  C   UNL A   1      40.886  31.279  35.174  1.00  0.00     0.074 A 
ATOM     30  C   UNL A   1      42.850  27.491  30.478  1.00  0.00     0.029 A 
ATOM     31  N   UNL A   1      41.705  28.924  31.736  1.00  0.00    -0.354 N 
ATOM     32  N   UNL A   1      41.230  30.544  34.145  1.00  0.00    -0.248 NA
ATOM     33  C   UNL A   1      41.668  31.018  36.389  1.00  0.00     0.031 C 
ATOM     34  C   UNL A   1      43.423  27.515  31.753  1.00  0.00     0.029 A 
ATOM     35  C   UNL A   1      42.724  28.422  32.532  1.00  0.00     0.049 A 
ATOM     36  H   UNL A   1      41.046  29.598  32.021  1.00  0.00     0.167 HD
ATOM     37  C   UNL A   1      42.275  29.745  34.582  1.00  0.00     0.074 A 
ATOM     38  C   UNL A   1      42.529  30.106  35.962  1.00  0.00     0.031 C 
ATOM     39  C   UNL A   1      42.960  28.792  33.904  1.00  0.00     0.037 A 
BRANCH  26  40
ATOM     40  C   UNL A   1      40.923  27.737  28.182  1.00  0.00     0.064 A 
ATOM     41  C   UNL A   1      41.696  28.141  27.085  1.00  0.00     0.173 A 
ATOM     42  C   UNL A   1      40.330  26.465  28.133  1.00  0.00     0.173 A 
ATOM     43  F   UNL A   1      42.280  29.348  27.078  1.00  0.00    -0.203 F 
ATOM     44  C   UNL A   1      41.862  27.307  25.980  1.00  0.00     0.198 A 
ATOM     45  C   UNL A   1      40.519  25.624  27.040  1.00  0.00     0.198 A 
ATOM     46  F   UNL A   1      39.586  26.025  29.160  1.00  0.00    -0.203 F 
ATOM     47  F   UNL A   1      42.584  27.725  24.931  1.00  0.00    -0.200 F 
ATOM     48  C   UNL A   1      41.283  26.047  25.963  1.00  0.00     0.200 A 
ATOM     49  F   UNL A   1      39.973  24.400  27.033  1.00  0.00    -0.200 F 
ATOM     50  F   UNL A   1      41.462  25.239  24.908  1.00  0.00    -0.200 F 
ENDBRANCH  26  40
BRANCH  27  51
ATOM     51  C   UNL A   1      39.557  33.050  36.544  1.00  0.00     0.064 A 
ATOM     52  C   UNL A   1      40.261  34.215  36.874  1.00  0.00     0.173 A 
ATOM     53  C   UNL A   1      38.608  32.578  37.466  1.00  0.00     0.173 A 
ATOM     54  F   UNL A   1      41.189  34.695  36.034  1.00  0.00    -0.203 F 
ATOM     55  C   UNL A   1      40.048  34.863  38.088  1.00  0.00     0.198 A 
ATOM     56  C   UNL A   1      38.369  33.250  38.662  1.00  0.00     0.198 A 
ATOM     57  F   UNL A   1      37.900  31.471  37.197  1.00  0.00    -0.203 F 
ATOM     58  F   UNL A   1      40.778  35.943  38.404  1.00  0.00    -0.200 F 
ATOM     59  C   UNL A   1      39.099  34.385  38.978  1.00  0.00     0.200 A 
ATOM     60  F   UNL A   1      37.436  32.793  39.509  1.00  0.00    -0.200 F 
ATOM     61  F   UNL A   1      38.894  35.010  40.145  1.00  0.00    -0.200 F 
ENDBRANCH  27  51
BRANCH  39  62
ATOM     62  C   UNL A   1      44.058  28.083  34.640  1.00  0.00     0.064 A 
ATOM     63  C   UNL A   1      45.350  28.624  34.726  1.00  0.00     0.173 A 
ATOM     64  C   UNL A   1      43.805  26.875  35.308  1.00  0.00     0.173 A 
ATOM     65  F   UNL A   1      45.647  29.766  34.088  1.00  0.00    -0.203 F 
ATOM     66  C   UNL A   1      46.352  27.971  35.437  1.00  0.00     0.198 A 
ATOM     67  C   UNL A   1      44.800  26.243  36.046  1.00  0.00     0.198 A 
ATOM     68  F   UNL A   1      42.586  26.318  35.259  1.00  0.00    -0.203 F 
ATOM     69  F   UNL A   1      47.590  28.482  35.468  1.00  0.00    -0.200 F 
ATOM     70  C   UNL A   1      46.074  26.788  36.105  1.00  0.00     0.200 A 
ATOM     71  F   UNL A   1      44.526  25.108  36.703  1.00  0.00    -0.200 F 
ATOM     72  F   UNL A   1      47.037  26.168  36.803  1.00  0.00    -0.200 F 
ENDBRANCH  39  62
ENDBRANCH  13  14
ENDBRANCH   6   8
ENDBRANCH   3   4
ENDBRANCH   2   3
ENDBRANCH   1   2
BRANCH   1  73
ATOM     73  C   UNL A   1      31.755  28.915  26.612  1.00  0.00     0.002 C 
BRANCH  73  74
ATOM     74  C   UNL A   1      33.026  28.067  26.483  1.00  0.00     0.021 C 
BRANCH  74  75
ATOM     75  C   UNL A   1      32.790  26.561  26.477  1.00  0.00     0.116 C 
BRANCH  75  76
ATOM     76  N   UNL A   1      33.698  25.880  25.579  1.00  0.00    -0.351 N 
ATOM     77  C   UNL A   1      33.485  25.394  24.323  1.00  0.00     0.278 C 
ATOM     78  H   UNL A   1      34.608  25.747  25.929  1.00  0.00     0.163 HD
ATOM     79  O   UNL A   1      34.448  24.872  23.758  1.00  0.00    -0.268 OA
BRANCH  77  80
ATOM     80  C   UNL A   1      32.086  25.535  23.679  1.00  0.00     0.280 C 
ATOM     81  N   UNL A   1      32.007  24.714  22.441  1.00  0.00    -0.335 N 
ATOM     82  C   UNL A   1      31.795  26.986  23.246  1.00  0.00     0.095 C 
ATOM     83  C   UNL A   1      32.350  25.621  21.326  1.00  0.00     0.262 C 
ATOM     84  H   UNL A   1      31.065  24.345  22.321  1.00  0.00     0.346 HD
ATOM     85  H   UNL A   1      32.642  23.917  22.481  1.00  0.00     0.346 HD
ATOM     86  C   UNL A   1      32.515  27.020  21.897  1.00  0.00     0.076 C 
BRANCH  82  87
ATOM     87  C   UNL A   1      30.285  27.275  23.340  1.00  0.00    -0.012 A 
ATOM     88  C   UNL A   1      29.519  26.334  24.077  1.00  0.00     0.006 A 
ATOM     89  C   UNL A   1      29.638  28.386  22.770  1.00  0.00     0.074 A 
ATOM     90  C   UNL A   1      28.139  26.446  24.192  1.00  0.00     0.001 A 
ATOM     91  C   UNL A   1      28.233  28.501  22.924  1.00  0.00     0.000 A 
ATOM     92  N   UNL A   1      30.312  29.336  22.093  1.00  0.00    -0.256 NA
ATOM     93  C   UNL A   1      27.496  27.528  23.612  1.00  0.00     0.010 A 
ATOM     94  C   UNL A   1      27.578  29.616  22.382  1.00  0.00     0.012 A 
ATOM     95  C   UNL A   1      29.658  30.407  21.596  1.00  0.00     0.112 A 
ATOM     96  C   UNL A   1      28.301  30.592  21.715  1.00  0.00     0.021 A 
ENDBRANCH  82  87
ENDBRANCH  77  80
ENDBRANCH  75  76
ENDBRANCH  74  75
ENDBRANCH  73  74
ENDBRANCH   1  73
TORSDOF 14
ENDMDL
MODEL 3
REMARK VINA RESULT:     -12.4      5.816     11.212
REMARK SMILES O=C(NCCCCCCNC(=O)[C@@H]1[NH2+]CC[C@H]1c1cccc2cccnc12)c1ccc(-c2c3nc(c(-c4c(F)c(F)c(F)c(F)c4F)c4ccc([nH]4)c(-c4c(F)c(F)c(F)c(F)c4F)c4nc(c(-c5c(F)c(F)c(F)c(F)c5F)c5ccc2[nH]5)C=C4)C=C3)cc1
REMARK SMILES IDX 6 1 5 2 4 3 3 4 1 5 2 6 28 8 29 9 90 10 30 11 89 12 31 13
REMARK SMILES IDX 32 14 33 15 83 16 34 17 88 18 82 19 84 20 35 21 87 22 81 23
REMARK SMILES IDX 80 24 36 26 68 27 48 28 67 29 49 30 52 31 66 32 85 33 50 34
REMARK SMILES IDX 51 35 65 37 86 38 53 39 37 40 38 41 46 42 39 43 40 44 44 45
REMARK SMILES IDX 47 46 41 47 42 48 45 49 43 50 69 51 70 52 78 53 71 54 72 55
REMARK SMILES IDX 76 56 79 57 73 58 74 59 77 60 75 61 54 62 55 63 63 64 56 65
REMARK SMILES IDX 57 66 61 67 64 68 58 69 59 70 62 71 60 72 7 73 8 74 9 75
REMARK SMILES IDX 10 76 11 77 12 79 13 80 14 81 17 82 15 83 16 86 18 87 19 88
REMARK SMILES IDX 27 89 20 90 22 91 26 92 21 93 23 94 25 95 24 96
REMARK H PARENT 3 7 84 25 52 36 10 78 14 84 14 85
REMARK Flexibility Score: inf
ROOT
ATOM      1  C   UNL A   1      36.670  20.636  25.025  1.00  0.00     0.002 C 
ENDROOT
BRANCH   1   2
ATOM      2  C   UNL A   1      37.882  19.707  24.957  1.00  0.00     0.021 C 
BRANCH   2   3
ATOM      3  C   UNL A   1      39.097  20.208  25.722  1.00  0.00     0.116 C 
BRANCH   3   4
ATOM      4  N   UNL A   1      40.113  19.179  25.871  1.00  0.00    -0.352 N 
ATOM      5  O   UNL A   1      42.221  18.374  26.003  1.00  0.00    -0.269 OA
ATOM      6  C   UNL A   1      41.458  19.332  26.089  1.00  0.00     0.251 C 
ATOM      7  H   UNL A   1      39.794  18.250  25.806  1.00  0.00     0.163 HD
BRANCH   6   8
ATOM      8  C   UNL A   1      41.987  20.671  26.420  1.00  0.00     0.039 A 
ATOM      9  C   UNL A   1      42.229  21.602  25.407  1.00  0.00     0.014 A 
ATOM     10  C   UNL A   1      42.230  20.999  27.756  1.00  0.00     0.014 A 
ATOM     11  C   UNL A   1      42.815  22.823  25.717  1.00  0.00     0.010 A 
ATOM     12  C   UNL A   1      42.735  22.261  28.074  1.00  0.00     0.010 A 
ATOM     13  C   UNL A   1      43.036  23.179  27.055  1.00  0.00    -0.014 A 
BRANCH  13  14
ATOM     14  C   UNL A   1      43.455  24.565  27.378  1.00  0.00     0.031 A 
ATOM     15  C   UNL A   1      42.478  25.575  27.902  1.00  0.00     0.074 A 
ATOM     16  C   UNL A   1      44.741  24.901  27.162  1.00  0.00     0.049 A 
ATOM     17  N   UNL A   1      42.676  26.839  28.181  1.00  0.00    -0.248 NA
ATOM     18  C   UNL A   1      41.102  25.116  28.141  1.00  0.00     0.031 C 
ATOM     19  C   UNL A   1      45.770  23.996  26.637  1.00  0.00     0.029 A 
ATOM     20  N   UNL A   1      45.407  26.085  27.346  1.00  0.00    -0.354 N 
ATOM     21  C   UNL A   1      41.449  27.333  28.602  1.00  0.00     0.074 A 
ATOM     22  C   UNL A   1      40.507  26.236  28.534  1.00  0.00     0.031 C 
ATOM     23  C   UNL A   1      46.936  24.651  26.560  1.00  0.00     0.029 A 
ATOM     24  C   UNL A   1      46.723  26.037  26.954  1.00  0.00     0.049 A 
ATOM     25  H   UNL A   1      44.984  26.890  27.721  1.00  0.00     0.167 HD
ATOM     26  C   UNL A   1      41.148  28.591  29.006  1.00  0.00     0.037 A 
ATOM     27  C   UNL A   1      47.648  27.012  26.877  1.00  0.00     0.037 A 
ATOM     28  C   UNL A   1      42.105  29.665  29.085  1.00  0.00     0.049 A 
ATOM     29  C   UNL A   1      47.266  28.403  27.292  1.00  0.00     0.074 A 
ATOM     30  C   UNL A   1      41.917  30.952  29.560  1.00  0.00     0.029 A 
ATOM     31  N   UNL A   1      43.424  29.586  28.662  1.00  0.00    -0.354 N 
ATOM     32  N   UNL A   1      46.124  28.839  27.764  1.00  0.00    -0.248 NA
ATOM     33  C   UNL A   1      48.297  29.440  27.157  1.00  0.00     0.031 C 
ATOM     34  C   UNL A   1      43.097  31.671  29.356  1.00  0.00     0.029 A 
ATOM     35  C   UNL A   1      44.045  30.816  28.816  1.00  0.00     0.049 A 
ATOM     36  H   UNL A   1      43.856  28.776  28.304  1.00  0.00     0.167 HD
ATOM     37  C   UNL A   1      46.302  30.195  27.995  1.00  0.00     0.074 A 
ATOM     38  C   UNL A   1      47.671  30.504  27.639  1.00  0.00     0.031 C 
ATOM     39  C   UNL A   1      45.408  31.105  28.454  1.00  0.00     0.037 A 
BRANCH  26  40
ATOM     40  C   UNL A   1      39.726  28.899  29.374  1.00  0.00     0.064 A 
ATOM     41  C   UNL A   1      38.794  29.347  28.428  1.00  0.00     0.173 A 
ATOM     42  C   UNL A   1      39.268  28.649  30.678  1.00  0.00     0.173 A 
ATOM     43  F   UNL A   1      39.180  29.607  27.170  1.00  0.00    -0.203 F 
ATOM     44  C   UNL A   1      37.459  29.543  28.776  1.00  0.00     0.198 A 
ATOM     45  C   UNL A   1      37.928  28.820  31.015  1.00  0.00     0.198 A 
ATOM     46  F   UNL A   1      40.117  28.211  31.620  1.00  0.00    -0.203 F 
ATOM     47  F   UNL A   1      36.590  29.997  27.861  1.00  0.00    -0.200 F 
ATOM     48  C   UNL A   1      37.025  29.269  30.064  1.00  0.00     0.200 A 
ATOM     49  F   UNL A   1      37.509  28.539  32.256  1.00  0.00    -0.200 F 
ATOM     50  F   UNL A   1      35.736  29.439  30.390  1.00  0.00    -0.200 F 
ENDBRANCH  26  40
BRANCH  27  51
ATOM     51  C   UNL A   1      49.001  26.711  26.340  1.00  0.00     0.064 A 
ATOM     52  C   UNL A   1      49.317  26.944  24.996  1.00  0.00     0.173 A 
ATOM     53  C   UNL A   1      50.004  26.171  27.163  1.00  0.00     0.173 A 
ATOM     54  F   UNL A   1      48.389  27.443  24.167  1.00  0.00    -0.203 F 
ATOM     55  C   UNL A   1      50.572  26.619  24.487  1.00  0.00     0.198 A 
ATOM     56  C   UNL A   1      51.270  25.884  26.661  1.00  0.00     0.198 A 
ATOM     57  F   UNL A   1      49.757  25.935  28.460  1.00  0.00    -0.203 F 
ATOM     58  F   UNL A   1      50.829  26.796  23.183  1.00  0.00    -0.200 F 
ATOM     59  C   UNL A   1      51.550  26.096  25.320  1.00  0.00     0.200 A 
ATOM     60  F   UNL A   1      52.216  25.396  27.475  1.00  0.00    -0.200 F 
ATOM     61  F   UNL A   1      52.757  25.785  24.829  1.00  0.00    -0.200 F 
ENDBRANCH  27  51
BRANCH  39  62
ATOM     62  C   UNL A   1      45.889  32.517  28.612  1.00  0.00     0.064 A 
ATOM     63  C   UNL A   1      46.518  32.951  29.789  1.00  0.00     0.173 A 
ATOM     64  C   UNL A   1      45.764  33.435  27.557  1.00  0.00     0.173 A 
ATOM     65  F   UNL A   1      46.642  32.117  30.833  1.00  0.00    -0.203 F 
ATOM     66  C   UNL A   1      46.986  34.255  29.911  1.00  0.00     0.198 A 
ATOM     67  C   UNL A   1      46.263  34.728  27.670  1.00  0.00     0.198 A 
ATOM     68  F   UNL A   1      45.174  33.069  26.409  1.00  0.00    -0.203 F 
ATOM     69  F   UNL A   1      47.542  34.660  31.060  1.00  0.00    -0.200 F 
ATOM     70  C   UNL A   1      46.869  35.139  28.848  1.00  0.00     0.200 A 
ATOM     71  F   UNL A   1      46.163  35.576  26.638  1.00  0.00    -0.200 F 
ATOM     72  F   UNL A   1      47.334  36.391  28.962  1.00  0.00    -0.200 F 
ENDBRANCH  39  62
ENDBRANCH  13  14
ENDBRANCH   6   8
ENDBRANCH   3   4
ENDBRANCH   2   3
ENDBRANCH   1   2
BRANCH   1  73
ATOM     73  C   UNL A   1      36.835  21.970  24.293  1.00  0.00     0.002 C 
BRANCH  73  74
ATOM     74  C   UNL A   1      36.435  23.216  25.094  1.00  0.00     0.021 C 
BRANCH  74  75
ATOM     75  C   UNL A   1      35.541  24.197  24.344  1.00  0.00     0.116 C 
BRANCH  75  76
ATOM     76  N   UNL A   1      34.740  24.991  25.249  1.00  0.00    -0.351 N 
ATOM     77  C   UNL A   1      33.406  24.925  25.524  1.00  0.00     0.278 C 
ATOM     78  H   UNL A   1      35.234  25.686  25.742  1.00  0.00     0.163 HD
ATOM     79  O   UNL A   1      32.972  25.712  26.367  1.00  0.00    -0.268 OA
BRANCH  77  80
ATOM     80  C   UNL A   1      32.530  23.879  24.796  1.00  0.00     0.280 C 
ATOM     81  N   UNL A   1      31.089  24.203  24.977  1.00  0.00    -0.335 N 
ATOM     82  C   UNL A   1      32.724  22.463  25.374  1.00  0.00     0.095 C 
ATOM     83  C   UNL A   1      30.637  23.418  26.145  1.00  0.00     0.262 C 
ATOM     84  H   UNL A   1      30.561  23.939  24.147  1.00  0.00     0.346 HD
ATOM     85  H   UNL A   1      30.947  25.203  25.123  1.00  0.00     0.346 HD
ATOM     86  C   UNL A   1      31.791  22.530  26.584  1.00  0.00     0.076 C 
BRANCH  82  87
ATOM     87  C   UNL A   1      32.511  21.407  24.273  1.00  0.00    -0.012 A 
ATOM     88  C   UNL A   1      32.256  21.912  22.971  1.00  0.00     0.006 A 
ATOM     89  C   UNL A   1      32.563  20.015  24.467  1.00  0.00     0.074 A 
ATOM     90  C   UNL A   1      31.992  21.069  21.899  1.00  0.00     0.001 A 
ATOM     91  C   UNL A   1      32.321  19.169  23.355  1.00  0.00     0.000 A 
ATOM     92  N   UNL A   1      32.839  19.471  25.668  1.00  0.00    -0.256 NA
ATOM     93  C   UNL A   1      32.021  19.698  22.093  1.00  0.00     0.010 A 
ATOM     94  C   UNL A   1      32.395  17.779  23.529  1.00  0.00     0.012 A 
ATOM     95  C   UNL A   1      32.920  18.131  25.802  1.00  0.00     0.112 A 
ATOM     96  C   UNL A   1      32.709  17.248  24.769  1.00  0.00     0.021 A 
ENDBRANCH  82  87
ENDBRANCH  77  80
ENDBRANCH  75  76
ENDBRANCH  74  75
ENDBRANCH  73  74
ENDBRANCH   1  73
TORSDOF 14
ENDMDL
