MODEL 1
REMARK VINA RESULT:     -10.7      0.000      0.000
REMARK SMILES CCCCCCNC(=O)Oc1cccc(-c2ccc([C@@H](C)C(=O)NCCCCCCNC(=O)c3ccc(-c4c5nc(c(-c6c(F)c(F)c(F)c(F)c6F)c6ccc([nH]6)c(-c6c(F)c(F)c(F)c(F)c6F)c6nc(c(-c7c(F)c(F)c(F)c(F)c7F)c7ccc4[nH]7)C=C6)C=C5)cc3)cc2F)c1
REMARK SMILES IDX 22 1 23 2 24 3 20 5 21 6 19 7 16 8 17 9 98 10 18 11 97 12
REMARK SMILES IDX 99 13 15 14 11 15 12 16 100 17 13 18 14 19 10 20 8 21 7 22
REMARK SMILES IDX 9 24 6 25 5 26 4 27 3 28 2 29 1 30 25 31 26 32 27 33 28 34
REMARK SMILES IDX 29 35 30 36 31 37 32 38 33 40 34 41 35 42 96 43 36 44 95 45
REMARK SMILES IDX 37 46 38 47 39 48 89 49 40 50 94 51 88 52 90 53 41 54 93 55
REMARK SMILES IDX 87 56 86 57 42 59 74 60 54 61 73 62 55 63 58 64 72 65 91 66
REMARK SMILES IDX 56 67 57 68 71 70 92 71 59 72 43 73 44 74 52 75 45 76 46 77
REMARK SMILES IDX 50 78 53 79 47 80 48 81 51 82 49 83 75 84 76 85 84 86 77 87
REMARK SMILES IDX 78 88 82 89 85 90 79 91 80 92 83 93 81 94 60 95 61 96 69 97
REMARK SMILES IDX 62 98 63 99 67 100 70 101 64 102 65 103 68 104 66 105
REMARK H PARENT 24 4 7 23 31 39 90 58 58 69
REMARK Flexibility Score: inf
ROOT
ATOM      1  C   UNL A   1      32.351  28.952  23.235  1.00  0.00     0.227 C 
ATOM      2  O   UNL A   1      33.375  29.091  22.555  1.00  0.00    -0.274 OA
ATOM      3  N   UNL A   1      32.362  29.526  24.468  1.00  0.00    -0.356 N 
ATOM      4  H   UNL A   1      33.166  30.061  24.657  1.00  0.00     0.163 HD
ENDROOT
BRANCH   1   5
ATOM      5  C   UNL A   1      31.154  28.178  22.663  1.00  0.00     0.105 C 
ATOM      6  C   UNL A   1      29.794  28.726  23.095  1.00  0.00     0.023 C 
BRANCH   5   7
ATOM      7  C   UNL A   1      31.315  26.668  22.733  1.00  0.00    -0.033 A 
ATOM      8  C   UNL A   1      31.791  23.844  22.883  1.00  0.00     0.018 A 
ATOM      9  C   UNL A   1      30.868  24.486  23.725  1.00  0.00     0.012 A 
ATOM     10  C   UNL A   1      32.440  24.655  21.939  1.00  0.00     0.131 A 
ATOM     11  C   UNL A   1      30.611  25.860  23.629  1.00  0.00     0.005 A 
ATOM     12  C   UNL A   1      32.229  26.036  21.877  1.00  0.00     0.044 A 
ATOM     13  F   UNL A   1      33.292  24.123  21.049  1.00  0.00    -0.206 F 
BRANCH   8  14
ATOM     14  C   UNL A   1      32.058  22.392  23.017  1.00  0.00    -0.012 A 
ATOM     15  C   UNL A   1      32.888  20.488  24.288  1.00  0.00     0.133 A 
ATOM     16  C   UNL A   1      32.528  19.605  23.277  1.00  0.00     0.047 A 
ATOM     17  C   UNL A   1      32.662  21.861  24.170  1.00  0.00     0.056 A 
ATOM     18  C   UNL A   1      31.924  20.105  22.130  1.00  0.00     0.004 A 
ATOM     19  C   UNL A   1      31.702  21.481  22.001  1.00  0.00     0.009 A 
BRANCH  15  20
ATOM     20  O   UNL A   1      33.618  19.957  25.363  1.00  0.00    -0.410 OA
BRANCH  20  21
ATOM     21  C   UNL A   1      34.974  19.722  25.201  1.00  0.00     0.412 C 
ATOM     22  N   UNL A   1      35.752  20.704  25.750  1.00  0.00    -0.321 N 
ATOM     23  H   UNL A   1      36.727  20.610  25.642  1.00  0.00     0.167 HD
ATOM     24  O   UNL A   1      35.477  18.763  24.626  1.00  0.00    -0.224 OA
BRANCH  22  25
ATOM     25  C   UNL A   1      35.287  21.870  26.474  1.00  0.00     0.119 C 
BRANCH  25  26
ATOM     26  C   UNL A   1      36.109  23.115  26.146  1.00  0.00     0.021 C 
BRANCH  26  27
ATOM     27  C   UNL A   1      35.975  23.610  24.701  1.00  0.00     0.002 C 
BRANCH  27  28
ATOM     28  C   UNL A   1      34.872  24.647  24.458  1.00  0.00    -0.000 C 
BRANCH  28  29
ATOM     29  C   UNL A   1      34.025  25.006  25.681  1.00  0.00    -0.003 C 
ATOM     30  C   UNL A   1      33.653  26.479  25.744  1.00  0.00     0.004 C 
ENDBRANCH  28  29
ENDBRANCH  27  28
ENDBRANCH  26  27
ENDBRANCH  25  26
ENDBRANCH  22  25
ENDBRANCH  20  21
ENDBRANCH  15  20
ENDBRANCH   8  14
ENDBRANCH   5   7
ENDBRANCH   1   5
BRANCH   3  31
ATOM     31  C   UNL A   1      31.403  29.494  25.552  1.00  0.00     0.116 C 
BRANCH  31  32
ATOM     32  C   UNL A   1      32.090  29.544  26.917  1.00  0.00     0.021 C 
BRANCH  32  33
ATOM     33  C   UNL A   1      33.539  30.042  26.865  1.00  0.00     0.002 C 
BRANCH  33  34
ATOM     34  C   UNL A   1      33.813  31.331  27.652  1.00  0.00     0.002 C 
BRANCH  34  35
ATOM     35  C   UNL A   1      32.687  32.369  27.631  1.00  0.00     0.021 C 
BRANCH  35  36
ATOM     36  C   UNL A   1      33.091  33.739  27.092  1.00  0.00     0.116 C 
BRANCH  36  37
ATOM     37  N   UNL A   1      32.712  34.811  28.001  1.00  0.00    -0.352 N 
ATOM     38  C   UNL A   1      33.124  35.058  29.285  1.00  0.00     0.251 C 
ATOM     39  H   UNL A   1      32.063  35.455  27.638  1.00  0.00     0.163 HD
ATOM     40  O   UNL A   1      32.528  35.877  29.978  1.00  0.00    -0.269 OA
BRANCH  38  41
ATOM     41  C   UNL A   1      34.285  34.334  29.847  1.00  0.00     0.039 A 
ATOM     42  C   UNL A   1      35.548  34.542  29.287  1.00  0.00     0.014 A 
ATOM     43  C   UNL A   1      34.122  33.425  30.896  1.00  0.00     0.014 A 
ATOM     44  C   UNL A   1      36.658  33.878  29.814  1.00  0.00     0.010 A 
ATOM     45  C   UNL A   1      35.237  32.813  31.463  1.00  0.00     0.010 A 
ATOM     46  C   UNL A   1      36.516  33.030  30.924  1.00  0.00    -0.014 A 
BRANCH  46  47
ATOM     47  C   UNL A   1      37.688  32.353  31.534  1.00  0.00     0.031 A 
ATOM     48  C   UNL A   1      38.386  31.245  30.798  1.00  0.00     0.074 A 
ATOM     49  C   UNL A   1      38.080  32.692  32.776  1.00  0.00     0.049 A 
ATOM     50  N   UNL A   1      39.368  30.475  31.195  1.00  0.00    -0.248 NA
ATOM     51  C   UNL A   1      37.898  30.942  29.443  1.00  0.00     0.031 C 
ATOM     52  C   UNL A   1      37.457  33.724  33.608  1.00  0.00     0.029 A 
ATOM     53  N   UNL A   1      39.087  32.194  33.565  1.00  0.00    -0.354 N 
ATOM     54  C   UNL A   1      39.601  29.591  30.151  1.00  0.00     0.074 A 
ATOM     55  C   UNL A   1      38.630  29.886  29.120  1.00  0.00     0.031 C 
ATOM     56  C   UNL A   1      38.105  33.792  34.782  1.00  0.00     0.029 A 
ATOM     57  C   UNL A   1      39.164  32.787  34.801  1.00  0.00     0.049 A 
ATOM     58  H   UNL A   1      39.698  31.480  33.272  1.00  0.00     0.167 HD
ATOM     59  C   UNL A   1      40.554  28.634  30.052  1.00  0.00     0.037 A 
ATOM     60  C   UNL A   1      39.988  32.540  35.837  1.00  0.00     0.037 A 
ATOM     61  C   UNL A   1      41.538  28.362  31.067  1.00  0.00     0.049 A 
ATOM     62  C   UNL A   1      41.037  31.470  35.701  1.00  0.00     0.074 A 
ATOM     63  C   UNL A   1      42.582  27.453  31.038  1.00  0.00     0.029 A 
ATOM     64  N   UNL A   1      41.598  29.000  32.297  1.00  0.00    -0.354 N 
ATOM     65  N   UNL A   1      41.289  30.681  34.685  1.00  0.00    -0.248 NA
ATOM     66  C   UNL A   1      41.923  31.260  36.855  1.00  0.00     0.031 C 
ATOM     67  C   UNL A   1      43.249  27.513  32.267  1.00  0.00     0.029 A 
ATOM     68  C   UNL A   1      42.650  28.492  33.043  1.00  0.00     0.049 A 
ATOM     69  H   UNL A   1      40.986  29.710  32.597  1.00  0.00     0.167 HD
ATOM     70  C   UNL A   1      42.374  29.905  35.063  1.00  0.00     0.074 A 
ATOM     71  C   UNL A   1      42.743  30.324  36.399  1.00  0.00     0.031 C 
ATOM     72  C   UNL A   1      43.010  28.930  34.367  1.00  0.00     0.037 A 
BRANCH  59  73
ATOM     73  C   UNL A   1      40.584  27.808  28.798  1.00  0.00     0.064 A 
ATOM     74  C   UNL A   1      41.379  28.170  27.699  1.00  0.00     0.173 A 
ATOM     75  C   UNL A   1      39.841  26.622  28.707  1.00  0.00     0.173 A 
ATOM     76  F   UNL A   1      42.101  29.300  27.732  1.00  0.00    -0.203 F 
ATOM     77  C   UNL A   1      41.406  27.389  26.547  1.00  0.00     0.198 A 
ATOM     78  C   UNL A   1      39.894  25.829  27.565  1.00  0.00     0.198 A 
ATOM     79  F   UNL A   1      39.069  26.227  29.732  1.00  0.00    -0.203 F 
ATOM     80  F   UNL A   1      42.137  27.778  25.493  1.00  0.00    -0.200 F 
ATOM     81  C   UNL A   1      40.670  26.216  26.483  1.00  0.00     0.200 A 
ATOM     82  F   UNL A   1      39.192  24.688  27.510  1.00  0.00    -0.200 F 
ATOM     83  F   UNL A   1      40.704  25.461  25.376  1.00  0.00    -0.200 F 
ENDBRANCH  59  73
BRANCH  60  84
ATOM     84  C   UNL A   1      39.870  33.336  37.085  1.00  0.00     0.064 A 
ATOM     85  C   UNL A   1      38.932  32.995  38.070  1.00  0.00     0.173 A 
ATOM     86  C   UNL A   1      40.686  34.451  37.320  1.00  0.00     0.173 A 
ATOM     87  F   UNL A   1      38.115  31.948  37.880  1.00  0.00    -0.203 F 
ATOM     88  C   UNL A   1      38.800  33.751  39.232  1.00  0.00     0.198 A 
ATOM     89  C   UNL A   1      40.573  35.192  38.496  1.00  0.00     0.198 A 
ATOM     90  F   UNL A   1      41.603  34.817  36.412  1.00  0.00    -0.203 F 
ATOM     91  F   UNL A   1      37.864  33.429  40.135  1.00  0.00    -0.200 F 
ATOM     92  C   UNL A   1      39.623  34.846  39.447  1.00  0.00     0.200 A 
ATOM     93  F   UNL A   1      41.380  36.240  38.705  1.00  0.00    -0.200 F 
ATOM     94  F   UNL A   1      39.499  35.571  40.566  1.00  0.00    -0.200 F 
ENDBRANCH  60  84
BRANCH  72  95
ATOM     95  C   UNL A   1      44.191  28.276  35.021  1.00  0.00     0.064 A 
ATOM     96  C   UNL A   1      44.055  27.115  35.795  1.00  0.00     0.173 A 
ATOM     97  C   UNL A   1      45.482  28.796  34.834  1.00  0.00     0.173 A 
ATOM     98  F   UNL A   1      42.841  26.591  36.017  1.00  0.00    -0.203 F 
ATOM     99  C   UNL A   1      45.166  26.511  36.378  1.00  0.00     0.198 A 
ATOM    100  C   UNL A   1      46.593  28.171  35.392  1.00  0.00     0.198 A 
ATOM    101  F   UNL A   1      45.665  29.900  34.095  1.00  0.00    -0.203 F 
ATOM    102  F   UNL A   1      45.008  25.427  37.150  1.00  0.00    -0.200 F 
ATOM    103  C   UNL A   1      46.434  27.034  36.169  1.00  0.00     0.200 A 
ATOM    104  F   UNL A   1      47.818  28.671  35.180  1.00  0.00    -0.200 F 
ATOM    105  F   UNL A   1      47.502  26.445  36.723  1.00  0.00    -0.200 F 
ENDBRANCH  72  95
ENDBRANCH  46  47
ENDBRANCH  38  41
ENDBRANCH  36  37
ENDBRANCH  35  36
ENDBRANCH  34  35
ENDBRANCH  33  34
ENDBRANCH  32  33
ENDBRANCH  31  32
ENDBRANCH   3  31
TORSDOF 22
ENDMDL
MODEL 2
REMARK VINA RESULT:     -10.6      0.614      7.102
REMARK SMILES CCCCCCNC(=O)Oc1cccc(-c2ccc([C@@H](C)C(=O)NCCCCCCNC(=O)c3ccc(-c4c5nc(c(-c6c(F)c(F)c(F)c(F)c6F)c6ccc([nH]6)c(-c6c(F)c(F)c(F)c(F)c6F)c6nc(c(-c7c(F)c(F)c(F)c(F)c7F)c7ccc4[nH]7)C=C6)C=C5)cc3)cc2F)c1
REMARK SMILES IDX 22 1 23 2 24 3 20 5 21 6 19 7 16 8 17 9 98 10 18 11 97 12
REMARK SMILES IDX 99 13 15 14 11 15 12 16 100 17 13 18 14 19 10 20 8 21 7 22
REMARK SMILES IDX 9 24 6 25 5 26 4 27 3 28 2 29 1 30 25 31 26 32 27 33 28 34
REMARK SMILES IDX 29 35 30 36 31 37 32 38 33 40 34 41 35 42 96 43 36 44 95 45
REMARK SMILES IDX 37 46 38 47 39 48 89 49 40 50 94 51 88 52 90 53 41 54 93 55
REMARK SMILES IDX 87 56 86 57 42 59 74 60 54 61 73 62 55 63 58 64 72 65 91 66
REMARK SMILES IDX 56 67 57 68 71 70 92 71 59 72 43 73 44 74 52 75 45 76 46 77
REMARK SMILES IDX 50 78 53 79 47 80 48 81 51 82 49 83 75 84 76 85 84 86 77 87
REMARK SMILES IDX 78 88 82 89 85 90 79 91 80 92 83 93 81 94 60 95 61 96 69 97
REMARK SMILES IDX 62 98 63 99 67 100 70 101 64 102 65 103 68 104 66 105
REMARK H PARENT 24 4 7 23 31 39 90 58 58 69
REMARK Flexibility Score: inf
ROOT
ATOM      1  C   UNL A   1      32.480  28.844  23.525  1.00  0.00     0.227 C 
ATOM      2  O   UNL A   1      33.419  29.119  22.769  1.00  0.00    -0.274 OA
ATOM      3  N   UNL A   1      32.611  29.238  24.820  1.00  0.00    -0.356 N 
ATOM      4  H   UNL A   1      33.416  29.773  24.999  1.00  0.00     0.163 HD
ENDROOT
BRANCH   1   5
ATOM      5  C   UNL A   1      31.248  28.108  22.976  1.00  0.00     0.105 C 
ATOM      6  C   UNL A   1      29.916  28.653  23.493  1.00  0.00     0.023 C 
BRANCH   5   7
ATOM      7  C   UNL A   1      31.391  26.595  22.973  1.00  0.00    -0.033 A 
ATOM      8  C   UNL A   1      31.836  23.762  22.981  1.00  0.00     0.018 A 
ATOM      9  C   UNL A   1      30.949  24.376  23.881  1.00  0.00     0.012 A 
ATOM     10  C   UNL A   1      32.463  24.608  22.053  1.00  0.00     0.131 A 
ATOM     11  C   UNL A   1      30.706  25.757  23.855  1.00  0.00     0.005 A 
ATOM     12  C   UNL A   1      32.268  25.992  22.059  1.00  0.00     0.044 A 
ATOM     13  F   UNL A   1      33.278  24.106  21.112  1.00  0.00    -0.206 F 
BRANCH   8  14
ATOM     14  C   UNL A   1      32.088  22.303  23.042  1.00  0.00    -0.012 A 
ATOM     15  C   UNL A   1      32.934  20.334  24.199  1.00  0.00     0.133 A 
ATOM     16  C   UNL A   1      32.531  19.502  23.161  1.00  0.00     0.047 A 
ATOM     17  C   UNL A   1      32.721  21.713  24.149  1.00  0.00     0.056 A 
ATOM     18  C   UNL A   1      31.897  20.060  22.058  1.00  0.00     0.004 A 
ATOM     19  C   UNL A   1      31.688  21.443  21.997  1.00  0.00     0.009 A 
BRANCH  15  20
ATOM     20  O   UNL A   1      33.691  19.747  25.225  1.00  0.00    -0.410 OA
BRANCH  20  21
ATOM     21  C   UNL A   1      34.819  19.015  24.890  1.00  0.00     0.412 C 
ATOM     22  N   UNL A   1      35.974  19.741  25.002  1.00  0.00    -0.321 N 
ATOM     23  H   UNL A   1      36.810  19.286  24.749  1.00  0.00     0.167 HD
ATOM     24  O   UNL A   1      34.838  17.849  24.516  1.00  0.00    -0.224 OA
BRANCH  22  25
ATOM     25  C   UNL A   1      36.090  21.113  25.454  1.00  0.00     0.119 C 
BRANCH  25  26
ATOM     26  C   UNL A   1      37.132  21.894  24.654  1.00  0.00     0.021 C 
BRANCH  26  27
ATOM     27  C   UNL A   1      36.592  22.578  23.392  1.00  0.00     0.002 C 
BRANCH  27  28
ATOM     28  C   UNL A   1      35.546  23.674  23.631  1.00  0.00    -0.000 C 
BRANCH  28  29
ATOM     29  C   UNL A   1      35.603  24.350  25.003  1.00  0.00    -0.003 C 
ATOM     30  C   UNL A   1      34.308  25.050  25.383  1.00  0.00     0.004 C 
ENDBRANCH  28  29
ENDBRANCH  27  28
ENDBRANCH  26  27
ENDBRANCH  25  26
ENDBRANCH  22  25
ENDBRANCH  20  21
ENDBRANCH  15  20
ENDBRANCH   8  14
ENDBRANCH   5   7
ENDBRANCH   1   5
BRANCH   3  31
ATOM     31  C   UNL A   1      31.778  29.014  25.982  1.00  0.00     0.116 C 
BRANCH  31  32
ATOM     32  C   UNL A   1      32.613  28.793  27.244  1.00  0.00     0.021 C 
BRANCH  32  33
ATOM     33  C   UNL A   1      33.983  29.481  27.209  1.00  0.00     0.002 C 
BRANCH  33  34
ATOM     34  C   UNL A   1      34.027  30.876  27.847  1.00  0.00     0.002 C 
BRANCH  34  35
ATOM     35  C   UNL A   1      32.798  31.756  27.596  1.00  0.00     0.021 C 
BRANCH  35  36
ATOM     36  C   UNL A   1      33.089  33.068  26.873  1.00  0.00     0.116 C 
BRANCH  36  37
ATOM     37  N   UNL A   1      32.716  34.223  27.677  1.00  0.00    -0.352 N 
ATOM     38  C   UNL A   1      33.133  34.590  28.931  1.00  0.00     0.251 C 
ATOM     39  H   UNL A   1      32.068  34.832  27.257  1.00  0.00     0.163 HD
ATOM     40  O   UNL A   1      32.541  35.473  29.544  1.00  0.00    -0.269 OA
BRANCH  38  41
ATOM     41  C   UNL A   1      34.292  33.918  29.556  1.00  0.00     0.039 A 
ATOM     42  C   UNL A   1      34.072  33.036  30.617  1.00  0.00     0.014 A 
ATOM     43  C   UNL A   1      35.594  34.187  29.124  1.00  0.00     0.014 A 
ATOM     44  C   UNL A   1      35.154  32.380  31.210  1.00  0.00     0.010 A 
ATOM     45  C   UNL A   1      36.666  33.486  29.673  1.00  0.00     0.010 A 
ATOM     46  C   UNL A   1      36.456  32.579  30.724  1.00  0.00    -0.014 A 
BRANCH  46  47
ATOM     47  C   UNL A   1      37.616  31.856  31.304  1.00  0.00     0.031 A 
ATOM     48  C   UNL A   1      38.112  32.206  32.679  1.00  0.00     0.074 A 
ATOM     49  C   UNL A   1      38.260  30.932  30.567  1.00  0.00     0.049 A 
ATOM     50  N   UNL A   1      39.157  31.753  33.323  1.00  0.00    -0.248 NA
ATOM     51  C   UNL A   1      37.345  33.222  33.418  1.00  0.00     0.031 C 
ATOM     52  C   UNL A   1      37.899  30.534  29.205  1.00  0.00     0.029 A 
ATOM     53  N   UNL A   1      39.366  30.170  30.853  1.00  0.00    -0.354 N 
ATOM     54  C   UNL A   1      39.184  32.438  34.530  1.00  0.00     0.074 A 
ATOM     55  C   UNL A   1      38.078  33.371  34.512  1.00  0.00     0.031 C 
ATOM     56  C   UNL A   1      38.756  29.592  28.781  1.00  0.00     0.029 A 
ATOM     57  C   UNL A   1      39.748  29.346  29.824  1.00  0.00     0.049 A 
ATOM     58  H   UNL A   1      39.840  30.211  31.715  1.00  0.00     0.167 HD
ATOM     59  C   UNL A   1      40.040  32.287  35.568  1.00  0.00     0.037 A 
ATOM     60  C   UNL A   1      40.787  28.495  29.728  1.00  0.00     0.037 A 
ATOM     61  C   UNL A   1      41.121  31.337  35.595  1.00  0.00     0.049 A 
ATOM     62  C   UNL A   1      41.724  28.347  30.897  1.00  0.00     0.074 A 
ATOM     63  C   UNL A   1      42.008  31.065  36.623  1.00  0.00     0.029 A 
ATOM     64  N   UNL A   1      41.462  30.501  34.542  1.00  0.00    -0.354 N 
ATOM     65  N   UNL A   1      41.703  28.955  32.058  1.00  0.00    -0.248 NA
ATOM     66  C   UNL A   1      42.827  27.387  30.744  1.00  0.00     0.031 C 
ATOM     67  C   UNL A   1      42.911  30.095  36.177  1.00  0.00     0.029 A 
ATOM     68  C   UNL A   1      42.558  29.727  34.889  1.00  0.00     0.049 A 
ATOM     69  H   UNL A   1      40.995  30.463  33.677  1.00  0.00     0.167 HD
ATOM     70  C   UNL A   1      42.766  28.434  32.781  1.00  0.00     0.074 A 
ATOM     71  C   UNL A   1      43.407  27.450  31.934  1.00  0.00     0.031 C 
ATOM     72  C   UNL A   1      43.176  28.744  34.036  1.00  0.00     0.037 A 
BRANCH  59  73
ATOM     73  C   UNL A   1      39.840  33.167  36.768  1.00  0.00     0.064 A 
ATOM     74  C   UNL A   1      38.905  32.849  37.766  1.00  0.00     0.173 A 
ATOM     75  C   UNL A   1      40.620  34.320  36.945  1.00  0.00     0.173 A 
ATOM     76  F   UNL A   1      38.128  31.763  37.640  1.00  0.00    -0.203 F 
ATOM     77  C   UNL A   1      38.739  33.668  38.879  1.00  0.00     0.198 A 
ATOM     78  C   UNL A   1      40.471  35.120  38.074  1.00  0.00     0.198 A 
ATOM     79  F   UNL A   1      41.533  34.666  36.024  1.00  0.00    -0.203 F 
ATOM     80  F   UNL A   1      37.807  33.369  39.796  1.00  0.00    -0.200 F 
ATOM     81  C   UNL A   1      39.526  34.798  39.036  1.00  0.00     0.200 A 
ATOM     82  F   UNL A   1      41.243  36.205  38.231  1.00  0.00    -0.200 F 
ATOM     83  F   UNL A   1      39.371  35.581  40.113  1.00  0.00    -0.200 F 
ENDBRANCH  59  73
BRANCH  60  84
ATOM     84  C   UNL A   1      40.984  27.699  28.490  1.00  0.00     0.064 A 
ATOM     85  C   UNL A   1      41.836  28.152  27.472  1.00  0.00     0.173 A 
ATOM     86  C   UNL A   1      40.326  26.477  28.295  1.00  0.00     0.173 A 
ATOM     87  F   UNL A   1      42.470  29.326  27.605  1.00  0.00    -0.203 F 
ATOM     88  C   UNL A   1      42.005  27.422  26.298  1.00  0.00     0.198 A 
ATOM     89  C   UNL A   1      40.519  25.733  27.131  1.00  0.00     0.198 A 
ATOM     90  F   UNL A   1      39.505  25.997  29.240  1.00  0.00    -0.203 F 
ATOM     91  F   UNL A   1      42.790  27.901  25.322  1.00  0.00    -0.200 F 
ATOM     92  C   UNL A   1      41.352  26.212  26.130  1.00  0.00     0.200 A 
ATOM     93  F   UNL A   1      39.895  24.557  26.980  1.00  0.00    -0.200 F 
ATOM     94  F   UNL A   1      41.518  25.508  25.002  1.00  0.00    -0.200 F 
ENDBRANCH  60  84
BRANCH  72  95
ATOM     95  C   UNL A   1      44.349  27.985  34.583  1.00  0.00     0.064 A 
ATOM     96  C   UNL A   1      45.665  28.438  34.410  1.00  0.00     0.173 A 
ATOM     97  C   UNL A   1      44.149  26.812  35.327  1.00  0.00     0.173 A 
ATOM     98  F   UNL A   1      45.907  29.545  33.692  1.00  0.00    -0.203 F 
ATOM     99  C   UNL A   1      46.739  27.731  34.942  1.00  0.00     0.198 A 
ATOM    100  C   UNL A   1      45.224  26.124  35.884  1.00  0.00     0.198 A 
ATOM    101  F   UNL A   1      42.909  26.341  35.527  1.00  0.00    -0.203 F 
ATOM    102  F   UNL A   1      47.991  28.159  34.727  1.00  0.00    -0.200 F 
ATOM    103  C   UNL A   1      46.518  26.581  35.685  1.00  0.00     0.200 A 
ATOM    104  F   UNL A   1      45.007  25.020  36.610  1.00  0.00    -0.200 F 
ATOM    105  F   UNL A   1      47.554  25.908  36.204  1.00  0.00    -0.200 F 
ENDBRANCH  72  95
ENDBRANCH  46  47
ENDBRANCH  38  41
ENDBRANCH  36  37
ENDBRANCH  35  36
ENDBRANCH  34  35
ENDBRANCH  33  34
ENDBRANCH  32  33
ENDBRANCH  31  32
ENDBRANCH   3  31
TORSDOF 22
ENDMDL
MODEL 3
REMARK VINA RESULT:     -10.4      4.686     10.672
REMARK SMILES CCCCCCNC(=O)Oc1cccc(-c2ccc([C@@H](C)C(=O)NCCCCCCNC(=O)c3ccc(-c4c5nc(c(-c6c(F)c(F)c(F)c(F)c6F)c6ccc([nH]6)c(-c6c(F)c(F)c(F)c(F)c6F)c6nc(c(-c7c(F)c(F)c(F)c(F)c7F)c7ccc4[nH]7)C=C6)C=C5)cc3)cc2F)c1
REMARK SMILES IDX 22 1 23 2 24 3 20 5 21 6 19 7 16 8 17 9 98 10 18 11 97 12
REMARK SMILES IDX 99 13 15 14 11 15 12 16 100 17 13 18 14 19 10 20 8 21 7 22
REMARK SMILES IDX 9 24 6 25 5 26 4 27 3 28 2 29 1 30 25 31 26 32 27 33 28 34
REMARK SMILES IDX 29 35 30 36 31 37 32 38 33 40 34 41 35 42 96 43 36 44 95 45
REMARK SMILES IDX 37 46 38 47 39 48 89 49 40 50 94 51 88 52 90 53 41 54 93 55
REMARK SMILES IDX 87 56 86 57 42 59 74 60 54 61 73 62 55 63 58 64 72 65 91 66
REMARK SMILES IDX 56 67 57 68 71 70 92 71 59 72 43 73 44 74 52 75 45 76 46 77
REMARK SMILES IDX 50 78 53 79 47 80 48 81 51 82 49 83 75 84 76 85 84 86 77 87
REMARK SMILES IDX 78 88 82 89 85 90 79 91 80 92 83 93 81 94 60 95 61 96 69 97
REMARK SMILES IDX 62 98 63 99 67 100 70 101 64 102 65 103 68 104 66 105
REMARK H PARENT 24 4 7 23 31 39 90 58 58 69
REMARK Flexibility Score: inf
ROOT
ATOM      1  C   UNL A   1      40.517  24.217  27.514  1.00  0.00     0.227 C 
ATOM      2  O   UNL A   1      39.692  23.304  27.389  1.00  0.00    -0.274 OA
ATOM      3  N   UNL A   1      41.589  23.957  28.311  1.00  0.00    -0.356 N 
ATOM      4  H   UNL A   1      41.629  23.033  28.645  1.00  0.00     0.163 HD
ENDROOT
BRANCH   1   5
ATOM      5  C   UNL A   1      40.304  25.546  26.775  1.00  0.00     0.105 C 
ATOM      6  C   UNL A   1      41.382  25.862  25.738  1.00  0.00     0.023 C 
BRANCH   5   7
ATOM      7  C   UNL A   1      39.902  26.694  27.687  1.00  0.00    -0.033 A 
ATOM      8  C   UNL A   1      39.246  28.789  29.532  1.00  0.00     0.018 A 
ATOM      9  C   UNL A   1      39.740  29.061  28.246  1.00  0.00     0.012 A 
ATOM     10  C   UNL A   1      39.056  27.435  29.850  1.00  0.00     0.131 A 
ATOM     11  C   UNL A   1      40.029  28.039  27.332  1.00  0.00     0.005 A 
ATOM     12  C   UNL A   1      39.395  26.409  28.963  1.00  0.00     0.044 A 
ATOM     13  F   UNL A   1      38.528  27.077  31.031  1.00  0.00    -0.206 F 
BRANCH   8  14
ATOM     14  C   UNL A   1      38.965  29.888  30.485  1.00  0.00    -0.012 A 
ATOM     15  C   UNL A   1      37.475  31.039  32.030  1.00  0.00     0.133 A 
ATOM     16  C   UNL A   1      38.453  31.979  32.336  1.00  0.00     0.047 A 
ATOM     17  C   UNL A   1      37.717  30.008  31.120  1.00  0.00     0.056 A 
ATOM     18  C   UNL A   1      39.697  31.879  31.725  1.00  0.00     0.004 A 
ATOM     19  C   UNL A   1      39.944  30.853  30.806  1.00  0.00     0.009 A 
BRANCH  15  20
ATOM     20  O   UNL A   1      36.195  31.259  32.563  1.00  0.00    -0.410 OA
BRANCH  20  21
ATOM     21  C   UNL A   1      35.933  32.461  33.201  1.00  0.00     0.412 C 
ATOM     22  N   UNL A   1      35.379  33.394  32.367  1.00  0.00    -0.321 N 
ATOM     23  H   UNL A   1      35.195  34.281  32.754  1.00  0.00     0.167 HD
ATOM     24  O   UNL A   1      36.163  32.720  34.376  1.00  0.00    -0.224 OA
BRANCH  22  25
ATOM     25  C   UNL A   1      35.035  33.208  30.971  1.00  0.00     0.119 C 
BRANCH  25  26
ATOM     26  C   UNL A   1      36.073  33.828  30.037  1.00  0.00     0.021 C 
BRANCH  26  27
ATOM     27  C   UNL A   1      36.572  32.899  28.924  1.00  0.00     0.002 C 
BRANCH  27  28
ATOM     28  C   UNL A   1      35.746  31.625  28.708  1.00  0.00    -0.000 C 
BRANCH  28  29
ATOM     29  C   UNL A   1      36.368  30.589  27.769  1.00  0.00    -0.003 C 
ATOM     30  C   UNL A   1      35.530  29.328  27.625  1.00  0.00     0.004 C 
ENDBRANCH  28  29
ENDBRANCH  27  28
ENDBRANCH  26  27
ENDBRANCH  25  26
ENDBRANCH  22  25
ENDBRANCH  20  21
ENDBRANCH  15  20
ENDBRANCH   8  14
ENDBRANCH   5   7
ENDBRANCH   1   5
BRANCH   3  31
ATOM     31  C   UNL A   1      42.681  24.796  28.756  1.00  0.00     0.116 C 
BRANCH  31  32
ATOM     32  C   UNL A   1      43.865  24.743  27.791  1.00  0.00     0.021 C 
BRANCH  32  33
ATOM     33  C   UNL A   1      45.092  24.017  28.354  1.00  0.00     0.002 C 
BRANCH  33  34
ATOM     34  C   UNL A   1      46.432  24.732  28.130  1.00  0.00     0.002 C 
BRANCH  34  35
ATOM     35  C   UNL A   1      47.157  24.382  26.828  1.00  0.00     0.021 C 
BRANCH  35  36
ATOM     36  C   UNL A   1      46.293  24.464  25.572  1.00  0.00     0.116 C 
BRANCH  36  37
ATOM     37  N   UNL A   1      46.800  25.450  24.630  1.00  0.00    -0.352 N 
ATOM     38  C   UNL A   1      46.624  26.810  24.604  1.00  0.00     0.251 C 
ATOM     39  H   UNL A   1      47.352  25.086  23.901  1.00  0.00     0.163 HD
ATOM     40  O   UNL A   1      46.936  27.454  23.607  1.00  0.00    -0.269 OA
BRANCH  38  41
ATOM     41  C   UNL A   1      46.050  27.508  25.774  1.00  0.00     0.039 A 
ATOM     42  C   UNL A   1      46.912  28.018  26.748  1.00  0.00     0.014 A 
ATOM     43  C   UNL A   1      44.666  27.626  25.930  1.00  0.00     0.014 A 
ATOM     44  C   UNL A   1      46.389  28.695  27.852  1.00  0.00     0.010 A 
ATOM     45  C   UNL A   1      44.147  28.355  26.997  1.00  0.00     0.010 A 
ATOM     46  C   UNL A   1      45.004  28.893  27.971  1.00  0.00    -0.014 A 
BRANCH  46  47
ATOM     47  C   UNL A   1      44.427  29.652  29.110  1.00  0.00     0.031 A 
ATOM     48  C   UNL A   1      44.205  31.133  28.993  1.00  0.00     0.074 A 
ATOM     49  C   UNL A   1      44.168  29.018  30.269  1.00  0.00     0.049 A 
ATOM     50  N   UNL A   1      43.796  31.984  29.900  1.00  0.00    -0.248 NA
ATOM     51  C   UNL A   1      44.508  31.745  27.689  1.00  0.00     0.031 C 
ATOM     52  C   UNL A   1      44.380  27.591  30.518  1.00  0.00     0.029 A 
ATOM     53  N   UNL A   1      43.684  29.495  31.462  1.00  0.00    -0.354 N 
ATOM     54  C   UNL A   1      43.810  33.229  29.284  1.00  0.00     0.074 A 
ATOM     55  C   UNL A   1      44.311  33.031  27.941  1.00  0.00     0.031 C 
ATOM     56  C   UNL A   1      44.015  27.306  31.778  1.00  0.00     0.029 A 
ATOM     57  C   UNL A   1      43.577  28.534  32.436  1.00  0.00     0.049 A 
ATOM     58  H   UNL A   1      43.437  30.437  31.605  1.00  0.00     0.167 HD
ATOM     59  C   UNL A   1      43.418  34.424  29.786  1.00  0.00     0.037 A 
ATOM     60  C   UNL A   1      43.181  28.634  33.719  1.00  0.00     0.037 A 
ATOM     61  C   UNL A   1      42.892  34.611  31.113  1.00  0.00     0.049 A 
ATOM     62  C   UNL A   1      42.752  29.974  34.253  1.00  0.00     0.074 A 
ATOM     63  C   UNL A   1      42.412  35.772  31.696  1.00  0.00     0.029 A 
ATOM     64  N   UNL A   1      42.776  33.609  32.064  1.00  0.00    -0.354 N 
ATOM     65  N   UNL A   1      42.711  31.134  33.642  1.00  0.00    -0.248 NA
ATOM     66  C   UNL A   1      42.308  30.019  35.653  1.00  0.00     0.031 C 
ATOM     67  C   UNL A   1      42.045  35.480  33.014  1.00  0.00     0.029 A 
ATOM     68  C   UNL A   1      42.250  34.128  33.237  1.00  0.00     0.049 A 
ATOM     69  H   UNL A   1      43.028  32.668  31.927  1.00  0.00     0.167 HD
ATOM     70  C   UNL A   1      42.212  32.036  34.570  1.00  0.00     0.074 A 
ATOM     71  C   UNL A   1      41.953  31.289  35.783  1.00  0.00     0.031 C 
ATOM     72  C   UNL A   1      41.988  33.367  34.431  1.00  0.00     0.037 A 
BRANCH  59  73
ATOM     73  C   UNL A   1      43.540  35.626  28.896  1.00  0.00     0.064 A 
ATOM     74  C   UNL A   1      42.449  36.105  28.154  1.00  0.00     0.173 A 
ATOM     75  C   UNL A   1      44.749  36.332  28.811  1.00  0.00     0.173 A 
ATOM     76  F   UNL A   1      41.273  35.460  28.192  1.00  0.00    -0.203 F 
ATOM     77  C   UNL A   1      42.572  37.229  27.341  1.00  0.00     0.198 A 
ATOM     78  C   UNL A   1      44.861  37.472  28.021  1.00  0.00     0.198 A 
ATOM     79  F   UNL A   1      45.823  35.920  29.505  1.00  0.00    -0.203 F 
ATOM     80  F   UNL A   1      41.529  37.640  26.607  1.00  0.00    -0.200 F 
ATOM     81  C   UNL A   1      43.775  37.915  27.281  1.00  0.00     0.200 A 
ATOM     82  F   UNL A   1      46.021  38.142  27.973  1.00  0.00    -0.200 F 
ATOM     83  F   UNL A   1      43.890  39.001  26.504  1.00  0.00    -0.200 F 
ENDBRANCH  59  73
BRANCH  60  84
ATOM     84  C   UNL A   1      43.148  27.426  34.582  1.00  0.00     0.064 A 
ATOM     85  C   UNL A   1      41.971  26.676  34.725  1.00  0.00     0.173 A 
ATOM     86  C   UNL A   1      44.284  26.997  35.283  1.00  0.00     0.173 A 
ATOM     87  F   UNL A   1      40.854  27.060  34.091  1.00  0.00    -0.203 F 
ATOM     88  C   UNL A   1      41.927  25.557  35.552  1.00  0.00     0.198 A 
ATOM     89  C   UNL A   1      44.246  25.860  36.089  1.00  0.00     0.198 A 
ATOM     90  F   UNL A   1      45.435  27.676  35.177  1.00  0.00    -0.203 F 
ATOM     91  F   UNL A   1      40.777  24.885  35.706  1.00  0.00    -0.200 F 
ATOM     92  C   UNL A   1      43.065  25.146  36.229  1.00  0.00     0.200 A 
ATOM     93  F   UNL A   1      45.352  25.459  36.730  1.00  0.00    -0.200 F 
ATOM     94  F   UNL A   1      43.024  24.067  37.022  1.00  0.00    -0.200 F 
ENDBRANCH  60  84
BRANCH  72  95
ATOM     95  C   UNL A   1      41.401  34.092  35.606  1.00  0.00     0.064 A 
ATOM     96  C   UNL A   1      42.179  34.933  36.415  1.00  0.00     0.173 A 
ATOM     97  C   UNL A   1      40.033  33.977  35.899  1.00  0.00     0.173 A 
ATOM     98  F   UNL A   1      43.494  35.062  36.186  1.00  0.00    -0.203 F 
ATOM     99  C   UNL A   1      41.612  35.614  37.489  1.00  0.00     0.198 A 
ATOM    100  C   UNL A   1      39.465  34.683  36.954  1.00  0.00     0.198 A 
ATOM    101  F   UNL A   1      39.246  33.191  35.150  1.00  0.00    -0.203 F 
ATOM    102  F   UNL A   1      42.383  36.378  38.276  1.00  0.00    -0.200 F 
ATOM    103  C   UNL A   1      40.256  35.496  37.753  1.00  0.00     0.200 A 
ATOM    104  F   UNL A   1      38.152  34.577  37.200  1.00  0.00    -0.200 F 
ATOM    105  F   UNL A   1      39.712  36.160  38.781  1.00  0.00    -0.200 F 
ENDBRANCH  72  95
ENDBRANCH  46  47
ENDBRANCH  38  41
ENDBRANCH  36  37
ENDBRANCH  35  36
ENDBRANCH  34  35
ENDBRANCH  33  34
ENDBRANCH  32  33
ENDBRANCH  31  32
ENDBRANCH   3  31
TORSDOF 22
ENDMDL
