MODEL 1
REMARK VINA RESULT:     -13.0      0.000      0.000
REMARK SMILES O=C(NCCCCCCNC(=O)[C@@H]1CCn2c(C(=O)c3ccccc3)ccc21)c1ccc(-c2c3nc(c(-c4c(F)c(F)c(F)c(F)c4F)c4ccc([nH]4)c(-c4c(F)c(F)c(F)c(F)c4F)c4nc(c(-c5c(F)c(F)c(F)c(F)c5F)c5ccc2[nH]5)C=C4)C=C3)cc1
REMARK SMILES IDX 6 1 5 2 4 3 3 4 1 5 2 6 29 8 30 9 91 10 31 11 90 12 32 13
REMARK SMILES IDX 33 14 34 15 84 16 35 17 89 18 83 19 85 20 36 21 88 22 82 23
REMARK SMILES IDX 81 24 37 26 69 27 49 28 68 29 50 30 53 31 67 32 86 33 51 34
REMARK SMILES IDX 52 35 66 37 87 38 54 39 38 40 39 41 47 42 40 43 41 44 45 45
REMARK SMILES IDX 48 46 42 47 43 48 46 49 44 50 70 51 71 52 79 53 72 54 73 55
REMARK SMILES IDX 77 56 80 57 74 58 75 59 78 60 76 61 55 62 56 63 64 64 57 65
REMARK SMILES IDX 58 66 62 67 65 68 59 69 60 70 63 71 61 72 7 73 8 74 9 75
REMARK SMILES IDX 10 76 11 77 12 79 13 80 14 81 28 82 15 83 16 84 27 85 17 86
REMARK SMILES IDX 26 87 18 88 19 89 20 90 21 91 25 92 22 93 24 94 23 95
REMARK H PARENT 3 7 85 25 53 36 10 78
REMARK Flexibility Score: inf
ROOT
ATOM      1  C   UNL A   1      31.388  30.840  26.011  1.00  0.00     0.002 C 
ENDROOT
BRANCH   1   2
ATOM      2  C   UNL A   1      31.266  32.287  26.490  1.00  0.00     0.021 C 
BRANCH   2   3
ATOM      3  C   UNL A   1      32.506  32.876  27.147  1.00  0.00     0.116 C 
BRANCH   3   4
ATOM      4  N   UNL A   1      32.315  34.239  27.612  1.00  0.00    -0.352 N 
ATOM      5  O   UNL A   1      32.622  36.054  28.915  1.00  0.00    -0.269 OA
ATOM      6  C   UNL A   1      32.999  34.935  28.578  1.00  0.00     0.251 C 
ATOM      7  H   UNL A   1      31.588  34.735  27.171  1.00  0.00     0.163 HD
BRANCH   6   8
ATOM      8  C   UNL A   1      34.175  34.328  29.238  1.00  0.00     0.039 A 
ATOM      9  C   UNL A   1      35.474  34.620  28.813  1.00  0.00     0.014 A 
ATOM     10  C   UNL A   1      33.968  33.461  30.314  1.00  0.00     0.014 A 
ATOM     11  C   UNL A   1      36.554  33.947  29.376  1.00  0.00     0.010 A 
ATOM     12  C   UNL A   1      35.060  32.844  30.930  1.00  0.00     0.010 A 
ATOM     13  C   UNL A   1      36.360  33.062  30.449  1.00  0.00    -0.014 A 
BRANCH  13  14
ATOM     14  C   UNL A   1      37.531  32.413  31.090  1.00  0.00     0.031 A 
ATOM     15  C   UNL A   1      38.297  31.328  30.389  1.00  0.00     0.074 A 
ATOM     16  C   UNL A   1      37.901  32.815  32.321  1.00  0.00     0.049 A 
ATOM     17  N   UNL A   1      39.327  30.639  30.812  1.00  0.00    -0.248 NA
ATOM     18  C   UNL A   1      37.844  30.963  29.039  1.00  0.00     0.031 C 
ATOM     19  C   UNL A   1      37.226  33.853  33.104  1.00  0.00     0.029 A 
ATOM     20  N   UNL A   1      38.932  32.408  33.127  1.00  0.00    -0.354 N 
ATOM     21  C   UNL A   1      39.635  29.749  29.792  1.00  0.00     0.074 A 
ATOM     22  C   UNL A   1      38.666  29.965  28.739  1.00  0.00     0.031 C 
ATOM     23  C   UNL A   1      37.878  34.022  34.263  1.00  0.00     0.029 A 
ATOM     24  C   UNL A   1      38.978  33.068  34.331  1.00  0.00     0.049 A 
ATOM     25  H   UNL A   1      39.577  31.712  32.868  1.00  0.00     0.167 HD
ATOM     26  C   UNL A   1      40.638  28.839  29.740  1.00  0.00     0.037 A 
ATOM     27  C   UNL A   1      39.801  32.906  35.383  1.00  0.00     0.037 A 
ATOM     28  C   UNL A   1      41.607  28.638  30.788  1.00  0.00     0.049 A 
ATOM     29  C   UNL A   1      40.887  31.873  35.310  1.00  0.00     0.074 A 
ATOM     30  C   UNL A   1      42.684  27.769  30.815  1.00  0.00     0.029 A 
ATOM     31  N   UNL A   1      41.610  29.313  32.002  1.00  0.00    -0.354 N 
ATOM     32  N   UNL A   1      41.189  31.060  34.326  1.00  0.00    -0.248 NA
ATOM     33  C   UNL A   1      41.746  31.732  36.492  1.00  0.00     0.031 C 
ATOM     34  C   UNL A   1      43.310  27.883  32.062  1.00  0.00     0.029 A 
ATOM     35  C   UNL A   1      42.655  28.861  32.793  1.00  0.00     0.049 A 
ATOM     36  H   UNL A   1      40.965  30.009  32.263  1.00  0.00     0.167 HD
ATOM     37  C   UNL A   1      42.283  30.326  34.761  1.00  0.00     0.074 A 
ATOM     38  C   UNL A   1      42.602  30.801  36.092  1.00  0.00     0.031 C 
ATOM     39  C   UNL A   1      42.960  29.346  34.115  1.00  0.00     0.037 A 
BRANCH  26  40
ATOM     40  C   UNL A   1      40.733  27.974  28.516  1.00  0.00     0.064 A 
ATOM     41  C   UNL A   1      41.493  28.353  27.400  1.00  0.00     0.173 A 
ATOM     42  C   UNL A   1      40.087  26.729  28.475  1.00  0.00     0.173 A 
ATOM     43  F   UNL A   1      42.123  29.538  27.384  1.00  0.00    -0.203 F 
ATOM     44  C   UNL A   1      41.582  27.531  26.279  1.00  0.00     0.198 A 
ATOM     45  C   UNL A   1      40.201  25.896  27.364  1.00  0.00     0.198 A 
ATOM     46  F   UNL A   1      39.353  26.312  29.518  1.00  0.00    -0.203 F 
ATOM     47  F   UNL A   1      42.279  27.935  25.207  1.00  0.00    -0.200 F 
ATOM     48  C   UNL A   1      40.941  26.301  26.264  1.00  0.00     0.200 A 
ATOM     49  F   UNL A   1      39.592  24.702  27.358  1.00  0.00    -0.200 F 
ATOM     50  F   UNL A   1      41.034  25.508  25.188  1.00  0.00    -0.200 F 
ENDBRANCH  26  40
BRANCH  27  51
ATOM     51  C   UNL A   1      39.619  33.751  36.591  1.00  0.00     0.064 A 
ATOM     52  C   UNL A   1      40.208  35.019  36.679  1.00  0.00     0.173 A 
ATOM     53  C   UNL A   1      38.832  33.318  37.668  1.00  0.00     0.173 A 
ATOM     54  F   UNL A   1      40.984  35.467  35.682  1.00  0.00    -0.203 F 
ATOM     55  C   UNL A   1      40.025  35.818  37.806  1.00  0.00     0.198 A 
ATOM     56  C   UNL A   1      38.626  34.130  38.780  1.00  0.00     0.198 A 
ATOM     57  F   UNL A   1      38.242  32.114  37.628  1.00  0.00    -0.203 F 
ATOM     58  F   UNL A   1      40.627  37.012  37.881  1.00  0.00    -0.200 F 
ATOM     59  C   UNL A   1      39.228  35.377  38.851  1.00  0.00     0.200 A 
ATOM     60  F   UNL A   1      37.840  33.707  39.780  1.00  0.00    -0.200 F 
ATOM     61  F   UNL A   1      39.042  36.151  39.928  1.00  0.00    -0.200 F 
ENDBRANCH  27  51
BRANCH  39  62
ATOM     62  C   UNL A   1      44.136  28.744  34.829  1.00  0.00     0.064 A 
ATOM     63  C   UNL A   1      45.416  29.310  34.744  1.00  0.00     0.173 A 
ATOM     64  C   UNL A   1      43.972  27.607  35.633  1.00  0.00     0.173 A 
ATOM     65  F   UNL A   1      45.629  30.388  33.973  1.00  0.00    -0.203 F 
ATOM     66  C   UNL A   1      46.495  28.744  35.418  1.00  0.00     0.198 A 
ATOM     67  C   UNL A   1      45.045  27.060  36.328  1.00  0.00     0.198 A 
ATOM     68  F   UNL A   1      42.765  27.031  35.750  1.00  0.00    -0.203 F 
ATOM     69  F   UNL A   1      47.719  29.271  35.284  1.00  0.00    -0.200 F 
ATOM     70  C   UNL A   1      46.307  27.624  36.215  1.00  0.00     0.200 A 
ATOM     71  F   UNL A   1      44.860  25.985  37.108  1.00  0.00    -0.200 F 
ATOM     72  F   UNL A   1      47.345  27.082  36.867  1.00  0.00    -0.200 F 
ENDBRANCH  39  62
ENDBRANCH  13  14
ENDBRANCH   6   8
ENDBRANCH   3   4
ENDBRANCH   2   3
ENDBRANCH   1   2
BRANCH   1  73
ATOM     73  C   UNL A   1      32.404  29.959  26.746  1.00  0.00     0.002 C 
BRANCH  73  74
ATOM     74  C   UNL A   1      31.868  28.674  27.389  1.00  0.00     0.021 C 
BRANCH  74  75
ATOM     75  C   UNL A   1      31.462  27.571  26.420  1.00  0.00     0.116 C 
BRANCH  75  76
ATOM     76  N   UNL A   1      32.547  26.713  26.015  1.00  0.00    -0.356 N 
ATOM     77  C   UNL A   1      33.033  26.505  24.756  1.00  0.00     0.229 C 
ATOM     78  H   UNL A   1      32.993  26.214  26.737  1.00  0.00     0.163 HD
ATOM     79  O   UNL A   1      34.091  25.876  24.676  1.00  0.00    -0.274 OA
BRANCH  77  80
ATOM     80  C   UNL A   1      32.225  26.923  23.519  1.00  0.00     0.127 C 
ATOM     81  C   UNL A   1      32.383  28.452  23.254  1.00  0.00     0.042 C 
ATOM     82  C   UNL A   1      30.737  26.792  23.647  1.00  0.00     0.031 A 
ATOM     83  C   UNL A   1      31.005  28.986  22.850  1.00  0.00     0.124 C 
ATOM     84  N   UNL A   1      30.092  27.949  23.288  1.00  0.00    -0.341 N 
ATOM     85  C   UNL A   1      29.772  25.854  23.908  1.00  0.00     0.025 A 
ATOM     86  C   UNL A   1      28.735  27.828  23.376  1.00  0.00     0.090 A 
ATOM     87  C   UNL A   1      28.524  26.510  23.771  1.00  0.00     0.032 A 
BRANCH  86  88
ATOM     88  C   UNL A   1      27.673  28.797  23.164  1.00  0.00     0.209 C 
ATOM     89  O   UNL A   1      26.492  28.548  23.410  1.00  0.00    -0.287 OA
BRANCH  88  90
ATOM     90  C   UNL A   1      27.952  30.153  22.659  1.00  0.00     0.024 A 
ATOM     91  C   UNL A   1      28.119  31.185  23.588  1.00  0.00     0.012 A 
ATOM     92  C   UNL A   1      27.969  30.424  21.288  1.00  0.00     0.012 A 
ATOM     93  C   UNL A   1      28.354  32.485  23.143  1.00  0.00     0.001 A 
ATOM     94  C   UNL A   1      28.217  31.725  20.848  1.00  0.00     0.001 A 
ATOM     95  C   UNL A   1      28.414  32.751  21.775  1.00  0.00     0.000 A 
ENDBRANCH  88  90
ENDBRANCH  86  88
ENDBRANCH  77  80
ENDBRANCH  75  76
ENDBRANCH  74  75
ENDBRANCH  73  74
ENDBRANCH   1  73
TORSDOF 15
ENDMDL
MODEL 2
REMARK VINA RESULT:     -13.0      2.707      4.885
REMARK SMILES O=C(NCCCCCCNC(=O)[C@@H]1CCn2c(C(=O)c3ccccc3)ccc21)c1ccc(-c2c3nc(c(-c4c(F)c(F)c(F)c(F)c4F)c4ccc([nH]4)c(-c4c(F)c(F)c(F)c(F)c4F)c4nc(c(-c5c(F)c(F)c(F)c(F)c5F)c5ccc2[nH]5)C=C4)C=C3)cc1
REMARK SMILES IDX 6 1 5 2 4 3 3 4 1 5 2 6 29 8 30 9 91 10 31 11 90 12 32 13
REMARK SMILES IDX 33 14 34 15 84 16 35 17 89 18 83 19 85 20 36 21 88 22 82 23
REMARK SMILES IDX 81 24 37 26 69 27 49 28 68 29 50 30 53 31 67 32 86 33 51 34
REMARK SMILES IDX 52 35 66 37 87 38 54 39 38 40 39 41 47 42 40 43 41 44 45 45
REMARK SMILES IDX 48 46 42 47 43 48 46 49 44 50 70 51 71 52 79 53 72 54 73 55
REMARK SMILES IDX 77 56 80 57 74 58 75 59 78 60 76 61 55 62 56 63 64 64 57 65
REMARK SMILES IDX 58 66 62 67 65 68 59 69 60 70 63 71 61 72 7 73 8 74 9 75
REMARK SMILES IDX 10 76 11 77 12 79 13 80 14 81 28 82 15 83 16 84 27 85 17 86
REMARK SMILES IDX 26 87 18 88 19 89 20 90 21 91 25 92 22 93 24 94 23 95
REMARK H PARENT 3 7 85 25 53 36 10 78
REMARK Flexibility Score: inf
ROOT
ATOM      1  C   UNL A   1      31.549  30.672  26.222  1.00  0.00     0.002 C 
ENDROOT
BRANCH   1   2
ATOM      2  C   UNL A   1      31.388  32.132  26.644  1.00  0.00     0.021 C 
BRANCH   2   3
ATOM      3  C   UNL A   1      32.659  32.836  27.100  1.00  0.00     0.116 C 
BRANCH   3   4
ATOM      4  N   UNL A   1      32.422  34.178  27.603  1.00  0.00    -0.352 N 
ATOM      5  O   UNL A   1      32.648  35.957  28.971  1.00  0.00    -0.269 OA
ATOM      6  C   UNL A   1      33.061  34.859  28.609  1.00  0.00     0.251 C 
ATOM      7  H   UNL A   1      31.696  34.671  27.156  1.00  0.00     0.163 HD
BRANCH   6   8
ATOM      8  C   UNL A   1      34.233  34.258  29.284  1.00  0.00     0.039 A 
ATOM      9  C   UNL A   1      35.535  34.575  28.891  1.00  0.00     0.014 A 
ATOM     10  C   UNL A   1      34.017  33.371  30.341  1.00  0.00     0.014 A 
ATOM     11  C   UNL A   1      36.613  33.909  29.465  1.00  0.00     0.010 A 
ATOM     12  C   UNL A   1      35.105  32.760  30.971  1.00  0.00     0.010 A 
ATOM     13  C   UNL A   1      36.410  33.004  30.520  1.00  0.00    -0.014 A 
BRANCH  13  14
ATOM     14  C   UNL A   1      37.577  32.363  31.175  1.00  0.00     0.031 A 
ATOM     15  C   UNL A   1      38.351  31.274  30.487  1.00  0.00     0.074 A 
ATOM     16  C   UNL A   1      37.937  32.774  32.405  1.00  0.00     0.049 A 
ATOM     17  N   UNL A   1      39.380  30.590  30.923  1.00  0.00    -0.248 NA
ATOM     18  C   UNL A   1      37.910  30.898  29.136  1.00  0.00     0.031 C 
ATOM     19  C   UNL A   1      37.254  33.816  33.175  1.00  0.00     0.029 A 
ATOM     20  N   UNL A   1      38.964  32.375  33.222  1.00  0.00    -0.354 N 
ATOM     21  C   UNL A   1      39.696  29.693  29.912  1.00  0.00     0.074 A 
ATOM     22  C   UNL A   1      38.735  29.900  28.850  1.00  0.00     0.031 C 
ATOM     23  C   UNL A   1      37.897  33.995  34.339  1.00  0.00     0.029 A 
ATOM     24  C   UNL A   1      38.999  33.043  34.422  1.00  0.00     0.049 A 
ATOM     25  H   UNL A   1      39.612  31.678  32.973  1.00  0.00     0.167 HD
ATOM     26  C   UNL A   1      40.702  28.784  29.875  1.00  0.00     0.037 A 
ATOM     27  C   UNL A   1      39.814  32.891  35.481  1.00  0.00     0.037 A 
ATOM     28  C   UNL A   1      41.663  28.593  30.932  1.00  0.00     0.049 A 
ATOM     29  C   UNL A   1      40.902  31.859  35.424  1.00  0.00     0.074 A 
ATOM     30  C   UNL A   1      42.741  27.725  30.973  1.00  0.00     0.029 A 
ATOM     31  N   UNL A   1      41.655  29.276  32.141  1.00  0.00    -0.354 N 
ATOM     32  N   UNL A   1      41.213  31.040  34.449  1.00  0.00    -0.248 NA
ATOM     33  C   UNL A   1      41.752  31.728  36.614  1.00  0.00     0.031 C 
ATOM     34  C   UNL A   1      43.357  27.850  32.223  1.00  0.00     0.029 A 
ATOM     35  C   UNL A   1      42.695  28.832  32.942  1.00  0.00     0.049 A 
ATOM     36  H   UNL A   1      41.007  29.973  32.392  1.00  0.00     0.167 HD
ATOM     37  C   UNL A   1      42.305  30.311  34.897  1.00  0.00     0.074 A 
ATOM     38  C   UNL A   1      42.612  30.796  36.227  1.00  0.00     0.031 C 
ATOM     39  C   UNL A   1      42.989  29.327  34.263  1.00  0.00     0.037 A 
BRANCH  26  40
ATOM     40  C   UNL A   1      40.808  27.911  28.657  1.00  0.00     0.064 A 
ATOM     41  C   UNL A   1      40.098  26.706  28.547  1.00  0.00     0.173 A 
ATOM     42  C   UNL A   1      41.599  28.305  27.567  1.00  0.00     0.173 A 
ATOM     43  F   UNL A   1      39.334  26.278  29.565  1.00  0.00    -0.203 F 
ATOM     44  C   UNL A   1      40.197  25.917  27.404  1.00  0.00     0.198 A 
ATOM     45  C   UNL A   1      41.674  27.527  26.414  1.00  0.00     0.198 A 
ATOM     46  F   UNL A   1      42.293  29.452  27.615  1.00  0.00    -0.203 F 
ATOM     47  F   UNL A   1      39.543  24.748  27.341  1.00  0.00    -0.200 F 
ATOM     48  C   UNL A   1      40.979  26.330  26.337  1.00  0.00     0.200 A 
ATOM     49  F   UNL A   1      42.419  27.937  25.378  1.00  0.00    -0.200 F 
ATOM     50  F   UNL A   1      41.067  25.573  25.234  1.00  0.00    -0.200 F 
ENDBRANCH  26  40
BRANCH  27  51
ATOM     51  C   UNL A   1      39.621  33.743  36.681  1.00  0.00     0.064 A 
ATOM     52  C   UNL A   1      40.217  35.009  36.770  1.00  0.00     0.173 A 
ATOM     53  C   UNL A   1      38.817  33.322  37.751  1.00  0.00     0.173 A 
ATOM     54  F   UNL A   1      41.008  35.446  35.780  1.00  0.00    -0.203 F 
ATOM     55  C   UNL A   1      40.024  35.816  37.889  1.00  0.00     0.198 A 
ATOM     56  C   UNL A   1      38.601  34.142  38.855  1.00  0.00     0.198 A 
ATOM     57  F   UNL A   1      38.220  32.122  37.710  1.00  0.00    -0.203 F 
ATOM     58  F   UNL A   1      40.632  37.007  37.965  1.00  0.00    -0.200 F 
ATOM     59  C   UNL A   1      39.210  35.386  38.926  1.00  0.00     0.200 A 
ATOM     60  F   UNL A   1      37.800  33.729  39.847  1.00  0.00    -0.200 F 
ATOM     61  F   UNL A   1      39.014  36.168  39.996  1.00  0.00    -0.200 F 
ENDBRANCH  27  51
BRANCH  39  62
ATOM     62  C   UNL A   1      44.160  28.733  34.990  1.00  0.00     0.064 A 
ATOM     63  C   UNL A   1      44.006  27.657  35.878  1.00  0.00     0.173 A 
ATOM     64  C   UNL A   1      45.455  29.225  34.773  1.00  0.00     0.173 A 
ATOM     65  F   UNL A   1      42.786  27.162  36.134  1.00  0.00    -0.203 F 
ATOM     66  C   UNL A   1      45.104  27.113  36.539  1.00  0.00     0.198 A 
ATOM     67  C   UNL A   1      46.553  28.661  35.413  1.00  0.00     0.198 A 
ATOM     68  F   UNL A   1      45.655  30.251  33.931  1.00  0.00    -0.203 F 
ATOM     69  F   UNL A   1      44.929  26.117  37.419  1.00  0.00    -0.200 F 
ATOM     70  C   UNL A   1      46.377  27.610  36.300  1.00  0.00     0.200 A 
ATOM     71  F   UNL A   1      47.784  29.135  35.173  1.00  0.00    -0.200 F 
ATOM     72  F   UNL A   1      47.433  27.083  36.934  1.00  0.00    -0.200 F 
ENDBRANCH  39  62
ENDBRANCH  13  14
ENDBRANCH   6   8
ENDBRANCH   3   4
ENDBRANCH   2   3
ENDBRANCH   1   2
BRANCH   1  73
ATOM     73  C   UNL A   1      32.169  29.725  27.255  1.00  0.00     0.002 C 
BRANCH  73  74
ATOM     74  C   UNL A   1      31.498  28.357  27.431  1.00  0.00     0.021 C 
BRANCH  74  75
ATOM     75  C   UNL A   1      31.503  27.457  26.202  1.00  0.00     0.116 C 
BRANCH  75  76
ATOM     76  N   UNL A   1      30.819  26.203  26.387  1.00  0.00    -0.356 N 
ATOM     77  C   UNL A   1      31.362  24.957  26.521  1.00  0.00     0.229 C 
ATOM     78  H   UNL A   1      29.836  26.250  26.422  1.00  0.00     0.163 HD
ATOM     79  O   UNL A   1      30.589  24.058  26.863  1.00  0.00    -0.274 OA
BRANCH  77  80
ATOM     80  C   UNL A   1      32.823  24.688  26.133  1.00  0.00     0.127 C 
ATOM     81  C   UNL A   1      32.970  24.603  24.582  1.00  0.00     0.042 C 
ATOM     82  C   UNL A   1      33.368  23.358  26.560  1.00  0.00     0.031 A 
ATOM     83  C   UNL A   1      33.934  23.452  24.281  1.00  0.00     0.124 C 
ATOM     84  N   UNL A   1      33.959  22.692  25.516  1.00  0.00    -0.341 N 
ATOM     85  C   UNL A   1      33.573  22.607  27.688  1.00  0.00     0.025 A 
ATOM     86  C   UNL A   1      34.482  21.492  25.903  1.00  0.00     0.090 A 
ATOM     87  C   UNL A   1      34.239  21.428  27.273  1.00  0.00     0.032 A 
BRANCH  86  88
ATOM     88  C   UNL A   1      35.129  20.439  25.139  1.00  0.00     0.209 C 
ATOM     89  O   UNL A   1      36.342  20.422  24.933  1.00  0.00    -0.287 OA
BRANCH  88  90
ATOM     90  C   UNL A   1      34.366  19.308  24.581  1.00  0.00     0.024 A 
ATOM     91  C   UNL A   1      35.014  18.076  24.440  1.00  0.00     0.012 A 
ATOM     92  C   UNL A   1      33.055  19.475  24.126  1.00  0.00     0.012 A 
ATOM     93  C   UNL A   1      34.331  16.994  23.887  1.00  0.00     0.001 A 
ATOM     94  C   UNL A   1      32.372  18.385  23.585  1.00  0.00     0.001 A 
ATOM     95  C   UNL A   1      33.008  17.147  23.472  1.00  0.00     0.000 A 
ENDBRANCH  88  90
ENDBRANCH  86  88
ENDBRANCH  77  80
ENDBRANCH  75  76
ENDBRANCH  74  75
ENDBRANCH  73  74
ENDBRANCH   1  73
TORSDOF 15
ENDMDL
MODEL 3
REMARK VINA RESULT:     -13.0      2.711      8.653
REMARK SMILES O=C(NCCCCCCNC(=O)[C@@H]1CCn2c(C(=O)c3ccccc3)ccc21)c1ccc(-c2c3nc(c(-c4c(F)c(F)c(F)c(F)c4F)c4ccc([nH]4)c(-c4c(F)c(F)c(F)c(F)c4F)c4nc(c(-c5c(F)c(F)c(F)c(F)c5F)c5ccc2[nH]5)C=C4)C=C3)cc1
REMARK SMILES IDX 6 1 5 2 4 3 3 4 1 5 2 6 29 8 30 9 91 10 31 11 90 12 32 13
REMARK SMILES IDX 33 14 34 15 84 16 35 17 89 18 83 19 85 20 36 21 88 22 82 23
REMARK SMILES IDX 81 24 37 26 69 27 49 28 68 29 50 30 53 31 67 32 86 33 51 34
REMARK SMILES IDX 52 35 66 37 87 38 54 39 38 40 39 41 47 42 40 43 41 44 45 45
REMARK SMILES IDX 48 46 42 47 43 48 46 49 44 50 70 51 71 52 79 53 72 54 73 55
REMARK SMILES IDX 77 56 80 57 74 58 75 59 78 60 76 61 55 62 56 63 64 64 57 65
REMARK SMILES IDX 58 66 62 67 65 68 59 69 60 70 63 71 61 72 7 73 8 74 9 75
REMARK SMILES IDX 10 76 11 77 12 79 13 80 14 81 28 82 15 83 16 84 27 85 17 86
REMARK SMILES IDX 26 87 18 88 19 89 20 90 21 91 25 92 22 93 24 94 23 95
REMARK H PARENT 3 7 85 25 53 36 10 78
REMARK Flexibility Score: inf
ROOT
ATOM      1  C   UNL A   1      31.526  30.688  26.224  1.00  0.00     0.002 C 
ENDROOT
BRANCH   1   2
ATOM      2  C   UNL A   1      31.387  32.166  26.585  1.00  0.00     0.021 C 
BRANCH   2   3
ATOM      3  C   UNL A   1      32.656  32.854  27.070  1.00  0.00     0.116 C 
BRANCH   3   4
ATOM      4  N   UNL A   1      32.415  34.170  27.634  1.00  0.00    -0.352 N 
ATOM      5  O   UNL A   1      32.640  35.886  29.080  1.00  0.00    -0.269 OA
ATOM      6  C   UNL A   1      33.056  34.808  28.666  1.00  0.00     0.251 C 
ATOM      7  H   UNL A   1      31.683  34.679  27.214  1.00  0.00     0.163 HD
BRANCH   6   8
ATOM      8  C   UNL A   1      34.235  34.183  29.306  1.00  0.00     0.039 A 
ATOM      9  C   UNL A   1      35.532  34.487  28.886  1.00  0.00     0.014 A 
ATOM     10  C   UNL A   1      34.031  33.288  30.359  1.00  0.00     0.014 A 
ATOM     11  C   UNL A   1      36.614  33.800  29.427  1.00  0.00     0.010 A 
ATOM     12  C   UNL A   1      35.125  32.656  30.956  1.00  0.00     0.010 A 
ATOM     13  C   UNL A   1      36.423  32.886  30.477  1.00  0.00    -0.014 A 
BRANCH  13  14
ATOM     14  C   UNL A   1      37.596  32.222  31.097  1.00  0.00     0.031 A 
ATOM     15  C   UNL A   1      38.071  32.610  32.469  1.00  0.00     0.074 A 
ATOM     16  C   UNL A   1      38.234  31.257  30.408  1.00  0.00     0.049 A 
ATOM     17  N   UNL A   1      39.091  32.149  33.150  1.00  0.00    -0.248 NA
ATOM     18  C   UNL A   1      37.307  33.654  33.165  1.00  0.00     0.031 C 
ATOM     19  C   UNL A   1      37.870  30.804  29.064  1.00  0.00     0.029 A 
ATOM     20  N   UNL A   1      39.315  30.481  30.739  1.00  0.00    -0.354 N 
ATOM     21  C   UNL A   1      39.103  32.859  34.343  1.00  0.00     0.074 A 
ATOM     22  C   UNL A   1      38.005  33.800  34.284  1.00  0.00     0.031 C 
ATOM     23  C   UNL A   1      38.692  29.810  28.697  1.00  0.00     0.029 A 
ATOM     24  C   UNL A   1      39.676  29.596  29.753  1.00  0.00     0.049 A 
ATOM     25  H   UNL A   1      39.787  30.551  31.600  1.00  0.00     0.167 HD
ATOM     26  C   UNL A   1      39.951  32.730  35.392  1.00  0.00     0.037 A 
ATOM     27  C   UNL A   1      40.699  28.724  29.694  1.00  0.00     0.037 A 
ATOM     28  C   UNL A   1      41.035  31.783  35.449  1.00  0.00     0.049 A 
ATOM     29  C   UNL A   1      41.639  28.622  30.859  1.00  0.00     0.074 A 
ATOM     30  C   UNL A   1      41.926  31.549  36.482  1.00  0.00     0.029 A 
ATOM     31  N   UNL A   1      41.382  30.914  34.422  1.00  0.00    -0.354 N 
ATOM     32  N   UNL A   1      41.620  29.274  31.996  1.00  0.00    -0.248 NA
ATOM     33  C   UNL A   1      42.745  27.664  30.734  1.00  0.00     0.031 C 
ATOM     34  C   UNL A   1      42.839  30.574  36.063  1.00  0.00     0.029 A 
ATOM     35  C   UNL A   1      42.486  30.162  34.789  1.00  0.00     0.049 A 
ATOM     36  H   UNL A   1      40.912  30.844  33.559  1.00  0.00     0.167 HD
ATOM     37  C   UNL A   1      42.694  28.793  32.729  1.00  0.00     0.074 A 
ATOM     38  C   UNL A   1      43.336  27.782  31.914  1.00  0.00     0.031 C 
ATOM     39  C   UNL A   1      43.112  29.158  33.966  1.00  0.00     0.037 A 
BRANCH  26  40
ATOM     40  C   UNL A   1      39.755  33.650  36.564  1.00  0.00     0.064 A 
ATOM     41  C   UNL A   1      40.380  34.904  36.633  1.00  0.00     0.173 A 
ATOM     42  C   UNL A   1      38.897  33.288  37.614  1.00  0.00     0.173 A 
ATOM     43  F   UNL A   1      41.217  35.294  35.660  1.00  0.00    -0.203 F 
ATOM     44  C   UNL A   1      40.174  35.749  37.721  1.00  0.00     0.198 A 
ATOM     45  C   UNL A   1      38.672  34.147  38.687  1.00  0.00     0.198 A 
ATOM     46  F   UNL A   1      38.268  32.104  37.596  1.00  0.00    -0.203 F 
ATOM     47  F   UNL A   1      40.817  36.924  37.784  1.00  0.00    -0.200 F 
ATOM     48  C   UNL A   1      39.316  35.374  38.743  1.00  0.00     0.200 A 
ATOM     49  F   UNL A   1      37.831  33.788  39.667  1.00  0.00    -0.200 F 
ATOM     50  F   UNL A   1      39.114  36.192  39.785  1.00  0.00    -0.200 F 
ENDBRANCH  26  40
BRANCH  27  51
ATOM     51  C   UNL A   1      40.876  27.885  28.482  1.00  0.00     0.064 A 
ATOM     52  C   UNL A   1      40.214  26.657  28.353  1.00  0.00     0.173 A 
ATOM     53  C   UNL A   1      41.690  28.305  27.419  1.00  0.00     0.173 A 
ATOM     54  F   UNL A   1      39.441  26.205  29.350  1.00  0.00    -0.203 F 
ATOM     55  C   UNL A   1      40.368  25.876  27.209  1.00  0.00     0.198 A 
ATOM     56  C   UNL A   1      41.819  27.538  26.265  1.00  0.00     0.198 A 
ATOM     57  F   UNL A   1      42.339  29.477  27.493  1.00  0.00    -0.203 F 
ATOM     58  F   UNL A   1      39.752  24.689  27.124  1.00  0.00    -0.200 F 
ATOM     59  C   UNL A   1      41.163  26.320  26.163  1.00  0.00     0.200 A 
ATOM     60  F   UNL A   1      42.574  27.980  25.249  1.00  0.00    -0.200 F 
ATOM     61  F   UNL A   1      41.300  25.575  25.059  1.00  0.00    -0.200 F 
ENDBRANCH  27  51
BRANCH  39  62
ATOM     62  C   UNL A   1      44.302  28.435  34.526  1.00  0.00     0.064 A 
ATOM     63  C   UNL A   1      44.166  27.231  35.233  1.00  0.00     0.173 A 
ATOM     64  C   UNL A   1      45.597  28.936  34.324  1.00  0.00     0.173 A 
ATOM     65  F   UNL A   1      42.948  26.720  35.469  1.00  0.00    -0.203 F 
ATOM     66  C   UNL A   1      45.281  26.569  35.740  1.00  0.00     0.198 A 
ATOM     67  C   UNL A   1      46.711  28.257  34.807  1.00  0.00     0.198 A 
ATOM     68  F   UNL A   1      45.780  30.081  33.650  1.00  0.00    -0.203 F 
ATOM     69  F   UNL A   1      45.124  25.446  36.455  1.00  0.00    -0.200 F 
ATOM     70  C   UNL A   1      46.552  27.078  35.520  1.00  0.00     0.200 A 
ATOM     71  F   UNL A   1      47.940  28.744  34.583  1.00  0.00    -0.200 F 
ATOM     72  F   UNL A   1      47.625  26.438  36.004  1.00  0.00    -0.200 F 
ENDBRANCH  39  62
ENDBRANCH  13  14
ENDBRANCH   6   8
ENDBRANCH   3   4
ENDBRANCH   2   3
ENDBRANCH   1   2
BRANCH   1  73
ATOM     73  C   UNL A   1      32.214  29.791  27.260  1.00  0.00     0.002 C 
BRANCH  73  74
ATOM     74  C   UNL A   1      31.642  28.380  27.442  1.00  0.00     0.021 C 
BRANCH  74  75
ATOM     75  C   UNL A   1      31.622  27.509  26.193  1.00  0.00     0.116 C 
BRANCH  75  76
ATOM     76  N   UNL A   1      30.903  26.271  26.349  1.00  0.00    -0.356 N 
ATOM     77  C   UNL A   1      31.413  25.011  26.487  1.00  0.00     0.229 C 
ATOM     78  H   UNL A   1      29.921  26.340  26.358  1.00  0.00     0.163 HD
ATOM     79  O   UNL A   1      30.611  24.128  26.801  1.00  0.00    -0.274 OA
BRANCH  77  80
ATOM     80  C   UNL A   1      32.877  24.710  26.136  1.00  0.00     0.127 C 
ATOM     81  C   UNL A   1      33.062  24.626  24.589  1.00  0.00     0.042 C 
ATOM     82  C   UNL A   1      33.382  23.368  26.573  1.00  0.00     0.031 A 
ATOM     83  C   UNL A   1      34.008  23.454  24.310  1.00  0.00     0.124 C 
ATOM     84  N   UNL A   1      33.985  22.691  25.542  1.00  0.00    -0.341 N 
ATOM     85  C   UNL A   1      33.541  22.610  27.704  1.00  0.00     0.025 A 
ATOM     86  C   UNL A   1      34.471  21.479  25.940  1.00  0.00     0.090 A 
ATOM     87  C   UNL A   1      34.191  21.417  27.302  1.00  0.00     0.032 A 
BRANCH  86  88
ATOM     88  C   UNL A   1      35.114  20.413  25.189  1.00  0.00     0.209 C 
ATOM     89  O   UNL A   1      36.334  20.352  25.042  1.00  0.00    -0.287 OA
BRANCH  88  90
ATOM     90  C   UNL A   1      34.336  19.322  24.575  1.00  0.00     0.024 A 
ATOM     91  C   UNL A   1      34.950  18.074  24.426  1.00  0.00     0.012 A 
ATOM     92  C   UNL A   1      33.049  19.542  24.079  1.00  0.00     0.012 A 
ATOM     93  C   UNL A   1      34.254  17.028  23.822  1.00  0.00     0.001 A 
ATOM     94  C   UNL A   1      32.352  18.489  23.486  1.00  0.00     0.001 A 
ATOM     95  C   UNL A   1      32.952  17.234  23.363  1.00  0.00     0.000 A 
ENDBRANCH  88  90
ENDBRANCH  86  88
ENDBRANCH  77  80
ENDBRANCH  75  76
ENDBRANCH  74  75
ENDBRANCH  73  74
ENDBRANCH   1  73
TORSDOF 15
ENDMDL
