MODEL 1
REMARK VINA RESULT:     -13.7      0.000      0.000
REMARK SMILES Cc1ccc(N2C(=O)C[C@H](Sc3ccccc3C(=O)NCCCCCCNC(=O)c3ccc(-c4c5nc(c(-c6c(F)c(F)c(F)c(F)c6F)c6ccc([nH]6)c(-c6c(F)c(F)c(F)c(F)c6F)c6nc(c(-c7c(F)c(F)c(F)c(F)c7F)c7ccc4[nH]7)C=C6)C=C5)cc3)C2=O)cc1
REMARK SMILES IDX 23 1 22 2 21 3 20 4 18 5 19 6 17 8 12 9 13 10 14 11 16 12
REMARK SMILES IDX 15 13 11 14 10 15 6 16 7 17 93 18 8 19 9 20 94 21 5 22 1 23
REMARK SMILES IDX 2 24 3 25 96 26 4 27 95 28 24 29 25 30 26 31 27 32 28 33
REMARK SMILES IDX 29 35 30 36 31 37 92 38 32 39 91 40 33 41 34 42 35 43 85 44
REMARK SMILES IDX 36 45 90 46 84 47 86 48 37 49 89 50 83 51 82 52 38 54 70 55
REMARK SMILES IDX 50 56 69 57 51 58 54 59 68 60 87 61 52 62 53 63 67 65 88 66
REMARK SMILES IDX 55 67 39 68 40 69 48 70 41 71 42 72 46 73 49 74 43 75 44 76
REMARK SMILES IDX 47 77 45 78 71 79 72 80 80 81 73 82 74 83 78 84 81 85 75 86
REMARK SMILES IDX 76 87 79 88 77 89 56 90 57 91 65 92 58 93 59 94 63 95 66 96
REMARK SMILES IDX 60 97 61 98 64 99 62 100
REMARK H PARENT 20 7 27 34 86 53 54 64
REMARK Flexibility Score: inf
ROOT
ATOM      1  C   UNL A   1      32.446  29.441  24.989  1.00  0.00     0.002 C 
ENDROOT
BRANCH   1   2
ATOM      2  C   UNL A   1      33.493  28.667  24.184  1.00  0.00     0.021 C 
BRANCH   2   3
ATOM      3  C   UNL A   1      33.624  28.920  22.682  1.00  0.00     0.116 C 
BRANCH   3   4
ATOM      4  N   UNL A   1      33.749  27.740  21.846  1.00  0.00    -0.352 N 
ATOM      5  C   UNL A   1      32.889  26.678  21.659  1.00  0.00     0.252 C 
ATOM      6  O   UNL A   1      33.130  25.894  20.747  1.00  0.00    -0.269 OA
ATOM      7  H   UNL A   1      34.586  27.690  21.329  1.00  0.00     0.163 HD
BRANCH   5   8
ATOM      8  C   UNL A   1      31.729  26.454  22.566  1.00  0.00     0.053 A 
ATOM      9  C   UNL A   1      31.659  25.347  23.443  1.00  0.00     0.021 A 
ATOM     10  C   UNL A   1      30.535  25.227  24.282  1.00  0.00     0.016 A 
ATOM     11  C   UNL A   1      29.492  26.156  24.237  1.00  0.00     0.001 A 
ATOM     12  C   UNL A   1      30.641  27.342  22.485  1.00  0.00     0.015 A 
ATOM     13  C   UNL A   1      29.536  27.202  23.326  1.00  0.00     0.001 A 
BRANCH   9  14
ATOM     14  S   UNL A   1      32.728  23.903  23.399  1.00  0.00    -0.111 SA
BRANCH  14  15
ATOM     15  C   UNL A   1      34.269  24.401  24.232  1.00  0.00     0.151 C 
ATOM     16  N   UNL A   1      35.861  22.953  25.142  1.00  0.00    -0.250 N 
ATOM     17  C   UNL A   1      35.063  23.343  26.194  1.00  0.00     0.235 C 
ATOM     18  C   UNL A   1      35.441  23.500  23.948  1.00  0.00     0.247 C 
ATOM     19  O   UNL A   1      35.081  22.964  27.357  1.00  0.00    -0.274 OA
ATOM     20  C   UNL A   1      34.200  24.479  25.736  1.00  0.00     0.126 C 
ATOM     21  O   UNL A   1      35.887  23.294  22.825  1.00  0.00    -0.273 OA
BRANCH  16  22
ATOM     22  C   UNL A   1      37.015  22.139  25.285  1.00  0.00     0.052 A 
ATOM     23  C   UNL A   1      40.443  19.609  26.057  1.00  0.00     0.044 C 
ATOM     24  C   UNL A   1      39.269  20.490  25.751  1.00  0.00    -0.051 A 
ATOM     25  C   UNL A   1      39.288  21.839  26.115  1.00  0.00     0.005 A 
ATOM     26  C   UNL A   1      38.118  19.970  25.154  1.00  0.00     0.005 A 
ATOM     27  C   UNL A   1      38.182  22.659  25.862  1.00  0.00     0.027 A 
ATOM     28  C   UNL A   1      37.000  20.782  24.936  1.00  0.00     0.027 A 
ENDBRANCH  16  22
ENDBRANCH  14  15
ENDBRANCH   9  14
ENDBRANCH   5   8
ENDBRANCH   3   4
ENDBRANCH   2   3
ENDBRANCH   1   2
BRANCH   1  29
ATOM     29  C   UNL A   1      32.086  28.961  26.401  1.00  0.00     0.002 C 
BRANCH  29  30
ATOM     30  C   UNL A   1      32.778  29.649  27.573  1.00  0.00     0.021 C 
BRANCH  30  31
ATOM     31  C   UNL A   1      34.189  30.155  27.300  1.00  0.00     0.116 C 
BRANCH  31  32
ATOM     32  N   UNL A   1      34.701  31.096  28.291  1.00  0.00    -0.352 N 
ATOM     33  C   UNL A   1      35.848  31.004  29.067  1.00  0.00     0.251 C 
ATOM     34  H   UNL A   1      34.158  31.907  28.429  1.00  0.00     0.163 HD
ATOM     35  O   UNL A   1      36.153  31.891  29.848  1.00  0.00    -0.269 OA
BRANCH  33  36
ATOM     36  C   UNL A   1      36.771  29.866  28.839  1.00  0.00     0.039 A 
ATOM     37  C   UNL A   1      36.986  28.966  29.887  1.00  0.00     0.014 A 
ATOM     38  C   UNL A   1      37.571  29.826  27.701  1.00  0.00     0.014 A 
ATOM     39  C   UNL A   1      38.161  28.218  29.909  1.00  0.00     0.010 A 
ATOM     40  C   UNL A   1      38.785  29.173  27.773  1.00  0.00     0.010 A 
ATOM     41  C   UNL A   1      39.115  28.433  28.914  1.00  0.00    -0.014 A 
BRANCH  41  42
ATOM     42  C   UNL A   1      40.519  28.053  29.049  1.00  0.00     0.031 A 
ATOM     43  C   UNL A   1      41.016  26.769  28.512  1.00  0.00     0.074 A 
ATOM     44  C   UNL A   1      41.397  28.942  29.567  1.00  0.00     0.049 A 
ATOM     45  N   UNL A   1      42.162  26.249  28.806  1.00  0.00    -0.248 NA
ATOM     46  C   UNL A   1      40.216  25.925  27.639  1.00  0.00     0.031 C 
ATOM     47  C   UNL A   1      42.855  28.901  29.482  1.00  0.00     0.029 A 
ATOM     48  N   UNL A   1      41.133  29.975  30.484  1.00  0.00    -0.354 N 
ATOM     49  C   UNL A   1      42.366  25.162  27.987  1.00  0.00     0.074 A 
ATOM     50  C   UNL A   1      41.086  24.953  27.352  1.00  0.00     0.031 C 
ATOM     51  C   UNL A   1      43.367  29.608  30.500  1.00  0.00     0.029 A 
ATOM     52  C   UNL A   1      42.258  30.001  31.348  1.00  0.00     0.049 A 
ATOM     53  H   UNL A   1      40.339  30.556  30.518  1.00  0.00     0.167 HD
ATOM     54  C   UNL A   1      43.631  24.653  27.876  1.00  0.00     0.037 A 
ATOM     55  C   UNL A   1      42.138  29.700  32.674  1.00  0.00     0.037 A 
ATOM     56  C   UNL A   1      44.522  25.234  28.886  1.00  0.00     0.049 A 
ATOM     57  C   UNL A   1      42.962  28.520  33.143  1.00  0.00     0.074 A 
ATOM     58  C   UNL A   1      45.527  26.190  28.880  1.00  0.00     0.029 A 
ATOM     59  N   UNL A   1      44.254  24.978  30.221  1.00  0.00    -0.354 N 
ATOM     60  N   UNL A   1      43.660  27.752  32.355  1.00  0.00    -0.248 NA
ATOM     61  C   UNL A   1      42.972  28.049  34.530  1.00  0.00     0.031 C 
ATOM     62  C   UNL A   1      45.846  26.508  30.234  1.00  0.00     0.029 A 
ATOM     63  C   UNL A   1      45.036  25.748  31.056  1.00  0.00     0.049 A 
ATOM     64  H   UNL A   1      43.586  24.326  30.534  1.00  0.00     0.167 HD
ATOM     65  C   UNL A   1      44.140  26.689  33.070  1.00  0.00     0.074 A 
ATOM     66  C   UNL A   1      43.694  26.920  34.430  1.00  0.00     0.031 C 
ATOM     67  C   UNL A   1      44.825  25.665  32.489  1.00  0.00     0.037 A 
BRANCH  54  68
ATOM     68  C   UNL A   1      44.144  23.771  26.746  1.00  0.00     0.064 A 
ATOM     69  C   UNL A   1      43.652  22.452  26.594  1.00  0.00     0.173 A 
ATOM     70  C   UNL A   1      45.160  24.106  25.830  1.00  0.00     0.173 A 
ATOM     71  F   UNL A   1      42.623  21.997  27.320  1.00  0.00    -0.203 F 
ATOM     72  C   UNL A   1      44.200  21.536  25.687  1.00  0.00     0.198 A 
ATOM     73  C   UNL A   1      45.725  23.185  24.941  1.00  0.00     0.198 A 
ATOM     74  F   UNL A   1      45.632  25.346  25.710  1.00  0.00    -0.203 F 
ATOM     75  F   UNL A   1      43.701  20.293  25.616  1.00  0.00    -0.200 F 
ATOM     76  C   UNL A   1      45.256  21.895  24.879  1.00  0.00     0.200 A 
ATOM     77  F   UNL A   1      46.733  23.571  24.144  1.00  0.00    -0.200 F 
ATOM     78  F   UNL A   1      45.803  21.013  24.032  1.00  0.00    -0.200 F 
ENDBRANCH  54  68
BRANCH  55  79
ATOM     79  C   UNL A   1      40.814  30.080  33.232  1.00  0.00     0.064 A 
ATOM     80  C   UNL A   1      40.549  31.444  33.461  1.00  0.00     0.173 A 
ATOM     81  C   UNL A   1      39.724  29.205  33.181  1.00  0.00     0.173 A 
ATOM     82  F   UNL A   1      41.561  32.324  33.516  1.00  0.00    -0.203 F 
ATOM     83  C   UNL A   1      39.245  31.927  33.514  1.00  0.00     0.198 A 
ATOM     84  C   UNL A   1      38.418  29.690  33.253  1.00  0.00     0.198 A 
ATOM     85  F   UNL A   1      39.911  27.899  32.941  1.00  0.00    -0.203 F 
ATOM     86  F   UNL A   1      39.022  33.244  33.614  1.00  0.00    -0.200 F 
ATOM     87  C   UNL A   1      38.180  31.052  33.382  1.00  0.00     0.200 A 
ATOM     88  F   UNL A   1      37.387  28.848  33.094  1.00  0.00    -0.200 F 
ATOM     89  F   UNL A   1      36.926  31.521  33.333  1.00  0.00    -0.200 F 
ENDBRANCH  55  79
BRANCH  67  90
ATOM     90  C   UNL A   1      45.347  24.489  33.252  1.00  0.00     0.064 A 
ATOM     91  C   UNL A   1      44.563  23.353  33.499  1.00  0.00     0.173 A 
ATOM     92  C   UNL A   1      46.614  24.528  33.868  1.00  0.00     0.173 A 
ATOM     93  F   UNL A   1      43.333  23.244  32.974  1.00  0.00    -0.203 F 
ATOM     94  C   UNL A   1      45.025  22.311  34.307  1.00  0.00     0.198 A 
ATOM     95  C   UNL A   1      47.054  23.509  34.709  1.00  0.00     0.198 A 
ATOM     96  F   UNL A   1      47.460  25.545  33.648  1.00  0.00    -0.203 F 
ATOM     97  F   UNL A   1      44.264  21.224  34.492  1.00  0.00    -0.200 F 
ATOM     98  C   UNL A   1      46.262  22.398  34.925  1.00  0.00     0.200 A 
ATOM     99  F   UNL A   1      48.249  23.611  35.308  1.00  0.00    -0.200 F 
ATOM    100  F   UNL A   1      46.691  21.411  35.722  1.00  0.00    -0.200 F 
ENDBRANCH  67  90
ENDBRANCH  41  42
ENDBRANCH  33  36
ENDBRANCH  31  32
ENDBRANCH  30  31
ENDBRANCH  29  30
ENDBRANCH   1  29
TORSDOF 16
ENDMDL
MODEL 2
REMARK VINA RESULT:     -13.7      3.836     10.148
REMARK SMILES Cc1ccc(N2C(=O)C[C@H](Sc3ccccc3C(=O)NCCCCCCNC(=O)c3ccc(-c4c5nc(c(-c6c(F)c(F)c(F)c(F)c6F)c6ccc([nH]6)c(-c6c(F)c(F)c(F)c(F)c6F)c6nc(c(-c7c(F)c(F)c(F)c(F)c7F)c7ccc4[nH]7)C=C6)C=C5)cc3)C2=O)cc1
REMARK SMILES IDX 23 1 22 2 21 3 20 4 18 5 19 6 17 8 12 9 13 10 14 11 16 12
REMARK SMILES IDX 15 13 11 14 10 15 6 16 7 17 93 18 8 19 9 20 94 21 5 22 1 23
REMARK SMILES IDX 2 24 3 25 96 26 4 27 95 28 24 29 25 30 26 31 27 32 28 33
REMARK SMILES IDX 29 35 30 36 31 37 92 38 32 39 91 40 33 41 34 42 35 43 85 44
REMARK SMILES IDX 36 45 90 46 84 47 86 48 37 49 89 50 83 51 82 52 38 54 70 55
REMARK SMILES IDX 50 56 69 57 51 58 54 59 68 60 87 61 52 62 53 63 67 65 88 66
REMARK SMILES IDX 55 67 39 68 40 69 48 70 41 71 42 72 46 73 49 74 43 75 44 76
REMARK SMILES IDX 47 77 45 78 71 79 72 80 80 81 73 82 74 83 78 84 81 85 75 86
REMARK SMILES IDX 76 87 79 88 77 89 56 90 57 91 65 92 58 93 59 94 63 95 66 96
REMARK SMILES IDX 60 97 61 98 64 99 62 100
REMARK H PARENT 20 7 27 34 86 53 54 64
REMARK Flexibility Score: inf
ROOT
ATOM      1  C   UNL A   1      35.874  21.130  25.232  1.00  0.00     0.002 C 
ENDROOT
BRANCH   1   2
ATOM      2  C   UNL A   1      35.180  22.236  26.032  1.00  0.00     0.021 C 
BRANCH   2   3
ATOM      3  C   UNL A   1      34.261  21.859  27.195  1.00  0.00     0.116 C 
BRANCH   3   4
ATOM      4  N   UNL A   1      32.924  22.421  27.157  1.00  0.00    -0.352 N 
ATOM      5  C   UNL A   1      31.867  22.164  26.309  1.00  0.00     0.252 C 
ATOM      6  O   UNL A   1      30.767  22.624  26.601  1.00  0.00    -0.269 OA
ATOM      7  H   UNL A   1      32.742  23.095  27.852  1.00  0.00     0.163 HD
BRANCH   5   8
ATOM      8  C   UNL A   1      32.058  21.398  25.046  1.00  0.00     0.053 A 
ATOM      9  C   UNL A   1      32.093  22.025  23.780  1.00  0.00     0.021 A 
ATOM     10  C   UNL A   1      32.301  21.225  22.640  1.00  0.00     0.016 A 
ATOM     11  C   UNL A   1      32.441  19.838  22.742  1.00  0.00     0.001 A 
ATOM     12  C   UNL A   1      32.132  19.995  25.125  1.00  0.00     0.015 A 
ATOM     13  C   UNL A   1      32.336  19.221  23.982  1.00  0.00     0.001 A 
BRANCH   9  14
ATOM     14  S   UNL A   1      31.610  23.721  23.434  1.00  0.00    -0.111 SA
BRANCH  14  15
ATOM     15  C   UNL A   1      33.063  24.744  23.836  1.00  0.00     0.151 C 
ATOM     16  N   UNL A   1      33.016  26.974  24.529  1.00  0.00    -0.250 N 
ATOM     17  C   UNL A   1      33.259  27.006  23.174  1.00  0.00     0.235 C 
ATOM     18  C   UNL A   1      32.852  25.685  24.991  1.00  0.00     0.247 C 
ATOM     19  O   UNL A   1      33.341  27.973  22.428  1.00  0.00    -0.274 OA
ATOM     20  C   UNL A   1      33.575  25.615  22.717  1.00  0.00     0.126 C 
ATOM     21  O   UNL A   1      32.554  25.322  26.123  1.00  0.00    -0.273 OA
BRANCH  16  22
ATOM     22  C   UNL A   1      33.004  28.127  25.357  1.00  0.00     0.052 A 
ATOM     23  C   UNL A   1      33.162  31.802  27.641  1.00  0.00     0.044 C 
ATOM     24  C   UNL A   1      33.085  30.512  26.880  1.00  0.00    -0.051 A 
ATOM     25  C   UNL A   1      34.152  29.610  26.915  1.00  0.00     0.005 A 
ATOM     26  C   UNL A   1      31.979  30.216  26.079  1.00  0.00     0.005 A 
ATOM     27  C   UNL A   1      34.100  28.420  26.181  1.00  0.00     0.027 A 
ATOM     28  C   UNL A   1      31.945  29.043  25.318  1.00  0.00     0.027 A 
ENDBRANCH  16  22
ENDBRANCH  14  15
ENDBRANCH   9  14
ENDBRANCH   5   8
ENDBRANCH   3   4
ENDBRANCH   2   3
ENDBRANCH   1   2
BRANCH   1  29
ATOM     29  C   UNL A   1      37.221  21.430  24.561  1.00  0.00     0.002 C 
BRANCH  29  30
ATOM     30  C   UNL A   1      38.472  21.340  25.430  1.00  0.00     0.021 C 
BRANCH  30  31
ATOM     31  C   UNL A   1      38.903  22.639  26.098  1.00  0.00     0.116 C 
BRANCH  31  32
ATOM     32  N   UNL A   1      40.337  22.747  26.352  1.00  0.00    -0.352 N 
ATOM     33  C   UNL A   1      41.072  23.862  26.731  1.00  0.00     0.251 C 
ATOM     34  H   UNL A   1      40.853  21.916  26.237  1.00  0.00     0.163 HD
ATOM     35  O   UNL A   1      42.275  23.787  26.922  1.00  0.00    -0.269 OA
BRANCH  33  36
ATOM     36  C   UNL A   1      40.349  25.123  27.027  1.00  0.00     0.039 A 
ATOM     37  C   UNL A   1      40.692  26.269  26.305  1.00  0.00     0.014 A 
ATOM     38  C   UNL A   1      39.522  25.214  28.143  1.00  0.00     0.014 A 
ATOM     39  C   UNL A   1      40.432  27.522  26.856  1.00  0.00     0.010 A 
ATOM     40  C   UNL A   1      39.361  26.447  28.744  1.00  0.00     0.010 A 
ATOM     41  C   UNL A   1      39.888  27.593  28.139  1.00  0.00    -0.014 A 
BRANCH  41  42
ATOM     42  C   UNL A   1      39.964  28.786  28.980  1.00  0.00     0.031 A 
ATOM     43  C   UNL A   1      38.942  29.849  28.888  1.00  0.00     0.074 A 
ATOM     44  C   UNL A   1      40.916  28.859  29.938  1.00  0.00     0.049 A 
ATOM     45  N   UNL A   1      39.068  31.029  29.399  1.00  0.00    -0.248 NA
ATOM     46  C   UNL A   1      37.706  29.683  28.140  1.00  0.00     0.031 C 
ATOM     47  C   UNL A   1      40.959  29.774  31.077  1.00  0.00     0.029 A 
ATOM     48  N   UNL A   1      42.177  28.239  29.945  1.00  0.00    -0.354 N 
ATOM     49  C   UNL A   1      37.861  31.681  29.284  1.00  0.00     0.074 A 
ATOM     50  C   UNL A   1      37.084  30.834  28.410  1.00  0.00     0.031 C 
ATOM     51  C   UNL A   1      42.233  29.903  31.478  1.00  0.00     0.029 A 
ATOM     52  C   UNL A   1      43.057  29.191  30.519  1.00  0.00     0.049 A 
ATOM     53  H   UNL A   1      42.403  27.336  29.620  1.00  0.00     0.167 HD
ATOM     54  C   UNL A   1      37.647  32.802  30.037  1.00  0.00     0.037 A 
ATOM     55  C   UNL A   1      44.074  29.743  29.795  1.00  0.00     0.037 A 
ATOM     56  C   UNL A   1      38.891  33.257  30.669  1.00  0.00     0.049 A 
ATOM     57  C   UNL A   1      44.017  31.249  29.651  1.00  0.00     0.074 A 
ATOM     58  C   UNL A   1      39.424  33.199  31.948  1.00  0.00     0.029 A 
ATOM     59  N   UNL A   1      39.922  33.687  29.850  1.00  0.00    -0.354 N 
ATOM     60  N   UNL A   1      43.033  31.991  30.073  1.00  0.00    -0.248 NA
ATOM     61  C   UNL A   1      45.022  32.023  28.916  1.00  0.00     0.031 C 
ATOM     62  C   UNL A   1      40.794  33.590  31.877  1.00  0.00     0.029 A 
ATOM     63  C   UNL A   1      41.089  33.883  30.558  1.00  0.00     0.049 A 
ATOM     64  H   UNL A   1      39.832  33.833  28.881  1.00  0.00     0.167 HD
ATOM     65  C   UNL A   1      43.214  33.274  29.634  1.00  0.00     0.074 A 
ATOM     66  C   UNL A   1      44.478  33.251  28.923  1.00  0.00     0.031 C 
ATOM     67  C   UNL A   1      42.293  34.255  29.839  1.00  0.00     0.037 A 
BRANCH  54  68
ATOM     68  C   UNL A   1      36.291  33.404  30.380  1.00  0.00     0.064 A 
ATOM     69  C   UNL A   1      35.496  33.990  29.365  1.00  0.00     0.173 A 
ATOM     70  C   UNL A   1      35.738  33.520  31.669  1.00  0.00     0.173 A 
ATOM     71  F   UNL A   1      35.826  33.894  28.070  1.00  0.00    -0.203 F 
ATOM     72  C   UNL A   1      34.324  34.708  29.635  1.00  0.00     0.198 A 
ATOM     73  C   UNL A   1      34.581  34.256  31.944  1.00  0.00     0.198 A 
ATOM     74  F   UNL A   1      36.254  32.893  32.726  1.00  0.00    -0.203 F 
ATOM     75  F   UNL A   1      33.636  35.260  28.625  1.00  0.00    -0.200 F 
ATOM     76  C   UNL A   1      33.880  34.864  30.929  1.00  0.00     0.200 A 
ATOM     77  F   UNL A   1      34.155  34.366  33.211  1.00  0.00    -0.200 F 
ATOM     78  F   UNL A   1      32.777  35.575  31.195  1.00  0.00    -0.200 F 
ENDBRANCH  54  68
BRANCH  55  79
ATOM     79  C   UNL A   1      44.616  28.816  28.769  1.00  0.00     0.064 A 
ATOM     80  C   UNL A   1      45.455  27.766  29.188  1.00  0.00     0.173 A 
ATOM     81  C   UNL A   1      44.042  28.720  27.497  1.00  0.00     0.173 A 
ATOM     82  F   UNL A   1      46.029  27.810  30.402  1.00  0.00    -0.203 F 
ATOM     83  C   UNL A   1      45.612  26.616  28.421  1.00  0.00     0.198 A 
ATOM     84  C   UNL A   1      44.215  27.574  26.722  1.00  0.00     0.198 A 
ATOM     85  F   UNL A   1      43.214  29.676  27.051  1.00  0.00    -0.203 F 
ATOM     86  F   UNL A   1      46.319  25.583  28.898  1.00  0.00    -0.200 F 
ATOM     87  C   UNL A   1      44.968  26.509  27.199  1.00  0.00     0.200 A 
ATOM     88  F   UNL A   1      43.568  27.457  25.554  1.00  0.00    -0.200 F 
ATOM     89  F   UNL A   1      45.034  25.368  26.501  1.00  0.00    -0.200 F 
ENDBRANCH  55  79
BRANCH  67  90
ATOM     90  C   UNL A   1      42.468  35.661  29.357  1.00  0.00     0.064 A 
ATOM     91  C   UNL A   1      41.900  36.114  28.157  1.00  0.00     0.173 A 
ATOM     92  C   UNL A   1      43.323  36.557  30.028  1.00  0.00     0.173 A 
ATOM     93  F   UNL A   1      41.095  35.317  27.440  1.00  0.00    -0.203 F 
ATOM     94  C   UNL A   1      42.164  37.394  27.665  1.00  0.00     0.198 A 
ATOM     95  C   UNL A   1      43.621  37.815  29.513  1.00  0.00     0.198 A 
ATOM     96  F   UNL A   1      43.871  36.238  31.211  1.00  0.00    -0.203 F 
ATOM     97  F   UNL A   1      41.576  37.807  26.534  1.00  0.00    -0.200 F 
ATOM     98  C   UNL A   1      43.038  38.236  28.333  1.00  0.00     0.200 A 
ATOM     99  F   UNL A   1      44.476  38.616  30.165  1.00  0.00    -0.200 F 
ATOM    100  F   UNL A   1      43.312  39.453  27.844  1.00  0.00    -0.200 F 
ENDBRANCH  67  90
ENDBRANCH  41  42
ENDBRANCH  33  36
ENDBRANCH  31  32
ENDBRANCH  30  31
ENDBRANCH  29  30
ENDBRANCH   1  29
TORSDOF 16
ENDMDL
MODEL 3
REMARK VINA RESULT:     -13.2      1.989      2.514
REMARK SMILES Cc1ccc(N2C(=O)C[C@H](Sc3ccccc3C(=O)NCCCCCCNC(=O)c3ccc(-c4c5nc(c(-c6c(F)c(F)c(F)c(F)c6F)c6ccc([nH]6)c(-c6c(F)c(F)c(F)c(F)c6F)c6nc(c(-c7c(F)c(F)c(F)c(F)c7F)c7ccc4[nH]7)C=C6)C=C5)cc3)C2=O)cc1
REMARK SMILES IDX 23 1 22 2 21 3 20 4 18 5 19 6 17 8 12 9 13 10 14 11 16 12
REMARK SMILES IDX 15 13 11 14 10 15 6 16 7 17 93 18 8 19 9 20 94 21 5 22 1 23
REMARK SMILES IDX 2 24 3 25 96 26 4 27 95 28 24 29 25 30 26 31 27 32 28 33
REMARK SMILES IDX 29 35 30 36 31 37 92 38 32 39 91 40 33 41 34 42 35 43 85 44
REMARK SMILES IDX 36 45 90 46 84 47 86 48 37 49 89 50 83 51 82 52 38 54 70 55
REMARK SMILES IDX 50 56 69 57 51 58 54 59 68 60 87 61 52 62 53 63 67 65 88 66
REMARK SMILES IDX 55 67 39 68 40 69 48 70 41 71 42 72 46 73 49 74 43 75 44 76
REMARK SMILES IDX 47 77 45 78 71 79 72 80 80 81 73 82 74 83 78 84 81 85 75 86
REMARK SMILES IDX 76 87 79 88 77 89 56 90 57 91 65 92 58 93 59 94 63 95 66 96
REMARK SMILES IDX 60 97 61 98 64 99 62 100
REMARK H PARENT 20 7 27 34 86 53 54 64
REMARK Flexibility Score: inf
ROOT
ATOM      1  C   UNL A   1      34.168  28.718  26.754  1.00  0.00     0.002 C 
ENDROOT
BRANCH   1   2
ATOM      2  C   UNL A   1      33.233  27.510  26.863  1.00  0.00     0.021 C 
BRANCH   2   3
ATOM      3  C   UNL A   1      31.721  27.721  26.791  1.00  0.00     0.116 C 
BRANCH   3   4
ATOM      4  N   UNL A   1      30.906  26.523  26.874  1.00  0.00    -0.352 N 
ATOM      5  C   UNL A   1      30.720  25.501  25.967  1.00  0.00     0.252 C 
ATOM      6  O   UNL A   1      30.133  24.492  26.346  1.00  0.00    -0.269 OA
ATOM      7  H   UNL A   1      30.406  26.424  27.716  1.00  0.00     0.163 HD
BRANCH   5   8
ATOM      8  C   UNL A   1      31.167  25.632  24.552  1.00  0.00     0.053 A 
ATOM      9  C   UNL A   1      32.287  24.935  24.046  1.00  0.00     0.021 A 
ATOM     10  C   UNL A   1      32.625  25.101  22.689  1.00  0.00     0.016 A 
ATOM     11  C   UNL A   1      31.896  25.957  21.859  1.00  0.00     0.001 A 
ATOM     12  C   UNL A   1      30.486  26.541  23.721  1.00  0.00     0.015 A 
ATOM     13  C   UNL A   1      30.838  26.691  22.380  1.00  0.00     0.001 A 
BRANCH   9  14
ATOM     14  S   UNL A   1      33.516  24.068  25.030  1.00  0.00    -0.111 SA
BRANCH  14  15
ATOM     15  C   UNL A   1      34.096  22.685  23.995  1.00  0.00     0.151 C 
ATOM     16  N   UNL A   1      34.105  20.430  24.605  1.00  0.00    -0.250 N 
ATOM     17  C   UNL A   1      35.378  20.892  24.854  1.00  0.00     0.235 C 
ATOM     18  C   UNL A   1      33.279  21.429  24.134  1.00  0.00     0.247 C 
ATOM     19  O   UNL A   1      36.320  20.312  25.376  1.00  0.00    -0.274 OA
ATOM     20  C   UNL A   1      35.519  22.247  24.231  1.00  0.00     0.126 C 
ATOM     21  O   UNL A   1      32.080  21.363  23.888  1.00  0.00    -0.273 OA
BRANCH  16  22
ATOM     22  C   UNL A   1      33.713  19.074  24.755  1.00  0.00     0.052 A 
ATOM     23  C   UNL A   1      32.822  14.883  25.376  1.00  0.00     0.044 C 
ATOM     24  C   UNL A   1      33.095  16.338  25.141  1.00  0.00    -0.051 A 
ATOM     25  C   UNL A   1      33.925  16.738  24.090  1.00  0.00     0.005 A 
ATOM     26  C   UNL A   1      32.577  17.313  25.998  1.00  0.00     0.005 A 
ATOM     27  C   UNL A   1      34.210  18.093  23.886  1.00  0.00     0.027 A 
ATOM     28  C   UNL A   1      32.893  18.663  25.814  1.00  0.00     0.027 A 
ENDBRANCH  16  22
ENDBRANCH  14  15
ENDBRANCH   9  14
ENDBRANCH   5   8
ENDBRANCH   3   4
ENDBRANCH   2   3
ENDBRANCH   1   2
BRANCH   1  29
ATOM     29  C   UNL A   1      33.568  30.102  26.475  1.00  0.00     0.002 C 
BRANCH  29  30
ATOM     30  C   UNL A   1      33.553  31.104  27.626  1.00  0.00     0.021 C 
BRANCH  30  31
ATOM     31  C   UNL A   1      34.864  31.839  27.875  1.00  0.00     0.116 C 
BRANCH  31  32
ATOM     32  N   UNL A   1      35.115  32.182  29.272  1.00  0.00    -0.352 N 
ATOM     33  C   UNL A   1      35.923  31.533  30.195  1.00  0.00     0.251 C 
ATOM     34  H   UNL A   1      34.646  32.982  29.605  1.00  0.00     0.163 HD
ATOM     35  O   UNL A   1      36.043  31.956  31.334  1.00  0.00    -0.269 OA
BRANCH  33  36
ATOM     36  C   UNL A   1      36.744  30.385  29.738  1.00  0.00     0.039 A 
ATOM     37  C   UNL A   1      36.930  29.313  30.616  1.00  0.00     0.014 A 
ATOM     38  C   UNL A   1      37.491  30.476  28.568  1.00  0.00     0.014 A 
ATOM     39  C   UNL A   1      38.044  28.491  30.455  1.00  0.00     0.010 A 
ATOM     40  C   UNL A   1      38.652  29.736  28.469  1.00  0.00     0.010 A 
ATOM     41  C   UNL A   1      38.970  28.798  29.458  1.00  0.00    -0.014 A 
BRANCH  41  42
ATOM     42  C   UNL A   1      40.345  28.303  29.455  1.00  0.00     0.031 A 
ATOM     43  C   UNL A   1      40.673  26.968  28.913  1.00  0.00     0.074 A 
ATOM     44  C   UNL A   1      41.344  29.127  29.846  1.00  0.00     0.049 A 
ATOM     45  N   UNL A   1      41.797  26.360  29.101  1.00  0.00    -0.248 NA
ATOM     46  C   UNL A   1      39.715  26.173  28.161  1.00  0.00     0.031 C 
ATOM     47  C   UNL A   1      42.776  28.959  29.606  1.00  0.00     0.029 A 
ATOM     48  N   UNL A   1      41.268  30.202  30.749  1.00  0.00    -0.354 N 
ATOM     49  C   UNL A   1      41.821  25.239  28.303  1.00  0.00     0.074 A 
ATOM     50  C   UNL A   1      40.466  25.123  27.817  1.00  0.00     0.031 C 
ATOM     51  C   UNL A   1      43.452  29.646  30.539  1.00  0.00     0.029 A 
ATOM     52  C   UNL A   1      42.478  30.154  31.487  1.00  0.00     0.049 A 
ATOM     53  H   UNL A   1      40.533  30.850  30.848  1.00  0.00     0.167 HD
ATOM     54  C   UNL A   1      43.019  24.621  28.076  1.00  0.00     0.037 A 
ATOM     55  C   UNL A   1      42.479  29.898  32.828  1.00  0.00     0.037 A 
ATOM     56  C   UNL A   1      44.061  25.150  28.964  1.00  0.00     0.049 A 
ATOM     57  C   UNL A   1      43.251  28.665  33.246  1.00  0.00     0.074 A 
ATOM     58  C   UNL A   1      45.133  26.015  28.818  1.00  0.00     0.029 A 
ATOM     59  N   UNL A   1      43.920  24.951  30.328  1.00  0.00    -0.354 N 
ATOM     60  N   UNL A   1      43.793  27.820  32.416  1.00  0.00    -0.248 NA
ATOM     61  C   UNL A   1      43.374  28.230  34.640  1.00  0.00     0.031 C 
ATOM     62  C   UNL A   1      45.624  26.340  30.117  1.00  0.00     0.029 A 
ATOM     63  C   UNL A   1      44.849  25.673  31.047  1.00  0.00     0.049 A 
ATOM     64  H   UNL A   1      43.239  24.367  30.733  1.00  0.00     0.167 HD
ATOM     65  C   UNL A   1      44.259  26.739  33.112  1.00  0.00     0.074 A 
ATOM     66  C   UNL A   1      43.985  27.042  34.502  1.00  0.00     0.031 C 
ATOM     67  C   UNL A   1      44.790  25.645  32.497  1.00  0.00     0.037 A 
BRANCH  54  68
ATOM     68  C   UNL A   1      43.332  23.670  26.928  1.00  0.00     0.064 A 
ATOM     69  C   UNL A   1      42.880  22.329  26.973  1.00  0.00     0.173 A 
ATOM     70  C   UNL A   1      44.125  23.963  25.802  1.00  0.00     0.173 A 
ATOM     71  F   UNL A   1      42.041  21.900  27.926  1.00  0.00    -0.203 F 
ATOM     72  C   UNL A   1      43.273  21.361  26.040  1.00  0.00     0.198 A 
ATOM     73  C   UNL A   1      44.538  22.993  24.882  1.00  0.00     0.198 A 
ATOM     74  F   UNL A   1      44.505  25.204  25.500  1.00  0.00    -0.203 F 
ATOM     75  F   UNL A   1      42.828  20.102  26.160  1.00  0.00    -0.200 F 
ATOM     76  C   UNL A   1      44.125  21.688  25.008  1.00  0.00     0.200 A 
ATOM     77  F   UNL A   1      45.344  23.346  23.870  1.00  0.00    -0.200 F 
ATOM     78  F   UNL A   1      44.528  20.760  24.131  1.00  0.00    -0.200 F 
ENDBRANCH  54  68
BRANCH  55  79
ATOM     79  C   UNL A   1      41.261  30.404  33.510  1.00  0.00     0.064 A 
ATOM     80  C   UNL A   1      41.180  31.778  33.809  1.00  0.00     0.173 A 
ATOM     81  C   UNL A   1      40.073  29.665  33.523  1.00  0.00     0.173 A 
ATOM     82  F   UNL A   1      42.291  32.531  33.806  1.00  0.00    -0.203 F 
ATOM     83  C   UNL A   1      39.951  32.406  33.990  1.00  0.00     0.198 A 
ATOM     84  C   UNL A   1      38.845  30.295  33.724  1.00  0.00     0.198 A 
ATOM     85  F   UNL A   1      40.083  28.358  33.223  1.00  0.00    -0.203 F 
ATOM     86  F   UNL A   1      39.896  33.735  34.154  1.00  0.00    -0.200 F 
ATOM     87  C   UNL A   1      38.782  31.668  33.920  1.00  0.00     0.200 A 
ATOM     88  F   UNL A   1      37.712  29.586  33.625  1.00  0.00    -0.200 F 
ATOM     89  F   UNL A   1      37.594  32.281  33.995  1.00  0.00    -0.200 F 
ENDBRANCH  55  79
BRANCH  67  90
ATOM     90  C   UNL A   1      45.294  24.449  33.240  1.00  0.00     0.064 A 
ATOM     91  C   UNL A   1      44.487  23.328  33.483  1.00  0.00     0.173 A 
ATOM     92  C   UNL A   1      46.569  24.452  33.841  1.00  0.00     0.173 A 
ATOM     93  F   UNL A   1      43.250  23.253  32.971  1.00  0.00    -0.203 F 
ATOM     94  C   UNL A   1      44.935  22.267  34.273  1.00  0.00     0.198 A 
ATOM     95  C   UNL A   1      46.995  23.414  34.665  1.00  0.00     0.198 A 
ATOM     96  F   UNL A   1      47.435  25.453  33.623  1.00  0.00    -0.203 F 
ATOM     97  F   UNL A   1      44.152  21.195  34.455  1.00  0.00    -0.200 F 
ATOM     98  C   UNL A   1      46.181  22.318  34.878  1.00  0.00     0.200 A 
ATOM     99  F   UNL A   1      48.199  23.482  35.252  1.00  0.00    -0.200 F 
ATOM    100  F   UNL A   1      46.597  21.312  35.658  1.00  0.00    -0.200 F 
ENDBRANCH  67  90
ENDBRANCH  41  42
ENDBRANCH  33  36
ENDBRANCH  31  32
ENDBRANCH  30  31
ENDBRANCH  29  30
ENDBRANCH   1  29
TORSDOF 16
ENDMDL
