MODEL 1
REMARK VINA RESULT:     -11.7      0.000      0.000
REMARK SMILES CC(C)(O)C#Cc1ccc(C(=O)N[C@@H](CCC(N)=O)C(=O)NCCCCCCNC(=O)c2ccc(-c3c4nc(c(-c5c(F)c(F)c(F)c(F)c5F)c5ccc([nH]5)c(-c5c(F)c(F)c(F)c(F)c5F)c5nc(c(-c6c(F)c(F)c(F)c(F)c6F)c6ccc3[nH]6)C=C5)C=C4)cc2)s1
REMARK SMILES IDX 24 1 23 2 22 3 20 4 21 5 14 7 13 8 11 9 12 10 10 12 7 13
REMARK SMILES IDX 8 14 95 15 9 16 6 17 5 18 2 19 1 20 3 21 4 22 15 24 16 25
REMARK SMILES IDX 17 26 18 27 19 28 25 31 26 32 27 33 28 34 29 35 30 36 31 38
REMARK SMILES IDX 32 39 33 40 94 41 34 42 93 43 35 44 36 45 37 46 87 47 38 48
REMARK SMILES IDX 92 49 86 50 88 51 39 52 91 53 85 54 84 55 40 57 72 58 52 59
REMARK SMILES IDX 71 60 53 61 56 62 70 63 89 64 54 65 55 66 69 68 90 69 57 70
REMARK SMILES IDX 41 71 42 72 50 73 43 74 44 75 48 76 51 77 45 78 46 79 49 80
REMARK SMILES IDX 47 81 73 82 74 83 82 84 75 85 76 86 80 87 83 88 77 89 78 90
REMARK SMILES IDX 81 91 79 92 58 93 59 94 67 95 60 96 61 97 65 98 68 99 62 100
REMARK SMILES IDX 63 101 66 102 64 103
REMARK H PARENT 22 6 13 11 4 23 18 29 18 30 29 37 88 56 56 67
REMARK Flexibility Score: inf
ROOT
ATOM      1  C   UNL A   1      38.181  23.261  26.036  1.00  0.00     0.021 C 
ENDROOT
BRANCH   1   2
ATOM      2  C   UNL A   1      36.686  23.412  25.803  1.00  0.00     0.116 C 
BRANCH   2   3
ATOM      3  N   UNL A   1      35.907  22.458  26.550  1.00  0.00    -0.354 N 
ATOM      4  C   UNL A   1      34.603  22.092  26.462  1.00  0.00     0.242 C 
ATOM      5  O   UNL A   1      34.264  21.106  27.125  1.00  0.00    -0.273 OA
ATOM      6  H   UNL A   1      36.411  21.985  27.251  1.00  0.00     0.163 HD
BRANCH   4   7
ATOM      7  C   UNL A   1      33.580  22.808  25.554  1.00  0.00     0.172 C 
BRANCH   7   8
ATOM      8  N   UNL A   1      33.822  22.669  24.105  1.00  0.00    -0.340 N 
ATOM      9  C   UNL A   1      34.060  23.641  23.152  1.00  0.00     0.262 C 
ATOM     10  O   UNL A   1      34.516  23.256  22.076  1.00  0.00    -0.268 OA
ATOM     11  H   UNL A   1      33.812  21.744  23.766  1.00  0.00     0.164 HD
BRANCH   9  12
ATOM     12  C   UNL A   1      33.843  25.038  23.457  1.00  0.00     0.093 A 
ATOM     13  C   UNL A   1      32.744  27.191  23.492  1.00  0.00     0.078 A 
ATOM     14  C   UNL A   1      33.434  26.979  24.664  1.00  0.00     0.030 A 
ATOM     15  S   UNL A   1      33.330  26.162  22.267  1.00  0.00    -0.121 S 
ATOM     16  C   UNL A   1      34.111  25.718  24.634  1.00  0.00     0.027 A 
BRANCH  13  17
ATOM     17  C   UNL A   1      31.756  28.172  23.241  1.00  0.00    -0.053 C 
ATOM     18  C   UNL A   1      30.723  28.949  23.073  1.00  0.00    -0.063 C 
BRANCH  18  19
ATOM     19  C   UNL A   1      29.518  29.854  22.878  1.00  0.00     0.120 C 
ATOM     20  C   UNL A   1      28.233  29.063  23.110  1.00  0.00     0.056 C 
ATOM     21  C   UNL A   1      29.550  30.462  21.477  1.00  0.00     0.056 C 
BRANCH  19  22
ATOM     22  O   UNL A   1      29.592  30.903  23.839  1.00  0.00    -0.378 OA
ATOM     23  H   UNL A   1      28.746  31.377  23.868  1.00  0.00     0.212 HD
ENDBRANCH  19  22
ENDBRANCH  18  19
ENDBRANCH  13  17
ENDBRANCH   9  12
ENDBRANCH   7   8
BRANCH   7  24
ATOM     24  C   UNL A   1      32.083  22.689  25.903  1.00  0.00     0.045 C 
BRANCH  24  25
ATOM     25  C   UNL A   1      31.108  23.720  25.340  1.00  0.00     0.102 C 
BRANCH  25  26
ATOM     26  C   UNL A   1      30.262  24.385  26.405  1.00  0.00     0.217 C 
ATOM     27  N   UNL A   1      30.252  25.747  26.360  1.00  0.00    -0.370 N 
ATOM     28  O   UNL A   1      29.618  23.789  27.255  1.00  0.00    -0.275 OA
ATOM     29  H   UNL A   1      30.774  26.220  25.671  1.00  0.00     0.159 HD
ATOM     30  H   UNL A   1      29.723  26.258  27.013  1.00  0.00     0.159 HD
ENDBRANCH  25  26
ENDBRANCH  24  25
ENDBRANCH   7  24
ENDBRANCH   4   7
ENDBRANCH   2   3
ENDBRANCH   1   2
BRANCH   1  31
ATOM     31  C   UNL A   1      38.706  21.840  25.828  1.00  0.00     0.002 C 
BRANCH  31  32
ATOM     32  C   UNL A   1      40.017  21.464  26.528  1.00  0.00     0.002 C 
BRANCH  32  33
ATOM     33  C   UNL A   1      40.620  20.074  26.279  1.00  0.00     0.021 C 
BRANCH  33  34
ATOM     34  C   UNL A   1      41.918  19.751  27.006  1.00  0.00     0.116 C 
BRANCH  34  35
ATOM     35  N   UNL A   1      43.031  19.477  26.108  1.00  0.00    -0.352 N 
ATOM     36  C   UNL A   1      43.775  20.370  25.364  1.00  0.00     0.251 C 
ATOM     37  H   UNL A   1      43.287  18.530  26.020  1.00  0.00     0.163 HD
ATOM     38  O   UNL A   1      44.435  19.991  24.405  1.00  0.00    -0.269 OA
BRANCH  36  39
ATOM     39  C   UNL A   1      43.748  21.799  25.727  1.00  0.00     0.039 A 
ATOM     40  C   UNL A   1      42.987  22.708  24.997  1.00  0.00     0.014 A 
ATOM     41  C   UNL A   1      44.459  22.220  26.847  1.00  0.00     0.014 A 
ATOM     42  C   UNL A   1      42.870  24.015  25.468  1.00  0.00     0.010 A 
ATOM     43  C   UNL A   1      44.238  23.469  27.384  1.00  0.00     0.010 A 
ATOM     44  C   UNL A   1      43.468  24.389  26.686  1.00  0.00    -0.014 A 
BRANCH  44  45
ATOM     45  C   UNL A   1      43.222  25.722  27.237  1.00  0.00     0.031 A 
ATOM     46  C   UNL A   1      44.187  26.778  26.830  1.00  0.00     0.074 A 
ATOM     47  C   UNL A   1      42.141  26.086  27.960  1.00  0.00     0.049 A 
ATOM     48  N   UNL A   1      45.097  27.328  27.564  1.00  0.00    -0.248 NA
ATOM     49  C   UNL A   1      44.195  27.230  25.431  1.00  0.00     0.031 C 
ATOM     50  C   UNL A   1      40.904  25.332  28.191  1.00  0.00     0.029 A 
ATOM     51  N   UNL A   1      41.898  27.274  28.595  1.00  0.00    -0.354 N 
ATOM     52  C   UNL A   1      45.672  28.327  26.786  1.00  0.00     0.074 A 
ATOM     53  C   UNL A   1      45.183  28.131  25.446  1.00  0.00     0.031 C 
ATOM     54  C   UNL A   1      39.965  26.151  28.710  1.00  0.00     0.029 A 
ATOM     55  C   UNL A   1      40.596  27.414  29.043  1.00  0.00     0.049 A 
ATOM     56  H   UNL A   1      42.586  27.966  28.720  1.00  0.00     0.167 HD
ATOM     57  C   UNL A   1      46.311  29.380  27.371  1.00  0.00     0.037 A 
ATOM     58  C   UNL A   1      40.053  28.475  29.680  1.00  0.00     0.037 A 
ATOM     59  C   UNL A   1      46.498  29.161  28.781  1.00  0.00     0.049 A 
ATOM     60  C   UNL A   1      41.135  29.217  30.361  1.00  0.00     0.074 A 
ATOM     61  C   UNL A   1      47.392  28.514  29.601  1.00  0.00     0.029 A 
ATOM     62  N   UNL A   1      45.393  29.450  29.530  1.00  0.00    -0.354 N 
ATOM     63  N   UNL A   1      41.835  28.730  31.349  1.00  0.00    -0.248 NA
ATOM     64  C   UNL A   1      41.659  30.443  29.769  1.00  0.00     0.031 C 
ATOM     65  C   UNL A   1      46.720  28.303  30.845  1.00  0.00     0.029 A 
ATOM     66  C   UNL A   1      45.437  28.836  30.752  1.00  0.00     0.049 A 
ATOM     67  H   UNL A   1      44.656  30.029  29.228  1.00  0.00     0.167 HD
ATOM     68  C   UNL A   1      43.069  29.329  31.215  1.00  0.00     0.074 A 
ATOM     69  C   UNL A   1      42.849  30.494  30.372  1.00  0.00     0.031 C 
ATOM     70  C   UNL A   1      44.215  28.647  31.497  1.00  0.00     0.037 A 
BRANCH  57  71
ATOM     71  C   UNL A   1      46.369  30.789  26.829  1.00  0.00     0.064 A 
ATOM     72  C   UNL A   1      47.601  31.478  26.839  1.00  0.00     0.173 A 
ATOM     73  C   UNL A   1      45.225  31.589  26.625  1.00  0.00     0.173 A 
ATOM     74  F   UNL A   1      48.751  30.818  27.047  1.00  0.00    -0.203 F 
ATOM     75  C   UNL A   1      47.672  32.869  26.721  1.00  0.00     0.198 A 
ATOM     76  C   UNL A   1      45.306  32.972  26.455  1.00  0.00     0.198 A 
ATOM     77  F   UNL A   1      43.989  31.084  26.701  1.00  0.00    -0.203 F 
ATOM     78  F   UNL A   1      48.852  33.492  26.854  1.00  0.00    -0.200 F 
ATOM     79  C   UNL A   1      46.524  33.615  26.533  1.00  0.00     0.200 A 
ATOM     80  F   UNL A   1      44.180  33.683  26.298  1.00  0.00    -0.200 F 
ATOM     81  F   UNL A   1      46.583  34.952  26.475  1.00  0.00    -0.200 F 
ENDBRANCH  57  71
BRANCH  58  82
ATOM     82  C   UNL A   1      38.664  28.968  29.598  1.00  0.00     0.064 A 
ATOM     83  C   UNL A   1      37.895  29.170  30.752  1.00  0.00     0.173 A 
ATOM     84  C   UNL A   1      38.166  29.512  28.398  1.00  0.00     0.173 A 
ATOM     85  F   UNL A   1      38.322  28.708  31.936  1.00  0.00    -0.203 F 
ATOM     86  C   UNL A   1      36.713  29.914  30.717  1.00  0.00     0.198 A 
ATOM     87  C   UNL A   1      36.982  30.248  28.365  1.00  0.00     0.198 A 
ATOM     88  F   UNL A   1      38.868  29.420  27.259  1.00  0.00    -0.203 F 
ATOM     89  F   UNL A   1      36.040  30.148  31.852  1.00  0.00    -0.200 F 
ATOM     90  C   UNL A   1      36.266  30.464  29.527  1.00  0.00     0.200 A 
ATOM     91  F   UNL A   1      36.577  30.802  27.213  1.00  0.00    -0.200 F 
ATOM     92  F   UNL A   1      35.171  31.236  29.508  1.00  0.00    -0.200 F 
ENDBRANCH  58  82
BRANCH  70  93
ATOM     93  C   UNL A   1      44.132  27.530  32.485  1.00  0.00     0.064 A 
ATOM     94  C   UNL A   1      43.997  27.703  33.871  1.00  0.00     0.173 A 
ATOM     95  C   UNL A   1      44.146  26.218  31.992  1.00  0.00     0.173 A 
ATOM     96  F   UNL A   1      43.899  28.926  34.407  1.00  0.00    -0.203 F 
ATOM     97  C   UNL A   1      43.928  26.604  34.728  1.00  0.00     0.198 A 
ATOM     98  C   UNL A   1      44.042  25.124  32.845  1.00  0.00     0.198 A 
ATOM     99  F   UNL A   1      44.235  25.997  30.670  1.00  0.00    -0.203 F 
ATOM    100  F   UNL A   1      43.828  26.790  36.052  1.00  0.00    -0.200 F 
ATOM    101  C   UNL A   1      43.948  25.317  34.213  1.00  0.00     0.200 A 
ATOM    102  F   UNL A   1      44.024  23.883  32.339  1.00  0.00    -0.200 F 
ATOM    103  F   UNL A   1      43.858  24.261  35.034  1.00  0.00    -0.200 F 
ENDBRANCH  70  93
ENDBRANCH  44  45
ENDBRANCH  36  39
ENDBRANCH  34  35
ENDBRANCH  33  34
ENDBRANCH  32  33
ENDBRANCH  31  32
ENDBRANCH   1  31
TORSDOF 21
ENDMDL
MODEL 2
REMARK VINA RESULT:     -11.5      1.123      2.015
REMARK SMILES CC(C)(O)C#Cc1ccc(C(=O)N[C@@H](CCC(N)=O)C(=O)NCCCCCCNC(=O)c2ccc(-c3c4nc(c(-c5c(F)c(F)c(F)c(F)c5F)c5ccc([nH]5)c(-c5c(F)c(F)c(F)c(F)c5F)c5nc(c(-c6c(F)c(F)c(F)c(F)c6F)c6ccc3[nH]6)C=C5)C=C4)cc2)s1
REMARK SMILES IDX 24 1 23 2 22 3 20 4 21 5 14 7 13 8 11 9 12 10 10 12 7 13
REMARK SMILES IDX 8 14 95 15 9 16 6 17 5 18 2 19 1 20 3 21 4 22 15 24 16 25
REMARK SMILES IDX 17 26 18 27 19 28 25 31 26 32 27 33 28 34 29 35 30 36 31 38
REMARK SMILES IDX 32 39 33 40 94 41 34 42 93 43 35 44 36 45 37 46 87 47 38 48
REMARK SMILES IDX 92 49 86 50 88 51 39 52 91 53 85 54 84 55 40 57 72 58 52 59
REMARK SMILES IDX 71 60 53 61 56 62 70 63 89 64 54 65 55 66 69 68 90 69 57 70
REMARK SMILES IDX 41 71 42 72 50 73 43 74 44 75 48 76 51 77 45 78 46 79 49 80
REMARK SMILES IDX 47 81 73 82 74 83 82 84 75 85 76 86 80 87 83 88 77 89 78 90
REMARK SMILES IDX 81 91 79 92 58 93 59 94 67 95 60 96 61 97 65 98 68 99 62 100
REMARK SMILES IDX 63 101 66 102 64 103
REMARK H PARENT 22 6 13 11 4 23 18 29 18 30 29 37 88 56 56 67
REMARK Flexibility Score: inf
ROOT
ATOM      1  C   UNL A   1      38.335  23.275  26.087  1.00  0.00     0.021 C 
ENDROOT
BRANCH   1   2
ATOM      2  C   UNL A   1      36.853  23.466  25.809  1.00  0.00     0.116 C 
BRANCH   2   3
ATOM      3  N   UNL A   1      36.022  23.054  26.910  1.00  0.00    -0.354 N 
ATOM      4  C   UNL A   1      34.680  22.883  27.013  1.00  0.00     0.242 C 
ATOM      5  O   UNL A   1      34.273  22.342  28.047  1.00  0.00    -0.273 OA
ATOM      6  H   UNL A   1      36.517  22.860  27.739  1.00  0.00     0.163 HD
BRANCH   4   7
ATOM      7  C   UNL A   1      33.686  23.281  25.901  1.00  0.00     0.172 C 
BRANCH   7   8
ATOM      8  N   UNL A   1      32.996  22.155  25.245  1.00  0.00    -0.340 N 
ATOM      9  C   UNL A   1      32.452  22.069  23.978  1.00  0.00     0.262 C 
ATOM     10  O   UNL A   1      32.192  20.938  23.565  1.00  0.00    -0.268 OA
ATOM     11  H   UNL A   1      32.908  21.341  25.794  1.00  0.00     0.164 HD
BRANCH   9  12
ATOM     12  C   UNL A   1      32.275  23.257  23.172  1.00  0.00     0.093 A 
ATOM     13  C   UNL A   1      31.540  25.478  22.566  1.00  0.00     0.078 A 
ATOM     14  C   UNL A   1      32.764  25.201  21.999  1.00  0.00     0.030 A 
ATOM     15  S   UNL A   1      30.755  24.035  23.014  1.00  0.00    -0.121 S 
ATOM     16  C   UNL A   1      33.187  23.874  22.331  1.00  0.00     0.027 A 
BRANCH  13  17
ATOM     17  C   UNL A   1      30.919  26.743  22.694  1.00  0.00    -0.053 C 
ATOM     18  C   UNL A   1      30.359  27.918  22.626  1.00  0.00    -0.063 C 
BRANCH  18  19
ATOM     19  C   UNL A   1      29.706  29.289  22.545  1.00  0.00     0.120 C 
ATOM     20  C   UNL A   1      30.108  30.126  23.756  1.00  0.00     0.056 C 
ATOM     21  C   UNL A   1      28.189  29.134  22.455  1.00  0.00     0.056 C 
BRANCH  19  22
ATOM     22  O   UNL A   1      30.176  29.933  21.364  1.00  0.00    -0.378 OA
ATOM     23  H   UNL A   1      30.922  29.434  20.997  1.00  0.00     0.212 HD
ENDBRANCH  19  22
ENDBRANCH  18  19
ENDBRANCH  13  17
ENDBRANCH   9  12
ENDBRANCH   7   8
BRANCH   7  24
ATOM     24  C   UNL A   1      32.737  24.469  26.158  1.00  0.00     0.045 C 
BRANCH  24  25
ATOM     25  C   UNL A   1      33.278  25.890  26.032  1.00  0.00     0.102 C 
BRANCH  25  26
ATOM     26  C   UNL A   1      32.214  26.952  26.217  1.00  0.00     0.217 C 
ATOM     27  N   UNL A   1      32.462  28.128  25.574  1.00  0.00    -0.370 N 
ATOM     28  O   UNL A   1      31.196  26.810  26.877  1.00  0.00    -0.275 OA
ATOM     29  H   UNL A   1      33.285  28.234  25.044  1.00  0.00     0.159 HD
ATOM     30  H   UNL A   1      31.819  28.870  25.639  1.00  0.00     0.159 HD
ENDBRANCH  25  26
ENDBRANCH  24  25
ENDBRANCH   7  24
ENDBRANCH   4   7
ENDBRANCH   2   3
ENDBRANCH   1   2
BRANCH   1  31
ATOM     31  C   UNL A   1      38.822  21.835  25.920  1.00  0.00     0.002 C 
BRANCH  31  32
ATOM     32  C   UNL A   1      40.129  21.447  26.624  1.00  0.00     0.002 C 
BRANCH  32  33
ATOM     33  C   UNL A   1      40.743  20.068  26.342  1.00  0.00     0.021 C 
BRANCH  33  34
ATOM     34  C   UNL A   1      42.076  19.764  27.012  1.00  0.00     0.116 C 
BRANCH  34  35
ATOM     35  N   UNL A   1      43.140  19.453  26.067  1.00  0.00    -0.352 N 
ATOM     36  C   UNL A   1      43.868  20.318  25.277  1.00  0.00     0.251 C 
ATOM     37  H   UNL A   1      43.371  18.499  25.982  1.00  0.00     0.163 HD
ATOM     38  O   UNL A   1      44.473  19.912  24.293  1.00  0.00    -0.269 OA
BRANCH  36  39
ATOM     39  C   UNL A   1      43.888  21.753  25.618  1.00  0.00     0.039 A 
ATOM     40  C   UNL A   1      43.024  22.649  24.996  1.00  0.00     0.014 A 
ATOM     41  C   UNL A   1      44.755  22.192  26.615  1.00  0.00     0.014 A 
ATOM     42  C   UNL A   1      42.972  23.963  25.460  1.00  0.00     0.010 A 
ATOM     43  C   UNL A   1      44.611  23.449  27.161  1.00  0.00     0.010 A 
ATOM     44  C   UNL A   1      43.742  24.356  26.570  1.00  0.00    -0.014 A 
BRANCH  44  45
ATOM     45  C   UNL A   1      43.574  25.697  27.132  1.00  0.00     0.031 A 
ATOM     46  C   UNL A   1      44.628  26.684  26.775  1.00  0.00     0.074 A 
ATOM     47  C   UNL A   1      42.498  26.130  27.823  1.00  0.00     0.049 A 
ATOM     48  N   UNL A   1      45.548  27.157  27.548  1.00  0.00    -0.248 NA
ATOM     49  C   UNL A   1      44.718  27.152  25.384  1.00  0.00     0.031 C 
ATOM     50  C   UNL A   1      41.202  25.466  28.000  1.00  0.00     0.029 A 
ATOM     51  N   UNL A   1      42.320  27.325  28.467  1.00  0.00    -0.354 N 
ATOM     52  C   UNL A   1      46.223  28.121  26.804  1.00  0.00     0.074 A 
ATOM     53  C   UNL A   1      45.768  27.978  25.446  1.00  0.00     0.031 C 
ATOM     54  C   UNL A   1      40.307  26.346  28.499  1.00  0.00     0.029 A 
ATOM     55  C   UNL A   1      41.017  27.555  28.872  1.00  0.00     0.049 A 
ATOM     56  H   UNL A   1      43.052  27.963  28.626  1.00  0.00     0.167 HD
ATOM     57  C   UNL A   1      46.915  29.116  27.427  1.00  0.00     0.037 A 
ATOM     58  C   UNL A   1      40.530  28.645  29.505  1.00  0.00     0.037 A 
ATOM     59  C   UNL A   1      47.035  28.866  28.840  1.00  0.00     0.049 A 
ATOM     60  C   UNL A   1      41.638  29.297  30.234  1.00  0.00     0.074 A 
ATOM     61  C   UNL A   1      47.851  28.145  29.680  1.00  0.00     0.029 A 
ATOM     62  N   UNL A   1      45.929  29.227  29.555  1.00  0.00    -0.354 N 
ATOM     63  N   UNL A   1      42.266  28.747  31.238  1.00  0.00    -0.248 NA
ATOM     64  C   UNL A   1      42.271  30.488  29.679  1.00  0.00     0.031 C 
ATOM     65  C   UNL A   1      47.121  27.970  30.897  1.00  0.00     0.029 A 
ATOM     66  C   UNL A   1      45.885  28.596  30.768  1.00  0.00     0.049 A 
ATOM     67  H   UNL A   1      45.247  29.862  29.236  1.00  0.00     0.167 HD
ATOM     68  C   UNL A   1      43.544  29.257  31.156  1.00  0.00     0.074 A 
ATOM     69  C   UNL A   1      43.440  30.444  30.323  1.00  0.00     0.031 C 
ATOM     70  C   UNL A   1      44.626  28.489  31.467  1.00  0.00     0.037 A 
BRANCH  57  71
ATOM     71  C   UNL A   1      47.095  30.524  26.909  1.00  0.00     0.064 A 
ATOM     72  C   UNL A   1      48.372  31.122  26.975  1.00  0.00     0.173 A 
ATOM     73  C   UNL A   1      46.020  31.406  26.674  1.00  0.00     0.173 A 
ATOM     74  F   UNL A   1      49.463  30.378  27.216  1.00  0.00    -0.203 F 
ATOM     75  C   UNL A   1      48.548  32.505  26.880  1.00  0.00     0.198 A 
ATOM     76  C   UNL A   1      46.207  32.782  26.527  1.00  0.00     0.198 A 
ATOM     77  F   UNL A   1      44.749  30.992  26.696  1.00  0.00    -0.203 F 
ATOM     78  F   UNL A   1      49.763  33.039  27.066  1.00  0.00    -0.200 F 
ATOM     79  C   UNL A   1      47.464  33.335  26.660  1.00  0.00     0.200 A 
ATOM     80  F   UNL A   1      45.142  33.574  26.338  1.00  0.00    -0.200 F 
ATOM     81  F   UNL A   1      47.621  34.664  26.624  1.00  0.00    -0.200 F 
ENDBRANCH  57  71
BRANCH  58  82
ATOM     82  C   UNL A   1      39.184  29.240  29.383  1.00  0.00     0.064 A 
ATOM     83  C   UNL A   1      38.643  29.561  28.130  1.00  0.00     0.173 A 
ATOM     84  C   UNL A   1      38.300  29.244  30.478  1.00  0.00     0.173 A 
ATOM     85  F   UNL A   1      39.419  29.546  27.036  1.00  0.00    -0.203 F 
ATOM     86  C   UNL A   1      37.281  29.830  27.974  1.00  0.00     0.198 A 
ATOM     87  C   UNL A   1      36.942  29.520  30.321  1.00  0.00     0.198 A 
ATOM     88  F   UNL A   1      38.720  28.887  31.701  1.00  0.00    -0.203 F 
ATOM     89  F   UNL A   1      36.784  30.063  26.752  1.00  0.00    -0.200 F 
ATOM     90  C   UNL A   1      36.431  29.795  29.067  1.00  0.00     0.200 A 
ATOM     91  F   UNL A   1      36.123  29.452  31.380  1.00  0.00    -0.200 F 
ATOM     92  F   UNL A   1      35.114  29.983  28.905  1.00  0.00    -0.200 F 
ENDBRANCH  58  82
BRANCH  70  93
ATOM     93  C   UNL A   1      44.427  27.368  32.435  1.00  0.00     0.064 A 
ATOM     94  C   UNL A   1      44.303  26.018  32.073  1.00  0.00     0.173 A 
ATOM     95  C   UNL A   1      44.404  27.679  33.801  1.00  0.00     0.173 A 
ATOM     96  F   UNL A   1      44.393  25.636  30.792  1.00  0.00    -0.203 F 
ATOM     97  C   UNL A   1      44.116  25.030  33.040  1.00  0.00     0.198 A 
ATOM     98  C   UNL A   1      44.253  26.689  34.766  1.00  0.00     0.198 A 
ATOM     99  F   UNL A   1      44.556  28.952  34.204  1.00  0.00    -0.203 F 
ATOM    100  F   UNL A   1      43.973  23.749  32.673  1.00  0.00    -0.200 F 
ATOM    101  C   UNL A   1      44.095  25.367  34.385  1.00  0.00     0.200 A 
ATOM    102  F   UNL A   1      44.270  27.016  36.066  1.00  0.00    -0.200 F 
ATOM    103  F   UNL A   1      43.939  24.415  35.316  1.00  0.00    -0.200 F 
ENDBRANCH  70  93
ENDBRANCH  44  45
ENDBRANCH  36  39
ENDBRANCH  34  35
ENDBRANCH  33  34
ENDBRANCH  32  33
ENDBRANCH  31  32
ENDBRANCH   1  31
TORSDOF 21
ENDMDL
MODEL 3
REMARK VINA RESULT:     -11.4      2.702      8.396
REMARK SMILES CC(C)(O)C#Cc1ccc(C(=O)N[C@@H](CCC(N)=O)C(=O)NCCCCCCNC(=O)c2ccc(-c3c4nc(c(-c5c(F)c(F)c(F)c(F)c5F)c5ccc([nH]5)c(-c5c(F)c(F)c(F)c(F)c5F)c5nc(c(-c6c(F)c(F)c(F)c(F)c6F)c6ccc3[nH]6)C=C5)C=C4)cc2)s1
REMARK SMILES IDX 24 1 23 2 22 3 20 4 21 5 14 7 13 8 11 9 12 10 10 12 7 13
REMARK SMILES IDX 8 14 95 15 9 16 6 17 5 18 2 19 1 20 3 21 4 22 15 24 16 25
REMARK SMILES IDX 17 26 18 27 19 28 25 31 26 32 27 33 28 34 29 35 30 36 31 38
REMARK SMILES IDX 32 39 33 40 94 41 34 42 93 43 35 44 36 45 37 46 87 47 38 48
REMARK SMILES IDX 92 49 86 50 88 51 39 52 91 53 85 54 84 55 40 57 72 58 52 59
REMARK SMILES IDX 71 60 53 61 56 62 70 63 89 64 54 65 55 66 69 68 90 69 57 70
REMARK SMILES IDX 41 71 42 72 50 73 43 74 44 75 48 76 51 77 45 78 46 79 49 80
REMARK SMILES IDX 47 81 73 82 74 83 82 84 75 85 76 86 80 87 83 88 77 89 78 90
REMARK SMILES IDX 81 91 79 92 58 93 59 94 67 95 60 96 61 97 65 98 68 99 62 100
REMARK SMILES IDX 63 101 66 102 64 103
REMARK H PARENT 22 6 13 11 4 23 18 29 18 30 29 37 88 56 56 67
REMARK Flexibility Score: inf
ROOT
ATOM      1  C   UNL A   1      32.344  27.995  27.049  1.00  0.00     0.021 C 
ENDROOT
BRANCH   1   2
ATOM      2  C   UNL A   1      33.676  27.468  26.541  1.00  0.00     0.116 C 
BRANCH   2   3
ATOM      3  N   UNL A   1      33.640  27.113  25.146  1.00  0.00    -0.354 N 
ATOM      4  C   UNL A   1      33.768  25.919  24.516  1.00  0.00     0.242 C 
ATOM      5  O   UNL A   1      33.509  25.905  23.307  1.00  0.00    -0.273 OA
ATOM      6  H   UNL A   1      33.497  27.875  24.539  1.00  0.00     0.163 HD
BRANCH   4   7
ATOM      7  C   UNL A   1      34.161  24.614  25.241  1.00  0.00     0.172 C 
BRANCH   7   8
ATOM      8  N   UNL A   1      33.323  24.267  26.405  1.00  0.00    -0.340 N 
ATOM      9  C   UNL A   1      31.951  24.133  26.496  1.00  0.00     0.262 C 
ATOM     10  O   UNL A   1      31.519  23.557  27.495  1.00  0.00    -0.268 OA
ATOM     11  H   UNL A   1      33.815  24.107  27.243  1.00  0.00     0.164 HD
BRANCH   9  12
ATOM     12  C   UNL A   1      31.094  24.591  25.425  1.00  0.00     0.093 A 
ATOM     13  C   UNL A   1      30.037  26.128  23.887  1.00  0.00     0.078 A 
ATOM     14  C   UNL A   1      30.230  24.902  23.292  1.00  0.00     0.030 A 
ATOM     15  S   UNL A   1      30.098  25.978  25.582  1.00  0.00    -0.121 S 
ATOM     16  C   UNL A   1      30.827  23.981  24.210  1.00  0.00     0.027 A 
BRANCH  13  17
ATOM     17  C   UNL A   1      29.727  27.353  23.252  1.00  0.00    -0.053 C 
ATOM     18  C   UNL A   1      29.543  28.563  22.801  1.00  0.00    -0.063 C 
BRANCH  18  19
ATOM     19  C   UNL A   1      29.328  29.973  22.277  1.00  0.00     0.120 C 
ATOM     20  C   UNL A   1      29.242  30.952  23.445  1.00  0.00     0.056 C 
ATOM     21  C   UNL A   1      28.064  30.019  21.420  1.00  0.00     0.056 C 
BRANCH  19  22
ATOM     22  O   UNL A   1      30.448  30.319  21.467  1.00  0.00    -0.378 OA
ATOM     23  H   UNL A   1      30.197  31.025  20.851  1.00  0.00     0.212 HD
ENDBRANCH  19  22
ENDBRANCH  18  19
ENDBRANCH  13  17
ENDBRANCH   9  12
ENDBRANCH   7   8
BRANCH   7  24
ATOM     24  C   UNL A   1      34.505  23.376  24.388  1.00  0.00     0.045 C 
BRANCH  24  25
ATOM     25  C   UNL A   1      33.956  22.015  24.805  1.00  0.00     0.102 C 
BRANCH  25  26
ATOM     26  C   UNL A   1      34.659  21.434  26.015  1.00  0.00     0.217 C 
ATOM     27  N   UNL A   1      35.963  21.097  25.811  1.00  0.00    -0.370 N 
ATOM     28  O   UNL A   1      34.139  21.267  27.108  1.00  0.00    -0.275 OA
ATOM     29  H   UNL A   1      36.374  21.235  24.927  1.00  0.00     0.159 HD
ATOM     30  H   UNL A   1      36.495  20.717  26.547  1.00  0.00     0.159 HD
ENDBRANCH  25  26
ENDBRANCH  24  25
ENDBRANCH   7  24
ENDBRANCH   4   7
ENDBRANCH   2   3
ENDBRANCH   1   2
BRANCH   1  31
ATOM     31  C   UNL A   1      32.285  29.517  27.185  1.00  0.00     0.002 C 
BRANCH  31  32
ATOM     32  C   UNL A   1      33.619  30.274  27.220  1.00  0.00     0.002 C 
BRANCH  32  33
ATOM     33  C   UNL A   1      33.614  31.774  27.550  1.00  0.00     0.021 C 
BRANCH  33  34
ATOM     34  C   UNL A   1      34.914  32.361  28.078  1.00  0.00     0.116 C 
BRANCH  34  35
ATOM     35  N   UNL A   1      34.853  32.731  29.485  1.00  0.00    -0.352 N 
ATOM     36  C   UNL A   1      35.513  32.159  30.553  1.00  0.00     0.251 C 
ATOM     37  H   UNL A   1      34.264  33.489  29.703  1.00  0.00     0.163 HD
ATOM     38  O   UNL A   1      35.117  32.327  31.699  1.00  0.00    -0.269 OA
BRANCH  36  39
ATOM     39  C   UNL A   1      36.695  31.316  30.294  1.00  0.00     0.039 A 
ATOM     40  C   UNL A   1      37.956  31.882  30.131  1.00  0.00     0.014 A 
ATOM     41  C   UNL A   1      36.539  29.933  30.265  1.00  0.00     0.014 A 
ATOM     42  C   UNL A   1      39.064  31.040  30.042  1.00  0.00     0.010 A 
ATOM     43  C   UNL A   1      37.640  29.106  30.312  1.00  0.00     0.010 A 
ATOM     44  C   UNL A   1      38.910  29.647  30.169  1.00  0.00    -0.014 A 
BRANCH  44  45
ATOM     45  C   UNL A   1      40.093  28.787  30.214  1.00  0.00     0.031 A 
ATOM     46  C   UNL A   1      40.708  28.605  31.556  1.00  0.00     0.074 A 
ATOM     47  C   UNL A   1      40.577  28.061  29.184  1.00  0.00     0.049 A 
ATOM     48  N   UNL A   1      41.825  29.101  31.976  1.00  0.00    -0.248 NA
ATOM     49  C   UNL A   1      39.972  27.844  32.576  1.00  0.00     0.031 C 
ATOM     50  C   UNL A   1      39.955  27.802  27.881  1.00  0.00     0.029 A 
ATOM     51  N   UNL A   1      41.730  27.327  29.123  1.00  0.00    -0.354 N 
ATOM     52  C   UNL A   1      42.033  28.570  33.245  1.00  0.00     0.074 A 
ATOM     53  C   UNL A   1      40.804  27.920  33.620  1.00  0.00     0.031 C 
ATOM     54  C   UNL A   1      40.613  26.804  27.255  1.00  0.00     0.029 A 
ATOM     55  C   UNL A   1      41.816  26.508  28.011  1.00  0.00     0.049 A 
ATOM     56  H   UNL A   1      42.435  27.376  29.808  1.00  0.00     0.167 HD
ATOM     57  C   UNL A   1      43.289  28.502  33.770  1.00  0.00     0.037 A 
ATOM     58  C   UNL A   1      42.814  25.656  27.688  1.00  0.00     0.037 A 
ATOM     59  C   UNL A   1      44.231  29.244  32.973  1.00  0.00     0.049 A 
ATOM     60  C   UNL A   1      44.057  26.124  28.337  1.00  0.00     0.074 A 
ATOM     61  C   UNL A   1      44.650  30.547  32.843  1.00  0.00     0.029 A 
ATOM     62  N   UNL A   1      44.680  28.560  31.880  1.00  0.00    -0.354 N 
ATOM     63  N   UNL A   1      44.651  27.247  28.038  1.00  0.00    -0.248 NA
ATOM     64  C   UNL A   1      44.531  25.470  29.552  1.00  0.00     0.031 C 
ATOM     65  C   UNL A   1      45.256  30.650  31.553  1.00  0.00     0.029 A 
ATOM     66  C   UNL A   1      45.198  29.404  30.935  1.00  0.00     0.049 A 
ATOM     67  H   UNL A   1      44.637  27.581  31.784  1.00  0.00     0.167 HD
ATOM     68  C   UNL A   1      45.246  27.638  29.218  1.00  0.00     0.074 A 
ATOM     69  C   UNL A   1      45.308  26.441  30.041  1.00  0.00     0.031 C 
ATOM     70  C   UNL A   1      45.313  28.954  29.568  1.00  0.00     0.037 A 
BRANCH  57  71
ATOM     71  C   UNL A   1      43.798  27.431  34.706  1.00  0.00     0.064 A 
ATOM     72  C   UNL A   1      43.848  26.093  34.257  1.00  0.00     0.173 A 
ATOM     73  C   UNL A   1      43.910  27.610  36.100  1.00  0.00     0.173 A 
ATOM     74  F   UNL A   1      43.730  25.806  32.952  1.00  0.00    -0.203 F 
ATOM     75  C   UNL A   1      43.937  25.017  35.145  1.00  0.00     0.198 A 
ATOM     76  C   UNL A   1      44.051  26.534  36.979  1.00  0.00     0.198 A 
ATOM     77  F   UNL A   1      43.769  28.812  36.671  1.00  0.00    -0.203 F 
ATOM     78  F   UNL A   1      43.863  23.761  34.682  1.00  0.00    -0.200 F 
ATOM     79  C   UNL A   1      44.034  25.239  36.506  1.00  0.00     0.200 A 
ATOM     80  F   UNL A   1      44.119  26.767  38.298  1.00  0.00    -0.200 F 
ATOM     81  F   UNL A   1      44.062  24.210  37.363  1.00  0.00    -0.200 F 
ENDBRANCH  57  71
BRANCH  58  82
ATOM     82  C   UNL A   1      42.712  24.368  26.974  1.00  0.00     0.064 A 
ATOM     83  C   UNL A   1      43.196  24.221  25.667  1.00  0.00     0.173 A 
ATOM     84  C   UNL A   1      42.387  23.187  27.669  1.00  0.00     0.173 A 
ATOM     85  F   UNL A   1      43.555  25.300  24.956  1.00  0.00    -0.203 F 
ATOM     86  C   UNL A   1      43.387  22.959  25.100  1.00  0.00     0.198 A 
ATOM     87  C   UNL A   1      42.571  21.928  27.098  1.00  0.00     0.198 A 
ATOM     88  F   UNL A   1      41.977  23.232  28.945  1.00  0.00    -0.203 F 
ATOM     89  F   UNL A   1      43.918  22.853  23.874  1.00  0.00    -0.200 F 
ATOM     90  C   UNL A   1      43.088  21.815  25.821  1.00  0.00     0.200 A 
ATOM     91  F   UNL A   1      42.309  20.828  27.817  1.00  0.00    -0.200 F 
ATOM     92  F   UNL A   1      43.337  20.604  25.303  1.00  0.00    -0.200 F 
ENDBRANCH  58  82
BRANCH  70  93
ATOM     93  C   UNL A   1      45.308  29.965  28.468  1.00  0.00     0.064 A 
ATOM     94  C   UNL A   1      44.151  30.547  27.928  1.00  0.00     0.173 A 
ATOM     95  C   UNL A   1      46.545  30.394  27.969  1.00  0.00     0.173 A 
ATOM     96  F   UNL A   1      42.938  30.243  28.408  1.00  0.00    -0.203 F 
ATOM     97  C   UNL A   1      44.233  31.484  26.898  1.00  0.00     0.198 A 
ATOM     98  C   UNL A   1      46.627  31.355  26.966  1.00  0.00     0.198 A 
ATOM     99  F   UNL A   1      47.685  29.897  28.477  1.00  0.00    -0.203 F 
ATOM    100  F   UNL A   1      43.115  32.009  26.377  1.00  0.00    -0.200 F 
ATOM    101  C   UNL A   1      45.471  31.889  26.421  1.00  0.00     0.200 A 
ATOM    102  F   UNL A   1      47.826  31.769  26.535  1.00  0.00    -0.200 F 
ATOM    103  F   UNL A   1      45.550  32.807  25.448  1.00  0.00    -0.200 F 
ENDBRANCH  70  93
ENDBRANCH  44  45
ENDBRANCH  36  39
ENDBRANCH  34  35
ENDBRANCH  33  34
ENDBRANCH  32  33
ENDBRANCH  31  32
ENDBRANCH   1  31
TORSDOF 21
ENDMDL
