MODEL 1
REMARK VINA RESULT:     -12.0      0.000      0.000
REMARK SMILES COC(=O)c1ccc(Cl)c(-c2ccc(C(=O)NCCCCCCNC(=O)c3ccc(-c4c5nc(c(-c6c(F)c(F)c(F)c(F)c6F)c6ccc([nH]6)c(-c6c(F)c(F)c(F)c(F)c6F)c6nc(c(-c7c(F)c(F)c(F)c(F)c7F)c7ccc4[nH]7)C=C6)C=C5)cc3)c(F)c2)c1
REMARK SMILES IDX 20 1 19 2 18 3 17 4 15 5 16 6 14 8 11 9 12 10 92 11 13 12
REMARK SMILES IDX 90 13 91 14 10 15 5 16 6 17 93 18 7 19 8 20 9 21 3 22 4 23
REMARK SMILES IDX 2 24 1 25 21 26 22 27 23 28 24 29 25 30 26 32 27 33 28 34
REMARK SMILES IDX 89 35 29 36 88 37 30 38 31 39 32 40 82 41 33 42 87 43 81 44
REMARK SMILES IDX 83 45 34 46 86 47 80 48 79 49 35 51 67 52 47 53 66 54 48 55
REMARK SMILES IDX 51 56 65 57 84 58 49 59 50 60 64 62 85 63 52 64 36 65 37 66
REMARK SMILES IDX 45 67 38 68 39 69 43 70 46 71 40 72 41 73 44 74 42 75 68 76
REMARK SMILES IDX 69 77 77 78 70 79 71 80 75 81 78 82 72 83 73 84 76 85 74 86
REMARK SMILES IDX 53 87 54 88 62 89 55 90 56 91 60 92 63 93 57 94 58 95 61 96
REMARK SMILES IDX 59 97
REMARK H PARENT 17 7 24 31 83 50 51 61
REMARK Flexibility Score: inf
ROOT
ATOM      1  C   UNL A   1      34.381  22.511  26.851  1.00  0.00     0.002 C 
ENDROOT
BRANCH   1   2
ATOM      2  C   UNL A   1      34.434  21.148  26.148  1.00  0.00     0.021 C 
BRANCH   2   3
ATOM      3  C   UNL A   1      33.055  20.518  25.928  1.00  0.00     0.116 C 
BRANCH   3   4
ATOM      4  N   UNL A   1      32.796  20.374  24.509  1.00  0.00    -0.352 N 
ATOM      5  C   UNL A   1      32.283  21.224  23.566  1.00  0.00     0.254 C 
ATOM      6  O   UNL A   1      32.158  20.778  22.423  1.00  0.00    -0.269 OA
ATOM      7  H   UNL A   1      33.035  19.488  24.153  1.00  0.00     0.163 HD
BRANCH   5   8
ATOM      8  C   UNL A   1      31.946  22.651  23.805  1.00  0.00     0.075 A 
ATOM      9  C   UNL A   1      31.454  25.438  24.071  1.00  0.00    -0.014 A 
ATOM     10  C   UNL A   1      32.218  24.952  23.007  1.00  0.00     0.010 A 
ATOM     11  C   UNL A   1      30.915  24.513  24.975  1.00  0.00     0.048 A 
ATOM     12  C   UNL A   1      32.464  23.578  22.880  1.00  0.00     0.017 A 
ATOM     13  C   UNL A   1      31.131  23.142  24.821  1.00  0.00     0.136 A 
ATOM     14  F   UNL A   1      30.475  22.337  25.664  1.00  0.00    -0.206 F 
BRANCH   9  15
ATOM     15  C   UNL A   1      31.201  26.872  24.262  1.00  0.00     0.001 A 
ATOM     16  C   UNL A   1      30.057  28.889  23.484  1.00  0.00     0.060 A 
ATOM     17  C   UNL A   1      30.790  29.665  24.386  1.00  0.00     0.017 A 
ATOM     18  C   UNL A   1      30.247  27.502  23.441  1.00  0.00     0.026 A 
ATOM     19  C   UNL A   1      31.714  29.052  25.234  1.00  0.00     0.022 A 
ATOM     20  C   UNL A   1      31.924  27.669  25.170  1.00  0.00     0.048 A 
ATOM     21  Cl  UNL A   1      33.132  26.998  26.211  1.00  0.00    -0.084 Cl
BRANCH  16  22
ATOM     22  C   UNL A   1      29.097  29.486  22.523  1.00  0.00     0.337 C 
ATOM     23  O   UNL A   1      29.401  29.841  21.400  1.00  0.00    -0.246 OA
BRANCH  22  24
ATOM     24  O   UNL A   1      27.898  29.661  23.131  1.00  0.00    -0.465 OA
ATOM     25  C   UNL A   1      27.610  31.023  23.459  1.00  0.00     0.282 C 
ENDBRANCH  22  24
ENDBRANCH  16  22
ENDBRANCH   9  15
ENDBRANCH   5   8
ENDBRANCH   3   4
ENDBRANCH   2   3
ENDBRANCH   1   2
BRANCH   1  26
ATOM     26  C   UNL A   1      34.754  23.707  25.964  1.00  0.00     0.002 C 
BRANCH  26  27
ATOM     27  C   UNL A   1      35.592  23.360  24.731  1.00  0.00     0.021 C 
BRANCH  27  28
ATOM     28  C   UNL A   1      37.061  23.755  24.838  1.00  0.00     0.116 C 
BRANCH  28  29
ATOM     29  N   UNL A   1      37.858  22.698  25.443  1.00  0.00    -0.352 N 
ATOM     30  C   UNL A   1      38.975  22.795  26.234  1.00  0.00     0.251 C 
ATOM     31  H   UNL A   1      37.550  21.781  25.260  1.00  0.00     0.163 HD
ATOM     32  O   UNL A   1      39.664  21.806  26.459  1.00  0.00    -0.269 OA
BRANCH  30  33
ATOM     33  C   UNL A   1      39.354  24.101  26.811  1.00  0.00     0.039 A 
ATOM     34  C   UNL A   1      38.946  24.414  28.109  1.00  0.00     0.014 A 
ATOM     35  C   UNL A   1      40.090  25.023  26.061  1.00  0.00     0.014 A 
ATOM     36  C   UNL A   1      39.320  25.633  28.675  1.00  0.00     0.010 A 
ATOM     37  C   UNL A   1      40.521  26.206  26.650  1.00  0.00     0.010 A 
ATOM     38  C   UNL A   1      40.135  26.525  27.960  1.00  0.00    -0.014 A 
BRANCH  38  39
ATOM     39  C   UNL A   1      40.593  27.800  28.563  1.00  0.00     0.031 A 
ATOM     40  C   UNL A   1      42.040  27.994  28.914  1.00  0.00     0.074 A 
ATOM     41  C   UNL A   1      39.692  28.759  28.849  1.00  0.00     0.049 A 
ATOM     42  N   UNL A   1      42.620  29.009  29.501  1.00  0.00    -0.248 NA
ATOM     43  C   UNL A   1      42.952  26.889  28.583  1.00  0.00     0.031 C 
ATOM     44  C   UNL A   1      38.256  28.668  28.587  1.00  0.00     0.029 A 
ATOM     45  N   UNL A   1      39.851  29.993  29.424  1.00  0.00    -0.354 N 
ATOM     46  C   UNL A   1      43.959  28.663  29.616  1.00  0.00     0.074 A 
ATOM     47  C   UNL A   1      44.095  27.320  29.095  1.00  0.00     0.031 C 
ATOM     48  C   UNL A   1      37.669  29.813  28.970  1.00  0.00     0.029 A 
ATOM     49  C   UNL A   1      38.681  30.700  29.538  1.00  0.00     0.049 A 
ATOM     50  H   UNL A   1      40.722  30.339  29.726  1.00  0.00     0.167 HD
ATOM     51  C   UNL A   1      44.985  29.408  30.087  1.00  0.00     0.037 A 
ATOM     52  C   UNL A   1      38.448  31.926  30.042  1.00  0.00     0.037 A 
ATOM     53  C   UNL A   1      44.844  30.750  30.591  1.00  0.00     0.049 A 
ATOM     54  C   UNL A   1      39.596  32.728  30.588  1.00  0.00     0.074 A 
ATOM     55  C   UNL A   1      45.828  31.606  31.051  1.00  0.00     0.029 A 
ATOM     56  N   UNL A   1      43.638  31.428  30.704  1.00  0.00    -0.354 N 
ATOM     57  N   UNL A   1      40.866  32.410  30.652  1.00  0.00    -0.248 NA
ATOM     58  C   UNL A   1      39.280  34.056  31.129  1.00  0.00     0.031 C 
ATOM     59  C   UNL A   1      45.212  32.783  31.488  1.00  0.00     0.029 A 
ATOM     60  C   UNL A   1      43.850  32.684  31.248  1.00  0.00     0.049 A 
ATOM     61  H   UNL A   1      42.761  31.069  30.435  1.00  0.00     0.167 HD
ATOM     62  C   UNL A   1      41.505  33.502  31.220  1.00  0.00     0.074 A 
ATOM     63  C   UNL A   1      40.483  34.497  31.476  1.00  0.00     0.031 C 
ATOM     64  C   UNL A   1      42.822  33.663  31.501  1.00  0.00     0.037 A 
BRANCH  51  65
ATOM     65  C   UNL A   1      46.354  28.790  30.074  1.00  0.00     0.064 A 
ATOM     66  C   UNL A   1      46.833  28.087  31.189  1.00  0.00     0.173 A 
ATOM     67  C   UNL A   1      47.205  28.915  28.964  1.00  0.00     0.173 A 
ATOM     68  F   UNL A   1      46.064  27.942  32.279  1.00  0.00    -0.203 F 
ATOM     69  C   UNL A   1      48.109  27.532  31.193  1.00  0.00     0.198 A 
ATOM     70  C   UNL A   1      48.468  28.330  28.958  1.00  0.00     0.198 A 
ATOM     71  F   UNL A   1      46.792  29.568  27.867  1.00  0.00    -0.203 F 
ATOM     72  F   UNL A   1      48.553  26.882  32.279  1.00  0.00    -0.200 F 
ATOM     73  C   UNL A   1      48.923  27.645  30.075  1.00  0.00     0.200 A 
ATOM     74  F   UNL A   1      49.240  28.417  27.866  1.00  0.00    -0.200 F 
ATOM     75  F   UNL A   1      50.141  27.088  30.071  1.00  0.00    -0.200 F 
ENDBRANCH  51  65
BRANCH  52  76
ATOM     76  C   UNL A   1      37.069  32.474  29.995  1.00  0.00     0.064 A 
ATOM     77  C   UNL A   1      36.626  33.255  28.917  1.00  0.00     0.173 A 
ATOM     78  C   UNL A   1      36.193  32.290  31.074  1.00  0.00     0.173 A 
ATOM     79  F   UNL A   1      37.431  33.465  27.865  1.00  0.00    -0.203 F 
ATOM     80  C   UNL A   1      35.370  33.857  28.935  1.00  0.00     0.198 A 
ATOM     81  C   UNL A   1      34.929  32.875  31.080  1.00  0.00     0.198 A 
ATOM     82  F   UNL A   1      36.568  31.537  32.119  1.00  0.00    -0.203 F 
ATOM     83  F   UNL A   1      34.988  34.636  27.914  1.00  0.00    -0.200 F 
ATOM     84  C   UNL A   1      34.523  33.668  30.017  1.00  0.00     0.200 A 
ATOM     85  F   UNL A   1      34.107  32.678  32.120  1.00  0.00    -0.200 F 
ATOM     86  F   UNL A   1      33.317  34.253  30.037  1.00  0.00    -0.200 F 
ENDBRANCH  52  76
BRANCH  64  87
ATOM     87  C   UNL A   1      43.250  34.968  32.106  1.00  0.00     0.064 A 
ATOM     88  C   UNL A   1      43.198  35.157  33.495  1.00  0.00     0.173 A 
ATOM     89  C   UNL A   1      43.624  36.057  31.307  1.00  0.00     0.173 A 
ATOM     90  F   UNL A   1      42.838  34.147  34.302  1.00  0.00    -0.203 F 
ATOM     91  C   UNL A   1      43.485  36.397  34.061  1.00  0.00     0.198 A 
ATOM     92  C   UNL A   1      43.937  37.289  31.879  1.00  0.00     0.198 A 
ATOM     93  F   UNL A   1      43.701  35.923  29.974  1.00  0.00    -0.203 F 
ATOM     94  F   UNL A   1      43.390  36.564  35.387  1.00  0.00    -0.200 F 
ATOM     95  C   UNL A   1      43.856  37.459  33.253  1.00  0.00     0.200 A 
ATOM     96  F   UNL A   1      44.317  38.310  31.098  1.00  0.00    -0.200 F 
ATOM     97  F   UNL A   1      44.137  38.651  33.799  1.00  0.00    -0.200 F 
ENDBRANCH  64  87
ENDBRANCH  38  39
ENDBRANCH  30  33
ENDBRANCH  28  29
ENDBRANCH  27  28
ENDBRANCH  26  27
ENDBRANCH   1  26
TORSDOF 16
ENDMDL
MODEL 2
REMARK VINA RESULT:     -11.8      3.891      6.034
REMARK SMILES COC(=O)c1ccc(Cl)c(-c2ccc(C(=O)NCCCCCCNC(=O)c3ccc(-c4c5nc(c(-c6c(F)c(F)c(F)c(F)c6F)c6ccc([nH]6)c(-c6c(F)c(F)c(F)c(F)c6F)c6nc(c(-c7c(F)c(F)c(F)c(F)c7F)c7ccc4[nH]7)C=C6)C=C5)cc3)c(F)c2)c1
REMARK SMILES IDX 20 1 19 2 18 3 17 4 15 5 16 6 14 8 11 9 12 10 92 11 13 12
REMARK SMILES IDX 90 13 91 14 10 15 5 16 6 17 93 18 7 19 8 20 9 21 3 22 4 23
REMARK SMILES IDX 2 24 1 25 21 26 22 27 23 28 24 29 25 30 26 32 27 33 28 34
REMARK SMILES IDX 89 35 29 36 88 37 30 38 31 39 32 40 82 41 33 42 87 43 81 44
REMARK SMILES IDX 83 45 34 46 86 47 80 48 79 49 35 51 67 52 47 53 66 54 48 55
REMARK SMILES IDX 51 56 65 57 84 58 49 59 50 60 64 62 85 63 52 64 36 65 37 66
REMARK SMILES IDX 45 67 38 68 39 69 43 70 46 71 40 72 41 73 44 74 42 75 68 76
REMARK SMILES IDX 69 77 77 78 70 79 71 80 75 81 78 82 72 83 73 84 76 85 74 86
REMARK SMILES IDX 53 87 54 88 62 89 55 90 56 91 60 92 63 93 57 94 58 95 61 96
REMARK SMILES IDX 59 97
REMARK H PARENT 17 7 24 31 83 50 51 61
REMARK Flexibility Score: inf
ROOT
ATOM      1  C   UNL A   1      41.524  21.547  26.398  1.00  0.00     0.002 C 
ENDROOT
BRANCH   1   2
ATOM      2  C   UNL A   1      40.536  22.380  27.225  1.00  0.00     0.021 C 
BRANCH   2   3
ATOM      3  C   UNL A   1      39.258  22.749  26.465  1.00  0.00     0.116 C 
BRANCH   3   4
ATOM      4  N   UNL A   1      38.747  21.589  25.761  1.00  0.00    -0.352 N 
ATOM      5  C   UNL A   1      37.524  21.293  25.222  1.00  0.00     0.254 C 
ATOM      6  O   UNL A   1      37.398  20.181  24.703  1.00  0.00    -0.269 OA
ATOM      7  H   UNL A   1      39.412  20.872  25.648  1.00  0.00     0.163 HD
BRANCH   5   8
ATOM      8  C   UNL A   1      36.378  22.236  25.151  1.00  0.00     0.075 A 
ATOM      9  C   UNL A   1      34.100  23.935  25.227  1.00  0.00    -0.014 A 
ATOM     10  C   UNL A   1      34.365  23.057  26.282  1.00  0.00     0.010 A 
ATOM     11  C   UNL A   1      35.004  23.975  24.158  1.00  0.00     0.048 A 
ATOM     12  C   UNL A   1      35.486  22.216  26.240  1.00  0.00     0.017 A 
ATOM     13  C   UNL A   1      36.140  23.163  24.141  1.00  0.00     0.136 A 
ATOM     14  F   UNL A   1      37.001  23.363  23.137  1.00  0.00    -0.206 F 
BRANCH   9  15
ATOM     15  C   UNL A   1      32.919  24.808  25.213  1.00  0.00     0.001 A 
ATOM     16  C   UNL A   1      31.797  26.779  26.128  1.00  0.00     0.060 A 
ATOM     17  C   UNL A   1      30.627  26.446  25.440  1.00  0.00     0.017 A 
ATOM     18  C   UNL A   1      32.938  25.978  25.996  1.00  0.00     0.026 A 
ATOM     19  C   UNL A   1      30.602  25.309  24.629  1.00  0.00     0.022 A 
ATOM     20  C   UNL A   1      31.735  24.492  24.521  1.00  0.00     0.048 A 
ATOM     21  Cl  UNL A   1      31.600  23.069  23.547  1.00  0.00    -0.084 Cl
BRANCH  16  22
ATOM     22  C   UNL A   1      31.873  27.945  27.042  1.00  0.00     0.337 C 
ATOM     23  O   UNL A   1      31.252  28.025  28.085  1.00  0.00    -0.246 OA
BRANCH  22  24
ATOM     24  O   UNL A   1      32.638  28.913  26.479  1.00  0.00    -0.465 OA
ATOM     25  C   UNL A   1      31.886  29.917  25.793  1.00  0.00     0.282 C 
ENDBRANCH  22  24
ENDBRANCH  16  22
ENDBRANCH   9  15
ENDBRANCH   5   8
ENDBRANCH   3   4
ENDBRANCH   2   3
ENDBRANCH   1   2
BRANCH   1  26
ATOM     26  C   UNL A   1      41.976  20.240  27.061  1.00  0.00     0.002 C 
BRANCH  26  27
ATOM     27  C   UNL A   1      42.274  19.093  26.092  1.00  0.00     0.021 C 
BRANCH  27  28
ATOM     28  C   UNL A   1      43.723  18.618  26.107  1.00  0.00     0.116 C 
BRANCH  28  29
ATOM     29  N   UNL A   1      44.288  18.573  24.767  1.00  0.00    -0.352 N 
ATOM     30  C   UNL A   1      44.654  19.606  23.942  1.00  0.00     0.251 C 
ATOM     31  H   UNL A   1      44.428  17.671  24.398  1.00  0.00     0.163 HD
ATOM     32  O   UNL A   1      44.885  19.402  22.755  1.00  0.00    -0.269 OA
BRANCH  30  33
ATOM     33  C   UNL A   1      44.764  20.975  24.486  1.00  0.00     0.039 A 
ATOM     34  C   UNL A   1      45.407  21.170  25.711  1.00  0.00     0.014 A 
ATOM     35  C   UNL A   1      44.211  22.060  23.799  1.00  0.00     0.014 A 
ATOM     36  C   UNL A   1      45.541  22.461  26.223  1.00  0.00     0.010 A 
ATOM     37  C   UNL A   1      44.407  23.352  24.275  1.00  0.00     0.010 A 
ATOM     38  C   UNL A   1      45.068  23.564  25.494  1.00  0.00    -0.014 A 
BRANCH  38  39
ATOM     39  C   UNL A   1      45.250  24.949  25.990  1.00  0.00     0.031 A 
ATOM     40  C   UNL A   1      46.603  25.598  25.940  1.00  0.00     0.074 A 
ATOM     41  C   UNL A   1      44.207  25.598  26.542  1.00  0.00     0.049 A 
ATOM     42  N   UNL A   1      46.974  26.774  26.380  1.00  0.00    -0.248 NA
ATOM     43  C   UNL A   1      47.689  24.811  25.337  1.00  0.00     0.031 C 
ATOM     44  C   UNL A   1      42.856  25.055  26.679  1.00  0.00     0.029 A 
ATOM     45  N   UNL A   1      44.123  26.851  27.093  1.00  0.00    -0.354 N 
ATOM     46  C   UNL A   1      48.333  26.863  26.114  1.00  0.00     0.074 A 
ATOM     47  C   UNL A   1      48.735  25.601  25.532  1.00  0.00     0.031 C 
ATOM     48  C   UNL A   1      42.068  25.982  27.244  1.00  0.00     0.029 A 
ATOM     49  C   UNL A   1      42.867  27.168  27.544  1.00  0.00     0.049 A 
ATOM     50  H   UNL A   1      44.891  27.464  27.158  1.00  0.00     0.167 HD
ATOM     51  C   UNL A   1      49.163  27.913  26.312  1.00  0.00     0.037 A 
ATOM     52  C   UNL A   1      42.409  28.288  28.134  1.00  0.00     0.037 A 
ATOM     53  C   UNL A   1      48.752  29.171  26.879  1.00  0.00     0.049 A 
ATOM     54  C   UNL A   1      43.352  29.433  28.371  1.00  0.00     0.074 A 
ATOM     55  C   UNL A   1      49.506  30.312  27.082  1.00  0.00     0.029 A 
ATOM     56  N   UNL A   1      47.473  29.450  27.339  1.00  0.00    -0.354 N 
ATOM     57  N   UNL A   1      44.626  29.526  28.076  1.00  0.00    -0.248 NA
ATOM     58  C   UNL A   1      42.797  30.628  29.022  1.00  0.00     0.031 C 
ATOM     59  C   UNL A   1      48.697  31.265  27.708  1.00  0.00     0.029 A 
ATOM     60  C   UNL A   1      47.422  30.738  27.846  1.00  0.00     0.049 A 
ATOM     61  H   UNL A   1      46.713  28.824  27.308  1.00  0.00     0.167 HD
ATOM     62  C   UNL A   1      45.022  30.791  28.484  1.00  0.00     0.074 A 
ATOM     63  C   UNL A   1      43.850  31.436  29.042  1.00  0.00     0.031 C 
ATOM     64  C   UNL A   1      46.248  31.366  28.402  1.00  0.00     0.037 A 
BRANCH  51  65
ATOM     65  C   UNL A   1      50.599  27.746  25.906  1.00  0.00     0.064 A 
ATOM     66  C   UNL A   1      50.988  27.908  24.568  1.00  0.00     0.173 A 
ATOM     67  C   UNL A   1      51.591  27.400  26.838  1.00  0.00     0.173 A 
ATOM     68  F   UNL A   1      50.082  28.232  23.634  1.00  0.00    -0.203 F 
ATOM     69  C   UNL A   1      52.314  27.730  24.180  1.00  0.00     0.198 A 
ATOM     70  C   UNL A   1      52.920  27.256  26.453  1.00  0.00     0.198 A 
ATOM     71  F   UNL A   1      51.274  27.244  28.133  1.00  0.00    -0.203 F 
ATOM     72  F   UNL A   1      52.658  27.870  22.892  1.00  0.00    -0.200 F 
ATOM     73  C   UNL A   1      53.280  27.414  25.123  1.00  0.00     0.200 A 
ATOM     74  F   UNL A   1      53.856  26.979  27.371  1.00  0.00    -0.200 F 
ATOM     75  F   UNL A   1      54.559  27.269  24.752  1.00  0.00    -0.200 F 
ENDBRANCH  51  65
BRANCH  52  76
ATOM     76  C   UNL A   1      40.969  28.381  28.481  1.00  0.00     0.064 A 
ATOM     77  C   UNL A   1      40.035  28.940  27.597  1.00  0.00     0.173 A 
ATOM     78  C   UNL A   1      40.516  27.983  29.747  1.00  0.00     0.173 A 
ATOM     79  F   UNL A   1      40.422  29.342  26.378  1.00  0.00    -0.203 F 
ATOM     80  C   UNL A   1      38.707  29.126  27.977  1.00  0.00     0.198 A 
ATOM     81  C   UNL A   1      39.183  28.149  30.118  1.00  0.00     0.198 A 
ATOM     82  F   UNL A   1      41.371  27.429  30.619  1.00  0.00    -0.203 F 
ATOM     83  F   UNL A   1      37.844  29.704  27.131  1.00  0.00    -0.200 F 
ATOM     84  C   UNL A   1      38.283  28.731  29.237  1.00  0.00     0.200 A 
ATOM     85  F   UNL A   1      38.773  27.753  31.330  1.00  0.00    -0.200 F 
ATOM     86  F   UNL A   1      37.008  28.916  29.606  1.00  0.00    -0.200 F 
ENDBRANCH  52  76
BRANCH  64  87
ATOM     87  C   UNL A   1      46.395  32.770  28.910  1.00  0.00     0.064 A 
ATOM     88  C   UNL A   1      46.188  33.860  28.051  1.00  0.00     0.173 A 
ATOM     89  C   UNL A   1      46.827  33.034  30.217  1.00  0.00     0.173 A 
ATOM     90  F   UNL A   1      45.782  33.659  26.787  1.00  0.00    -0.203 F 
ATOM     91  C   UNL A   1      46.429  35.164  28.477  1.00  0.00     0.198 A 
ATOM     92  C   UNL A   1      47.040  34.341  30.648  1.00  0.00     0.198 A 
ATOM     93  F   UNL A   1      47.026  32.026  31.079  1.00  0.00    -0.203 F 
ATOM     94  F   UNL A   1      46.262  36.186  27.628  1.00  0.00    -0.200 F 
ATOM     95  C   UNL A   1      46.852  35.402  29.776  1.00  0.00     0.200 A 
ATOM     96  F   UNL A   1      47.428  34.573  31.910  1.00  0.00    -0.200 F 
ATOM     97  F   UNL A   1      47.078  36.658  30.186  1.00  0.00    -0.200 F 
ENDBRANCH  64  87
ENDBRANCH  38  39
ENDBRANCH  30  33
ENDBRANCH  28  29
ENDBRANCH  27  28
ENDBRANCH  26  27
ENDBRANCH   1  26
TORSDOF 16
ENDMDL
MODEL 3
REMARK VINA RESULT:     -11.8      3.057      8.132
REMARK SMILES COC(=O)c1ccc(Cl)c(-c2ccc(C(=O)NCCCCCCNC(=O)c3ccc(-c4c5nc(c(-c6c(F)c(F)c(F)c(F)c6F)c6ccc([nH]6)c(-c6c(F)c(F)c(F)c(F)c6F)c6nc(c(-c7c(F)c(F)c(F)c(F)c7F)c7ccc4[nH]7)C=C6)C=C5)cc3)c(F)c2)c1
REMARK SMILES IDX 20 1 19 2 18 3 17 4 15 5 16 6 14 8 11 9 12 10 92 11 13 12
REMARK SMILES IDX 90 13 91 14 10 15 5 16 6 17 93 18 7 19 8 20 9 21 3 22 4 23
REMARK SMILES IDX 2 24 1 25 21 26 22 27 23 28 24 29 25 30 26 32 27 33 28 34
REMARK SMILES IDX 89 35 29 36 88 37 30 38 31 39 32 40 82 41 33 42 87 43 81 44
REMARK SMILES IDX 83 45 34 46 86 47 80 48 79 49 35 51 67 52 47 53 66 54 48 55
REMARK SMILES IDX 51 56 65 57 84 58 49 59 50 60 64 62 85 63 52 64 36 65 37 66
REMARK SMILES IDX 45 67 38 68 39 69 43 70 46 71 40 72 41 73 44 74 42 75 68 76
REMARK SMILES IDX 69 77 77 78 70 79 71 80 75 81 78 82 72 83 73 84 76 85 74 86
REMARK SMILES IDX 53 87 54 88 62 89 55 90 56 91 60 92 63 93 57 94 58 95 61 96
REMARK SMILES IDX 59 97
REMARK H PARENT 17 7 24 31 83 50 51 61
REMARK Flexibility Score: inf
ROOT
ATOM      1  C   UNL A   1      36.832  21.714  24.296  1.00  0.00     0.002 C 
ENDROOT
BRANCH   1   2
ATOM      2  C   UNL A   1      35.487  22.452  24.300  1.00  0.00     0.021 C 
BRANCH   2   3
ATOM      3  C   UNL A   1      34.335  21.622  24.874  1.00  0.00     0.116 C 
BRANCH   3   4
ATOM      4  N   UNL A   1      33.436  21.217  23.811  1.00  0.00    -0.352 N 
ATOM      5  C   UNL A   1      32.375  21.834  23.204  1.00  0.00     0.254 C 
ATOM      6  O   UNL A   1      31.784  21.195  22.330  1.00  0.00    -0.269 OA
ATOM      7  H   UNL A   1      33.627  20.319  23.454  1.00  0.00     0.163 HD
BRANCH   5   8
ATOM      8  C   UNL A   1      31.944  23.231  23.467  1.00  0.00     0.075 A 
ATOM      9  C   UNL A   1      31.263  25.974  23.778  1.00  0.00    -0.014 A 
ATOM     10  C   UNL A   1      32.043  25.555  22.697  1.00  0.00     0.010 A 
ATOM     11  C   UNL A   1      30.803  25.002  24.676  1.00  0.00     0.048 A 
ATOM     12  C   UNL A   1      32.383  24.203  22.548  1.00  0.00     0.017 A 
ATOM     13  C   UNL A   1      31.111  23.651  24.500  1.00  0.00     0.136 A 
ATOM     14  F   UNL A   1      30.524  22.792  25.341  1.00  0.00    -0.206 F 
BRANCH   9  15
ATOM     15  C   UNL A   1      30.914  27.384  23.992  1.00  0.00     0.001 A 
ATOM     16  C   UNL A   1      29.564  29.304  23.305  1.00  0.00     0.060 A 
ATOM     17  C   UNL A   1      30.297  30.137  24.155  1.00  0.00     0.017 A 
ATOM     18  C   UNL A   1      29.857  27.936  23.244  1.00  0.00     0.026 A 
ATOM     19  C   UNL A   1      31.325  29.599  24.932  1.00  0.00     0.022 A 
ATOM     20  C   UNL A   1      31.637  28.236  24.848  1.00  0.00     0.048 A 
ATOM     21  Cl  UNL A   1      32.965  27.663  25.797  1.00  0.00    -0.084 Cl
BRANCH  16  22
ATOM     22  C   UNL A   1      28.493  29.822  22.418  1.00  0.00     0.337 C 
ATOM     23  O   UNL A   1      28.656  30.064  21.237  1.00  0.00    -0.246 OA
BRANCH  22  24
ATOM     24  O   UNL A   1      27.380  30.074  23.151  1.00  0.00    -0.465 OA
ATOM     25  C   UNL A   1      27.283  31.425  23.608  1.00  0.00     0.282 C 
ENDBRANCH  22  24
ENDBRANCH  16  22
ENDBRANCH   9  15
ENDBRANCH   5   8
ENDBRANCH   3   4
ENDBRANCH   2   3
ENDBRANCH   1   2
BRANCH   1  26
ATOM     26  C   UNL A   1      36.820  20.351  25.000  1.00  0.00     0.002 C 
BRANCH  26  27
ATOM     27  C   UNL A   1      38.133  19.567  24.915  1.00  0.00     0.021 C 
BRANCH  27  28
ATOM     28  C   UNL A   1      39.259  20.132  25.775  1.00  0.00     0.116 C 
BRANCH  28  29
ATOM     29  N   UNL A   1      40.313  19.153  25.989  1.00  0.00    -0.352 N 
ATOM     30  C   UNL A   1      41.661  19.348  26.153  1.00  0.00     0.251 C 
ATOM     31  H   UNL A   1      40.016  18.215  26.023  1.00  0.00     0.163 HD
ATOM     32  O   UNL A   1      42.439  18.402  26.080  1.00  0.00    -0.269 OA
BRANCH  30  33
ATOM     33  C   UNL A   1      42.179  20.706  26.411  1.00  0.00     0.039 A 
ATOM     34  C   UNL A   1      42.510  21.525  25.328  1.00  0.00     0.014 A 
ATOM     35  C   UNL A   1      42.360  21.162  27.721  1.00  0.00     0.014 A 
ATOM     36  C   UNL A   1      42.976  22.820  25.559  1.00  0.00     0.010 A 
ATOM     37  C   UNL A   1      42.756  22.476  27.948  1.00  0.00     0.010 A 
ATOM     38  C   UNL A   1      43.074  23.314  26.869  1.00  0.00    -0.014 A 
BRANCH  38  39
ATOM     39  C   UNL A   1      43.511  24.706  27.135  1.00  0.00     0.031 A 
ATOM     40  C   UNL A   1      42.543  25.709  27.693  1.00  0.00     0.074 A 
ATOM     41  C   UNL A   1      44.764  25.079  26.816  1.00  0.00     0.049 A 
ATOM     42  N   UNL A   1      42.718  26.983  27.935  1.00  0.00    -0.248 NA
ATOM     43  C   UNL A   1      41.189  25.219  27.996  1.00  0.00     0.031 C 
ATOM     44  C   UNL A   1      45.781  24.203  26.235  1.00  0.00     0.029 A 
ATOM     45  N   UNL A   1      45.394  26.292  26.933  1.00  0.00    -0.354 N 
ATOM     46  C   UNL A   1      41.500  27.447  28.410  1.00  0.00     0.074 A 
ATOM     47  C   UNL A   1      40.576  26.334  28.364  1.00  0.00     0.031 C 
ATOM     48  C   UNL A   1      46.918  24.897  26.077  1.00  0.00     0.029 A 
ATOM     49  C   UNL A   1      46.699  26.275  26.508  1.00  0.00     0.049 A 
ATOM     50  H   UNL A   1      44.952  27.097  27.286  1.00  0.00     0.167 HD
ATOM     51  C   UNL A   1      41.189  28.681  28.869  1.00  0.00     0.037 A 
ATOM     52  C   UNL A   1      47.617  27.260  26.471  1.00  0.00     0.037 A 
ATOM     53  C   UNL A   1      42.119  29.780  28.925  1.00  0.00     0.049 A 
ATOM     54  C   UNL A   1      47.244  28.631  26.959  1.00  0.00     0.074 A 
ATOM     55  C   UNL A   1      41.915  31.057  29.413  1.00  0.00     0.029 A 
ATOM     56  N   UNL A   1      43.429  29.728  28.472  1.00  0.00    -0.354 N 
ATOM     57  N   UNL A   1      46.102  29.050  27.448  1.00  0.00    -0.248 NA
ATOM     58  C   UNL A   1      48.285  29.666  26.890  1.00  0.00     0.031 C 
ATOM     59  C   UNL A   1      43.086  31.794  29.210  1.00  0.00     0.029 A 
ATOM     60  C   UNL A   1      44.040  30.959  28.647  1.00  0.00     0.049 A 
ATOM     61  H   UNL A   1      43.862  28.933  28.083  1.00  0.00     0.167 HD
ATOM     62  C   UNL A   1      46.290  30.388  27.764  1.00  0.00     0.074 A 
ATOM     63  C   UNL A   1      47.660  30.710  27.419  1.00  0.00     0.031 C 
ATOM     64  C   UNL A   1      45.404  31.267  28.295  1.00  0.00     0.037 A 
BRANCH  51  65
ATOM     65  C   UNL A   1      39.786  28.907  29.354  1.00  0.00     0.064 A 
ATOM     66  C   UNL A   1      39.430  28.617  30.680  1.00  0.00     0.173 A 
ATOM     67  C   UNL A   1      38.781  29.386  28.497  1.00  0.00     0.173 A 
ATOM     68  F   UNL A   1      40.348  28.150  31.539  1.00  0.00    -0.203 F 
ATOM     69  C   UNL A   1      38.126  28.800  31.129  1.00  0.00     0.198 A 
ATOM     70  C   UNL A   1      37.485  29.599  28.958  1.00  0.00     0.198 A 
ATOM     71  F   UNL A   1      39.070  29.689  27.222  1.00  0.00    -0.203 F 
ATOM     72  F   UNL A   1      37.805  28.496  32.395  1.00  0.00    -0.200 F 
ATOM     73  C   UNL A   1      37.156  29.300  30.272  1.00  0.00     0.200 A 
ATOM     74  F   UNL A   1      36.559  30.110  28.135  1.00  0.00    -0.200 F 
ATOM     75  F   UNL A   1      35.907  29.500  30.713  1.00  0.00    -0.200 F 
ENDBRANCH  51  65
BRANCH  52  76
ATOM     76  C   UNL A   1      48.989  26.947  26.001  1.00  0.00     0.064 A 
ATOM     77  C   UNL A   1      49.358  27.104  24.657  1.00  0.00     0.173 A 
ATOM     78  C   UNL A   1      49.936  26.405  26.882  1.00  0.00     0.173 A 
ATOM     79  F   UNL A   1      48.484  27.611  23.776  1.00  0.00    -0.203 F 
ATOM     80  C   UNL A   1      50.613  26.701  24.205  1.00  0.00     0.198 A 
ATOM     81  C   UNL A   1      51.198  26.023  26.432  1.00  0.00     0.198 A 
ATOM     82  F   UNL A   1      49.632  26.252  28.179  1.00  0.00    -0.203 F 
ATOM     83  F   UNL A   1      50.925  26.819  22.908  1.00  0.00    -0.200 F 
ATOM     84  C   UNL A   1      51.531  26.160  25.092  1.00  0.00     0.200 A 
ATOM     85  F   UNL A   1      52.088  25.515  27.295  1.00  0.00    -0.200 F 
ATOM     86  F   UNL A   1      52.736  25.766  24.657  1.00  0.00    -0.200 F 
ENDBRANCH  52  76
BRANCH  64  87
ATOM     87  C   UNL A   1      45.882  32.665  28.556  1.00  0.00     0.064 A 
ATOM     88  C   UNL A   1      45.756  33.654  27.568  1.00  0.00     0.173 A 
ATOM     89  C   UNL A   1      46.545  33.003  29.744  1.00  0.00     0.173 A 
ATOM     90  F   UNL A   1      45.136  33.377  26.410  1.00  0.00    -0.203 F 
ATOM     91  C   UNL A   1      46.294  34.924  27.752  1.00  0.00     0.198 A 
ATOM     92  C   UNL A   1      47.059  34.283  29.936  1.00  0.00     0.198 A 
ATOM     93  F   UNL A   1      46.680  32.096  30.724  1.00  0.00    -0.203 F 
ATOM     94  F   UNL A   1      46.196  35.840  26.780  1.00  0.00    -0.200 F 
ATOM     95  C   UNL A   1      46.943  35.238  28.937  1.00  0.00     0.200 A 
ATOM     96  F   UNL A   1      47.666  34.593  31.090  1.00  0.00    -0.200 F 
ATOM     97  F   UNL A   1      47.456  36.463  29.116  1.00  0.00    -0.200 F 
ENDBRANCH  64  87
ENDBRANCH  38  39
ENDBRANCH  30  33
ENDBRANCH  28  29
ENDBRANCH  27  28
ENDBRANCH  26  27
ENDBRANCH   1  26
TORSDOF 16
ENDMDL
