MODEL 1
REMARK VINA RESULT:     -11.8      0.000      0.000
REMARK SMILES Cc1cc(C[N@@H+]2C[C@H](C)[C@H](C(=O)NCCCCCCNC(=O)c3ccc(-c4c5nc(c(-c6c(F)c(F)c(F)c(F)c6F)c6ccc([nH]6)c(-c6c(F)c(F)c(F)c(F)c6F)c6nc(c(-c7c(F)c(F)c(F)c(F)c7F)c7ccc4[nH]7)C=C6)C=C5)cc3)C2)ccc1Br
REMARK SMILES IDX 16 1 15 2 14 3 13 4 11 5 12 6 10 8 6 9 7 10 86 11 8 13 9 14
REMARK SMILES IDX 5 15 4 16 1 17 2 18 3 19 89 20 88 21 90 22 87 23 17 24 18 25
REMARK SMILES IDX 19 26 20 27 21 28 22 30 23 31 24 32 85 33 25 34 84 35 26 36
REMARK SMILES IDX 27 37 28 38 78 39 29 40 83 41 77 42 79 43 30 44 82 45 76 46
REMARK SMILES IDX 75 47 31 49 63 50 43 51 62 52 44 53 47 54 61 55 80 56 45 57
REMARK SMILES IDX 46 58 60 60 81 61 48 62 32 63 33 64 41 65 34 66 35 67 39 68
REMARK SMILES IDX 42 69 36 70 37 71 40 72 38 73 64 74 65 75 73 76 66 77 67 78
REMARK SMILES IDX 71 79 74 80 68 81 69 82 72 83 70 84 49 85 50 86 58 87 51 88
REMARK SMILES IDX 52 89 56 90 59 91 53 92 54 93 57 94 55 95
REMARK H PARENT 13 7 6 12 20 29 79 48 47 59
REMARK Flexibility Score: inf
ROOT
ATOM      1  C   UNL A   1      32.643  30.039  27.203  1.00  0.00     0.002 C 
ENDROOT
BRANCH   1   2
ATOM      2  C   UNL A   1      32.492  28.516  27.263  1.00  0.00     0.021 C 
BRANCH   2   3
ATOM      3  C   UNL A   1      31.159  27.970  26.751  1.00  0.00     0.116 C 
BRANCH   3   4
ATOM      4  N   UNL A   1      31.082  26.526  26.863  1.00  0.00    -0.356 N 
ATOM      5  C   UNL A   1      31.330  25.525  25.983  1.00  0.00     0.229 C 
ATOM      6  O   UNL A   1      31.111  24.377  26.391  1.00  0.00    -0.275 OA
ATOM      7  H   UNL A   1      30.792  26.212  27.750  1.00  0.00     0.163 HD
BRANCH   5   8
ATOM      8  C   UNL A   1      31.816  25.722  24.553  1.00  0.00     0.142 C 
ATOM      9  N   UNL A   1      32.537  24.742  22.518  1.00  0.00    -0.330 N 
ATOM     10  C   UNL A   1      33.513  25.764  22.865  1.00  0.00     0.266 C 
ATOM     11  C   UNL A   1      31.507  24.626  23.542  1.00  0.00     0.276 C 
ATOM     12  H   UNL A   1      32.063  25.101  21.689  1.00  0.00     0.348 HD
ATOM     13  C   UNL A   1      33.280  26.122  24.334  1.00  0.00     0.059 C 
ATOM     14  C   UNL A   1      34.324  25.490  25.242  1.00  0.00     0.015 C 
BRANCH   9  15
ATOM     15  C   UNL A   1      32.995  23.529  21.859  1.00  0.00     0.299 C 
BRANCH  15  16
ATOM     16  C   UNL A   1      32.995  22.259  22.686  1.00  0.00     0.007 A 
ATOM     17  C   UNL A   1      34.664  21.010  25.871  1.00  0.00     0.045 C 
ATOM     18  C   UNL A   1      33.801  20.994  24.638  1.00  0.00    -0.036 A 
ATOM     19  C   UNL A   1      33.806  22.150  23.830  1.00  0.00     0.014 A 
ATOM     20  C   UNL A   1      32.962  19.933  24.275  1.00  0.00     0.020 A 
ATOM     21  C   UNL A   1      32.154  20.028  23.139  1.00  0.00     0.016 A 
ATOM     22  Br  UNL A   1      32.832  18.326  25.276  1.00  0.00    -0.051 Br
ATOM     23  C   UNL A   1      32.160  21.186  22.362  1.00  0.00     0.011 A 
ENDBRANCH  15  16
ENDBRANCH   9  15
ENDBRANCH   5   8
ENDBRANCH   3   4
ENDBRANCH   2   3
ENDBRANCH   1   2
BRANCH   1  24
ATOM     24  C   UNL A   1      31.591  30.788  26.378  1.00  0.00     0.002 C 
BRANCH  24  25
ATOM     25  C   UNL A   1      31.414  32.271  26.707  1.00  0.00     0.021 C 
BRANCH  25  26
ATOM     26  C   UNL A   1      32.701  33.057  26.948  1.00  0.00     0.116 C 
BRANCH  26  27
ATOM     27  N   UNL A   1      32.472  34.300  27.661  1.00  0.00    -0.352 N 
ATOM     28  C   UNL A   1      33.090  34.801  28.782  1.00  0.00     0.251 C 
ATOM     29  H   UNL A   1      31.764  34.872  27.285  1.00  0.00     0.163 HD
ATOM     30  O   UNL A   1      32.634  35.802  29.327  1.00  0.00    -0.269 OA
BRANCH  28  31
ATOM     31  C   UNL A   1      34.289  34.144  29.359  1.00  0.00     0.039 A 
ATOM     32  C   UNL A   1      34.100  33.138  30.314  1.00  0.00     0.014 A 
ATOM     33  C   UNL A   1      35.587  34.540  29.027  1.00  0.00     0.014 A 
ATOM     34  C   UNL A   1      35.203  32.503  30.895  1.00  0.00     0.010 A 
ATOM     35  C   UNL A   1      36.687  33.864  29.560  1.00  0.00     0.010 A 
ATOM     36  C   UNL A   1      36.508  32.844  30.507  1.00  0.00    -0.014 A 
BRANCH  36  37
ATOM     37  C   UNL A   1      37.684  32.152  31.102  1.00  0.00     0.031 A 
ATOM     38  C   UNL A   1      38.169  32.513  32.481  1.00  0.00     0.074 A 
ATOM     39  C   UNL A   1      38.342  31.215  30.391  1.00  0.00     0.049 A 
ATOM     40  N   UNL A   1      39.180  32.026  33.158  1.00  0.00    -0.248 NA
ATOM     41  C   UNL A   1      37.433  33.574  33.185  1.00  0.00     0.031 C 
ATOM     42  C   UNL A   1      38.010  30.802  29.028  1.00  0.00     0.029 A 
ATOM     43  N   UNL A   1      39.431  30.442  30.717  1.00  0.00    -0.354 N 
ATOM     44  C   UNL A   1      39.208  32.729  34.356  1.00  0.00     0.074 A 
ATOM     45  C   UNL A   1      38.144  33.707  34.296  1.00  0.00     0.031 C 
ATOM     46  C   UNL A   1      38.860  29.836  28.642  1.00  0.00     0.029 A 
ATOM     47  C   UNL A   1      39.813  29.581  29.717  1.00  0.00     0.049 A 
ATOM     48  H   UNL A   1      39.892  30.501  31.584  1.00  0.00     0.167 HD
ATOM     49  C   UNL A   1      40.030  32.559  35.421  1.00  0.00     0.037 A 
ATOM     50  C   UNL A   1      40.818  28.684  29.674  1.00  0.00     0.037 A 
ATOM     51  C   UNL A   1      41.071  31.567  35.499  1.00  0.00     0.049 A 
ATOM     52  C   UNL A   1      41.710  28.508  30.873  1.00  0.00     0.074 A 
ATOM     53  C   UNL A   1      41.911  31.279  36.562  1.00  0.00     0.029 A 
ATOM     54  N   UNL A   1      41.416  30.703  34.473  1.00  0.00    -0.354 N 
ATOM     55  N   UNL A   1      41.677  29.129  32.027  1.00  0.00    -0.248 NA
ATOM     56  C   UNL A   1      42.774  27.499  30.765  1.00  0.00     0.031 C 
ATOM     57  C   UNL A   1      42.790  30.267  36.164  1.00  0.00     0.029 A 
ATOM     58  C   UNL A   1      42.470  29.893  34.870  1.00  0.00     0.049 A 
ATOM     59  H   UNL A   1      40.977  30.667  33.592  1.00  0.00     0.167 HD
ATOM     60  C   UNL A   1      42.695  28.569  32.789  1.00  0.00     0.074 A 
ATOM     61  C   UNL A   1      43.317  27.548  31.973  1.00  0.00     0.031 C 
ATOM     62  C   UNL A   1      43.077  28.875  34.052  1.00  0.00     0.037 A 
BRANCH  49  63
ATOM     63  C   UNL A   1      39.831  33.465  36.601  1.00  0.00     0.064 A 
ATOM     64  C   UNL A   1      40.505  34.691  36.706  1.00  0.00     0.173 A 
ATOM     65  C   UNL A   1      38.926  33.125  37.617  1.00  0.00     0.173 A 
ATOM     66  F   UNL A   1      41.389  35.059  35.765  1.00  0.00    -0.203 F 
ATOM     67  C   UNL A   1      40.301  35.531  37.798  1.00  0.00     0.198 A 
ATOM     68  C   UNL A   1      38.703  33.979  38.694  1.00  0.00     0.198 A 
ATOM     69  F   UNL A   1      38.250  31.968  37.561  1.00  0.00    -0.203 F 
ATOM     70  F   UNL A   1      40.989  36.676  37.899  1.00  0.00    -0.200 F 
ATOM     71  C   UNL A   1      39.395  35.177  38.788  1.00  0.00     0.200 A 
ATOM     72  F   UNL A   1      37.818  33.643  39.642  1.00  0.00    -0.200 F 
ATOM     73  F   UNL A   1      39.193  35.989  39.834  1.00  0.00    -0.200 F 
ENDBRANCH  49  63
BRANCH  50  74
ATOM     74  C   UNL A   1      41.017  27.856  28.456  1.00  0.00     0.064 A 
ATOM     75  C   UNL A   1      41.859  28.287  27.422  1.00  0.00     0.173 A 
ATOM     76  C   UNL A   1      40.365  26.625  28.298  1.00  0.00     0.173 A 
ATOM     77  F   UNL A   1      42.485  29.469  27.518  1.00  0.00    -0.203 F 
ATOM     78  C   UNL A   1      42.028  27.527  26.267  1.00  0.00     0.198 A 
ATOM     79  C   UNL A   1      40.555  25.852  27.154  1.00  0.00     0.198 A 
ATOM     80  F   UNL A   1      39.551  26.166  29.260  1.00  0.00    -0.203 F 
ATOM     81  F   UNL A   1      42.805  27.983  25.275  1.00  0.00    -0.200 F 
ATOM     82  C   UNL A   1      41.380  26.307  26.136  1.00  0.00     0.200 A 
ATOM     83  F   UNL A   1      39.938  24.669  27.036  1.00  0.00    -0.200 F 
ATOM     84  F   UNL A   1      41.546  25.575  25.027  1.00  0.00    -0.200 F 
ENDBRANCH  50  74
BRANCH  62  85
ATOM     85  C   UNL A   1      44.203  28.078  34.644  1.00  0.00     0.064 A 
ATOM     86  C   UNL A   1      45.541  28.465  34.486  1.00  0.00     0.173 A 
ATOM     87  C   UNL A   1      43.935  26.929  35.406  1.00  0.00     0.173 A 
ATOM     88  F   UNL A   1      45.849  29.546  33.753  1.00  0.00    -0.203 F 
ATOM     89  C   UNL A   1      46.573  27.718  35.050  1.00  0.00     0.198 A 
ATOM     90  C   UNL A   1      44.968  26.202  35.990  1.00  0.00     0.198 A 
ATOM     91  F   UNL A   1      42.672  26.519  35.591  1.00  0.00    -0.203 F 
ATOM     92  F   UNL A   1      47.847  28.082  34.848  1.00  0.00    -0.200 F 
ATOM     93  C   UNL A   1      46.286  26.592  35.805  1.00  0.00     0.200 A 
ATOM     94  F   UNL A   1      44.688  25.119  36.730  1.00  0.00    -0.200 F 
ATOM     95  F   UNL A   1      47.280  25.877  36.350  1.00  0.00    -0.200 F 
ENDBRANCH  62  85
ENDBRANCH  36  37
ENDBRANCH  28  31
ENDBRANCH  26  27
ENDBRANCH  25  26
ENDBRANCH  24  25
ENDBRANCH   1  24
TORSDOF 15
ENDMDL
MODEL 2
REMARK VINA RESULT:     -11.8      2.599      3.891
REMARK SMILES Cc1cc(C[N@@H+]2C[C@H](C)[C@H](C(=O)NCCCCCCNC(=O)c3ccc(-c4c5nc(c(-c6c(F)c(F)c(F)c(F)c6F)c6ccc([nH]6)c(-c6c(F)c(F)c(F)c(F)c6F)c6nc(c(-c7c(F)c(F)c(F)c(F)c7F)c7ccc4[nH]7)C=C6)C=C5)cc3)C2)ccc1Br
REMARK SMILES IDX 16 1 15 2 14 3 13 4 11 5 12 6 10 8 6 9 7 10 86 11 8 13 9 14
REMARK SMILES IDX 5 15 4 16 1 17 2 18 3 19 89 20 88 21 90 22 87 23 17 24 18 25
REMARK SMILES IDX 19 26 20 27 21 28 22 30 23 31 24 32 85 33 25 34 84 35 26 36
REMARK SMILES IDX 27 37 28 38 78 39 29 40 83 41 77 42 79 43 30 44 82 45 76 46
REMARK SMILES IDX 75 47 31 49 63 50 43 51 62 52 44 53 47 54 61 55 80 56 45 57
REMARK SMILES IDX 46 58 60 60 81 61 48 62 32 63 33 64 41 65 34 66 35 67 39 68
REMARK SMILES IDX 42 69 36 70 37 71 40 72 38 73 64 74 65 75 73 76 66 77 67 78
REMARK SMILES IDX 71 79 74 80 68 81 69 82 72 83 70 84 49 85 50 86 58 87 51 88
REMARK SMILES IDX 52 89 56 90 59 91 53 92 54 93 57 94 55 95
REMARK H PARENT 13 7 6 12 20 29 79 48 47 59
REMARK Flexibility Score: inf
ROOT
ATOM      1  C   UNL A   1      34.737  32.667  29.011  1.00  0.00     0.002 C 
ENDROOT
BRANCH   1   2
ATOM      2  C   UNL A   1      34.242  31.978  27.735  1.00  0.00     0.021 C 
BRANCH   2   3
ATOM      3  C   UNL A   1      34.626  30.505  27.596  1.00  0.00     0.116 C 
BRANCH   3   4
ATOM      4  N   UNL A   1      33.516  29.621  27.892  1.00  0.00    -0.356 N 
ATOM      5  C   UNL A   1      33.095  28.461  27.329  1.00  0.00     0.229 C 
ATOM      6  O   UNL A   1      32.058  27.976  27.799  1.00  0.00    -0.275 OA
ATOM      7  H   UNL A   1      32.960  29.921  28.646  1.00  0.00     0.163 HD
BRANCH   5   8
ATOM      8  C   UNL A   1      33.781  27.756  26.167  1.00  0.00     0.142 C 
ATOM      9  N   UNL A   1      33.819  27.269  23.847  1.00  0.00    -0.330 N 
ATOM     10  C   UNL A   1      33.968  26.003  24.547  1.00  0.00     0.266 C 
ATOM     11  C   UNL A   1      33.639  28.372  24.781  1.00  0.00     0.276 C 
ATOM     12  H   UNL A   1      34.722  27.431  23.399  1.00  0.00     0.348 HD
ATOM     13  C   UNL A   1      33.561  26.248  26.001  1.00  0.00     0.059 C 
ATOM     14  C   UNL A   1      32.171  25.705  26.298  1.00  0.00     0.015 C 
BRANCH   9  15
ATOM     15  C   UNL A   1      33.076  27.296  22.596  1.00  0.00     0.299 C 
BRANCH  15  16
ATOM     16  C   UNL A   1      31.652  27.812  22.656  1.00  0.00     0.007 A 
ATOM     17  C   UNL A   1      28.296  26.574  23.958  1.00  0.00     0.045 C 
ATOM     18  C   UNL A   1      29.299  27.484  23.303  1.00  0.00    -0.036 A 
ATOM     19  C   UNL A   1      30.627  27.019  23.202  1.00  0.00     0.014 A 
ATOM     20  C   UNL A   1      29.011  28.773  22.838  1.00  0.00     0.020 A 
ATOM     21  C   UNL A   1      30.020  29.570  22.291  1.00  0.00     0.016 A 
ATOM     22  Br  UNL A   1      27.279  29.543  22.929  1.00  0.00    -0.051 Br
ATOM     23  C   UNL A   1      31.330  29.098  22.216  1.00  0.00     0.011 A 
ENDBRANCH  15  16
ENDBRANCH   9  15
ENDBRANCH   5   8
ENDBRANCH   3   4
ENDBRANCH   2   3
ENDBRANCH   1   2
BRANCH   1  24
ATOM     24  C   UNL A   1      34.696  34.200  29.007  1.00  0.00     0.002 C 
BRANCH  24  25
ATOM     25  C   UNL A   1      33.303  34.832  29.038  1.00  0.00     0.021 C 
BRANCH  25  26
ATOM     26  C   UNL A   1      33.219  36.226  29.654  1.00  0.00     0.116 C 
BRANCH  26  27
ATOM     27  N   UNL A   1      32.389  36.263  30.844  1.00  0.00    -0.352 N 
ATOM     28  C   UNL A   1      32.574  35.668  32.068  1.00  0.00     0.251 C 
ATOM     29  H   UNL A   1      31.565  36.797  30.761  1.00  0.00     0.163 HD
ATOM     30  O   UNL A   1      31.666  35.689  32.894  1.00  0.00    -0.269 OA
BRANCH  28  31
ATOM     31  C   UNL A   1      33.845  34.979  32.406  1.00  0.00     0.039 A 
ATOM     32  C   UNL A   1      33.783  33.660  32.867  1.00  0.00     0.014 A 
ATOM     33  C   UNL A   1      35.081  35.626  32.337  1.00  0.00     0.014 A 
ATOM     34  C   UNL A   1      34.957  32.979  33.211  1.00  0.00     0.010 A 
ATOM     35  C   UNL A   1      36.258  34.927  32.621  1.00  0.00     0.010 A 
ATOM     36  C   UNL A   1      36.208  33.599  33.070  1.00  0.00    -0.014 A 
BRANCH  36  37
ATOM     37  C   UNL A   1      37.461  32.870  33.409  1.00  0.00     0.031 A 
ATOM     38  C   UNL A   1      38.198  33.166  34.688  1.00  0.00     0.074 A 
ATOM     39  C   UNL A   1      37.959  31.958  32.551  1.00  0.00     0.049 A 
ATOM     40  N   UNL A   1      39.308  32.640  35.146  1.00  0.00    -0.248 NA
ATOM     41  C   UNL A   1      37.624  34.202  35.558  1.00  0.00     0.031 C 
ATOM     42  C   UNL A   1      37.375  31.608  31.257  1.00  0.00     0.029 A 
ATOM     43  N   UNL A   1      39.075  31.160  32.638  1.00  0.00    -0.354 N 
ATOM     44  C   UNL A   1      39.568  33.289  36.346  1.00  0.00     0.074 A 
ATOM     45  C   UNL A   1      38.529  34.280  36.523  1.00  0.00     0.031 C 
ATOM     46  C   UNL A   1      38.121  30.650  30.682  1.00  0.00     0.029 A 
ATOM     47  C   UNL A   1      39.251  30.339  31.551  1.00  0.00     0.049 A 
ATOM     48  H   UNL A   1      39.690  31.177  33.407  1.00  0.00     0.167 HD
ATOM     49  C   UNL A   1      40.569  33.065  37.233  1.00  0.00     0.037 A 
ATOM     50  C   UNL A   1      40.214  29.435  31.287  1.00  0.00     0.037 A 
ATOM     51  C   UNL A   1      41.588  32.060  37.077  1.00  0.00     0.049 A 
ATOM     52  C   UNL A   1      41.309  29.197  32.292  1.00  0.00     0.074 A 
ATOM     53  C   UNL A   1      42.604  31.717  37.954  1.00  0.00     0.029 A 
ATOM     54  N   UNL A   1      41.722  31.237  35.970  1.00  0.00    -0.354 N 
ATOM     55  N   UNL A   1      41.501  29.768  33.456  1.00  0.00    -0.248 NA
ATOM     56  C   UNL A   1      42.316  28.183  31.948  1.00  0.00     0.031 C 
ATOM     57  C   UNL A   1      43.376  30.714  37.360  1.00  0.00     0.029 A 
ATOM     58  C   UNL A   1      42.817  30.401  36.133  1.00  0.00     0.049 A 
ATOM     59  H   UNL A   1      41.129  31.244  35.185  1.00  0.00     0.167 HD
ATOM     60  C   UNL A   1      42.630  29.165  33.994  1.00  0.00     0.074 A 
ATOM     61  C   UNL A   1      43.073  28.174  33.036  1.00  0.00     0.031 C 
ATOM     62  C   UNL A   1      43.244  29.413  35.176  1.00  0.00     0.037 A 
BRANCH  49  63
ATOM     63  C   UNL A   1      40.608  33.921  38.465  1.00  0.00     0.064 A 
ATOM     64  C   UNL A   1      41.365  35.101  38.515  1.00  0.00     0.173 A 
ATOM     65  C   UNL A   1      39.846  33.582  39.593  1.00  0.00     0.173 A 
ATOM     66  F   UNL A   1      42.118  35.465  37.465  1.00  0.00    -0.203 F 
ATOM     67  C   UNL A   1      41.381  35.896  39.659  1.00  0.00     0.198 A 
ATOM     68  C   UNL A   1      39.842  34.393  40.725  1.00  0.00     0.198 A 
ATOM     69  F   UNL A   1      39.099  32.468  39.595  1.00  0.00    -0.203 F 
ATOM     70  F   UNL A   1      42.146  36.995  39.699  1.00  0.00    -0.200 F 
ATOM     71  C   UNL A   1      40.614  35.544  40.760  1.00  0.00     0.200 A 
ATOM     72  F   UNL A   1      39.090  34.060  41.784  1.00  0.00    -0.200 F 
ATOM     73  F   UNL A   1      40.623  36.314  41.858  1.00  0.00    -0.200 F 
ENDBRANCH  49  63
BRANCH  50  74
ATOM     74  C   UNL A   1      40.170  28.658  30.020  1.00  0.00     0.064 A 
ATOM     75  C   UNL A   1      39.513  27.421  29.957  1.00  0.00     0.173 A 
ATOM     76  C   UNL A   1      40.789  29.130  28.854  1.00  0.00     0.173 A 
ATOM     77  F   UNL A   1      38.928  26.918  31.054  1.00  0.00    -0.203 F 
ATOM     78  C   UNL A   1      39.492  26.677  28.780  1.00  0.00     0.198 A 
ATOM     79  C   UNL A   1      40.744  28.397  27.670  1.00  0.00     0.198 A 
ATOM     80  F   UNL A   1      41.428  30.309  28.861  1.00  0.00    -0.203 F 
ATOM     81  F   UNL A   1      38.894  25.478  28.759  1.00  0.00    -0.200 F 
ATOM     82  C   UNL A   1      40.103  27.168  27.636  1.00  0.00     0.200 A 
ATOM     83  F   UNL A   1      41.325  28.880  26.563  1.00  0.00    -0.200 F 
ATOM     84  F   UNL A   1      40.079  26.453  26.502  1.00  0.00    -0.200 F 
ENDBRANCH  50  74
BRANCH  62  85
ATOM     85  C   UNL A   1      44.445  28.578  35.517  1.00  0.00     0.064 A 
ATOM     86  C   UNL A   1      44.328  27.377  36.231  1.00  0.00     0.173 A 
ATOM     87  C   UNL A   1      45.725  28.971  35.095  1.00  0.00     0.173 A 
ATOM     88  F   UNL A   1      43.128  26.968  36.670  1.00  0.00    -0.203 F 
ATOM     89  C   UNL A   1      45.451  26.611  36.531  1.00  0.00     0.198 A 
ATOM     90  C   UNL A   1      46.842  28.187  35.373  1.00  0.00     0.198 A 
ATOM     91  F   UNL A   1      45.891  30.108  34.404  1.00  0.00    -0.203 F 
ATOM     92  F   UNL A   1      45.321  25.490  37.254  1.00  0.00    -0.200 F 
ATOM     93  C   UNL A   1      46.705  27.013  36.097  1.00  0.00     0.200 A 
ATOM     94  F   UNL A   1      48.052  28.572  34.943  1.00  0.00    -0.200 F 
ATOM     95  F   UNL A   1      47.785  26.271  36.383  1.00  0.00    -0.200 F 
ENDBRANCH  62  85
ENDBRANCH  36  37
ENDBRANCH  28  31
ENDBRANCH  26  27
ENDBRANCH  25  26
ENDBRANCH  24  25
ENDBRANCH   1  24
TORSDOF 15
ENDMDL
MODEL 3
REMARK VINA RESULT:     -11.8      1.768      3.168
REMARK SMILES Cc1cc(C[N@@H+]2C[C@H](C)[C@H](C(=O)NCCCCCCNC(=O)c3ccc(-c4c5nc(c(-c6c(F)c(F)c(F)c(F)c6F)c6ccc([nH]6)c(-c6c(F)c(F)c(F)c(F)c6F)c6nc(c(-c7c(F)c(F)c(F)c(F)c7F)c7ccc4[nH]7)C=C6)C=C5)cc3)C2)ccc1Br
REMARK SMILES IDX 16 1 15 2 14 3 13 4 11 5 12 6 10 8 6 9 7 10 86 11 8 13 9 14
REMARK SMILES IDX 5 15 4 16 1 17 2 18 3 19 89 20 88 21 90 22 87 23 17 24 18 25
REMARK SMILES IDX 19 26 20 27 21 28 22 30 23 31 24 32 85 33 25 34 84 35 26 36
REMARK SMILES IDX 27 37 28 38 78 39 29 40 83 41 77 42 79 43 30 44 82 45 76 46
REMARK SMILES IDX 75 47 31 49 63 50 43 51 62 52 44 53 47 54 61 55 80 56 45 57
REMARK SMILES IDX 46 58 60 60 81 61 48 62 32 63 33 64 41 65 34 66 35 67 39 68
REMARK SMILES IDX 42 69 36 70 37 71 40 72 38 73 64 74 65 75 73 76 66 77 67 78
REMARK SMILES IDX 71 79 74 80 68 81 69 82 72 83 70 84 49 85 50 86 58 87 51 88
REMARK SMILES IDX 52 89 56 90 59 91 53 92 54 93 57 94 55 95
REMARK H PARENT 13 7 6 12 20 29 79 48 47 59
REMARK Flexibility Score: inf
ROOT
ATOM      1  C   UNL A   1      34.913  32.955  28.032  1.00  0.00     0.002 C 
ENDROOT
BRANCH   1   2
ATOM      2  C   UNL A   1      34.376  31.588  28.468  1.00  0.00     0.021 C 
BRANCH   2   3
ATOM      3  C   UNL A   1      34.050  30.620  27.330  1.00  0.00     0.116 C 
BRANCH   3   4
ATOM      4  N   UNL A   1      32.996  29.691  27.690  1.00  0.00    -0.356 N 
ATOM      5  C   UNL A   1      32.258  28.818  26.961  1.00  0.00     0.229 C 
ATOM      6  O   UNL A   1      31.385  28.197  27.580  1.00  0.00    -0.275 OA
ATOM      7  H   UNL A   1      32.773  29.695  28.648  1.00  0.00     0.163 HD
BRANCH   5   8
ATOM      8  C   UNL A   1      32.410  28.586  25.463  1.00  0.00     0.142 C 
ATOM      9  N   UNL A   1      31.682  27.442  23.519  1.00  0.00    -0.330 N 
ATOM     10  C   UNL A   1      33.131  27.317  23.565  1.00  0.00     0.266 C 
ATOM     11  C   UNL A   1      31.175  28.155  24.683  1.00  0.00     0.276 C 
ATOM     12  H   UNL A   1      31.495  28.049  22.720  1.00  0.00     0.348 HD
ATOM     13  C   UNL A   1      33.565  27.700  24.981  1.00  0.00     0.059 C 
ATOM     14  C   UNL A   1      33.907  26.476  25.818  1.00  0.00     0.015 C 
BRANCH   9  15
ATOM     15  C   UNL A   1      30.899  26.335  22.992  1.00  0.00     0.299 C 
BRANCH  15  16
ATOM     16  C   UNL A   1      31.271  24.945  23.471  1.00  0.00     0.007 A 
ATOM     17  C   UNL A   1      30.408  22.691  26.414  1.00  0.00     0.045 C 
ATOM     18  C   UNL A   1      31.060  23.144  25.136  1.00  0.00    -0.036 A 
ATOM     19  C   UNL A   1      30.759  24.444  24.681  1.00  0.00     0.014 A 
ATOM     20  C   UNL A   1      31.897  22.342  24.349  1.00  0.00     0.020 A 
ATOM     21  C   UNL A   1      32.416  22.830  23.146  1.00  0.00     0.016 A 
ATOM     22  Br  UNL A   1      32.371  20.566  24.819  1.00  0.00    -0.051 Br
ATOM     23  C   UNL A   1      32.092  24.112  22.705  1.00  0.00     0.011 A 
ENDBRANCH  15  16
ENDBRANCH   9  15
ENDBRANCH   5   8
ENDBRANCH   3   4
ENDBRANCH   2   3
ENDBRANCH   1   2
BRANCH   1  24
ATOM     24  C   UNL A   1      34.694  34.109  29.018  1.00  0.00     0.002 C 
BRANCH  24  25
ATOM     25  C   UNL A   1      33.310  34.758  28.992  1.00  0.00     0.021 C 
BRANCH  25  26
ATOM     26  C   UNL A   1      33.225  36.168  29.572  1.00  0.00     0.116 C 
BRANCH  26  27
ATOM     27  N   UNL A   1      32.406  36.231  30.769  1.00  0.00    -0.352 N 
ATOM     28  C   UNL A   1      32.599  35.657  32.002  1.00  0.00     0.251 C 
ATOM     29  H   UNL A   1      31.585  36.769  30.684  1.00  0.00     0.163 HD
ATOM     30  O   UNL A   1      31.699  35.700  32.836  1.00  0.00    -0.269 OA
BRANCH  28  31
ATOM     31  C   UNL A   1      33.869  34.967  32.340  1.00  0.00     0.039 A 
ATOM     32  C   UNL A   1      33.808  33.635  32.766  1.00  0.00     0.014 A 
ATOM     33  C   UNL A   1      35.103  35.622  32.306  1.00  0.00     0.014 A 
ATOM     34  C   UNL A   1      34.981  32.952  33.109  1.00  0.00     0.010 A 
ATOM     35  C   UNL A   1      36.279  34.922  32.589  1.00  0.00     0.010 A 
ATOM     36  C   UNL A   1      36.231  33.582  33.003  1.00  0.00    -0.014 A 
BRANCH  36  37
ATOM     37  C   UNL A   1      37.482  32.851  33.340  1.00  0.00     0.031 A 
ATOM     38  C   UNL A   1      38.220  33.145  34.619  1.00  0.00     0.074 A 
ATOM     39  C   UNL A   1      37.978  31.938  32.482  1.00  0.00     0.049 A 
ATOM     40  N   UNL A   1      39.329  32.617  35.077  1.00  0.00    -0.248 NA
ATOM     41  C   UNL A   1      37.648  34.182  35.490  1.00  0.00     0.031 C 
ATOM     42  C   UNL A   1      37.393  31.590  31.188  1.00  0.00     0.029 A 
ATOM     43  N   UNL A   1      39.093  31.139  32.568  1.00  0.00    -0.354 N 
ATOM     44  C   UNL A   1      39.591  33.265  36.277  1.00  0.00     0.074 A 
ATOM     45  C   UNL A   1      38.554  34.258  36.455  1.00  0.00     0.031 C 
ATOM     46  C   UNL A   1      38.137  30.632  30.612  1.00  0.00     0.029 A 
ATOM     47  C   UNL A   1      39.268  30.318  31.481  1.00  0.00     0.049 A 
ATOM     48  H   UNL A   1      39.708  31.154  33.336  1.00  0.00     0.167 HD
ATOM     49  C   UNL A   1      40.592  33.039  37.163  1.00  0.00     0.037 A 
ATOM     50  C   UNL A   1      40.229  29.413  31.215  1.00  0.00     0.037 A 
ATOM     51  C   UNL A   1      41.610  32.033  37.007  1.00  0.00     0.049 A 
ATOM     52  C   UNL A   1      41.324  29.173  32.220  1.00  0.00     0.074 A 
ATOM     53  C   UNL A   1      42.625  31.688  37.882  1.00  0.00     0.029 A 
ATOM     54  N   UNL A   1      41.742  31.210  35.899  1.00  0.00    -0.354 N 
ATOM     55  N   UNL A   1      41.517  29.742  33.384  1.00  0.00    -0.248 NA
ATOM     56  C   UNL A   1      42.329  28.157  31.875  1.00  0.00     0.031 C 
ATOM     57  C   UNL A   1      43.396  30.684  37.288  1.00  0.00     0.029 A 
ATOM     58  C   UNL A   1      42.835  30.372  36.061  1.00  0.00     0.049 A 
ATOM     59  H   UNL A   1      41.148  31.219  35.114  1.00  0.00     0.167 HD
ATOM     60  C   UNL A   1      42.646  29.138  33.921  1.00  0.00     0.074 A 
ATOM     61  C   UNL A   1      43.087  28.146  32.963  1.00  0.00     0.031 C 
ATOM     62  C   UNL A   1      43.261  29.384  35.103  1.00  0.00     0.037 A 
BRANCH  49  63
ATOM     63  C   UNL A   1      40.633  33.895  38.395  1.00  0.00     0.064 A 
ATOM     64  C   UNL A   1      39.904  33.561  39.546  1.00  0.00     0.173 A 
ATOM     65  C   UNL A   1      41.443  35.039  38.442  1.00  0.00     0.173 A 
ATOM     66  F   UNL A   1      39.107  32.481  39.550  1.00  0.00    -0.203 F 
ATOM     67  C   UNL A   1      39.962  34.355  40.689  1.00  0.00     0.198 A 
ATOM     68  C   UNL A   1      41.521  35.816  39.595  1.00  0.00     0.198 A 
ATOM     69  F   UNL A   1      42.167  35.399  37.371  1.00  0.00    -0.203 F 
ATOM     70  F   UNL A   1      39.223  34.040  41.761  1.00  0.00    -0.200 F 
ATOM     71  C   UNL A   1      40.776  35.478  40.714  1.00  0.00     0.200 A 
ATOM     72  F   UNL A   1      42.318  36.893  39.623  1.00  0.00    -0.200 F 
ATOM     73  F   UNL A   1      40.838  36.237  41.817  1.00  0.00    -0.200 F 
ENDBRANCH  49  63
BRANCH  50  74
ATOM     74  C   UNL A   1      40.183  28.636  29.948  1.00  0.00     0.064 A 
ATOM     75  C   UNL A   1      39.512  27.407  29.881  1.00  0.00     0.173 A 
ATOM     76  C   UNL A   1      40.814  29.101  28.786  1.00  0.00     0.173 A 
ATOM     77  F   UNL A   1      38.914  26.911  30.975  1.00  0.00    -0.203 F 
ATOM     78  C   UNL A   1      39.489  26.663  28.704  1.00  0.00     0.198 A 
ATOM     79  C   UNL A   1      40.768  28.369  27.601  1.00  0.00     0.198 A 
ATOM     80  F   UNL A   1      41.467  30.272  28.797  1.00  0.00    -0.203 F 
ATOM     81  F   UNL A   1      38.877  25.472  28.680  1.00  0.00    -0.200 F 
ATOM     82  C   UNL A   1      40.112  27.147  27.563  1.00  0.00     0.200 A 
ATOM     83  F   UNL A   1      41.360  28.845  26.498  1.00  0.00    -0.200 F 
ATOM     84  F   UNL A   1      40.086  26.433  26.430  1.00  0.00    -0.200 F 
ENDBRANCH  50  74
BRANCH  62  85
ATOM     85  C   UNL A   1      44.460  28.547  35.443  1.00  0.00     0.064 A 
ATOM     86  C   UNL A   1      44.339  27.335  36.137  1.00  0.00     0.173 A 
ATOM     87  C   UNL A   1      45.744  28.950  35.040  1.00  0.00     0.173 A 
ATOM     88  F   UNL A   1      43.136  26.916  36.558  1.00  0.00    -0.203 F 
ATOM     89  C   UNL A   1      45.462  26.567  36.437  1.00  0.00     0.198 A 
ATOM     90  C   UNL A   1      46.860  28.165  35.317  1.00  0.00     0.198 A 
ATOM     91  F   UNL A   1      45.913  30.098  34.369  1.00  0.00    -0.203 F 
ATOM     92  F   UNL A   1      45.327  25.435  37.141  1.00  0.00    -0.200 F 
ATOM     93  C   UNL A   1      46.719  26.979  36.022  1.00  0.00     0.200 A 
ATOM     94  F   UNL A   1      48.073  28.559  34.905  1.00  0.00    -0.200 F 
ATOM     95  F   UNL A   1      47.798  26.236  36.307  1.00  0.00    -0.200 F 
ENDBRANCH  62  85
ENDBRANCH  36  37
ENDBRANCH  28  31
ENDBRANCH  26  27
ENDBRANCH  25  26
ENDBRANCH  24  25
ENDBRANCH   1  24
TORSDOF 15
ENDMDL
