MODEL 1
REMARK VINA RESULT:     -12.2      0.000      0.000
REMARK SMILES C[C@@H]1[C@@H](C(=O)NCCCCCCNC(=O)c2ccc(-c3c4nc(c(-c5c(F)c(F)c(F)c(F)c5F)c5ccc([nH]5)c(-c5c(F)c(F)c(F)c(F)c5F)c5nc(c(-c6c(F)c(F)c(F)c(F)c6F)c6ccc3[nH]6)C=C5)C=C4)cc2)CCN1C(=O)N1CCC[C@H]2CCC[C@@H]21
REMARK SMILES IDX 9 1 8 2 7 3 6 4 4 5 5 6 3 8 1 9 2 10 81 11 79 12 80 13 82 14
REMARK SMILES IDX 83 15 84 16 85 17 92 18 86 19 88 20 91 21 87 22 89 23 90 24
REMARK SMILES IDX 10 25 11 26 12 27 13 28 14 29 15 31 16 32 17 33 78 34 18 35
REMARK SMILES IDX 77 36 19 37 20 38 21 39 71 40 22 41 76 42 70 43 72 44 23 45
REMARK SMILES IDX 75 46 69 47 68 48 24 50 56 51 36 52 55 53 37 54 40 55 54 56
REMARK SMILES IDX 73 57 38 58 39 59 53 61 74 62 41 63 25 64 26 65 34 66 27 67
REMARK SMILES IDX 28 68 32 69 35 70 29 71 30 72 33 73 31 74 57 75 58 76 66 77
REMARK SMILES IDX 59 78 60 79 64 80 67 81 61 82 62 83 65 84 63 85 42 86 43 87
REMARK SMILES IDX 51 88 44 89 45 90 49 91 52 92 46 93 47 94 50 95 48 96
REMARK H PARENT 6 7 13 30 72 49 40 60
REMARK Flexibility Score: inf
ROOT
ATOM      1  C   UNL A   1      32.442  29.981  26.708  1.00  0.00     0.002 C 
ENDROOT
BRANCH   1   2
ATOM      2  C   UNL A   1      31.950  28.668  27.327  1.00  0.00     0.021 C 
BRANCH   2   3
ATOM      3  C   UNL A   1      32.615  27.396  26.811  1.00  0.00     0.116 C 
BRANCH   3   4
ATOM      4  N   UNL A   1      33.459  27.616  25.656  1.00  0.00    -0.356 N 
ATOM      5  C   UNL A   1      33.163  27.459  24.330  1.00  0.00     0.225 C 
ATOM      6  O   UNL A   1      34.030  27.760  23.512  1.00  0.00    -0.275 OA
ATOM      7  H   UNL A   1      34.375  27.921  25.852  1.00  0.00     0.163 HD
BRANCH   5   8
ATOM      8  C   UNL A   1      31.823  26.842  23.942  1.00  0.00     0.102 C 
ATOM      9  C   UNL A   1      30.419  24.845  24.475  1.00  0.00     0.032 C 
ATOM     10  C   UNL A   1      31.827  25.301  24.067  1.00  0.00     0.096 C 
ATOM     11  N   UNL A   1      32.209  24.832  22.721  1.00  0.00    -0.321 N 
ATOM     12  C   UNL A   1      31.434  27.054  22.476  1.00  0.00     0.037 C 
ATOM     13  C   UNL A   1      32.103  25.902  21.750  1.00  0.00     0.122 C 
BRANCH  11  14
ATOM     14  C   UNL A   1      33.033  23.766  22.393  1.00  0.00     0.320 C 
ATOM     15  O   UNL A   1      33.652  23.725  21.329  1.00  0.00    -0.248 OA
BRANCH  14  16
ATOM     16  N   UNL A   1      33.222  22.826  23.374  1.00  0.00    -0.321 N 
ATOM     17  C   UNL A   1      32.523  21.551  23.336  1.00  0.00     0.121 C 
ATOM     18  C   UNL A   1      34.456  22.768  24.134  1.00  0.00     0.090 C 
ATOM     19  C   UNL A   1      32.151  21.094  24.749  1.00  0.00     0.022 C 
ATOM     20  C   UNL A   1      34.079  22.466  25.587  1.00  0.00     0.012 C 
ATOM     21  C   UNL A   1      35.312  24.020  24.295  1.00  0.00     0.025 C 
ATOM     22  C   UNL A   1      33.364  21.122  25.697  1.00  0.00     0.007 C 
ATOM     23  C   UNL A   1      35.400  22.617  26.321  1.00  0.00     0.006 C 
ATOM     24  C   UNL A   1      36.118  23.753  25.576  1.00  0.00     0.002 C 
ENDBRANCH  14  16
ENDBRANCH  11  14
ENDBRANCH   5   8
ENDBRANCH   3   4
ENDBRANCH   2   3
ENDBRANCH   1   2
BRANCH   1  25
ATOM     25  C   UNL A   1      31.384  30.852  26.027  1.00  0.00     0.002 C 
BRANCH  25  26
ATOM     26  C   UNL A   1      31.321  32.315  26.469  1.00  0.00     0.021 C 
BRANCH  26  27
ATOM     27  C   UNL A   1      32.527  32.835  27.245  1.00  0.00     0.116 C 
BRANCH  27  28
ATOM     28  N   UNL A   1      32.379  34.211  27.679  1.00  0.00    -0.352 N 
ATOM     29  C   UNL A   1      33.078  34.917  28.627  1.00  0.00     0.251 C 
ATOM     30  H   UNL A   1      31.667  34.716  27.225  1.00  0.00     0.163 HD
ATOM     31  O   UNL A   1      32.725  36.057  28.915  1.00  0.00    -0.269 OA
BRANCH  29  32
ATOM     32  C   UNL A   1      34.235  34.314  29.330  1.00  0.00     0.039 A 
ATOM     33  C   UNL A   1      33.992  33.592  30.503  1.00  0.00     0.014 A 
ATOM     34  C   UNL A   1      35.547  34.480  28.877  1.00  0.00     0.014 A 
ATOM     35  C   UNL A   1      35.052  32.997  31.191  1.00  0.00     0.010 A 
ATOM     36  C   UNL A   1      36.598  33.833  29.529  1.00  0.00     0.010 A 
ATOM     37  C   UNL A   1      36.362  33.090  30.696  1.00  0.00    -0.014 A 
BRANCH  37  38
ATOM     38  C   UNL A   1      37.490  32.427  31.399  1.00  0.00     0.031 A 
ATOM     39  C   UNL A   1      38.213  31.275  30.759  1.00  0.00     0.074 A 
ATOM     40  C   UNL A   1      37.841  32.838  32.633  1.00  0.00     0.049 A 
ATOM     41  N   UNL A   1      39.202  30.554  31.228  1.00  0.00    -0.248 NA
ATOM     42  C   UNL A   1      37.752  30.862  29.426  1.00  0.00     0.031 C 
ATOM     43  C   UNL A   1      37.189  33.914  33.382  1.00  0.00     0.029 A 
ATOM     44  N   UNL A   1      38.828  32.395  33.478  1.00  0.00    -0.354 N 
ATOM     45  C   UNL A   1      39.470  29.600  30.256  1.00  0.00     0.074 A 
ATOM     46  C   UNL A   1      38.510  29.801  29.192  1.00  0.00     0.031 C 
ATOM     47  C   UNL A   1      37.809  34.064  34.563  1.00  0.00     0.029 A 
ATOM     48  C   UNL A   1      38.881  33.078  34.668  1.00  0.00     0.049 A 
ATOM     49  H   UNL A   1      39.440  31.659  33.251  1.00  0.00     0.167 HD
ATOM     50  C   UNL A   1      40.443  28.658  30.241  1.00  0.00     0.037 A 
ATOM     51  C   UNL A   1      39.701  32.927  35.725  1.00  0.00     0.037 A 
ATOM     52  C   UNL A   1      41.418  28.476  31.284  1.00  0.00     0.049 A 
ATOM     53  C   UNL A   1      40.778  31.877  35.679  1.00  0.00     0.074 A 
ATOM     54  C   UNL A   1      42.480  27.591  31.330  1.00  0.00     0.029 A 
ATOM     55  N   UNL A   1      41.447  29.197  32.470  1.00  0.00    -0.354 N 
ATOM     56  N   UNL A   1      41.064  31.027  34.724  1.00  0.00    -0.248 NA
ATOM     57  C   UNL A   1      41.652  31.773  36.857  1.00  0.00     0.031 C 
ATOM     58  C   UNL A   1      43.132  27.750  32.559  1.00  0.00     0.029 A 
ATOM     59  C   UNL A   1      42.498  28.763  33.261  1.00  0.00     0.049 A 
ATOM     60  H   UNL A   1      40.815  29.912  32.712  1.00  0.00     0.167 HD
ATOM     61  C   UNL A   1      42.160  30.304  35.173  1.00  0.00     0.074 A 
ATOM     62  C   UNL A   1      42.500  30.826  36.480  1.00  0.00     0.031 C 
ATOM     63  C   UNL A   1      42.825  29.295  34.558  1.00  0.00     0.037 A 
BRANCH  50  64
ATOM     64  C   UNL A   1      40.507  27.749  29.048  1.00  0.00     0.064 A 
ATOM     65  C   UNL A   1      39.714  26.595  28.961  1.00  0.00     0.173 A 
ATOM     66  C   UNL A   1      41.342  28.056  27.962  1.00  0.00     0.173 A 
ATOM     67  F   UNL A   1      38.908  26.252  29.978  1.00  0.00    -0.203 F 
ATOM     68  C   UNL A   1      39.774  25.766  27.844  1.00  0.00     0.198 A 
ATOM     69  C   UNL A   1      41.378  27.239  26.836  1.00  0.00     0.198 A 
ATOM     70  F   UNL A   1      42.116  29.151  27.992  1.00  0.00    -0.203 F 
ATOM     71  F   UNL A   1      39.041  24.645  27.803  1.00  0.00    -0.200 F 
ATOM     72  C   UNL A   1      40.601  26.092  26.779  1.00  0.00     0.200 A 
ATOM     73  F   UNL A   1      42.170  27.560  25.802  1.00  0.00    -0.200 F 
ATOM     74  F   UNL A   1      40.654  25.297  25.702  1.00  0.00    -0.200 F 
ENDBRANCH  50  64
BRANCH  51  75
ATOM     75  C   UNL A   1      39.557  33.813  36.907  1.00  0.00     0.064 A 
ATOM     76  C   UNL A   1      38.787  33.419  38.011  1.00  0.00     0.173 A 
ATOM     77  C   UNL A   1      40.179  35.069  36.959  1.00  0.00     0.173 A 
ATOM     78  F   UNL A   1      38.156  32.236  37.997  1.00  0.00    -0.203 F 
ATOM     79  C   UNL A   1      38.630  34.256  39.114  1.00  0.00     0.198 A 
ATOM     80  C   UNL A   1      40.041  35.894  38.073  1.00  0.00     0.198 A 
ATOM     81  F   UNL A   1      40.928  35.490  35.930  1.00  0.00    -0.203 F 
ATOM     82  F   UNL A   1      37.854  33.873  40.136  1.00  0.00    -0.200 F 
ATOM     83  C   UNL A   1      39.261  35.490  39.146  1.00  0.00     0.200 A 
ATOM     84  F   UNL A   1      40.661  37.081  38.105  1.00  0.00    -0.200 F 
ATOM     85  F   UNL A   1      39.111  36.293  40.208  1.00  0.00    -0.200 F 
ENDBRANCH  51  75
BRANCH  63  86
ATOM     86  C   UNL A   1      44.001  28.707  35.281  1.00  0.00     0.064 A 
ATOM     87  C   UNL A   1      45.305  29.173  35.059  1.00  0.00     0.173 A 
ATOM     88  C   UNL A   1      43.816  27.691  36.230  1.00  0.00     0.173 A 
ATOM     89  F   UNL A   1      45.534  30.132  34.150  1.00  0.00    -0.203 F 
ATOM     90  C   UNL A   1      46.385  28.626  35.747  1.00  0.00     0.198 A 
ATOM     91  C   UNL A   1      44.896  27.165  36.933  1.00  0.00     0.198 A 
ATOM     92  F   UNL A   1      42.588  27.215  36.481  1.00  0.00    -0.203 F 
ATOM     93  F   UNL A   1      47.628  29.056  35.488  1.00  0.00    -0.200 F 
ATOM     94  C   UNL A   1      46.179  27.628  36.687  1.00  0.00     0.200 A 
ATOM     95  F   UNL A   1      44.694  26.207  37.850  1.00  0.00    -0.200 F 
ATOM     96  F   UNL A   1      47.220  27.106  37.351  1.00  0.00    -0.200 F 
ENDBRANCH  63  86
ENDBRANCH  37  38
ENDBRANCH  29  32
ENDBRANCH  27  28
ENDBRANCH  26  27
ENDBRANCH  25  26
ENDBRANCH   1  25
TORSDOF 15
ENDMDL
MODEL 2
REMARK VINA RESULT:     -12.1      0.701      7.277
REMARK SMILES C[C@@H]1[C@@H](C(=O)NCCCCCCNC(=O)c2ccc(-c3c4nc(c(-c5c(F)c(F)c(F)c(F)c5F)c5ccc([nH]5)c(-c5c(F)c(F)c(F)c(F)c5F)c5nc(c(-c6c(F)c(F)c(F)c(F)c6F)c6ccc3[nH]6)C=C5)C=C4)cc2)CCN1C(=O)N1CCC[C@H]2CCC[C@@H]21
REMARK SMILES IDX 9 1 8 2 7 3 6 4 4 5 5 6 3 8 1 9 2 10 81 11 79 12 80 13 82 14
REMARK SMILES IDX 83 15 84 16 85 17 92 18 86 19 88 20 91 21 87 22 89 23 90 24
REMARK SMILES IDX 10 25 11 26 12 27 13 28 14 29 15 31 16 32 17 33 78 34 18 35
REMARK SMILES IDX 77 36 19 37 20 38 21 39 71 40 22 41 76 42 70 43 72 44 23 45
REMARK SMILES IDX 75 46 69 47 68 48 24 50 56 51 36 52 55 53 37 54 40 55 54 56
REMARK SMILES IDX 73 57 38 58 39 59 53 61 74 62 41 63 25 64 26 65 34 66 27 67
REMARK SMILES IDX 28 68 32 69 35 70 29 71 30 72 33 73 31 74 57 75 58 76 66 77
REMARK SMILES IDX 59 78 60 79 64 80 67 81 61 82 62 83 65 84 63 85 42 86 43 87
REMARK SMILES IDX 51 88 44 89 45 90 49 91 52 92 46 93 47 94 50 95 48 96
REMARK H PARENT 6 7 13 30 72 49 40 60
REMARK Flexibility Score: inf
ROOT
ATOM      1  C   UNL A   1      32.302  29.992  26.964  1.00  0.00     0.002 C 
ENDROOT
BRANCH   1   2
ATOM      2  C   UNL A   1      31.809  28.569  27.248  1.00  0.00     0.021 C 
BRANCH   2   3
ATOM      3  C   UNL A   1      32.691  27.439  26.726  1.00  0.00     0.116 C 
BRANCH   3   4
ATOM      4  N   UNL A   1      33.441  27.796  25.541  1.00  0.00    -0.356 N 
ATOM      5  C   UNL A   1      33.087  27.667  24.226  1.00  0.00     0.225 C 
ATOM      6  O   UNL A   1      33.871  28.092  23.380  1.00  0.00    -0.275 OA
ATOM      7  H   UNL A   1      34.330  28.186  25.703  1.00  0.00     0.163 HD
BRANCH   5   8
ATOM      8  C   UNL A   1      31.796  26.932  23.878  1.00  0.00     0.102 C 
ATOM      9  C   UNL A   1      30.582  24.830  24.471  1.00  0.00     0.032 C 
ATOM     10  C   UNL A   1      31.935  25.399  24.023  1.00  0.00     0.096 C 
ATOM     11  N   UNL A   1      32.325  24.945  22.674  1.00  0.00    -0.321 N 
ATOM     12  C   UNL A   1      31.357  27.089  22.420  1.00  0.00     0.037 C 
ATOM     13  C   UNL A   1      32.105  25.988  21.692  1.00  0.00     0.122 C 
BRANCH  11  14
ATOM     14  C   UNL A   1      33.230  23.949  22.338  1.00  0.00     0.320 C 
ATOM     15  O   UNL A   1      33.473  23.657  21.167  1.00  0.00    -0.248 OA
BRANCH  14  16
ATOM     16  N   UNL A   1      33.935  23.401  23.380  1.00  0.00    -0.321 N 
ATOM     17  C   UNL A   1      34.940  24.175  24.094  1.00  0.00     0.121 C 
ATOM     18  C   UNL A   1      33.385  22.322  24.177  1.00  0.00     0.090 C 
ATOM     19  C   UNL A   1      36.116  23.285  24.507  1.00  0.00     0.022 C 
ATOM     20  C   UNL A   1      34.526  21.343  24.462  1.00  0.00     0.012 C 
ATOM     21  C   UNL A   1      32.330  21.395  23.582  1.00  0.00     0.025 C 
ATOM     22  C   UNL A   1      35.644  22.021  25.250  1.00  0.00     0.007 C 
ATOM     23  C   UNL A   1      33.817  20.174  25.123  1.00  0.00     0.006 C 
ATOM     24  C   UNL A   1      32.455  20.110  24.415  1.00  0.00     0.002 C 
ENDBRANCH  14  16
ENDBRANCH  11  14
ENDBRANCH   5   8
ENDBRANCH   3   4
ENDBRANCH   2   3
ENDBRANCH   1   2
BRANCH   1  25
ATOM     25  C   UNL A   1      31.378  30.880  26.128  1.00  0.00     0.002 C 
BRANCH  25  26
ATOM     26  C   UNL A   1      31.283  32.348  26.548  1.00  0.00     0.021 C 
BRANCH  26  27
ATOM     27  C   UNL A   1      32.574  32.989  27.046  1.00  0.00     0.116 C 
BRANCH  27  28
ATOM     28  N   UNL A   1      32.368  34.283  27.669  1.00  0.00    -0.352 N 
ATOM     29  C   UNL A   1      33.042  34.881  28.704  1.00  0.00     0.251 C 
ATOM     30  H   UNL A   1      31.631  34.814  27.291  1.00  0.00     0.163 HD
ATOM     31  O   UNL A   1      32.642  35.953  29.150  1.00  0.00    -0.269 OA
BRANCH  29  32
ATOM     32  C   UNL A   1      34.231  34.240  29.313  1.00  0.00     0.039 A 
ATOM     33  C   UNL A   1      34.026  33.287  30.318  1.00  0.00     0.014 A 
ATOM     34  C   UNL A   1      35.534  34.586  28.943  1.00  0.00     0.014 A 
ATOM     35  C   UNL A   1      35.118  32.649  30.911  1.00  0.00     0.010 A 
ATOM     36  C   UNL A   1      36.621  33.904  29.491  1.00  0.00     0.010 A 
ATOM     37  C   UNL A   1      36.425  32.933  30.484  1.00  0.00    -0.014 A 
BRANCH  37  38
ATOM     38  C   UNL A   1      37.589  32.230  31.081  1.00  0.00     0.031 A 
ATOM     39  C   UNL A   1      38.071  32.589  32.459  1.00  0.00     0.074 A 
ATOM     40  C   UNL A   1      38.239  31.291  30.366  1.00  0.00     0.049 A 
ATOM     41  N   UNL A   1      39.084  32.105  33.135  1.00  0.00    -0.248 NA
ATOM     42  C   UNL A   1      37.331  33.645  33.164  1.00  0.00     0.031 C 
ATOM     43  C   UNL A   1      37.900  30.883  29.001  1.00  0.00     0.029 A 
ATOM     44  N   UNL A   1      39.324  30.513  30.685  1.00  0.00    -0.354 N 
ATOM     45  C   UNL A   1      39.109  32.805  34.334  1.00  0.00     0.074 A 
ATOM     46  C   UNL A   1      38.041  33.780  34.275  1.00  0.00     0.031 C 
ATOM     47  C   UNL A   1      38.744  29.916  28.610  1.00  0.00     0.029 A 
ATOM     48  C   UNL A   1      39.700  29.654  29.682  1.00  0.00     0.049 A 
ATOM     49  H   UNL A   1      39.788  30.566  31.551  1.00  0.00     0.167 HD
ATOM     50  C   UNL A   1      39.932  32.635  35.396  1.00  0.00     0.037 A 
ATOM     51  C   UNL A   1      40.702  28.755  29.633  1.00  0.00     0.037 A 
ATOM     52  C   UNL A   1      40.974  31.645  35.468  1.00  0.00     0.049 A 
ATOM     53  C   UNL A   1      41.596  28.582  30.830  1.00  0.00     0.074 A 
ATOM     54  C   UNL A   1      41.817  31.354  36.525  1.00  0.00     0.029 A 
ATOM     55  N   UNL A   1      41.315  30.783  34.436  1.00  0.00    -0.354 N 
ATOM     56  N   UNL A   1      41.566  29.203  31.983  1.00  0.00    -0.248 NA
ATOM     57  C   UNL A   1      42.661  27.573  30.719  1.00  0.00     0.031 C 
ATOM     58  C   UNL A   1      42.694  30.340  36.122  1.00  0.00     0.029 A 
ATOM     59  C   UNL A   1      42.369  29.972  34.826  1.00  0.00     0.049 A 
ATOM     60  H   UNL A   1      40.874  30.751  33.557  1.00  0.00     0.167 HD
ATOM     61  C   UNL A   1      42.587  28.649  32.741  1.00  0.00     0.074 A 
ATOM     62  C   UNL A   1      43.210  27.628  31.925  1.00  0.00     0.031 C 
ATOM     63  C   UNL A   1      42.976  28.959  34.003  1.00  0.00     0.037 A 
BRANCH  50  64
ATOM     64  C   UNL A   1      39.732  33.538  36.577  1.00  0.00     0.064 A 
ATOM     65  C   UNL A   1      40.391  34.773  36.677  1.00  0.00     0.173 A 
ATOM     66  C   UNL A   1      38.841  33.185  37.602  1.00  0.00     0.173 A 
ATOM     67  F   UNL A   1      41.262  35.151  35.728  1.00  0.00    -0.203 F 
ATOM     68  C   UNL A   1      40.189  35.607  37.772  1.00  0.00     0.198 A 
ATOM     69  C   UNL A   1      38.621  34.035  38.683  1.00  0.00     0.198 A 
ATOM     70  F   UNL A   1      38.180  32.019  37.552  1.00  0.00    -0.203 F 
ATOM     71  F   UNL A   1      40.866  36.761  37.868  1.00  0.00    -0.200 F 
ATOM     72  C   UNL A   1      39.299  35.241  38.771  1.00  0.00     0.200 A 
ATOM     73  F   UNL A   1      37.752  33.686  39.642  1.00  0.00    -0.200 F 
ATOM     74  F   UNL A   1      39.100  36.048  39.823  1.00  0.00    -0.200 F 
ENDBRANCH  50  64
BRANCH  51  75
ATOM     75  C   UNL A   1      40.894  27.927  28.416  1.00  0.00     0.064 A 
ATOM     76  C   UNL A   1      40.267  26.679  28.290  1.00  0.00     0.173 A 
ATOM     77  C   UNL A   1      41.707  28.360  27.359  1.00  0.00     0.173 A 
ATOM     78  F   UNL A   1      39.499  26.214  29.286  1.00  0.00    -0.203 F 
ATOM     79  C   UNL A   1      40.461  25.887  27.160  1.00  0.00     0.198 A 
ATOM     80  C   UNL A   1      41.880  27.578  26.219  1.00  0.00     0.198 A 
ATOM     81  F   UNL A   1      42.325  29.547  27.429  1.00  0.00    -0.203 F 
ATOM     82  F   UNL A   1      39.885  24.680  27.085  1.00  0.00    -0.200 F 
ATOM     83  C   UNL A   1      41.263  26.339  26.123  1.00  0.00     0.200 A 
ATOM     84  F   UNL A   1      42.646  28.023  25.214  1.00  0.00    -0.200 F 
ATOM     85  F   UNL A   1      41.448  25.578  25.037  1.00  0.00    -0.200 F 
ENDBRANCH  51  75
BRANCH  63  86
ATOM     86  C   UNL A   1      44.112  28.170  34.584  1.00  0.00     0.064 A 
ATOM     87  C   UNL A   1      45.437  28.619  34.492  1.00  0.00     0.173 A 
ATOM     88  C   UNL A   1      43.868  26.970  35.268  1.00  0.00     0.173 A 
ATOM     89  F   UNL A   1      45.723  29.752  33.833  1.00  0.00    -0.203 F 
ATOM     90  C   UNL A   1      46.481  27.882  35.046  1.00  0.00     0.198 A 
ATOM     91  C   UNL A   1      44.911  26.250  35.843  1.00  0.00     0.198 A 
ATOM     92  F   UNL A   1      42.617  26.502  35.388  1.00  0.00    -0.203 F 
ATOM     93  F   UNL A   1      47.744  28.307  34.909  1.00  0.00    -0.200 F 
ATOM     94  C   UNL A   1      46.216  26.703  35.726  1.00  0.00     0.200 A 
ATOM     95  F   UNL A   1      44.653  25.116  36.509  1.00  0.00    -0.200 F 
ATOM     96  F   UNL A   1      47.222  25.997  36.263  1.00  0.00    -0.200 F 
ENDBRANCH  63  86
ENDBRANCH  37  38
ENDBRANCH  29  32
ENDBRANCH  27  28
ENDBRANCH  26  27
ENDBRANCH  25  26
ENDBRANCH   1  25
TORSDOF 15
ENDMDL
MODEL 3
REMARK VINA RESULT:     -12.0      0.933      7.169
REMARK SMILES C[C@@H]1[C@@H](C(=O)NCCCCCCNC(=O)c2ccc(-c3c4nc(c(-c5c(F)c(F)c(F)c(F)c5F)c5ccc([nH]5)c(-c5c(F)c(F)c(F)c(F)c5F)c5nc(c(-c6c(F)c(F)c(F)c(F)c6F)c6ccc3[nH]6)C=C5)C=C4)cc2)CCN1C(=O)N1CCC[C@H]2CCC[C@@H]21
REMARK SMILES IDX 9 1 8 2 7 3 6 4 4 5 5 6 3 8 1 9 2 10 81 11 79 12 80 13 82 14
REMARK SMILES IDX 83 15 84 16 85 17 92 18 86 19 88 20 91 21 87 22 89 23 90 24
REMARK SMILES IDX 10 25 11 26 12 27 13 28 14 29 15 31 16 32 17 33 78 34 18 35
REMARK SMILES IDX 77 36 19 37 20 38 21 39 71 40 22 41 76 42 70 43 72 44 23 45
REMARK SMILES IDX 75 46 69 47 68 48 24 50 56 51 36 52 55 53 37 54 40 55 54 56
REMARK SMILES IDX 73 57 38 58 39 59 53 61 74 62 41 63 25 64 26 65 34 66 27 67
REMARK SMILES IDX 28 68 32 69 35 70 29 71 30 72 33 73 31 74 57 75 58 76 66 77
REMARK SMILES IDX 59 78 60 79 64 80 67 81 61 82 62 83 65 84 63 85 42 86 43 87
REMARK SMILES IDX 51 88 44 89 45 90 49 91 52 92 46 93 47 94 50 95 48 96
REMARK H PARENT 6 7 13 30 72 49 40 60
REMARK Flexibility Score: inf
ROOT
ATOM      1  C   UNL A   1      33.134  30.259  27.283  1.00  0.00     0.002 C 
ENDROOT
BRANCH   1   2
ATOM      2  C   UNL A   1      33.442  28.758  27.251  1.00  0.00     0.021 C 
BRANCH   2   3
ATOM      3  C   UNL A   1      34.365  28.289  26.131  1.00  0.00     0.116 C 
BRANCH   3   4
ATOM      4  N   UNL A   1      33.879  28.621  24.809  1.00  0.00    -0.356 N 
ATOM      5  C   UNL A   1      32.755  28.178  24.168  1.00  0.00     0.225 C 
ATOM      6  O   UNL A   1      32.511  28.642  23.055  1.00  0.00    -0.275 OA
ATOM      7  H   UNL A   1      34.434  29.253  24.299  1.00  0.00     0.163 HD
BRANCH   5   8
ATOM      8  C   UNL A   1      31.919  27.079  24.818  1.00  0.00     0.102 C 
ATOM      9  C   UNL A   1      32.227  24.984  26.144  1.00  0.00     0.032 C 
ATOM     10  C   UNL A   1      32.667  25.727  24.875  1.00  0.00     0.096 C 
ATOM     11  N   UNL A   1      32.254  25.036  23.638  1.00  0.00    -0.321 N 
ATOM     12  C   UNL A   1      30.644  26.721  24.049  1.00  0.00     0.037 C 
ATOM     13  C   UNL A   1      31.105  25.685  23.041  1.00  0.00     0.122 C 
BRANCH  11  14
ATOM     14  C   UNL A   1      33.031  24.243  22.806  1.00  0.00     0.320 C 
ATOM     15  O   UNL A   1      33.535  24.683  21.772  1.00  0.00    -0.248 OA
BRANCH  14  16
ATOM     16  N   UNL A   1      33.314  22.983  23.267  1.00  0.00    -0.321 N 
ATOM     17  C   UNL A   1      32.526  21.835  22.842  1.00  0.00     0.121 C 
ATOM     18  C   UNL A   1      34.651  22.620  23.695  1.00  0.00     0.090 C 
ATOM     19  C   UNL A   1      32.367  20.833  23.990  1.00  0.00     0.022 C 
ATOM     20  C   UNL A   1      34.503  21.743  24.942  1.00  0.00     0.012 C 
ATOM     21  C   UNL A   1      35.611  23.696  24.192  1.00  0.00     0.025 C 
ATOM     22  C   UNL A   1      33.721  20.471  24.626  1.00  0.00     0.007 C 
ATOM     23  C   UNL A   1      35.937  21.581  25.417  1.00  0.00     0.006 C 
ATOM     24  C   UNL A   1      36.600  22.926  25.081  1.00  0.00     0.002 C 
ENDBRANCH  14  16
ENDBRANCH  11  14
ENDBRANCH   5   8
ENDBRANCH   3   4
ENDBRANCH   2   3
ENDBRANCH   1   2
BRANCH   1  25
ATOM     25  C   UNL A   1      31.729  30.676  26.844  1.00  0.00     0.002 C 
BRANCH  25  26
ATOM     26  C   UNL A   1      31.423  32.175  26.876  1.00  0.00     0.021 C 
BRANCH  26  27
ATOM     27  C   UNL A   1      32.631  33.107  26.858  1.00  0.00     0.116 C 
BRANCH  27  28
ATOM     28  N   UNL A   1      32.429  34.321  27.626  1.00  0.00    -0.352 N 
ATOM     29  C   UNL A   1      33.068  34.766  28.757  1.00  0.00     0.251 C 
ATOM     30  H   UNL A   1      31.725  34.917  27.284  1.00  0.00     0.163 HD
ATOM     31  O   UNL A   1      32.674  35.787  29.313  1.00  0.00    -0.269 OA
BRANCH  29  32
ATOM     32  C   UNL A   1      34.209  34.017  29.334  1.00  0.00     0.039 A 
ATOM     33  C   UNL A   1      35.503  34.483  29.079  1.00  0.00     0.014 A 
ATOM     34  C   UNL A   1      34.028  32.851  30.084  1.00  0.00     0.014 A 
ATOM     35  C   UNL A   1      36.606  33.814  29.613  1.00  0.00     0.010 A 
ATOM     36  C   UNL A   1      35.126  32.219  30.669  1.00  0.00     0.010 A 
ATOM     37  C   UNL A   1      36.427  32.691  30.435  1.00  0.00    -0.014 A 
BRANCH  37  38
ATOM     38  C   UNL A   1      37.592  31.997  31.041  1.00  0.00     0.031 A 
ATOM     39  C   UNL A   1      38.054  32.353  32.427  1.00  0.00     0.074 A 
ATOM     40  C   UNL A   1      38.260  31.070  30.327  1.00  0.00     0.049 A 
ATOM     41  N   UNL A   1      39.065  31.876  33.111  1.00  0.00    -0.248 NA
ATOM     42  C   UNL A   1      37.295  33.397  33.130  1.00  0.00     0.031 C 
ATOM     43  C   UNL A   1      37.942  30.667  28.957  1.00  0.00     0.029 A 
ATOM     44  N   UNL A   1      39.351  30.303  30.655  1.00  0.00    -0.354 N 
ATOM     45  C   UNL A   1      39.068  32.569  34.314  1.00  0.00     0.074 A 
ATOM     46  C   UNL A   1      37.990  33.533  34.249  1.00  0.00     0.031 C 
ATOM     47  C   UNL A   1      38.801  29.711  28.569  1.00  0.00     0.029 A 
ATOM     48  C   UNL A   1      39.748  29.454  29.651  1.00  0.00     0.049 A 
ATOM     49  H   UNL A   1      39.805  30.355  31.526  1.00  0.00     0.167 HD
ATOM     50  C   UNL A   1      39.881  32.402  35.384  1.00  0.00     0.037 A 
ATOM     51  C   UNL A   1      40.760  28.567  29.607  1.00  0.00     0.037 A 
ATOM     52  C   UNL A   1      40.934  31.423  35.462  1.00  0.00     0.049 A 
ATOM     53  C   UNL A   1      41.643  28.396  30.813  1.00  0.00     0.074 A 
ATOM     54  C   UNL A   1      41.768  31.135  36.527  1.00  0.00     0.029 A 
ATOM     55  N   UNL A   1      41.296  30.571  34.429  1.00  0.00    -0.354 N 
ATOM     56  N   UNL A   1      41.592  29.009  31.970  1.00  0.00    -0.248 NA
ATOM     57  C   UNL A   1      42.720  27.400  30.708  1.00  0.00     0.031 C 
ATOM     58  C   UNL A   1      42.661  30.134  36.128  1.00  0.00     0.029 A 
ATOM     59  C   UNL A   1      42.355  29.771  34.826  1.00  0.00     0.049 A 
ATOM     60  H   UNL A   1      40.865  30.540  33.545  1.00  0.00     0.167 HD
ATOM     61  C   UNL A   1      42.611  28.462  32.736  1.00  0.00     0.074 A 
ATOM     62  C   UNL A   1      43.255  27.453  31.920  1.00  0.00     0.031 C 
ATOM     63  C   UNL A   1      42.982  28.769  34.004  1.00  0.00     0.037 A 
BRANCH  50  64
ATOM     64  C   UNL A   1      39.658  33.296  36.569  1.00  0.00     0.064 A 
ATOM     65  C   UNL A   1      38.757  32.952  37.588  1.00  0.00     0.173 A 
ATOM     66  C   UNL A   1      40.382  34.490  36.708  1.00  0.00     0.173 A 
ATOM     67  F   UNL A   1      38.033  31.826  37.497  1.00  0.00    -0.203 F 
ATOM     68  C   UNL A   1      38.567  33.784  38.688  1.00  0.00     0.198 A 
ATOM     69  C   UNL A   1      40.209  35.306  37.823  1.00  0.00     0.198 A 
ATOM     70  F   UNL A   1      41.261  34.862  35.765  1.00  0.00    -0.203 F 
ATOM     71  F   UNL A   1      37.667  33.457  39.626  1.00  0.00    -0.200 F 
ATOM     72  C   UNL A   1      39.298  34.957  38.808  1.00  0.00     0.200 A 
ATOM     73  F   UNL A   1      40.924  36.433  37.943  1.00  0.00    -0.200 F 
ATOM     74  F   UNL A   1      39.119  35.754  39.870  1.00  0.00    -0.200 F 
ENDBRANCH  50  64
BRANCH  51  75
ATOM     75  C   UNL A   1      40.975  27.748  28.388  1.00  0.00     0.064 A 
ATOM     76  C   UNL A   1      40.315  26.522  28.220  1.00  0.00     0.173 A 
ATOM     77  C   UNL A   1      41.843  28.168  27.370  1.00  0.00     0.173 A 
ATOM     78  F   UNL A   1      39.494  26.069  29.177  1.00  0.00    -0.203 F 
ATOM     79  C   UNL A   1      40.531  25.739  27.088  1.00  0.00     0.198 A 
ATOM     80  C   UNL A   1      42.038  27.396  26.227  1.00  0.00     0.198 A 
ATOM     81  F   UNL A   1      42.495  29.335  27.481  1.00  0.00    -0.203 F 
ATOM     82  F   UNL A   1      39.921  24.552  26.972  1.00  0.00    -0.200 F 
ATOM     83  C   UNL A   1      41.387  26.179  26.090  1.00  0.00     0.200 A 
ATOM     84  F   UNL A   1      42.858  27.829  25.260  1.00  0.00    -0.200 F 
ATOM     85  F   UNL A   1      41.592  25.426  25.001  1.00  0.00    -0.200 F 
ENDBRANCH  51  75
BRANCH  63  86
ATOM     86  C   UNL A   1      44.120  27.990  34.593  1.00  0.00     0.064 A 
ATOM     87  C   UNL A   1      45.442  28.453  34.518  1.00  0.00     0.173 A 
ATOM     88  C   UNL A   1      43.882  26.784  35.268  1.00  0.00     0.173 A 
ATOM     89  F   UNL A   1      45.722  29.593  33.868  1.00  0.00    -0.203 F 
ATOM     90  C   UNL A   1      46.487  27.725  35.080  1.00  0.00     0.198 A 
ATOM     91  C   UNL A   1      44.927  26.072  35.851  1.00  0.00     0.198 A 
ATOM     92  F   UNL A   1      42.635  26.301  35.372  1.00  0.00    -0.203 F 
ATOM     93  F   UNL A   1      47.748  28.165  34.958  1.00  0.00    -0.200 F 
ATOM     94  C   UNL A   1      46.229  26.539  35.750  1.00  0.00     0.200 A 
ATOM     95  F   UNL A   1      44.674  24.931  36.508  1.00  0.00    -0.200 F 
ATOM     96  F   UNL A   1      47.236  25.842  36.294  1.00  0.00    -0.200 F 
ENDBRANCH  63  86
ENDBRANCH  37  38
ENDBRANCH  29  32
ENDBRANCH  27  28
ENDBRANCH  26  27
ENDBRANCH  25  26
ENDBRANCH   1  25
TORSDOF 15
ENDMDL
