MODEL 1
REMARK VINA RESULT:     -11.2      0.000      0.000
REMARK SMILES CCOc1cc(C=O)ccc1OCc1ccc(C(=O)NCCCCCCNC(=O)c2ccc(-c3c4nc(c(-c5c(F)c(F)c(F)c(F)c5F)c5ccc([nH]5)c(-c5c(F)c(F)c(F)c(F)c5F)c5nc(c(-c6c(F)c(F)c(F)c(F)c6F)c6ccc3[nH]6)C=C5)C=C4)cc2)cc1
REMARK SMILES IDX 22 1 21 2 20 3 18 4 19 5 17 7 14 8 15 9 94 10 16 11 93 12
REMARK SMILES IDX 13 13 12 14 11 15 4 16 5 17 6 18 10 19 9 20 3 21 2 22 1 23
REMARK SMILES IDX 7 24 8 25 23 26 24 27 25 28 26 29 27 30 28 31 29 33 30 34
REMARK SMILES IDX 31 35 92 36 32 37 91 38 33 39 34 40 35 41 85 42 36 43 90 44
REMARK SMILES IDX 84 45 86 46 37 47 89 48 83 49 82 50 38 52 70 53 50 54 69 55
REMARK SMILES IDX 51 56 54 57 68 58 87 59 52 60 53 61 67 63 88 64 55 65 39 66
REMARK SMILES IDX 40 67 48 68 41 69 42 70 46 71 49 72 43 73 44 74 47 75 45 76
REMARK SMILES IDX 71 77 72 78 80 79 73 80 74 81 78 82 81 83 75 84 76 85 79 86
REMARK SMILES IDX 77 87 56 88 57 89 65 90 58 91 59 92 63 93 66 94 60 95 61 96
REMARK SMILES IDX 64 97 62 98
REMARK H PARENT 20 6 27 32 86 51 54 62
REMARK Flexibility Score: inf
ROOT
ATOM      1  C   UNL A   1      33.296  20.243  25.491  1.00  0.00     0.021 C 
ENDROOT
BRANCH   1   2
ATOM      2  C   UNL A   1      32.141  21.080  24.935  1.00  0.00     0.116 C 
BRANCH   2   3
ATOM      3  N   UNL A   1      31.444  21.748  26.020  1.00  0.00    -0.352 N 
ATOM      4  C   UNL A   1      31.137  23.058  26.277  1.00  0.00     0.251 C 
ATOM      5  O   UNL A   1      30.483  23.302  27.292  1.00  0.00    -0.269 OA
ATOM      6  H   UNL A   1      31.124  21.129  26.716  1.00  0.00     0.163 HD
BRANCH   4   7
ATOM      7  C   UNL A   1      31.519  24.177  25.376  1.00  0.00     0.039 A 
ATOM      8  C   UNL A   1      32.325  26.349  23.725  1.00  0.00    -0.011 A 
ATOM      9  C   UNL A   1      32.842  26.195  25.022  1.00  0.00     0.008 A 
ATOM     10  C   UNL A   1      31.351  25.437  23.320  1.00  0.00     0.008 A 
ATOM     11  C   UNL A   1      32.421  25.141  25.848  1.00  0.00     0.014 A 
ATOM     12  C   UNL A   1      31.053  24.307  24.076  1.00  0.00     0.014 A 
BRANCH   8  13
ATOM     13  C   UNL A   1      32.945  27.391  22.792  1.00  0.00     0.265 C 
BRANCH  13  14
ATOM     14  O   UNL A   1      32.688  28.797  22.973  1.00  0.00    -0.485 OA
BRANCH  14  15
ATOM     15  C   UNL A   1      31.401  29.244  23.130  1.00  0.00     0.161 A 
ATOM     16  C   UNL A   1      30.822  29.733  24.315  1.00  0.00     0.161 A 
ATOM     17  C   UNL A   1      29.648  30.493  24.235  1.00  0.00     0.062 A 
ATOM     18  C   UNL A   1      29.034  30.696  22.988  1.00  0.00     0.018 A 
ATOM     19  C   UNL A   1      30.715  29.356  21.913  1.00  0.00     0.051 A 
ATOM     20  C   UNL A   1      29.533  30.085  21.835  1.00  0.00     0.015 A 
BRANCH  16  21
ATOM     21  O   UNL A   1      31.424  29.400  25.494  1.00  0.00    -0.490 OA
BRANCH  21  22
ATOM     22  C   UNL A   1      32.157  30.423  26.170  1.00  0.00     0.226 C 
ATOM     23  C   UNL A   1      33.488  29.802  26.576  1.00  0.00     0.049 C 
ENDBRANCH  21  22
ENDBRANCH  16  21
BRANCH  18  24
ATOM     24  C   UNL A   1      27.868  31.592  22.845  1.00  0.00     0.260 C 
ATOM     25  O   UNL A   1      27.045  31.736  23.740  1.00  0.00    -0.298 OA
ENDBRANCH  18  24
ENDBRANCH  14  15
ENDBRANCH  13  14
ENDBRANCH   8  13
ENDBRANCH   4   7
ENDBRANCH   2   3
ENDBRANCH   1   2
BRANCH   1  26
ATOM     26  C   UNL A   1      34.654  20.776  25.024  1.00  0.00     0.002 C 
BRANCH  26  27
ATOM     27  C   UNL A   1      34.686  22.297  24.824  1.00  0.00     0.002 C 
BRANCH  27  28
ATOM     28  C   UNL A   1      35.168  23.089  26.043  1.00  0.00     0.021 C 
BRANCH  28  29
ATOM     29  C   UNL A   1      36.561  23.681  25.874  1.00  0.00     0.116 C 
BRANCH  29  30
ATOM     30  N   UNL A   1      37.587  22.659  26.022  1.00  0.00    -0.352 N 
ATOM     31  C   UNL A   1      38.912  22.805  26.317  1.00  0.00     0.251 C 
ATOM     32  H   UNL A   1      37.283  21.731  25.891  1.00  0.00     0.163 HD
ATOM     33  O   UNL A   1      39.702  21.877  26.119  1.00  0.00    -0.269 OA
BRANCH  31  34
ATOM     34  C   UNL A   1      39.400  24.078  26.877  1.00  0.00     0.039 A 
ATOM     35  C   UNL A   1      40.038  24.992  26.037  1.00  0.00     0.014 A 
ATOM     36  C   UNL A   1      39.246  24.353  28.240  1.00  0.00     0.014 A 
ATOM     37  C   UNL A   1      40.488  26.204  26.559  1.00  0.00     0.010 A 
ATOM     38  C   UNL A   1      39.623  25.592  28.741  1.00  0.00     0.010 A 
ATOM     39  C   UNL A   1      40.262  26.523  27.908  1.00  0.00    -0.014 A 
BRANCH  39  40
ATOM     40  C   UNL A   1      40.704  27.820  28.471  1.00  0.00     0.031 A 
ATOM     41  C   UNL A   1      42.142  28.023  28.857  1.00  0.00     0.074 A 
ATOM     42  C   UNL A   1      39.795  28.787  28.696  1.00  0.00     0.049 A 
ATOM     43  N   UNL A   1      42.711  29.065  29.409  1.00  0.00    -0.248 NA
ATOM     44  C   UNL A   1      43.055  26.895  28.621  1.00  0.00     0.031 C 
ATOM     45  C   UNL A   1      38.362  28.679  28.419  1.00  0.00     0.029 A 
ATOM     46  N   UNL A   1      39.939  30.045  29.221  1.00  0.00    -0.354 N 
ATOM     47  C   UNL A   1      44.039  28.710  29.601  1.00  0.00     0.074 A 
ATOM     48  C   UNL A   1      44.180  27.339  29.162  1.00  0.00     0.031 C 
ATOM     49  C   UNL A   1      37.762  29.830  28.757  1.00  0.00     0.029 A 
ATOM     50  C   UNL A   1      38.760  30.742  29.307  1.00  0.00     0.049 A 
ATOM     51  H   UNL A   1      40.806  30.415  29.508  1.00  0.00     0.167 HD
ATOM     52  C   UNL A   1      45.054  29.467  30.082  1.00  0.00     0.037 A 
ATOM     53  C   UNL A   1      38.512  31.975  29.786  1.00  0.00     0.037 A 
ATOM     54  C   UNL A   1      44.907  30.839  30.495  1.00  0.00     0.049 A 
ATOM     55  C   UNL A   1      39.656  32.804  30.300  1.00  0.00     0.074 A 
ATOM     56  C   UNL A   1      45.884  31.721  30.919  1.00  0.00     0.029 A 
ATOM     57  N   UNL A   1      43.701  31.523  30.545  1.00  0.00    -0.354 N 
ATOM     58  N   UNL A   1      40.926  32.491  30.397  1.00  0.00    -0.248 NA
ATOM     59  C   UNL A   1      39.336  34.161  30.763  1.00  0.00     0.031 C 
ATOM     60  C   UNL A   1      45.261  32.919  31.282  1.00  0.00     0.029 A 
ATOM     61  C   UNL A   1      43.904  32.807  31.024  1.00  0.00     0.049 A 
ATOM     62  H   UNL A   1      42.829  31.151  30.278  1.00  0.00     0.167 HD
ATOM     63  C   UNL A   1      41.560  33.616  30.906  1.00  0.00     0.074 A 
ATOM     64  C   UNL A   1      40.535  34.625  31.084  1.00  0.00     0.031 C 
ATOM     65  C   UNL A   1      42.872  33.797  31.200  1.00  0.00     0.037 A 
BRANCH  52  66
ATOM     66  C   UNL A   1      46.407  28.824  30.196  1.00  0.00     0.064 A 
ATOM     67  C   UNL A   1      47.333  28.851  29.141  1.00  0.00     0.173 A 
ATOM     68  C   UNL A   1      46.790  28.184  31.384  1.00  0.00     0.173 A 
ATOM     69  F   UNL A   1      47.014  29.441  27.978  1.00  0.00    -0.203 F 
ATOM     70  C   UNL A   1      48.574  28.230  29.258  1.00  0.00     0.198 A 
ATOM     71  C   UNL A   1      48.046  27.594  31.510  1.00  0.00     0.198 A 
ATOM     72  F   UNL A   1      45.949  28.133  32.427  1.00  0.00    -0.203 F 
ATOM     73  F   UNL A   1      49.416  28.217  28.215  1.00  0.00    -0.200 F 
ATOM     74  C   UNL A   1      48.932  27.607  30.443  1.00  0.00     0.200 A 
ATOM     75  F   UNL A   1      48.395  27.005  32.662  1.00  0.00    -0.200 F 
ATOM     76  F   UNL A   1      50.127  27.012  30.555  1.00  0.00    -0.200 F 
ENDBRANCH  52  66
BRANCH  53  77
ATOM     77  C   UNL A   1      37.122  32.501  29.773  1.00  0.00     0.064 A 
ATOM     78  C   UNL A   1      36.262  32.297  30.861  1.00  0.00     0.173 A 
ATOM     79  C   UNL A   1      36.636  33.242  28.686  1.00  0.00     0.173 A 
ATOM     80  F   UNL A   1      36.678  31.581  31.917  1.00  0.00    -0.203 F 
ATOM     81  C   UNL A   1      34.963  32.799  30.855  1.00  0.00     0.198 A 
ATOM     82  C   UNL A   1      35.346  33.768  28.693  1.00  0.00     0.198 A 
ATOM     83  F   UNL A   1      37.422  33.475  27.624  1.00  0.00    -0.203 F 
ATOM     84  F   UNL A   1      34.149  32.557  31.891  1.00  0.00    -0.200 F 
ATOM     85  C   UNL A   1      34.508  33.541  29.775  1.00  0.00     0.200 A 
ATOM     86  F   UNL A   1      34.918  34.500  27.656  1.00  0.00    -0.200 F 
ATOM     87  F   UNL A   1      33.262  34.034  29.775  1.00  0.00    -0.200 F 
ENDBRANCH  53  77
BRANCH  65  88
ATOM     88  C   UNL A   1      43.279  35.146  31.721  1.00  0.00     0.064 A 
ATOM     89  C   UNL A   1      43.607  36.203  30.859  1.00  0.00     0.173 A 
ATOM     90  C   UNL A   1      43.307  35.392  33.103  1.00  0.00     0.173 A 
ATOM     91  F   UNL A   1      43.611  36.014  29.531  1.00  0.00    -0.203 F 
ATOM     92  C   UNL A   1      43.971  37.449  31.362  1.00  0.00     0.198 A 
ATOM     93  C   UNL A   1      43.638  36.649  33.600  1.00  0.00     0.198 A 
ATOM     94  F   UNL A   1      42.996  34.418  33.971  1.00  0.00    -0.203 F 
ATOM     95  F   UNL A   1      44.329  38.429  30.522  1.00  0.00    -0.200 F 
ATOM     96  C   UNL A   1      43.979  37.674  32.731  1.00  0.00     0.200 A 
ATOM     97  F   UNL A   1      43.630  36.868  34.923  1.00  0.00    -0.200 F 
ATOM     98  F   UNL A   1      44.322  38.876  33.212  1.00  0.00    -0.200 F 
ENDBRANCH  65  88
ENDBRANCH  39  40
ENDBRANCH  31  34
ENDBRANCH  29  30
ENDBRANCH  28  29
ENDBRANCH  27  28
ENDBRANCH  26  27
ENDBRANCH   1  26
TORSDOF 19
ENDMDL
MODEL 2
REMARK VINA RESULT:     -11.1      3.212      9.028
REMARK SMILES CCOc1cc(C=O)ccc1OCc1ccc(C(=O)NCCCCCCNC(=O)c2ccc(-c3c4nc(c(-c5c(F)c(F)c(F)c(F)c5F)c5ccc([nH]5)c(-c5c(F)c(F)c(F)c(F)c5F)c5nc(c(-c6c(F)c(F)c(F)c(F)c6F)c6ccc3[nH]6)C=C5)C=C4)cc2)cc1
REMARK SMILES IDX 22 1 21 2 20 3 18 4 19 5 17 7 14 8 15 9 94 10 16 11 93 12
REMARK SMILES IDX 13 13 12 14 11 15 4 16 5 17 6 18 10 19 9 20 3 21 2 22 1 23
REMARK SMILES IDX 7 24 8 25 23 26 24 27 25 28 26 29 27 30 28 31 29 33 30 34
REMARK SMILES IDX 31 35 92 36 32 37 91 38 33 39 34 40 35 41 85 42 36 43 90 44
REMARK SMILES IDX 84 45 86 46 37 47 89 48 83 49 82 50 38 52 70 53 50 54 69 55
REMARK SMILES IDX 51 56 54 57 68 58 87 59 52 60 53 61 67 63 88 64 55 65 39 66
REMARK SMILES IDX 40 67 48 68 41 69 42 70 46 71 49 72 43 73 44 74 47 75 45 76
REMARK SMILES IDX 71 77 72 78 80 79 73 80 74 81 78 82 81 83 75 84 76 85 79 86
REMARK SMILES IDX 77 87 56 88 57 89 65 90 58 91 59 92 63 93 66 94 60 95 61 96
REMARK SMILES IDX 64 97 62 98
REMARK H PARENT 20 6 27 32 86 51 54 62
REMARK Flexibility Score: inf
ROOT
ATOM      1  C   UNL A   1      30.588  27.729  23.173  1.00  0.00     0.021 C 
ENDROOT
BRANCH   1   2
ATOM      2  C   UNL A   1      31.977  28.129  22.666  1.00  0.00     0.116 C 
BRANCH   2   3
ATOM      3  N   UNL A   1      32.437  27.176  21.673  1.00  0.00    -0.352 N 
ATOM      4  C   UNL A   1      32.898  25.888  21.745  1.00  0.00     0.251 C 
ATOM      5  O   UNL A   1      33.180  25.322  20.688  1.00  0.00    -0.269 OA
ATOM      6  H   UNL A   1      32.411  27.529  20.754  1.00  0.00     0.163 HD
BRANCH   4   7
ATOM      7  C   UNL A   1      33.033  25.142  23.024  1.00  0.00     0.039 A 
ATOM      8  C   UNL A   1      33.388  23.763  25.487  1.00  0.00    -0.011 A 
ATOM      9  C   UNL A   1      34.408  24.572  24.957  1.00  0.00     0.008 A 
ATOM     10  C   UNL A   1      32.236  23.611  24.717  1.00  0.00     0.008 A 
ATOM     11  C   UNL A   1      34.244  25.228  23.726  1.00  0.00     0.014 A 
ATOM     12  C   UNL A   1      32.014  24.383  23.580  1.00  0.00     0.014 A 
BRANCH   8  13
ATOM     13  C   UNL A   1      33.529  23.223  26.912  1.00  0.00     0.265 C 
BRANCH  13  14
ATOM     14  O   UNL A   1      33.895  21.851  27.154  1.00  0.00    -0.485 OA
BRANCH  14  15
ATOM     15  C   UNL A   1      34.074  20.992  26.099  1.00  0.00     0.161 A 
ATOM     16  C   UNL A   1      35.291  20.693  25.458  1.00  0.00     0.161 A 
ATOM     17  C   UNL A   1      35.377  19.539  24.669  1.00  0.00     0.062 A 
ATOM     18  C   UNL A   1      34.236  18.741  24.476  1.00  0.00     0.018 A 
ATOM     19  C   UNL A   1      32.921  20.253  25.802  1.00  0.00     0.051 A 
ATOM     20  C   UNL A   1      32.997  19.123  24.995  1.00  0.00     0.015 A 
BRANCH  16  21
ATOM     21  O   UNL A   1      36.318  21.579  25.612  1.00  0.00    -0.490 OA
BRANCH  21  22
ATOM     22  C   UNL A   1      37.613  21.165  25.173  1.00  0.00     0.226 C 
ATOM     23  C   UNL A   1      38.619  22.015  25.938  1.00  0.00     0.049 C 
ENDBRANCH  21  22
ENDBRANCH  16  21
BRANCH  18  24
ATOM     24  C   UNL A   1      34.316  17.453  23.756  1.00  0.00     0.260 C 
ATOM     25  O   UNL A   1      33.396  17.036  23.065  1.00  0.00    -0.298 OA
ENDBRANCH  18  24
ENDBRANCH  14  15
ENDBRANCH  13  14
ENDBRANCH   8  13
ENDBRANCH   4   7
ENDBRANCH   2   3
ENDBRANCH   1   2
BRANCH   1  26
ATOM     26  C   UNL A   1      30.584  27.504  24.688  1.00  0.00     0.002 C 
BRANCH  26  27
ATOM     27  C   UNL A   1      31.664  28.301  25.434  1.00  0.00     0.002 C 
BRANCH  27  28
ATOM     28  C   UNL A   1      32.508  27.472  26.406  1.00  0.00     0.021 C 
BRANCH  28  29
ATOM     29  C   UNL A   1      33.829  28.132  26.783  1.00  0.00     0.116 C 
BRANCH  29  30
ATOM     30  N   UNL A   1      33.648  29.552  27.048  1.00  0.00    -0.352 N 
ATOM     31  C   UNL A   1      34.420  30.392  27.800  1.00  0.00     0.251 C 
ATOM     32  H   UNL A   1      32.860  29.965  26.627  1.00  0.00     0.163 HD
ATOM     33  O   UNL A   1      33.977  31.486  28.164  1.00  0.00    -0.269 OA
BRANCH  31  34
ATOM     34  C   UNL A   1      35.786  29.989  28.175  1.00  0.00     0.039 A 
ATOM     35  C   UNL A   1      36.814  30.112  27.239  1.00  0.00     0.014 A 
ATOM     36  C   UNL A   1      36.042  29.467  29.447  1.00  0.00     0.014 A 
ATOM     37  C   UNL A   1      38.112  29.746  27.594  1.00  0.00     0.010 A 
ATOM     38  C   UNL A   1      37.347  29.179  29.824  1.00  0.00     0.010 A 
ATOM     39  C   UNL A   1      38.392  29.300  28.896  1.00  0.00    -0.014 A 
BRANCH  39  40
ATOM     40  C   UNL A   1      39.771  28.939  29.300  1.00  0.00     0.031 A 
ATOM     41  C   UNL A   1      40.580  29.884  30.143  1.00  0.00     0.074 A 
ATOM     42  C   UNL A   1      40.313  27.793  28.851  1.00  0.00     0.049 A 
ATOM     43  N   UNL A   1      41.817  29.772  30.557  1.00  0.00    -0.248 NA
ATOM     44  C   UNL A   1      39.924  31.137  30.548  1.00  0.00     0.031 C 
ATOM     45  C   UNL A   1      39.643  26.829  27.977  1.00  0.00     0.029 A 
ATOM     46  N   UNL A   1      41.555  27.250  29.056  1.00  0.00    -0.354 N 
ATOM     47  C   UNL A   1      42.089  30.942  31.252  1.00  0.00     0.074 A 
ATOM     48  C   UNL A   1      40.912  31.776  31.156  1.00  0.00     0.031 C 
ATOM     49  C   UNL A   1      40.474  25.803  27.737  1.00  0.00     0.029 A 
ATOM     50  C   UNL A   1      41.745  26.054  28.410  1.00  0.00     0.049 A 
ATOM     51  H   UNL A   1      42.245  27.677  29.614  1.00  0.00     0.167 HD
ATOM     52  C   UNL A   1      43.214  31.280  31.927  1.00  0.00     0.037 A 
ATOM     53  C   UNL A   1      42.827  25.256  28.359  1.00  0.00     0.037 A 
ATOM     54  C   UNL A   1      44.372  30.432  32.035  1.00  0.00     0.049 A 
ATOM     55  C   UNL A   1      44.059  25.644  29.128  1.00  0.00     0.074 A 
ATOM     56  C   UNL A   1      45.530  30.642  32.761  1.00  0.00     0.029 A 
ATOM     57  N   UNL A   1      44.521  29.213  31.388  1.00  0.00    -0.354 N 
ATOM     58  N   UNL A   1      44.277  26.713  29.856  1.00  0.00    -0.248 NA
ATOM     59  C   UNL A   1      45.193  24.711  29.078  1.00  0.00     0.031 C 
ATOM     60  C   UNL A   1      46.403  29.580  32.506  1.00  0.00     0.029 A 
ATOM     61  C   UNL A   1      45.765  28.675  31.672  1.00  0.00     0.049 A 
ATOM     62  H   UNL A   1      43.841  28.793  30.812  1.00  0.00     0.167 HD
ATOM     63  C   UNL A   1      45.559  26.570  30.370  1.00  0.00     0.074 A 
ATOM     64  C   UNL A   1      46.064  25.303  29.882  1.00  0.00     0.031 C 
ATOM     65  C   UNL A   1      46.254  27.414  31.174  1.00  0.00     0.037 A 
BRANCH  52  66
ATOM     66  C   UNL A   1      43.247  32.629  32.590  1.00  0.00     0.064 A 
ATOM     67  C   UNL A   1      43.726  33.769  31.928  1.00  0.00     0.173 A 
ATOM     68  C   UNL A   1      42.775  32.784  33.902  1.00  0.00     0.173 A 
ATOM     69  F   UNL A   1      44.198  33.675  30.675  1.00  0.00    -0.203 F 
ATOM     70  C   UNL A   1      43.769  35.006  32.567  1.00  0.00     0.198 A 
ATOM     71  C   UNL A   1      42.787  34.030  34.526  1.00  0.00     0.198 A 
ATOM     72  F   UNL A   1      42.299  31.730  34.581  1.00  0.00    -0.203 F 
ATOM     73  F   UNL A   1      44.289  36.068  31.935  1.00  0.00    -0.200 F 
ATOM     74  C   UNL A   1      43.294  35.137  33.863  1.00  0.00     0.200 A 
ATOM     75  F   UNL A   1      42.313  34.157  35.774  1.00  0.00    -0.200 F 
ATOM     76  F   UNL A   1      43.333  36.328  34.475  1.00  0.00    -0.200 F 
ENDBRANCH  52  66
BRANCH  53  77
ATOM     77  C   UNL A   1      42.775  23.999  27.567  1.00  0.00     0.064 A 
ATOM     78  C   UNL A   1      42.380  22.790  28.156  1.00  0.00     0.173 A 
ATOM     79  C   UNL A   1      43.093  23.987  26.201  1.00  0.00     0.173 A 
ATOM     80  F   UNL A   1      42.082  22.748  29.463  1.00  0.00    -0.203 F 
ATOM     81  C   UNL A   1      42.321  21.613  27.412  1.00  0.00     0.198 A 
ATOM     82  C   UNL A   1      43.005  22.816  25.452  1.00  0.00     0.198 A 
ATOM     83  F   UNL A   1      43.467  25.120  25.587  1.00  0.00    -0.203 F 
ATOM     84  F   UNL A   1      41.976  20.464  28.008  1.00  0.00    -0.200 F 
ATOM     85  C   UNL A   1      42.625  21.629  26.059  1.00  0.00     0.200 A 
ATOM     86  F   UNL A   1      43.281  22.840  24.141  1.00  0.00    -0.200 F 
ATOM     87  F   UNL A   1      42.555  20.499  25.342  1.00  0.00    -0.200 F 
ENDBRANCH  53  77
BRANCH  65  88
ATOM     88  C   UNL A   1      47.629  26.982  31.597  1.00  0.00     0.064 A 
ATOM     89  C   UNL A   1      47.828  26.106  32.675  1.00  0.00     0.173 A 
ATOM     90  C   UNL A   1      48.759  27.422  30.891  1.00  0.00     0.173 A 
ATOM     91  F   UNL A   1      46.783  25.669  33.392  1.00  0.00    -0.203 F 
ATOM     92  C   UNL A   1      49.110  25.707  33.045  1.00  0.00     0.198 A 
ATOM     93  C   UNL A   1      50.036  26.994  31.243  1.00  0.00     0.198 A 
ATOM     94  F   UNL A   1      48.623  28.255  29.848  1.00  0.00    -0.203 F 
ATOM     95  F   UNL A   1      49.281  24.912  34.109  1.00  0.00    -0.200 F 
ATOM     96  C   UNL A   1      50.212  26.145  32.324  1.00  0.00     0.200 A 
ATOM     97  F   UNL A   1      51.098  27.407  30.535  1.00  0.00    -0.200 F 
ATOM     98  F   UNL A   1      51.444  25.754  32.677  1.00  0.00    -0.200 F 
ENDBRANCH  65  88
ENDBRANCH  39  40
ENDBRANCH  31  34
ENDBRANCH  29  30
ENDBRANCH  28  29
ENDBRANCH  27  28
ENDBRANCH  26  27
ENDBRANCH   1  26
TORSDOF 19
ENDMDL
MODEL 3
REMARK VINA RESULT:     -11.1      4.313      9.677
REMARK SMILES CCOc1cc(C=O)ccc1OCc1ccc(C(=O)NCCCCCCNC(=O)c2ccc(-c3c4nc(c(-c5c(F)c(F)c(F)c(F)c5F)c5ccc([nH]5)c(-c5c(F)c(F)c(F)c(F)c5F)c5nc(c(-c6c(F)c(F)c(F)c(F)c6F)c6ccc3[nH]6)C=C5)C=C4)cc2)cc1
REMARK SMILES IDX 22 1 21 2 20 3 18 4 19 5 17 7 14 8 15 9 94 10 16 11 93 12
REMARK SMILES IDX 13 13 12 14 11 15 4 16 5 17 6 18 10 19 9 20 3 21 2 22 1 23
REMARK SMILES IDX 7 24 8 25 23 26 24 27 25 28 26 29 27 30 28 31 29 33 30 34
REMARK SMILES IDX 31 35 92 36 32 37 91 38 33 39 34 40 35 41 85 42 36 43 90 44
REMARK SMILES IDX 84 45 86 46 37 47 89 48 83 49 82 50 38 52 70 53 50 54 69 55
REMARK SMILES IDX 51 56 54 57 68 58 87 59 52 60 53 61 67 63 88 64 55 65 39 66
REMARK SMILES IDX 40 67 48 68 41 69 42 70 46 71 49 72 43 73 44 74 47 75 45 76
REMARK SMILES IDX 71 77 72 78 80 79 73 80 74 81 78 82 81 83 75 84 76 85 79 86
REMARK SMILES IDX 77 87 56 88 57 89 65 90 58 91 59 92 63 93 66 94 60 95 61 96
REMARK SMILES IDX 64 97 62 98
REMARK H PARENT 20 6 27 32 86 51 54 62
REMARK Flexibility Score: inf
ROOT
ATOM      1  C   UNL A   1      35.820  32.258  28.057  1.00  0.00     0.021 C 
ENDROOT
BRANCH   1   2
ATOM      2  C   UNL A   1      35.094  30.925  27.854  1.00  0.00     0.116 C 
BRANCH   2   3
ATOM      3  N   UNL A   1      33.693  31.162  27.558  1.00  0.00    -0.352 N 
ATOM      4  C   UNL A   1      32.750  30.469  26.846  1.00  0.00     0.251 C 
ATOM      5  O   UNL A   1      31.607  30.927  26.815  1.00  0.00    -0.269 OA
ATOM      6  H   UNL A   1      33.347  31.996  27.953  1.00  0.00     0.163 HD
BRANCH   4   7
ATOM      7  C   UNL A   1      33.033  29.184  26.154  1.00  0.00     0.039 A 
ATOM      8  C   UNL A   1      33.576  26.780  24.734  1.00  0.00    -0.011 A 
ATOM      9  C   UNL A   1      33.313  27.979  24.051  1.00  0.00     0.008 A 
ATOM     10  C   UNL A   1      33.484  26.809  26.125  1.00  0.00     0.008 A 
ATOM     11  C   UNL A   1      33.015  29.159  24.753  1.00  0.00     0.014 A 
ATOM     12  C   UNL A   1      33.345  28.008  26.819  1.00  0.00     0.014 A 
BRANCH   8  13
ATOM     13  C   UNL A   1      34.082  25.568  23.947  1.00  0.00     0.265 C 
BRANCH  13  14
ATOM     14  O   UNL A   1      33.176  24.539  23.504  1.00  0.00    -0.485 OA
BRANCH  14  15
ATOM     15  C   UNL A   1      33.083  23.361  24.200  1.00  0.00     0.161 A 
ATOM     16  C   UNL A   1      31.902  22.754  24.665  1.00  0.00     0.161 A 
ATOM     17  C   UNL A   1      31.928  21.397  25.014  1.00  0.00     0.062 A 
ATOM     18  C   UNL A   1      33.139  20.686  24.958  1.00  0.00     0.018 A 
ATOM     19  C   UNL A   1      34.302  22.672  24.261  1.00  0.00     0.051 A 
ATOM     20  C   UNL A   1      34.335  21.332  24.635  1.00  0.00     0.015 A 
BRANCH  16  21
ATOM     21  O   UNL A   1      30.796  23.543  24.792  1.00  0.00    -0.490 OA
BRANCH  21  22
ATOM     22  C   UNL A   1      30.679  24.325  25.981  1.00  0.00     0.226 C 
ATOM     23  C   UNL A   1      30.105  25.670  25.557  1.00  0.00     0.049 C 
ENDBRANCH  21  22
ENDBRANCH  16  21
BRANCH  18  24
ATOM     24  C   UNL A   1      33.183  19.230  25.196  1.00  0.00     0.260 C 
ATOM     25  O   UNL A   1      32.170  18.573  25.402  1.00  0.00    -0.298 OA
ENDBRANCH  18  24
ENDBRANCH  14  15
ENDBRANCH  13  14
ENDBRANCH   8  13
ENDBRANCH   4   7
ENDBRANCH   2   3
ENDBRANCH   1   2
BRANCH   1  26
ATOM     26  C   UNL A   1      34.974  33.243  28.870  1.00  0.00     0.002 C 
BRANCH  26  27
ATOM     27  C   UNL A   1      35.182  34.711  28.472  1.00  0.00     0.002 C 
BRANCH  27  28
ATOM     28  C   UNL A   1      33.973  35.616  28.726  1.00  0.00     0.021 C 
BRANCH  28  29
ATOM     29  C   UNL A   1      32.859  34.941  29.515  1.00  0.00     0.116 C 
BRANCH  29  30
ATOM     30  N   UNL A   1      32.482  35.735  30.674  1.00  0.00    -0.352 N 
ATOM     31  C   UNL A   1      32.914  35.632  31.966  1.00  0.00     0.251 C 
ATOM     32  H   UNL A   1      31.824  36.448  30.504  1.00  0.00     0.163 HD
ATOM     33  O   UNL A   1      32.288  36.180  32.878  1.00  0.00    -0.269 OA
BRANCH  31  34
ATOM     34  C   UNL A   1      34.135  34.865  32.269  1.00  0.00     0.039 A 
ATOM     35  C   UNL A   1      35.379  35.485  32.142  1.00  0.00     0.014 A 
ATOM     36  C   UNL A   1      34.046  33.524  32.655  1.00  0.00     0.014 A 
ATOM     37  C   UNL A   1      36.536  34.767  32.442  1.00  0.00     0.010 A 
ATOM     38  C   UNL A   1      35.192  32.836  33.030  1.00  0.00     0.010 A 
ATOM     39  C   UNL A   1      36.450  33.446  32.911  1.00  0.00    -0.014 A 
BRANCH  39  40
ATOM     40  C   UNL A   1      37.667  32.680  33.266  1.00  0.00     0.031 A 
ATOM     41  C   UNL A   1      38.401  32.981  34.542  1.00  0.00     0.074 A 
ATOM     42  C   UNL A   1      38.146  31.762  32.406  1.00  0.00     0.049 A 
ATOM     43  N   UNL A   1      39.508  32.457  35.004  1.00  0.00    -0.248 NA
ATOM     44  C   UNL A   1      37.832  34.033  35.399  1.00  0.00     0.031 C 
ATOM     45  C   UNL A   1      37.552  31.431  31.109  1.00  0.00     0.029 A 
ATOM     46  N   UNL A   1      39.248  30.951  32.485  1.00  0.00    -0.354 N 
ATOM     47  C   UNL A   1      39.776  33.127  36.189  1.00  0.00     0.074 A 
ATOM     48  C   UNL A   1      38.750  34.134  36.349  1.00  0.00     0.031 C 
ATOM     49  C   UNL A   1      38.284  30.471  30.525  1.00  0.00     0.029 A 
ATOM     50  C   UNL A   1      39.417  30.146  31.386  1.00  0.00     0.049 A 
ATOM     51  H   UNL A   1      39.860  30.945  33.257  1.00  0.00     0.167 HD
ATOM     52  C   UNL A   1      40.776  32.907  37.076  1.00  0.00     0.037 A 
ATOM     53  C   UNL A   1      40.384  29.253  31.103  1.00  0.00     0.037 A 
ATOM     54  C   UNL A   1      41.779  31.886  36.919  1.00  0.00     0.049 A 
ATOM     55  C   UNL A   1      41.476  29.014  32.108  1.00  0.00     0.074 A 
ATOM     56  C   UNL A   1      42.787  31.525  37.794  1.00  0.00     0.029 A 
ATOM     57  N   UNL A   1      41.906  31.069  35.804  1.00  0.00    -0.354 N 
ATOM     58  N   UNL A   1      41.672  29.592  33.269  1.00  0.00    -0.248 NA
ATOM     59  C   UNL A   1      42.476  27.993  31.769  1.00  0.00     0.031 C 
ATOM     60  C   UNL A   1      43.558  30.530  37.184  1.00  0.00     0.029 A 
ATOM     61  C   UNL A   1      42.995  30.226  35.954  1.00  0.00     0.049 A 
ATOM     62  H   UNL A   1      41.308  31.086  35.020  1.00  0.00     0.167 HD
ATOM     63  C   UNL A   1      42.799  28.989  33.811  1.00  0.00     0.074 A 
ATOM     64  C   UNL A   1      43.235  27.989  32.856  1.00  0.00     0.031 C 
ATOM     65  C   UNL A   1      43.417  29.241  34.992  1.00  0.00     0.037 A 
BRANCH  52  66
ATOM     66  C   UNL A   1      40.838  33.794  38.287  1.00  0.00     0.064 A 
ATOM     67  C   UNL A   1      41.629  34.953  38.318  1.00  0.00     0.173 A 
ATOM     68  C   UNL A   1      40.083  33.488  39.429  1.00  0.00     0.173 A 
ATOM     69  F   UNL A   1      42.379  35.287  37.256  1.00  0.00    -0.203 F 
ATOM     70  C   UNL A   1      41.691  35.751  39.458  1.00  0.00     0.198 A 
ATOM     71  C   UNL A   1      40.120  34.308  40.555  1.00  0.00     0.198 A 
ATOM     72  F   UNL A   1      39.304  32.397  39.454  1.00  0.00    -0.203 F 
ATOM     73  F   UNL A   1      42.500  36.819  39.483  1.00  0.00    -0.200 F 
ATOM     74  C   UNL A   1      40.932  35.431  40.573  1.00  0.00     0.200 A 
ATOM     75  F   UNL A   1      39.374  34.005  41.627  1.00  0.00    -0.200 F 
ATOM     76  F   UNL A   1      40.990  36.201  41.668  1.00  0.00    -0.200 F 
ENDBRANCH  52  66
BRANCH  53  77
ATOM     77  C   UNL A   1      40.339  28.506  29.819  1.00  0.00     0.064 A 
ATOM     78  C   UNL A   1      41.012  28.979  28.684  1.00  0.00     0.173 A 
ATOM     79  C   UNL A   1      39.646  27.292  29.709  1.00  0.00     0.173 A 
ATOM     80  F   UNL A   1      41.675  30.144  28.736  1.00  0.00    -0.203 F 
ATOM     81  C   UNL A   1      40.979  28.274  27.483  1.00  0.00     0.198 A 
ATOM     82  C   UNL A   1      39.639  26.573  28.516  1.00  0.00     0.198 A 
ATOM     83  F   UNL A   1      38.994  26.790  30.769  1.00  0.00    -0.203 F 
ATOM     84  F   UNL A   1      41.600  28.768  26.403  1.00  0.00    -0.200 F 
ATOM     85  C   UNL A   1      40.300  27.068  27.402  1.00  0.00     0.200 A 
ATOM     86  F   UNL A   1      38.997  25.399  28.448  1.00  0.00    -0.200 F 
ATOM     87  F   UNL A   1      40.280  26.384  26.249  1.00  0.00    -0.200 F 
ENDBRANCH  53  77
BRANCH  65  88
ATOM     88  C   UNL A   1      44.619  28.404  35.330  1.00  0.00     0.064 A 
ATOM     89  C   UNL A   1      45.916  28.795  34.967  1.00  0.00     0.173 A 
ATOM     90  C   UNL A   1      44.471  27.215  36.060  1.00  0.00     0.173 A 
ATOM     91  F   UNL A   1      46.109  29.915  34.255  1.00  0.00    -0.203 F 
ATOM     92  C   UNL A   1      47.018  28.012  35.300  1.00  0.00     0.198 A 
ATOM     93  C   UNL A   1      45.578  26.453  36.421  1.00  0.00     0.198 A 
ATOM     94  F   UNL A   1      43.252  26.800  36.438  1.00  0.00    -0.203 F 
ATOM     95  F   UNL A   1      48.242  28.377  34.898  1.00  0.00    -0.200 F 
ATOM     96  C   UNL A   1      46.849  26.847  36.033  1.00  0.00     0.200 A 
ATOM     97  F   UNL A   1      45.414  25.335  37.143  1.00  0.00    -0.200 F 
ATOM     98  F   UNL A   1      47.912  26.099  36.360  1.00  0.00    -0.200 F 
ENDBRANCH  65  88
ENDBRANCH  39  40
ENDBRANCH  31  34
ENDBRANCH  29  30
ENDBRANCH  28  29
ENDBRANCH  27  28
ENDBRANCH  26  27
ENDBRANCH   1  26
TORSDOF 19
ENDMDL
