MODEL 1
REMARK VINA RESULT:     -10.7      0.000      0.000
REMARK SMILES CC(=O)N(C)n1cnn(CC(=O)NCCCCCCNC(=O)c2ccc(-c3c4nc(c(-c5c(F)c(F)c(F)c(F)c5F)c5ccc([nH]5)c(-c5c(F)c(F)c(F)c(F)c5F)c5nc(c(-c6c(F)c(F)c(F)c(F)c6F)c6ccc3[nH]6)C=C5)C=C4)cc2)c1=S
REMARK SMILES IDX 16 1 15 2 14 3 13 4 11 5 12 6 10 8 9 9 6 10 7 11 86 12 8 13
REMARK SMILES IDX 87 14 4 15 5 16 2 17 1 18 3 19 17 20 18 21 19 22 20 23 21 24
REMARK SMILES IDX 22 26 23 27 24 28 85 29 25 30 84 31 26 32 27 33 28 34 78 35
REMARK SMILES IDX 29 36 83 37 77 38 79 39 30 40 82 41 76 42 75 43 31 45 63 46
REMARK SMILES IDX 43 47 62 48 44 49 47 50 61 51 80 52 45 53 46 54 60 56 81 57
REMARK SMILES IDX 48 58 32 59 33 60 41 61 34 62 35 63 39 64 42 65 36 66 37 67
REMARK SMILES IDX 40 68 38 69 64 70 65 71 73 72 66 73 67 74 71 75 74 76 68 77
REMARK SMILES IDX 69 78 72 79 70 80 49 81 50 82 58 83 51 84 52 85 56 86 59 87
REMARK SMILES IDX 53 88 54 89 57 90 55 91
REMARK H PARENT 13 7 20 25 79 44 47 55
REMARK Flexibility Score: inf
ROOT
ATOM      1  C   UNL A   1      40.532  22.639  26.720  1.00  0.00     0.002 C 
ENDROOT
BRANCH   1   2
ATOM      2  C   UNL A   1      39.059  23.007  26.508  1.00  0.00     0.021 C 
BRANCH   2   3
ATOM      3  C   UNL A   1      38.266  21.967  25.722  1.00  0.00     0.116 C 
BRANCH   3   4
ATOM      4  N   UNL A   1      37.633  22.526  24.548  1.00  0.00    -0.354 N 
ATOM      5  C   UNL A   1      36.395  22.291  24.023  1.00  0.00     0.241 C 
ATOM      6  O   UNL A   1      36.030  23.038  23.108  1.00  0.00    -0.273 OA
ATOM      7  H   UNL A   1      38.179  23.177  24.051  1.00  0.00     0.163 HD
BRANCH   5   8
ATOM      8  C   UNL A   1      35.410  21.304  24.661  1.00  0.00     0.247 C 
BRANCH   8   9
ATOM      9  N   UNL A   1      34.342  21.900  25.454  1.00  0.00    -0.227 N 
ATOM     10  N   UNL A   1      32.502  22.852  26.225  1.00  0.00    -0.211 N 
ATOM     11  C   UNL A   1      33.464  22.784  27.172  1.00  0.00     0.247 A 
ATOM     12  C   UNL A   1      33.025  22.262  25.087  1.00  0.00     0.217 A 
ATOM     13  N   UNL A   1      34.563  22.220  26.785  1.00  0.00    -0.158 NA
ATOM     14  S   UNL A   1      32.285  22.010  23.612  1.00  0.00    -0.037 S 
BRANCH  10  15
ATOM     15  N   UNL A   1      31.317  23.585  26.368  1.00  0.00    -0.250 N 
ATOM     16  C   UNL A   1      30.168  22.817  26.819  1.00  0.00     0.176 C 
BRANCH  15  17
ATOM     17  C   UNL A   1      31.351  24.931  26.034  1.00  0.00     0.238 C 
ATOM     18  C   UNL A   1      30.869  25.300  24.656  1.00  0.00     0.116 C 
ATOM     19  O   UNL A   1      31.743  25.808  26.807  1.00  0.00    -0.273 OA
ENDBRANCH  15  17
ENDBRANCH  10  15
ENDBRANCH   8   9
ENDBRANCH   5   8
ENDBRANCH   3   4
ENDBRANCH   2   3
ENDBRANCH   1   2
BRANCH   1  20
ATOM     20  C   UNL A   1      40.807  21.490  27.704  1.00  0.00     0.002 C 
BRANCH  20  21
ATOM     21  C   UNL A   1      41.890  20.477  27.302  1.00  0.00     0.021 C 
BRANCH  21  22
ATOM     22  C   UNL A   1      41.945  20.182  25.811  1.00  0.00     0.116 C 
BRANCH  22  23
ATOM     23  N   UNL A   1      43.305  19.912  25.339  1.00  0.00    -0.352 N 
ATOM     24  C   UNL A   1      44.307  20.808  25.011  1.00  0.00     0.251 C 
ATOM     25  H   UNL A   1      43.538  18.961  25.241  1.00  0.00     0.163 HD
ATOM     26  O   UNL A   1      45.248  20.478  24.311  1.00  0.00    -0.269 OA
BRANCH  24  27
ATOM     27  C   UNL A   1      44.216  22.184  25.530  1.00  0.00     0.039 A 
ATOM     28  C   UNL A   1      43.507  23.181  24.853  1.00  0.00     0.014 A 
ATOM     29  C   UNL A   1      44.836  22.453  26.743  1.00  0.00     0.014 A 
ATOM     30  C   UNL A   1      43.369  24.431  25.454  1.00  0.00     0.010 A 
ATOM     31  C   UNL A   1      44.531  23.601  27.417  1.00  0.00     0.010 A 
ATOM     32  C   UNL A   1      43.874  24.627  26.747  1.00  0.00    -0.014 A 
BRANCH  32  33
ATOM     33  C   UNL A   1      43.693  25.887  27.456  1.00  0.00     0.031 A 
ATOM     34  C   UNL A   1      44.628  26.979  27.073  1.00  0.00     0.074 A 
ATOM     35  C   UNL A   1      42.588  26.122  28.199  1.00  0.00     0.049 A 
ATOM     36  N   UNL A   1      45.458  27.625  27.825  1.00  0.00    -0.248 NA
ATOM     37  C   UNL A   1      44.713  27.345  25.648  1.00  0.00     0.031 C 
ATOM     38  C   UNL A   1      41.405  25.264  28.368  1.00  0.00     0.029 A 
ATOM     39  N   UNL A   1      42.227  27.251  28.861  1.00  0.00    -0.354 N 
ATOM     40  C   UNL A   1      46.049  28.592  27.015  1.00  0.00     0.074 A 
ATOM     41  C   UNL A   1      45.675  28.269  25.662  1.00  0.00     0.031 C 
ATOM     42  C   UNL A   1      40.379  25.995  28.854  1.00  0.00     0.029 A 
ATOM     43  C   UNL A   1      40.884  27.307  29.208  1.00  0.00     0.049 A 
ATOM     44  H   UNL A   1      42.863  27.970  29.077  1.00  0.00     0.167 HD
ATOM     45  C   UNL A   1      46.614  29.713  27.546  1.00  0.00     0.037 A 
ATOM     46  C   UNL A   1      40.222  28.375  29.712  1.00  0.00     0.037 A 
ATOM     47  C   UNL A   1      46.869  29.544  28.954  1.00  0.00     0.049 A 
ATOM     48  C   UNL A   1      41.242  29.316  30.238  1.00  0.00     0.074 A 
ATOM     49  C   UNL A   1      47.635  28.671  29.702  1.00  0.00     0.029 A 
ATOM     50  N   UNL A   1      45.996  30.121  29.843  1.00  0.00    -0.354 N 
ATOM     51  N   UNL A   1      42.007  29.064  31.263  1.00  0.00    -0.248 NA
ATOM     52  C   UNL A   1      41.726  30.351  29.336  1.00  0.00     0.031 C 
ATOM     53  C   UNL A   1      46.854  28.401  30.865  1.00  0.00     0.029 A 
ATOM     54  C   UNL A   1      45.695  29.176  30.788  1.00  0.00     0.049 A 
ATOM     55  H   UNL A   1      45.652  31.043  29.807  1.00  0.00     0.167 HD
ATOM     56  C   UNL A   1      43.245  29.586  30.917  1.00  0.00     0.074 A 
ATOM     57  C   UNL A   1      42.987  30.443  29.763  1.00  0.00     0.031 C 
ATOM     58  C   UNL A   1      44.399  29.053  31.415  1.00  0.00     0.037 A 
BRANCH  45  59
ATOM     59  C   UNL A   1      46.605  31.079  26.897  1.00  0.00     0.064 A 
ATOM     60  C   UNL A   1      47.801  31.826  26.856  1.00  0.00     0.173 A 
ATOM     61  C   UNL A   1      45.431  31.803  26.598  1.00  0.00     0.173 A 
ATOM     62  F   UNL A   1      48.980  31.247  27.131  1.00  0.00    -0.203 F 
ATOM     63  C   UNL A   1      47.807  33.205  26.629  1.00  0.00     0.198 A 
ATOM     64  C   UNL A   1      45.447  33.170  26.318  1.00  0.00     0.198 A 
ATOM     65  F   UNL A   1      44.212  31.258  26.676  1.00  0.00    -0.203 F 
ATOM     66  F   UNL A   1      48.952  33.892  26.739  1.00  0.00    -0.200 F 
ATOM     67  C   UNL A   1      46.628  33.877  26.369  1.00  0.00     0.200 A 
ATOM     68  F   UNL A   1      44.290  33.805  26.085  1.00  0.00    -0.200 F 
ATOM     69  F   UNL A   1      46.620  35.208  26.220  1.00  0.00    -0.200 F 
ENDBRANCH  45  59
BRANCH  46  70
ATOM     70  C   UNL A   1      38.816  28.762  29.465  1.00  0.00     0.064 A 
ATOM     71  C   UNL A   1      37.929  28.994  30.526  1.00  0.00     0.173 A 
ATOM     72  C   UNL A   1      38.387  29.172  28.185  1.00  0.00     0.173 A 
ATOM     73  F   UNL A   1      38.286  28.684  31.780  1.00  0.00    -0.203 F 
ATOM     74  C   UNL A   1      36.691  29.614  30.322  1.00  0.00     0.198 A 
ATOM     75  C   UNL A   1      37.150  29.783  27.983  1.00  0.00     0.198 A 
ATOM     76  F   UNL A   1      39.203  29.081  27.126  1.00  0.00    -0.203 F 
ATOM     77  F   UNL A   1      35.896  29.879  31.369  1.00  0.00    -0.200 F 
ATOM     78  C   UNL A   1      36.307  30.016  29.053  1.00  0.00     0.200 A 
ATOM     79  F   UNL A   1      36.813  30.212  26.757  1.00  0.00    -0.200 F 
ATOM     80  F   UNL A   1      35.150  30.668  28.868  1.00  0.00    -0.200 F 
ENDBRANCH  46  70
BRANCH  58  81
ATOM     81  C   UNL A   1      44.297  28.068  32.547  1.00  0.00     0.064 A 
ATOM     82  C   UNL A   1      44.154  26.680  32.374  1.00  0.00     0.173 A 
ATOM     83  C   UNL A   1      44.531  28.533  33.847  1.00  0.00     0.173 A 
ATOM     84  F   UNL A   1      44.025  26.147  31.154  1.00  0.00    -0.203 F 
ATOM     85  C   UNL A   1      44.211  25.806  33.458  1.00  0.00     0.198 A 
ATOM     86  C   UNL A   1      44.623  27.656  34.923  1.00  0.00     0.198 A 
ATOM     87  F   UNL A   1      44.729  29.843  34.065  1.00  0.00    -0.203 F 
ATOM     88  F   UNL A   1      44.069  24.486  33.267  1.00  0.00    -0.200 F 
ATOM     89  C   UNL A   1      44.456  26.294  34.730  1.00  0.00     0.200 A 
ATOM     90  F   UNL A   1      44.911  28.128  36.144  1.00  0.00    -0.200 F 
ATOM     91  F   UNL A   1      44.560  25.451  35.767  1.00  0.00    -0.200 F 
ENDBRANCH  58  81
ENDBRANCH  32  33
ENDBRANCH  24  27
ENDBRANCH  22  23
ENDBRANCH  21  22
ENDBRANCH  20  21
ENDBRANCH   1  20
TORSDOF 16
ENDMDL
MODEL 2
REMARK VINA RESULT:     -10.6      2.921      8.618
REMARK SMILES CC(=O)N(C)n1cnn(CC(=O)NCCCCCCNC(=O)c2ccc(-c3c4nc(c(-c5c(F)c(F)c(F)c(F)c5F)c5ccc([nH]5)c(-c5c(F)c(F)c(F)c(F)c5F)c5nc(c(-c6c(F)c(F)c(F)c(F)c6F)c6ccc3[nH]6)C=C5)C=C4)cc2)c1=S
REMARK SMILES IDX 16 1 15 2 14 3 13 4 11 5 12 6 10 8 9 9 6 10 7 11 86 12 8 13
REMARK SMILES IDX 87 14 4 15 5 16 2 17 1 18 3 19 17 20 18 21 19 22 20 23 21 24
REMARK SMILES IDX 22 26 23 27 24 28 85 29 25 30 84 31 26 32 27 33 28 34 78 35
REMARK SMILES IDX 29 36 83 37 77 38 79 39 30 40 82 41 76 42 75 43 31 45 63 46
REMARK SMILES IDX 43 47 62 48 44 49 47 50 61 51 80 52 45 53 46 54 60 56 81 57
REMARK SMILES IDX 48 58 32 59 33 60 41 61 34 62 35 63 39 64 42 65 36 66 37 67
REMARK SMILES IDX 40 68 38 69 64 70 65 71 73 72 66 73 67 74 71 75 74 76 68 77
REMARK SMILES IDX 69 78 72 79 70 80 49 81 50 82 58 83 51 84 52 85 56 86 59 87
REMARK SMILES IDX 53 88 54 89 57 90 55 91
REMARK H PARENT 13 7 20 25 79 44 47 55
REMARK Flexibility Score: inf
ROOT
ATOM      1  C   UNL A   1      32.883  28.685  25.349  1.00  0.00     0.002 C 
ENDROOT
BRANCH   1   2
ATOM      2  C   UNL A   1      33.546  28.904  23.985  1.00  0.00     0.021 C 
BRANCH   2   3
ATOM      3  C   UNL A   1      32.636  28.608  22.796  1.00  0.00     0.116 C 
BRANCH   3   4
ATOM      4  N   UNL A   1      33.166  27.570  21.939  1.00  0.00    -0.354 N 
ATOM      5  C   UNL A   1      33.137  26.213  22.085  1.00  0.00     0.241 C 
ATOM      6  O   UNL A   1      33.508  25.544  21.113  1.00  0.00    -0.273 OA
ATOM      7  H   UNL A   1      33.616  27.892  21.126  1.00  0.00     0.163 HD
BRANCH   5   8
ATOM      8  C   UNL A   1      32.482  25.534  23.293  1.00  0.00     0.247 C 
BRANCH   8   9
ATOM      9  N   UNL A   1      33.356  24.681  24.090  1.00  0.00    -0.227 N 
ATOM     10  N   UNL A   1      34.381  23.034  25.151  1.00  0.00    -0.211 N 
ATOM     11  C   UNL A   1      34.840  24.243  25.543  1.00  0.00     0.247 A 
ATOM     12  C   UNL A   1      33.421  23.271  24.181  1.00  0.00     0.217 A 
ATOM     13  N   UNL A   1      34.289  25.250  24.944  1.00  0.00    -0.158 NA
ATOM     14  S   UNL A   1      32.541  22.163  23.295  1.00  0.00    -0.037 S 
BRANCH  10  15
ATOM     15  N   UNL A   1      34.696  21.832  25.797  1.00  0.00    -0.250 N 
ATOM     16  C   UNL A   1      34.199  21.716  27.158  1.00  0.00     0.176 C 
BRANCH  15  17
ATOM     17  C   UNL A   1      35.467  20.913  25.102  1.00  0.00     0.238 C 
ATOM     18  C   UNL A   1      36.868  21.336  24.743  1.00  0.00     0.116 C 
ATOM     19  O   UNL A   1      35.061  19.793  24.785  1.00  0.00    -0.273 OA
ENDBRANCH  15  17
ENDBRANCH  10  15
ENDBRANCH   8   9
ENDBRANCH   5   8
ENDBRANCH   3   4
ENDBRANCH   2   3
ENDBRANCH   1   2
BRANCH   1  20
ATOM     20  C   UNL A   1      33.701  29.121  26.576  1.00  0.00     0.002 C 
BRANCH  20  21
ATOM     21  C   UNL A   1      33.467  30.548  27.094  1.00  0.00     0.021 C 
BRANCH  21  22
ATOM     22  C   UNL A   1      34.726  31.251  27.577  1.00  0.00     0.116 C 
BRANCH  22  23
ATOM     23  N   UNL A   1      34.488  32.093  28.751  1.00  0.00    -0.352 N 
ATOM     24  C   UNL A   1      35.042  32.002  30.016  1.00  0.00     0.251 C 
ATOM     25  H   UNL A   1      33.844  32.827  28.622  1.00  0.00     0.163 HD
ATOM     26  O   UNL A   1      34.511  32.526  30.979  1.00  0.00    -0.269 OA
BRANCH  24  27
ATOM     27  C   UNL A   1      36.299  31.252  30.179  1.00  0.00     0.039 A 
ATOM     28  C   UNL A   1      36.318  29.857  30.264  1.00  0.00     0.014 A 
ATOM     29  C   UNL A   1      37.480  31.982  30.214  1.00  0.00     0.014 A 
ATOM     30  C   UNL A   1      37.550  29.205  30.307  1.00  0.00     0.010 A 
ATOM     31  C   UNL A   1      38.675  31.341  30.051  1.00  0.00     0.010 A 
ATOM     32  C   UNL A   1      38.726  29.958  30.186  1.00  0.00    -0.014 A 
BRANCH  32  33
ATOM     33  C   UNL A   1      40.038  29.326  30.146  1.00  0.00     0.031 A 
ATOM     34  C   UNL A   1      40.702  29.144  31.466  1.00  0.00     0.074 A 
ATOM     35  C   UNL A   1      40.487  28.708  29.031  1.00  0.00     0.049 A 
ATOM     36  N   UNL A   1      41.846  29.602  31.857  1.00  0.00    -0.248 NA
ATOM     37  C   UNL A   1      39.959  28.430  32.518  1.00  0.00     0.031 C 
ATOM     38  C   UNL A   1      39.777  28.492  27.761  1.00  0.00     0.029 A 
ATOM     39  N   UNL A   1      41.640  28.015  28.842  1.00  0.00    -0.354 N 
ATOM     40  C   UNL A   1      42.050  29.099  33.141  1.00  0.00     0.074 A 
ATOM     41  C   UNL A   1      40.796  28.523  33.553  1.00  0.00     0.031 C 
ATOM     42  C   UNL A   1      40.395  27.523  27.054  1.00  0.00     0.029 A 
ATOM     43  C   UNL A   1      41.637  27.193  27.724  1.00  0.00     0.049 A 
ATOM     44  H   UNL A   1      42.412  28.090  29.447  1.00  0.00     0.167 HD
ATOM     45  C   UNL A   1      43.302  28.996  33.670  1.00  0.00     0.037 A 
ATOM     46  C   UNL A   1      42.573  26.272  27.395  1.00  0.00     0.037 A 
ATOM     47  C   UNL A   1      44.238  29.815  32.944  1.00  0.00     0.049 A 
ATOM     48  C   UNL A   1      43.796  26.590  28.173  1.00  0.00     0.074 A 
ATOM     49  C   UNL A   1      44.342  31.167  32.682  1.00  0.00     0.029 A 
ATOM     50  N   UNL A   1      45.071  29.200  32.042  1.00  0.00    -0.354 N 
ATOM     51  N   UNL A   1      44.514  27.664  27.995  1.00  0.00    -0.248 NA
ATOM     52  C   UNL A   1      43.958  25.936  29.462  1.00  0.00     0.031 C 
ATOM     53  C   UNL A   1      44.816  31.244  31.338  1.00  0.00     0.029 A 
ATOM     54  C   UNL A   1      45.038  29.941  30.890  1.00  0.00     0.049 A 
ATOM     55  H   UNL A   1      45.594  28.380  32.195  1.00  0.00     0.167 HD
ATOM     56  C   UNL A   1      44.885  28.057  29.273  1.00  0.00     0.074 A 
ATOM     57  C   UNL A   1      44.592  26.907  30.124  1.00  0.00     0.031 C 
ATOM     58  C   UNL A   1      45.123  29.369  29.566  1.00  0.00     0.037 A 
BRANCH  45  59
ATOM     59  C   UNL A   1      43.761  27.896  34.601  1.00  0.00     0.064 A 
ATOM     60  C   UNL A   1      43.649  26.552  34.183  1.00  0.00     0.173 A 
ATOM     61  C   UNL A   1      44.013  28.080  35.977  1.00  0.00     0.173 A 
ATOM     62  F   UNL A   1      43.401  26.254  32.898  1.00  0.00    -0.203 F 
ATOM     63  C   UNL A   1      43.688  25.488  35.088  1.00  0.00     0.198 A 
ATOM     64  C   UNL A   1      44.107  27.011  36.869  1.00  0.00     0.198 A 
ATOM     65  F   UNL A   1      44.064  29.291  36.542  1.00  0.00    -0.203 F 
ATOM     66  F   UNL A   1      43.436  24.243  34.663  1.00  0.00    -0.200 F 
ATOM     67  C   UNL A   1      43.909  25.720  36.433  1.00  0.00     0.200 A 
ATOM     68  F   UNL A   1      44.306  27.259  38.172  1.00  0.00    -0.200 F 
ATOM     69  F   UNL A   1      43.878  24.711  37.313  1.00  0.00    -0.200 F 
ENDBRANCH  45  59
BRANCH  46  70
ATOM     70  C   UNL A   1      42.360  24.974  26.719  1.00  0.00     0.064 A 
ATOM     71  C   UNL A   1      43.068  24.635  25.556  1.00  0.00     0.173 A 
ATOM     72  C   UNL A   1      41.653  23.930  27.351  1.00  0.00     0.173 A 
ATOM     73  F   UNL A   1      43.809  25.558  24.928  1.00  0.00    -0.203 F 
ATOM     74  C   UNL A   1      43.080  23.325  25.063  1.00  0.00     0.198 A 
ATOM     75  C   UNL A   1      41.661  22.627  26.855  1.00  0.00     0.198 A 
ATOM     76  F   UNL A   1      41.028  24.134  28.520  1.00  0.00    -0.203 F 
ATOM     77  F   UNL A   1      43.820  23.024  23.986  1.00  0.00    -0.200 F 
ATOM     78  C   UNL A   1      42.384  22.321  25.717  1.00  0.00     0.200 A 
ATOM     79  F   UNL A   1      41.024  21.655  27.526  1.00  0.00    -0.200 F 
ATOM     80  F   UNL A   1      42.450  21.055  25.282  1.00  0.00    -0.200 F 
ENDBRANCH  46  70
BRANCH  58  81
ATOM     81  C   UNL A   1      45.238  30.343  28.425  1.00  0.00     0.064 A 
ATOM     82  C   UNL A   1      44.159  31.078  27.905  1.00  0.00     0.173 A 
ATOM     83  C   UNL A   1      46.520  30.668  27.965  1.00  0.00     0.173 A 
ATOM     84  F   UNL A   1      42.916  30.896  28.361  1.00  0.00    -0.203 F 
ATOM     85  C   UNL A   1      44.356  32.071  26.945  1.00  0.00     0.198 A 
ATOM     86  C   UNL A   1      46.719  31.683  27.034  1.00  0.00     0.198 A 
ATOM     87  F   UNL A   1      47.594  30.037  28.467  1.00  0.00    -0.203 F 
ATOM     88  F   UNL A   1      43.309  32.757  26.463  1.00  0.00    -0.200 F 
ATOM     89  C   UNL A   1      45.636  32.380  26.519  1.00  0.00     0.200 A 
ATOM     90  F   UNL A   1      47.964  32.012  26.663  1.00  0.00    -0.200 F 
ATOM     91  F   UNL A   1      45.832  33.366  25.634  1.00  0.00    -0.200 F 
ENDBRANCH  58  81
ENDBRANCH  32  33
ENDBRANCH  24  27
ENDBRANCH  22  23
ENDBRANCH  21  22
ENDBRANCH  20  21
ENDBRANCH   1  20
TORSDOF 16
ENDMDL
MODEL 3
REMARK VINA RESULT:     -10.5      2.190      3.121
REMARK SMILES CC(=O)N(C)n1cnn(CC(=O)NCCCCCCNC(=O)c2ccc(-c3c4nc(c(-c5c(F)c(F)c(F)c(F)c5F)c5ccc([nH]5)c(-c5c(F)c(F)c(F)c(F)c5F)c5nc(c(-c6c(F)c(F)c(F)c(F)c6F)c6ccc3[nH]6)C=C5)C=C4)cc2)c1=S
REMARK SMILES IDX 16 1 15 2 14 3 13 4 11 5 12 6 10 8 9 9 6 10 7 11 86 12 8 13
REMARK SMILES IDX 87 14 4 15 5 16 2 17 1 18 3 19 17 20 18 21 19 22 20 23 21 24
REMARK SMILES IDX 22 26 23 27 24 28 85 29 25 30 84 31 26 32 27 33 28 34 78 35
REMARK SMILES IDX 29 36 83 37 77 38 79 39 30 40 82 41 76 42 75 43 31 45 63 46
REMARK SMILES IDX 43 47 62 48 44 49 47 50 61 51 80 52 45 53 46 54 60 56 81 57
REMARK SMILES IDX 48 58 32 59 33 60 41 61 34 62 35 63 39 64 42 65 36 66 37 67
REMARK SMILES IDX 40 68 38 69 64 70 65 71 73 72 66 73 67 74 71 75 74 76 68 77
REMARK SMILES IDX 69 78 72 79 70 80 49 81 50 82 58 83 51 84 52 85 56 86 59 87
REMARK SMILES IDX 53 88 54 89 57 90 55 91
REMARK H PARENT 13 7 20 25 79 44 47 55
REMARK Flexibility Score: inf
ROOT
ATOM      1  C   UNL A   1      36.849  23.490  25.789  1.00  0.00     0.002 C 
ENDROOT
BRANCH   1   2
ATOM      2  C   UNL A   1      36.392  23.078  24.385  1.00  0.00     0.021 C 
BRANCH   2   3
ATOM      3  C   UNL A   1      35.325  21.987  24.374  1.00  0.00     0.116 C 
BRANCH   3   4
ATOM      4  N   UNL A   1      34.946  21.571  25.706  1.00  0.00    -0.354 N 
ATOM      5  C   UNL A   1      33.745  21.670  26.347  1.00  0.00     0.241 C 
ATOM      6  O   UNL A   1      33.641  21.071  27.424  1.00  0.00    -0.273 OA
ATOM      7  H   UNL A   1      35.665  21.151  26.231  1.00  0.00     0.163 HD
BRANCH   5   8
ATOM      8  C   UNL A   1      32.513  22.300  25.686  1.00  0.00     0.247 C 
BRANCH   8   9
ATOM      9  N   UNL A   1      32.590  23.736  25.443  1.00  0.00    -0.227 N 
ATOM     10  N   UNL A   1      32.445  25.805  24.678  1.00  0.00    -0.211 N 
ATOM     11  C   UNL A   1      33.333  25.708  25.692  1.00  0.00     0.247 A 
ATOM     12  C   UNL A   1      31.914  24.539  24.495  1.00  0.00     0.217 A 
ATOM     13  N   UNL A   1      33.451  24.521  26.195  1.00  0.00    -0.158 NA
ATOM     14  S   UNL A   1      30.735  24.050  23.419  1.00  0.00    -0.037 S 
BRANCH  10  15
ATOM     15  N   UNL A   1      32.303  26.941  23.871  1.00  0.00    -0.250 N 
ATOM     16  C   UNL A   1      33.212  27.009  22.740  1.00  0.00     0.176 C 
BRANCH  15  17
ATOM     17  C   UNL A   1      31.356  27.881  24.248  1.00  0.00     0.238 C 
ATOM     18  C   UNL A   1      30.034  27.839  23.527  1.00  0.00     0.116 C 
ATOM     19  O   UNL A   1      31.551  28.718  25.132  1.00  0.00    -0.273 OA
ENDBRANCH  15  17
ENDBRANCH  10  15
ENDBRANCH   8   9
ENDBRANCH   5   8
ENDBRANCH   3   4
ENDBRANCH   2   3
ENDBRANCH   1   2
BRANCH   1  20
ATOM     20  C   UNL A   1      38.331  23.246  26.116  1.00  0.00     0.002 C 
BRANCH  20  21
ATOM     21  C   UNL A   1      38.866  21.824  25.886  1.00  0.00     0.021 C 
BRANCH  21  22
ATOM     22  C   UNL A   1      40.043  21.450  26.774  1.00  0.00     0.116 C 
BRANCH  22  23
ATOM     23  N   UNL A   1      41.323  21.496  26.063  1.00  0.00    -0.352 N 
ATOM     24  C   UNL A   1      42.153  22.579  25.832  1.00  0.00     0.251 C 
ATOM     25  H   UNL A   1      41.636  20.637  25.698  1.00  0.00     0.163 HD
ATOM     26  O   UNL A   1      42.990  22.559  24.947  1.00  0.00    -0.269 OA
BRANCH  24  27
ATOM     27  C   UNL A   1      42.006  23.770  26.687  1.00  0.00     0.039 A 
ATOM     28  C   UNL A   1      42.559  23.829  27.969  1.00  0.00     0.014 A 
ATOM     29  C   UNL A   1      41.319  24.855  26.159  1.00  0.00     0.014 A 
ATOM     30  C   UNL A   1      42.476  25.025  28.680  1.00  0.00     0.010 A 
ATOM     31  C   UNL A   1      41.416  26.076  26.766  1.00  0.00     0.010 A 
ATOM     32  C   UNL A   1      41.913  26.150  28.062  1.00  0.00    -0.014 A 
BRANCH  32  33
ATOM     33  C   UNL A   1      41.868  27.446  28.726  1.00  0.00     0.031 A 
ATOM     34  C   UNL A   1      42.951  28.397  28.352  1.00  0.00     0.074 A 
ATOM     35  C   UNL A   1      40.775  27.846  29.415  1.00  0.00     0.049 A 
ATOM     36  N   UNL A   1      43.828  28.955  29.121  1.00  0.00    -0.248 NA
ATOM     37  C   UNL A   1      43.137  28.700  26.923  1.00  0.00     0.031 C 
ATOM     38  C   UNL A   1      39.486  27.153  29.558  1.00  0.00     0.029 A 
ATOM     39  N   UNL A   1      40.538  29.034  30.029  1.00  0.00    -0.354 N 
ATOM     40  C   UNL A   1      44.570  29.811  28.309  1.00  0.00     0.074 A 
ATOM     41  C   UNL A   1      44.210  29.493  26.951  1.00  0.00     0.031 C 
ATOM     42  C   UNL A   1      38.545  28.025  29.978  1.00  0.00     0.029 A 
ATOM     43  C   UNL A   1      39.201  29.273  30.316  1.00  0.00     0.049 A 
ATOM     44  H   UNL A   1      41.253  29.672  30.250  1.00  0.00     0.167 HD
ATOM     45  C   UNL A   1      45.254  30.867  28.832  1.00  0.00     0.037 A 
ATOM     46  C   UNL A   1      38.664  30.433  30.761  1.00  0.00     0.037 A 
ATOM     47  C   UNL A   1      45.431  30.715  30.253  1.00  0.00     0.049 A 
ATOM     48  C   UNL A   1      39.777  31.253  31.302  1.00  0.00     0.074 A 
ATOM     49  C   UNL A   1      46.049  29.777  31.058  1.00  0.00     0.029 A 
ATOM     50  N   UNL A   1      44.607  31.429  31.087  1.00  0.00    -0.354 N 
ATOM     51  N   UNL A   1      40.462  30.940  32.367  1.00  0.00    -0.248 NA
ATOM     52  C   UNL A   1      40.425  32.186  30.393  1.00  0.00     0.031 C 
ATOM     53  C   UNL A   1      45.195  29.649  32.193  1.00  0.00     0.029 A 
ATOM     54  C   UNL A   1      44.149  30.562  32.045  1.00  0.00     0.049 A 
ATOM     55  H   UNL A   1      44.386  32.386  31.011  1.00  0.00     0.167 HD
ATOM     56  C   UNL A   1      41.770  31.287  32.058  1.00  0.00     0.074 A 
ATOM     57  C   UNL A   1      41.670  32.131  30.871  1.00  0.00     0.031 C 
ATOM     58  C   UNL A   1      42.826  30.628  32.620  1.00  0.00     0.037 A 
BRANCH  45  59
ATOM     59  C   UNL A   1      45.447  32.201  28.144  1.00  0.00     0.064 A 
ATOM     60  C   UNL A   1      44.312  32.966  27.802  1.00  0.00     0.173 A 
ATOM     61  C   UNL A   1      46.655  32.610  27.539  1.00  0.00     0.173 A 
ATOM     62  F   UNL A   1      43.106  32.666  28.308  1.00  0.00    -0.203 F 
ATOM     63  C   UNL A   1      44.369  33.994  26.857  1.00  0.00     0.198 A 
ATOM     64  C   UNL A   1      46.717  33.672  26.638  1.00  0.00     0.198 A 
ATOM     65  F   UNL A   1      47.801  31.937  27.698  1.00  0.00    -0.203 F 
ATOM     66  F   UNL A   1      43.239  34.597  26.462  1.00  0.00    -0.200 F 
ATOM     67  C   UNL A   1      45.570  34.340  26.268  1.00  0.00     0.200 A 
ATOM     68  F   UNL A   1      47.890  33.980  26.067  1.00  0.00    -0.200 F 
ATOM     69  F   UNL A   1      45.618  35.276  25.312  1.00  0.00    -0.200 F 
ENDBRANCH  45  59
BRANCH  46  70
ATOM     70  C   UNL A   1      37.331  30.988  30.443  1.00  0.00     0.064 A 
ATOM     71  C   UNL A   1      36.432  31.344  31.459  1.00  0.00     0.173 A 
ATOM     72  C   UNL A   1      37.016  31.430  29.141  1.00  0.00     0.173 A 
ATOM     73  F   UNL A   1      36.688  31.010  32.731  1.00  0.00    -0.203 F 
ATOM     74  C   UNL A   1      35.291  32.111  31.190  1.00  0.00     0.198 A 
ATOM     75  C   UNL A   1      35.876  32.188  28.874  1.00  0.00     0.198 A 
ATOM     76  F   UNL A   1      37.864  31.224  28.123  1.00  0.00    -0.203 F 
ATOM     77  F   UNL A   1      34.488  32.487  32.196  1.00  0.00    -0.200 F 
ATOM     78  C   UNL A   1      35.020  32.539  29.901  1.00  0.00     0.200 A 
ATOM     79  F   UNL A   1      35.653  32.638  27.630  1.00  0.00    -0.200 F 
ATOM     80  F   UNL A   1      33.964  33.327  29.655  1.00  0.00    -0.200 F 
ENDBRANCH  46  70
BRANCH  58  81
ATOM     81  C   UNL A   1      42.554  29.703  33.774  1.00  0.00     0.064 A 
ATOM     82  C   UNL A   1      42.250  28.337  33.635  1.00  0.00     0.173 A 
ATOM     83  C   UNL A   1      42.783  30.182  35.070  1.00  0.00     0.173 A 
ATOM     84  F   UNL A   1      42.111  27.780  32.427  1.00  0.00    -0.203 F 
ATOM     85  C   UNL A   1      42.151  27.501  34.747  1.00  0.00     0.198 A 
ATOM     86  C   UNL A   1      42.720  29.339  36.175  1.00  0.00     0.198 A 
ATOM     87  F   UNL A   1      43.130  31.466  35.259  1.00  0.00    -0.203 F 
ATOM     88  F   UNL A   1      41.858  26.202  34.587  1.00  0.00    -0.200 F 
ATOM     89  C   UNL A   1      42.397  28.000  36.014  1.00  0.00     0.200 A 
ATOM     90  F   UNL A   1      43.008  29.816  37.394  1.00  0.00    -0.200 F 
ATOM     91  F   UNL A   1      42.351  27.188  37.079  1.00  0.00    -0.200 F 
ENDBRANCH  58  81
ENDBRANCH  32  33
ENDBRANCH  24  27
ENDBRANCH  22  23
ENDBRANCH  21  22
ENDBRANCH  20  21
ENDBRANCH   1  20
TORSDOF 16
ENDMDL
