MODEL 1
REMARK VINA RESULT:     -11.2      0.000      0.000
REMARK SMILES O=C(Cn1cccc1C(=O)NCCC(=O)NC1CC1)NCCCCCCNC(=O)c1ccc(-c2c3nc(c(-c4c(F)c(F)c(F)c(F)c4F)c4ccc([nH]4)c(-c4c(F)c(F)c(F)c(F)c4F)c4nc(c(-c5c(F)c(F)c(F)c(F)c5F)c5ccc2[nH]5)C=C4)C=C3)cc1
REMARK SMILES IDX 21 1 20 2 1 3 2 4 3 6 4 7 5 8 8 9 6 10 7 11 9 12 10 13 11 14
REMARK SMILES IDX 12 16 13 17 14 18 15 19 16 20 17 22 18 23 19 24 22 25 23 26
REMARK SMILES IDX 24 27 25 28 26 29 27 30 28 31 29 33 30 34 31 35 92 36 32 37
REMARK SMILES IDX 91 38 33 39 34 40 35 41 85 42 36 43 90 44 84 45 86 46 37 47
REMARK SMILES IDX 89 48 83 49 82 50 38 52 70 53 50 54 69 55 51 56 54 57 68 58
REMARK SMILES IDX 87 59 52 60 53 61 67 63 88 64 55 65 39 66 40 67 48 68 41 69
REMARK SMILES IDX 42 70 46 71 49 72 43 73 44 74 47 75 45 76 71 77 72 78 80 79
REMARK SMILES IDX 73 80 74 81 78 82 81 83 75 84 76 85 79 86 77 87 56 88 57 89
REMARK SMILES IDX 65 90 58 91 59 92 63 93 66 94 60 95 61 96 64 97 62 98
REMARK H PARENT 20 5 11 15 16 21 27 32 86 51 54 62
REMARK Flexibility Score: inf
ROOT
ATOM      1  C   UNL A   1      32.775  27.911  27.379  1.00  0.00     0.116 C 
ENDROOT
BRANCH   1   2
ATOM      2  N   UNL A   1      33.346  27.408  26.153  1.00  0.00    -0.355 N 
ATOM      3  O   UNL A   1      32.574  25.258  26.364  1.00  0.00    -0.273 OA
ATOM      4  C   UNL A   1      33.253  26.092  25.772  1.00  0.00     0.239 C 
ATOM      5  H   UNL A   1      33.823  28.036  25.564  1.00  0.00     0.163 HD
BRANCH   4   6
ATOM      6  C   UNL A   1      34.197  25.725  24.660  1.00  0.00     0.222 C 
BRANCH   6   7
ATOM      7  N   UNL A   1      33.876  24.594  23.809  1.00  0.00    -0.334 N 
ATOM      8  C   UNL A   1      34.143  23.284  24.137  1.00  0.00     0.087 A 
ATOM      9  C   UNL A   1      33.244  24.665  22.570  1.00  0.00     0.107 A 
ATOM     10  C   UNL A   1      33.735  22.480  23.107  1.00  0.00     0.020 A 
ATOM     11  C   UNL A   1      33.196  23.335  22.132  1.00  0.00     0.033 A 
BRANCH   9  12
ATOM     12  C   UNL A   1      32.702  25.738  21.736  1.00  0.00     0.267 C 
ATOM     13  O   UNL A   1      33.288  26.048  20.689  1.00  0.00    -0.268 OA
ATOM     14  N   UNL A   1      31.581  26.496  21.909  1.00  0.00    -0.350 N 
ATOM     15  H   UNL A   1      31.460  27.083  21.129  1.00  0.00     0.163 HD
BRANCH  14  16
ATOM     16  C   UNL A   1      30.503  26.730  22.857  1.00  0.00     0.126 C 
BRANCH  16  17
ATOM     17  C   UNL A   1      30.403  28.171  23.343  1.00  0.00     0.121 C 
BRANCH  17  18
ATOM     18  C   UNL A   1      31.175  29.145  22.487  1.00  0.00     0.221 C 
ATOM     19  O   UNL A   1      32.406  29.124  22.453  1.00  0.00    -0.275 OA
ATOM     20  N   UNL A   1      30.490  30.059  21.735  1.00  0.00    -0.353 N 
ATOM     21  H   UNL A   1      31.034  30.599  21.116  1.00  0.00     0.163 HD
BRANCH  20  22
ATOM     22  C   UNL A   1      29.092  30.330  21.733  1.00  0.00     0.082 C 
ATOM     23  C   UNL A   1      28.538  31.438  22.588  1.00  0.00     0.027 C 
ATOM     24  C   UNL A   1      28.488  31.550  21.096  1.00  0.00     0.027 C 
ENDBRANCH  20  22
ENDBRANCH  17  18
ENDBRANCH  16  17
ENDBRANCH  14  16
ENDBRANCH   9  12
ENDBRANCH   6   7
ENDBRANCH   4   6
ENDBRANCH   1   2
BRANCH   1  25
ATOM     25  C   UNL A   1      31.761  29.012  27.074  1.00  0.00     0.021 C 
BRANCH  25  26
ATOM     26  C   UNL A   1      32.240  30.056  26.056  1.00  0.00     0.002 C 
BRANCH  26  27
ATOM     27  C   UNL A   1      31.169  31.052  25.596  1.00  0.00     0.002 C 
BRANCH  27  28
ATOM     28  C   UNL A   1      31.110  32.355  26.404  1.00  0.00     0.021 C 
BRANCH  28  29
ATOM     29  C   UNL A   1      32.401  32.665  27.156  1.00  0.00     0.116 C 
BRANCH  29  30
ATOM     30  N   UNL A   1      32.417  34.048  27.591  1.00  0.00    -0.352 N 
ATOM     31  C   UNL A   1      33.087  34.630  28.634  1.00  0.00     0.251 C 
ATOM     32  H   UNL A   1      31.862  34.662  27.057  1.00  0.00     0.163 HD
ATOM     33  O   UNL A   1      32.679  35.691  29.090  1.00  0.00    -0.269 OA
BRANCH  31  34
ATOM     34  C   UNL A   1      34.289  34.003  29.221  1.00  0.00     0.039 A 
ATOM     35  C   UNL A   1      35.534  34.379  28.700  1.00  0.00     0.014 A 
ATOM     36  C   UNL A   1      34.201  32.987  30.179  1.00  0.00     0.014 A 
ATOM     37  C   UNL A   1      36.692  33.775  29.174  1.00  0.00     0.010 A 
ATOM     38  C   UNL A   1      35.359  32.395  30.674  1.00  0.00     0.010 A 
ATOM     39  C   UNL A   1      36.604  32.802  30.179  1.00  0.00    -0.014 A 
BRANCH  39  40
ATOM     40  C   UNL A   1      37.852  32.375  30.847  1.00  0.00     0.031 A 
ATOM     41  C   UNL A   1      38.482  31.165  30.110  1.00  0.00     0.074 A 
ATOM     42  C   UNL A   1      38.212  33.066  31.975  1.00  0.00     0.049 A 
ATOM     43  N   UNL A   1      39.259  30.221  30.545  1.00  0.00    -0.248 NA
ATOM     44  C   UNL A   1      38.149  30.941  28.671  1.00  0.00     0.031 C 
ATOM     45  C   UNL A   1      37.505  34.260  32.496  1.00  0.00     0.029 A 
ATOM     46  N   UNL A   1      39.218  32.928  32.912  1.00  0.00    -0.354 N 
ATOM     47  C   UNL A   1      39.658  29.434  29.435  1.00  0.00     0.074 A 
ATOM     48  C   UNL A   1      38.851  29.857  28.334  1.00  0.00     0.031 C 
ATOM     49  C   UNL A   1      38.037  34.672  33.669  1.00  0.00     0.029 A 
ATOM     50  C   UNL A   1      39.140  33.805  34.034  1.00  0.00     0.049 A 
ATOM     51  H   UNL A   1      39.941  32.266  32.813  1.00  0.00     0.167 HD
ATOM     52  C   UNL A   1      40.729  28.582  29.468  1.00  0.00     0.037 A 
ATOM     53  C   UNL A   1      39.877  33.796  35.192  1.00  0.00     0.037 A 
ATOM     54  C   UNL A   1      41.276  28.566  30.779  1.00  0.00     0.049 A 
ATOM     55  C   UNL A   1      40.906  32.779  34.958  1.00  0.00     0.074 A 
ATOM     56  C   UNL A   1      40.828  28.022  31.953  1.00  0.00     0.029 A 
ATOM     57  N   UNL A   1      42.255  29.489  31.048  1.00  0.00    -0.354 N 
ATOM     58  N   UNL A   1      41.939  32.944  34.190  1.00  0.00    -0.248 NA
ATOM     59  C   UNL A   1      40.727  31.449  35.552  1.00  0.00     0.031 C 
ATOM     60  C   UNL A   1      41.189  28.994  32.906  1.00  0.00     0.029 A 
ATOM     61  C   UNL A   1      42.044  29.939  32.323  1.00  0.00     0.049 A 
ATOM     62  H   UNL A   1      42.974  29.774  30.439  1.00  0.00     0.167 HD
ATOM     63  C   UNL A   1      42.322  31.648  33.951  1.00  0.00     0.074 A 
ATOM     64  C   UNL A   1      41.792  30.847  35.032  1.00  0.00     0.031 C 
ATOM     65  C   UNL A   1      42.534  31.247  32.673  1.00  0.00     0.037 A 
BRANCH  52  66
ATOM     66  C   UNL A   1      41.553  27.910  28.398  1.00  0.00     0.064 A 
ATOM     67  C   UNL A   1      41.596  26.489  28.390  1.00  0.00     0.173 A 
ATOM     68  C   UNL A   1      42.565  28.558  27.682  1.00  0.00     0.173 A 
ATOM     69  F   UNL A   1      40.636  25.766  28.989  1.00  0.00    -0.203 F 
ATOM     70  C   UNL A   1      42.675  25.782  27.860  1.00  0.00     0.198 A 
ATOM     71  C   UNL A   1      43.617  27.840  27.101  1.00  0.00     0.198 A 
ATOM     72  F   UNL A   1      42.620  29.893  27.614  1.00  0.00    -0.203 F 
ATOM     73  F   UNL A   1      42.752  24.454  28.027  1.00  0.00    -0.200 F 
ATOM     74  C   UNL A   1      43.698  26.462  27.235  1.00  0.00     0.200 A 
ATOM     75  F   UNL A   1      44.605  28.500  26.480  1.00  0.00    -0.200 F 
ATOM     76  F   UNL A   1      44.777  25.800  26.795  1.00  0.00    -0.200 F 
ENDBRANCH  52  66
BRANCH  53  77
ATOM     77  C   UNL A   1      39.887  34.426  36.575  1.00  0.00     0.064 A 
ATOM     78  C   UNL A   1      40.564  35.588  36.955  1.00  0.00     0.173 A 
ATOM     79  C   UNL A   1      39.080  33.865  37.616  1.00  0.00     0.173 A 
ATOM     80  F   UNL A   1      41.461  36.158  36.143  1.00  0.00    -0.203 F 
ATOM     81  C   UNL A   1      40.349  36.203  38.208  1.00  0.00     0.198 A 
ATOM     82  C   UNL A   1      38.822  34.501  38.829  1.00  0.00     0.198 A 
ATOM     83  F   UNL A   1      38.500  32.664  37.494  1.00  0.00    -0.203 F 
ATOM     84  F   UNL A   1      41.018  37.321  38.524  1.00  0.00    -0.200 F 
ATOM     85  C   UNL A   1      39.445  35.686  39.121  1.00  0.00     0.200 A 
ATOM     86  F   UNL A   1      37.952  33.956  39.692  1.00  0.00    -0.200 F 
ATOM     87  F   UNL A   1      39.188  36.314  40.277  1.00  0.00    -0.200 F 
ENDBRANCH  53  77
BRANCH  65  88
ATOM     88  C   UNL A   1      42.885  32.376  31.718  1.00  0.00     0.064 A 
ATOM     89  C   UNL A   1      44.108  33.051  31.863  1.00  0.00     0.173 A 
ATOM     90  C   UNL A   1      42.008  32.900  30.754  1.00  0.00     0.173 A 
ATOM     91  F   UNL A   1      45.015  32.607  32.745  1.00  0.00    -0.203 F 
ATOM     92  C   UNL A   1      44.416  34.189  31.111  1.00  0.00     0.198 A 
ATOM     93  C   UNL A   1      42.313  34.034  29.996  1.00  0.00     0.198 A 
ATOM     94  F   UNL A   1      40.832  32.323  30.518  1.00  0.00    -0.203 F 
ATOM     95  F   UNL A   1      45.592  34.806  31.286  1.00  0.00    -0.200 F 
ATOM     96  C   UNL A   1      43.517  34.683  30.180  1.00  0.00     0.200 A 
ATOM     97  F   UNL A   1      41.438  34.488  29.085  1.00  0.00    -0.200 F 
ATOM     98  F   UNL A   1      43.817  35.767  29.452  1.00  0.00    -0.200 F 
ENDBRANCH  65  88
ENDBRANCH  39  40
ENDBRANCH  31  34
ENDBRANCH  29  30
ENDBRANCH  28  29
ENDBRANCH  27  28
ENDBRANCH  26  27
ENDBRANCH  25  26
ENDBRANCH   1  25
TORSDOF 19
ENDMDL
MODEL 2
REMARK VINA RESULT:     -11.0      3.406      7.090
REMARK SMILES O=C(Cn1cccc1C(=O)NCCC(=O)NC1CC1)NCCCCCCNC(=O)c1ccc(-c2c3nc(c(-c4c(F)c(F)c(F)c(F)c4F)c4ccc([nH]4)c(-c4c(F)c(F)c(F)c(F)c4F)c4nc(c(-c5c(F)c(F)c(F)c(F)c5F)c5ccc2[nH]5)C=C4)C=C3)cc1
REMARK SMILES IDX 21 1 20 2 1 3 2 4 3 6 4 7 5 8 8 9 6 10 7 11 9 12 10 13 11 14
REMARK SMILES IDX 12 16 13 17 14 18 15 19 16 20 17 22 18 23 19 24 22 25 23 26
REMARK SMILES IDX 24 27 25 28 26 29 27 30 28 31 29 33 30 34 31 35 92 36 32 37
REMARK SMILES IDX 91 38 33 39 34 40 35 41 85 42 36 43 90 44 84 45 86 46 37 47
REMARK SMILES IDX 89 48 83 49 82 50 38 52 70 53 50 54 69 55 51 56 54 57 68 58
REMARK SMILES IDX 87 59 52 60 53 61 67 63 88 64 55 65 39 66 40 67 48 68 41 69
REMARK SMILES IDX 42 70 46 71 49 72 43 73 44 74 47 75 45 76 71 77 72 78 80 79
REMARK SMILES IDX 73 80 74 81 78 82 81 83 75 84 76 85 79 86 77 87 56 88 57 89
REMARK SMILES IDX 65 90 58 91 59 92 63 93 66 94 60 95 61 96 64 97 62 98
REMARK H PARENT 20 5 11 15 16 21 27 32 86 51 54 62
REMARK Flexibility Score: inf
ROOT
ATOM      1  C   UNL A   1      34.721  23.147  23.324  1.00  0.00     0.116 C 
ENDROOT
BRANCH   1   2
ATOM      2  N   UNL A   1      34.361  24.527  23.102  1.00  0.00    -0.355 N 
ATOM      3  O   UNL A   1      32.124  24.163  22.750  1.00  0.00    -0.273 OA
ATOM      4  C   UNL A   1      33.089  24.920  22.766  1.00  0.00     0.239 C 
ATOM      5  H   UNL A   1      35.058  25.216  23.197  1.00  0.00     0.163 HD
BRANCH   4   6
ATOM      6  C   UNL A   1      33.019  26.332  22.251  1.00  0.00     0.222 C 
BRANCH   6   7
ATOM      7  N   UNL A   1      32.823  27.416  23.195  1.00  0.00    -0.334 N 
ATOM      8  C   UNL A   1      33.787  28.349  23.507  1.00  0.00     0.087 A 
ATOM      9  C   UNL A   1      31.648  27.681  23.894  1.00  0.00     0.107 A 
ATOM     10  C   UNL A   1      33.281  29.210  24.444  1.00  0.00     0.020 A 
ATOM     11  C   UNL A   1      31.966  28.786  24.696  1.00  0.00     0.033 A 
BRANCH   9  12
ATOM     12  C   UNL A   1      30.313  27.085  23.954  1.00  0.00     0.267 C 
ATOM     13  O   UNL A   1      29.461  27.419  23.117  1.00  0.00    -0.268 OA
ATOM     14  N   UNL A   1      29.812  26.152  24.813  1.00  0.00    -0.350 N 
ATOM     15  H   UNL A   1      28.898  25.912  24.537  1.00  0.00     0.163 HD
BRANCH  14  16
ATOM     16  C   UNL A   1      30.170  25.391  25.999  1.00  0.00     0.126 C 
BRANCH  16  17
ATOM     17  C   UNL A   1      30.652  23.975  25.710  1.00  0.00     0.121 C 
BRANCH  17  18
ATOM     18  C   UNL A   1      30.633  23.078  26.924  1.00  0.00     0.221 C 
ATOM     19  O   UNL A   1      29.611  22.944  27.599  1.00  0.00    -0.275 OA
ATOM     20  N   UNL A   1      31.769  22.401  27.271  1.00  0.00    -0.353 N 
ATOM     21  H   UNL A   1      31.674  21.750  28.004  1.00  0.00     0.163 HD
BRANCH  20  22
ATOM     22  C   UNL A   1      33.072  22.518  26.707  1.00  0.00     0.082 C 
ATOM     23  C   UNL A   1      34.279  22.577  27.604  1.00  0.00     0.027 C 
ATOM     24  C   UNL A   1      34.074  21.397  26.705  1.00  0.00     0.027 C 
ENDBRANCH  20  22
ENDBRANCH  17  18
ENDBRANCH  16  17
ENDBRANCH  14  16
ENDBRANCH   9  12
ENDBRANCH   6   7
ENDBRANCH   4   6
ENDBRANCH   1   2
BRANCH   1  25
ATOM     25  C   UNL A   1      36.242  23.001  23.364  1.00  0.00     0.021 C 
BRANCH  25  26
ATOM     26  C   UNL A   1      36.749  21.859  24.256  1.00  0.00     0.002 C 
BRANCH  26  27
ATOM     27  C   UNL A   1      37.666  22.294  25.405  1.00  0.00     0.002 C 
BRANCH  27  28
ATOM     28  C   UNL A   1      37.472  23.742  25.873  1.00  0.00     0.021 C 
BRANCH  28  29
ATOM     29  C   UNL A   1      38.536  24.211  26.861  1.00  0.00     0.116 C 
BRANCH  29  30
ATOM     30  N   UNL A   1      39.763  24.549  26.164  1.00  0.00    -0.352 N 
ATOM     31  C   UNL A   1      40.463  25.726  26.146  1.00  0.00     0.251 C 
ATOM     32  H   UNL A   1      40.152  23.823  25.623  1.00  0.00     0.163 HD
ATOM     33  O   UNL A   1      41.223  25.955  25.214  1.00  0.00    -0.269 OA
BRANCH  31  34
ATOM     34  C   UNL A   1      40.315  26.725  27.223  1.00  0.00     0.039 A 
ATOM     35  C   UNL A   1      39.602  26.342  28.367  1.00  0.00     0.014 A 
ATOM     36  C   UNL A   1      40.762  28.043  27.077  1.00  0.00     0.014 A 
ATOM     37  C   UNL A   1      39.382  27.263  29.384  1.00  0.00     0.010 A 
ATOM     38  C   UNL A   1      40.564  28.963  28.103  1.00  0.00     0.010 A 
ATOM     39  C   UNL A   1      39.886  28.564  29.261  1.00  0.00    -0.014 A 
BRANCH  39  40
ATOM     40  C   UNL A   1      39.871  29.433  30.457  1.00  0.00     0.031 A 
ATOM     41  C   UNL A   1      40.871  28.915  31.524  1.00  0.00     0.074 A 
ATOM     42  C   UNL A   1      38.993  30.485  30.441  1.00  0.00     0.049 A 
ATOM     43  N   UNL A   1      40.878  29.053  32.815  1.00  0.00    -0.248 NA
ATOM     44  C   UNL A   1      42.016  28.060  31.087  1.00  0.00     0.031 C 
ATOM     45  C   UNL A   1      38.152  30.867  29.282  1.00  0.00     0.029 A 
ATOM     46  N   UNL A   1      38.615  31.442  31.364  1.00  0.00    -0.354 N 
ATOM     47  C   UNL A   1      42.086  28.498  33.308  1.00  0.00     0.074 A 
ATOM     48  C   UNL A   1      42.685  27.803  32.213  1.00  0.00     0.031 C 
ATOM     49  C   UNL A   1      37.325  31.890  29.591  1.00  0.00     0.029 A 
ATOM     50  C   UNL A   1      37.537  32.288  30.969  1.00  0.00     0.049 A 
ATOM     51  H   UNL A   1      39.061  31.534  32.237  1.00  0.00     0.167 HD
ATOM     52  C   UNL A   1      42.578  28.772  34.556  1.00  0.00     0.037 A 
ATOM     53  C   UNL A   1      36.835  33.201  31.717  1.00  0.00     0.037 A 
ATOM     54  C   UNL A   1      41.655  29.594  35.257  1.00  0.00     0.049 A 
ATOM     55  C   UNL A   1      37.555  33.255  32.992  1.00  0.00     0.074 A 
ATOM     56  C   UNL A   1      40.434  29.330  35.815  1.00  0.00     0.029 A 
ATOM     57  N   UNL A   1      41.811  30.950  35.116  1.00  0.00    -0.354 N 
ATOM     58  N   UNL A   1      38.697  33.849  33.164  1.00  0.00    -0.248 NA
ATOM     59  C   UNL A   1      37.010  32.520  34.138  1.00  0.00     0.031 C 
ATOM     60  C   UNL A   1      39.698  30.495  35.522  1.00  0.00     0.029 A 
ATOM     61  C   UNL A   1      40.556  31.491  35.038  1.00  0.00     0.049 A 
ATOM     62  H   UNL A   1      42.663  31.440  35.078  1.00  0.00     0.167 HD
ATOM     63  C   UNL A   1      39.145  33.265  34.322  1.00  0.00     0.074 A 
ATOM     64  C   UNL A   1      37.982  32.756  35.014  1.00  0.00     0.031 C 
ATOM     65  C   UNL A   1      40.400  32.752  34.360  1.00  0.00     0.037 A 
BRANCH  52  66
ATOM     66  C   UNL A   1      43.935  28.608  35.194  1.00  0.00     0.064 A 
ATOM     67  C   UNL A   1      44.019  27.843  36.390  1.00  0.00     0.173 A 
ATOM     68  C   UNL A   1      45.020  29.452  34.930  1.00  0.00     0.173 A 
ATOM     69  F   UNL A   1      43.065  26.952  36.706  1.00  0.00    -0.203 F 
ATOM     70  C   UNL A   1      45.022  28.050  37.335  1.00  0.00     0.198 A 
ATOM     71  C   UNL A   1      46.055  29.614  35.858  1.00  0.00     0.198 A 
ATOM     72  F   UNL A   1      45.054  30.213  33.830  1.00  0.00    -0.203 F 
ATOM     73  F   UNL A   1      44.963  27.428  38.521  1.00  0.00    -0.200 F 
ATOM     74  C   UNL A   1      46.029  28.955  37.077  1.00  0.00     0.200 A 
ATOM     75  F   UNL A   1      47.043  30.483  35.600  1.00  0.00    -0.200 F 
ATOM     76  F   UNL A   1      46.952  29.221  38.012  1.00  0.00    -0.200 F 
ENDBRANCH  52  66
BRANCH  53  77
ATOM     77  C   UNL A   1      35.575  34.047  31.644  1.00  0.00     0.064 A 
ATOM     78  C   UNL A   1      35.231  35.102  32.495  1.00  0.00     0.173 A 
ATOM     79  C   UNL A   1      34.646  33.846  30.574  1.00  0.00     0.173 A 
ATOM     80  F   UNL A   1      35.920  35.334  33.616  1.00  0.00    -0.203 F 
ATOM     81  C   UNL A   1      34.138  35.955  32.223  1.00  0.00     0.198 A 
ATOM     82  C   UNL A   1      33.604  34.721  30.272  1.00  0.00     0.198 A 
ATOM     83  F   UNL A   1      34.716  32.780  29.766  1.00  0.00    -0.203 F 
ATOM     84  F   UNL A   1      33.852  36.957  33.067  1.00  0.00    -0.200 F 
ATOM     85  C   UNL A   1      33.358  35.793  31.090  1.00  0.00     0.200 A 
ATOM     86  F   UNL A   1      32.862  34.516  29.174  1.00  0.00    -0.200 F 
ATOM     87  F   UNL A   1      32.371  36.651  30.797  1.00  0.00    -0.200 F 
ENDBRANCH  53  77
BRANCH  65  88
ATOM     88  C   UNL A   1      41.354  33.371  33.353  1.00  0.00     0.064 A 
ATOM     89  C   UNL A   1      41.780  34.699  33.526  1.00  0.00     0.173 A 
ATOM     90  C   UNL A   1      41.759  32.750  32.160  1.00  0.00     0.173 A 
ATOM     91  F   UNL A   1      41.458  35.361  34.646  1.00  0.00    -0.203 F 
ATOM     92  C   UNL A   1      42.536  35.363  32.555  1.00  0.00     0.198 A 
ATOM     93  C   UNL A   1      42.519  33.409  31.188  1.00  0.00     0.198 A 
ATOM     94  F   UNL A   1      41.431  31.486  31.905  1.00  0.00    -0.203 F 
ATOM     95  F   UNL A   1      42.915  36.632  32.759  1.00  0.00    -0.200 F 
ATOM     96  C   UNL A   1      42.901  34.720  31.385  1.00  0.00     0.200 A 
ATOM     97  F   UNL A   1      42.881  32.764  30.068  1.00  0.00    -0.200 F 
ATOM     98  F   UNL A   1      43.635  35.354  30.459  1.00  0.00    -0.200 F 
ENDBRANCH  65  88
ENDBRANCH  39  40
ENDBRANCH  31  34
ENDBRANCH  29  30
ENDBRANCH  28  29
ENDBRANCH  27  28
ENDBRANCH  26  27
ENDBRANCH  25  26
ENDBRANCH   1  25
TORSDOF 19
ENDMDL
MODEL 3
REMARK VINA RESULT:     -10.9      1.474      3.649
REMARK SMILES O=C(Cn1cccc1C(=O)NCCC(=O)NC1CC1)NCCCCCCNC(=O)c1ccc(-c2c3nc(c(-c4c(F)c(F)c(F)c(F)c4F)c4ccc([nH]4)c(-c4c(F)c(F)c(F)c(F)c4F)c4nc(c(-c5c(F)c(F)c(F)c(F)c5F)c5ccc2[nH]5)C=C4)C=C3)cc1
REMARK SMILES IDX 21 1 20 2 1 3 2 4 3 6 4 7 5 8 8 9 6 10 7 11 9 12 10 13 11 14
REMARK SMILES IDX 12 16 13 17 14 18 15 19 16 20 17 22 18 23 19 24 22 25 23 26
REMARK SMILES IDX 24 27 25 28 26 29 27 30 28 31 29 33 30 34 31 35 92 36 32 37
REMARK SMILES IDX 91 38 33 39 34 40 35 41 85 42 36 43 90 44 84 45 86 46 37 47
REMARK SMILES IDX 89 48 83 49 82 50 38 52 70 53 50 54 69 55 51 56 54 57 68 58
REMARK SMILES IDX 87 59 52 60 53 61 67 63 88 64 55 65 39 66 40 67 48 68 41 69
REMARK SMILES IDX 42 70 46 71 49 72 43 73 44 74 47 75 45 76 71 77 72 78 80 79
REMARK SMILES IDX 73 80 74 81 78 82 81 83 75 84 76 85 79 86 77 87 56 88 57 89
REMARK SMILES IDX 65 90 58 91 59 92 63 93 66 94 60 95 61 96 64 97 62 98
REMARK H PARENT 20 5 11 15 16 21 27 32 86 51 54 62
REMARK Flexibility Score: inf
ROOT
ATOM      1  C   UNL A   1      33.539  27.577  26.467  1.00  0.00     0.116 C 
ENDROOT
BRANCH   1   2
ATOM      2  N   UNL A   1      32.973  27.155  25.209  1.00  0.00    -0.355 N 
ATOM      3  O   UNL A   1      33.866  28.843  23.938  1.00  0.00    -0.273 OA
ATOM      4  C   UNL A   1      33.131  27.866  24.045  1.00  0.00     0.239 C 
ATOM      5  H   UNL A   1      32.450  26.321  25.184  1.00  0.00     0.163 HD
BRANCH   4   6
ATOM      6  C   UNL A   1      32.186  27.441  22.954  1.00  0.00     0.222 C 
BRANCH   6   7
ATOM      7  N   UNL A   1      30.900  28.102  22.841  1.00  0.00    -0.334 N 
ATOM      8  C   UNL A   1      30.722  29.352  22.291  1.00  0.00     0.087 A 
ATOM      9  C   UNL A   1      29.677  27.571  23.244  1.00  0.00     0.107 A 
ATOM     10  C   UNL A   1      29.395  29.681  22.364  1.00  0.00     0.020 A 
ATOM     11  C   UNL A   1      28.752  28.587  22.968  1.00  0.00     0.033 A 
BRANCH   9  12
ATOM     12  C   UNL A   1      29.233  26.311  23.842  1.00  0.00     0.267 C 
ATOM     13  O   UNL A   1      28.223  26.303  24.561  1.00  0.00    -0.268 OA
ATOM     14  N   UNL A   1      29.759  25.058  23.727  1.00  0.00    -0.350 N 
ATOM     15  H   UNL A   1      29.180  24.417  24.198  1.00  0.00     0.163 HD
BRANCH  14  16
ATOM     16  C   UNL A   1      30.886  24.348  23.144  1.00  0.00     0.126 C 
BRANCH  16  17
ATOM     17  C   UNL A   1      31.415  23.205  24.002  1.00  0.00     0.121 C 
BRANCH  17  18
ATOM     18  C   UNL A   1      32.325  23.666  25.115  1.00  0.00     0.221 C 
ATOM     19  O   UNL A   1      31.923  24.438  25.987  1.00  0.00    -0.275 OA
ATOM     20  N   UNL A   1      33.614  23.211  25.154  1.00  0.00    -0.353 N 
ATOM     21  H   UNL A   1      34.131  23.455  25.956  1.00  0.00     0.163 HD
BRANCH  20  22
ATOM     22  C   UNL A   1      34.302  22.428  24.184  1.00  0.00     0.082 C 
ATOM     23  C   UNL A   1      35.408  23.040  23.367  1.00  0.00     0.027 C 
ATOM     24  C   UNL A   1      35.720  21.960  24.355  1.00  0.00     0.027 C 
ENDBRANCH  20  22
ENDBRANCH  17  18
ENDBRANCH  16  17
ENDBRANCH  14  16
ENDBRANCH   9  12
ENDBRANCH   6   7
ENDBRANCH   4   6
ENDBRANCH   1   2
BRANCH   1  25
ATOM     25  C   UNL A   1      32.482  28.292  27.307  1.00  0.00     0.021 C 
BRANCH  25  26
ATOM     26  C   UNL A   1      32.578  29.824  27.283  1.00  0.00     0.002 C 
BRANCH  26  27
ATOM     27  C   UNL A   1      31.432  30.534  26.553  1.00  0.00     0.002 C 
BRANCH  27  28
ATOM     28  C   UNL A   1      31.479  32.066  26.613  1.00  0.00     0.021 C 
BRANCH  28  29
ATOM     29  C   UNL A   1      32.780  32.614  27.193  1.00  0.00     0.116 C 
BRANCH  29  30
ATOM     30  N   UNL A   1      32.621  34.004  27.574  1.00  0.00    -0.352 N 
ATOM     31  C   UNL A   1      33.153  34.686  28.636  1.00  0.00     0.251 C 
ATOM     32  H   UNL A   1      32.045  34.539  26.981  1.00  0.00     0.163 HD
ATOM     33  O   UNL A   1      32.606  35.711  29.023  1.00  0.00    -0.269 OA
BRANCH  31  34
ATOM     34  C   UNL A   1      34.369  34.209  29.325  1.00  0.00     0.039 A 
ATOM     35  C   UNL A   1      34.203  33.560  30.555  1.00  0.00     0.014 A 
ATOM     36  C   UNL A   1      35.652  34.488  28.842  1.00  0.00     0.014 A 
ATOM     37  C   UNL A   1      35.317  33.145  31.274  1.00  0.00     0.010 A 
ATOM     38  C   UNL A   1      36.771  34.054  29.546  1.00  0.00     0.010 A 
ATOM     39  C   UNL A   1      36.599  33.370  30.756  1.00  0.00    -0.014 A 
BRANCH  39  40
ATOM     40  C   UNL A   1      37.741  32.689  31.401  1.00  0.00     0.031 A 
ATOM     41  C   UNL A   1      38.076  31.364  30.668  1.00  0.00     0.074 A 
ATOM     42  C   UNL A   1      38.271  33.297  32.510  1.00  0.00     0.049 A 
ATOM     43  N   UNL A   1      38.640  30.278  31.100  1.00  0.00    -0.248 NA
ATOM     44  C   UNL A   1      37.665  31.203  29.241  1.00  0.00     0.031 C 
ATOM     45  C   UNL A   1      37.853  34.621  33.029  1.00  0.00     0.029 A 
ATOM     46  N   UNL A   1      39.247  32.953  33.426  1.00  0.00    -0.354 N 
ATOM     47  C   UNL A   1      38.830  29.413  29.993  1.00  0.00     0.074 A 
ATOM     48  C   UNL A   1      38.107  29.990  28.904  1.00  0.00     0.031 C 
ATOM     49  C   UNL A   1      38.492  34.919  34.183  1.00  0.00     0.029 A 
ATOM     50  C   UNL A   1      39.390  33.837  34.536  1.00  0.00     0.049 A 
ATOM     51  H   UNL A   1      39.807  32.149  33.320  1.00  0.00     0.167 HD
ATOM     52  C   UNL A   1      39.692  28.349  30.015  1.00  0.00     0.037 A 
ATOM     53  C   UNL A   1      40.137  33.679  35.677  1.00  0.00     0.037 A 
ATOM     54  C   UNL A   1      40.256  28.227  31.313  1.00  0.00     0.049 A 
ATOM     55  C   UNL A   1      40.914  32.461  35.435  1.00  0.00     0.074 A 
ATOM     56  C   UNL A   1      39.731  27.805  32.505  1.00  0.00     0.029 A 
ATOM     57  N   UNL A   1      41.419  28.918  31.545  1.00  0.00    -0.354 N 
ATOM     58  N   UNL A   1      41.939  32.391  34.641  1.00  0.00    -0.248 NA
ATOM     59  C   UNL A   1      40.467  31.208  36.053  1.00  0.00     0.031 C 
ATOM     60  C   UNL A   1      40.318  28.685  33.435  1.00  0.00     0.029 A 
ATOM     61  C   UNL A   1      41.342  29.416  32.818  1.00  0.00     0.049 A 
ATOM     62  H   UNL A   1      42.166  29.035  30.916  1.00  0.00     0.167 HD
ATOM     63  C   UNL A   1      42.026  31.041  34.413  1.00  0.00     0.074 A 
ATOM     64  C   UNL A   1      41.363  30.384  35.518  1.00  0.00     0.031 C 
ATOM     65  C   UNL A   1      42.113  30.591  33.137  1.00  0.00     0.037 A 
BRANCH  52  66
ATOM     66  C   UNL A   1      40.323  27.503  28.937  1.00  0.00     0.064 A 
ATOM     67  C   UNL A   1      41.167  28.151  27.995  1.00  0.00     0.173 A 
ATOM     68  C   UNL A   1      39.842  26.243  28.564  1.00  0.00     0.173 A 
ATOM     69  F   UNL A   1      41.738  29.333  28.278  1.00  0.00    -0.203 F 
ATOM     70  C   UNL A   1      41.361  27.654  26.707  1.00  0.00     0.198 A 
ATOM     71  C   UNL A   1      40.087  25.722  27.288  1.00  0.00     0.198 A 
ATOM     72  F   UNL A   1      39.046  25.538  29.375  1.00  0.00    -0.203 F 
ATOM     73  F   UNL A   1      42.025  28.385  25.800  1.00  0.00    -0.200 F 
ATOM     74  C   UNL A   1      40.799  26.448  26.347  1.00  0.00     0.200 A 
ATOM     75  F   UNL A   1      39.553  24.541  26.944  1.00  0.00    -0.200 F 
ATOM     76  F   UNL A   1      40.911  26.001  25.088  1.00  0.00    -0.200 F 
ENDBRANCH  52  66
BRANCH  53  77
ATOM     77  C   UNL A   1      40.318  34.306  37.049  1.00  0.00     0.064 A 
ATOM     78  C   UNL A   1      39.373  34.344  38.078  1.00  0.00     0.173 A 
ATOM     79  C   UNL A   1      41.587  34.859  37.415  1.00  0.00     0.173 A 
ATOM     80  F   UNL A   1      38.102  33.991  37.858  1.00  0.00    -0.203 F 
ATOM     81  C   UNL A   1      39.705  34.771  39.383  1.00  0.00     0.198 A 
ATOM     82  C   UNL A   1      41.932  35.225  38.715  1.00  0.00     0.198 A 
ATOM     83  F   UNL A   1      42.555  35.068  36.513  1.00  0.00    -0.203 F 
ATOM     84  F   UNL A   1      38.763  34.784  40.338  1.00  0.00    -0.200 F 
ATOM     85  C   UNL A   1      40.992  35.163  39.710  1.00  0.00     0.200 A 
ATOM     86  F   UNL A   1      43.187  35.616  38.983  1.00  0.00    -0.200 F 
ATOM     87  F   UNL A   1      41.321  35.494  40.966  1.00  0.00    -0.200 F 
ENDBRANCH  53  77
BRANCH  65  88
ATOM     88  C   UNL A   1      42.676  31.607  32.157  1.00  0.00     0.064 A 
ATOM     89  C   UNL A   1      44.007  32.033  32.289  1.00  0.00     0.173 A 
ATOM     90  C   UNL A   1      41.915  32.269  31.179  1.00  0.00     0.173 A 
ATOM     91  F   UNL A   1      44.812  31.440  33.183  1.00  0.00    -0.203 F 
ATOM     92  C   UNL A   1      44.530  33.071  31.512  1.00  0.00     0.198 A 
ATOM     93  C   UNL A   1      42.435  33.305  30.396  1.00  0.00     0.198 A 
ATOM     94  F   UNL A   1      40.649  31.928  30.954  1.00  0.00    -0.203 F 
ATOM     95  F   UNL A   1      45.805  33.450  31.676  1.00  0.00    -0.200 F 
ATOM     96  C   UNL A   1      43.742  33.710  30.568  1.00  0.00     0.200 A 
ATOM     97  F   UNL A   1      41.664  33.900  29.473  1.00  0.00    -0.200 F 
ATOM     98  F   UNL A   1      44.247  34.698  29.816  1.00  0.00    -0.200 F 
ENDBRANCH  65  88
ENDBRANCH  39  40
ENDBRANCH  31  34
ENDBRANCH  29  30
ENDBRANCH  28  29
ENDBRANCH  27  28
ENDBRANCH  26  27
ENDBRANCH  25  26
ENDBRANCH   1  25
TORSDOF 19
ENDMDL
