MODEL 1
REMARK VINA RESULT:     -12.5      0.000      0.000
REMARK SMILES C[C@H](C(=O)NCCCCCCNC(=O)c1ccc(-c2c3nc(c(-c4c(F)c(F)c(F)c(F)c4F)c4ccc([nH]4)c(-c4c(F)c(F)c(F)c(F)c4F)c4nc(c(-c5c(F)c(F)c(F)c(F)c5F)c5ccc2[nH]5)C=C4)C=C3)cc1)c1ccc2c(c1)OCCO2
REMARK SMILES IDX 9 1 8 2 7 3 6 4 5 5 3 6 4 7 2 9 1 10 78 11 79 12 83 13 80 14
REMARK SMILES IDX 82 15 81 16 84 17 87 18 85 19 86 20 10 21 11 22 12 23 13 24
REMARK SMILES IDX 14 26 15 27 16 28 77 29 17 30 76 31 18 32 19 33 20 34 70 35
REMARK SMILES IDX 21 36 75 37 69 38 71 39 22 40 74 41 68 42 67 43 23 45 55 46
REMARK SMILES IDX 35 47 54 48 36 49 39 50 53 51 72 52 37 53 38 54 52 56 73 57
REMARK SMILES IDX 40 58 24 59 25 60 33 61 26 62 27 63 31 64 34 65 28 66 29 67
REMARK SMILES IDX 32 68 30 69 56 70 57 71 65 72 58 73 59 74 63 75 66 76 60 77
REMARK SMILES IDX 61 78 64 79 62 80 41 81 42 82 50 83 43 84 44 85 48 86 51 87
REMARK SMILES IDX 45 88 46 89 49 90 47 91
REMARK H PARENT 5 8 12 25 71 44 39 55
REMARK Flexibility Score: inf
ROOT
ATOM      1  C   UNL A   1      31.890  30.418  26.155  1.00  0.00     0.002 C 
ENDROOT
BRANCH   1   2
ATOM      2  C   UNL A   1      31.809  29.392  27.285  1.00  0.00     0.002 C 
BRANCH   2   3
ATOM      3  C   UNL A   1      31.875  27.927  26.845  1.00  0.00     0.021 C 
BRANCH   3   4
ATOM      4  C   UNL A   1      33.241  27.469  26.342  1.00  0.00     0.116 C 
BRANCH   4   5
ATOM      5  N   UNL A   1      33.142  26.532  25.244  1.00  0.00    -0.356 N 
ATOM      6  C   UNL A   1      32.858  26.744  23.934  1.00  0.00     0.227 C 
ATOM      7  O   UNL A   1      32.879  25.765  23.182  1.00  0.00    -0.274 OA
ATOM      8  H   UNL A   1      33.306  25.593  25.485  1.00  0.00     0.163 HD
BRANCH   6   9
ATOM      9  C   UNL A   1      32.486  28.122  23.404  1.00  0.00     0.105 C 
ATOM     10  C   UNL A   1      33.547  28.639  22.429  1.00  0.00     0.023 C 
BRANCH   9  11
ATOM     11  C   UNL A   1      31.036  28.324  22.974  1.00  0.00    -0.032 A 
ATOM     12  C   UNL A   1      29.994  27.537  23.507  1.00  0.00     0.008 A 
ATOM     13  C   UNL A   1      30.701  29.464  22.228  1.00  0.00     0.055 A 
ATOM     14  C   UNL A   1      28.663  27.947  23.409  1.00  0.00     0.051 A 
ATOM     15  C   UNL A   1      29.395  29.925  22.223  1.00  0.00     0.161 A 
ATOM     16  C   UNL A   1      28.392  29.190  22.854  1.00  0.00     0.161 A 
ATOM     17  O   UNL A   1      29.198  31.186  21.731  1.00  0.00    -0.486 OA
ATOM     18  O   UNL A   1      27.176  29.771  23.116  1.00  0.00    -0.486 OA
ATOM     19  C   UNL A   1      28.134  31.881  22.396  1.00  0.00     0.271 C 
ATOM     20  C   UNL A   1      27.486  31.107  23.543  1.00  0.00     0.271 C 
ENDBRANCH   9  11
ENDBRANCH   6   9
ENDBRANCH   4   5
ENDBRANCH   3   4
ENDBRANCH   2   3
ENDBRANCH   1   2
BRANCH   1  21
ATOM     21  C   UNL A   1      31.573  31.857  26.563  1.00  0.00     0.021 C 
BRANCH  21  22
ATOM     22  C   UNL A   1      32.674  32.551  27.355  1.00  0.00     0.116 C 
BRANCH  22  23
ATOM     23  N   UNL A   1      32.377  33.952  27.610  1.00  0.00    -0.352 N 
ATOM     24  C   UNL A   1      32.966  34.808  28.508  1.00  0.00     0.251 C 
ATOM     25  H   UNL A   1      31.656  34.340  27.065  1.00  0.00     0.163 HD
ATOM     26  O   UNL A   1      32.490  35.920  28.717  1.00  0.00    -0.269 OA
BRANCH  24  27
ATOM     27  C   UNL A   1      34.168  34.369  29.246  1.00  0.00     0.039 A 
ATOM     28  C   UNL A   1      34.012  33.725  30.476  1.00  0.00     0.014 A 
ATOM     29  C   UNL A   1      35.442  34.568  28.707  1.00  0.00     0.014 A 
ATOM     30  C   UNL A   1      35.134  33.216  31.135  1.00  0.00     0.010 A 
ATOM     31  C   UNL A   1      36.546  33.993  29.326  1.00  0.00     0.010 A 
ATOM     32  C   UNL A   1      36.403  33.311  30.545  1.00  0.00    -0.014 A 
BRANCH  32  33
ATOM     33  C   UNL A   1      37.606  32.711  31.177  1.00  0.00     0.031 A 
ATOM     34  C   UNL A   1      38.308  31.566  30.507  1.00  0.00     0.074 A 
ATOM     35  C   UNL A   1      37.998  33.124  32.397  1.00  0.00     0.049 A 
ATOM     36  N   UNL A   1      39.279  30.811  30.955  1.00  0.00    -0.248 NA
ATOM     37  C   UNL A   1      37.829  31.198  29.166  1.00  0.00     0.031 C 
ATOM     38  C   UNL A   1      37.369  34.195  33.169  1.00  0.00     0.029 A 
ATOM     39  N   UNL A   1      39.003  32.669  33.214  1.00  0.00    -0.354 N 
ATOM     40  C   UNL A   1      39.506  29.865  29.964  1.00  0.00     0.074 A 
ATOM     41  C   UNL A   1      38.538  30.109  28.916  1.00  0.00     0.031 C 
ATOM     42  C   UNL A   1      37.999  34.313  34.349  1.00  0.00     0.029 A 
ATOM     43  C   UNL A   1      39.045  33.299  34.434  1.00  0.00     0.049 A 
ATOM     44  H   UNL A   1      39.632  31.959  32.952  1.00  0.00     0.167 HD
ATOM     45  C   UNL A   1      40.448  28.892  29.926  1.00  0.00     0.037 A 
ATOM     46  C   UNL A   1      39.820  33.067  35.511  1.00  0.00     0.037 A 
ATOM     47  C   UNL A   1      41.420  28.671  30.964  1.00  0.00     0.049 A 
ATOM     48  C   UNL A   1      40.859  31.981  35.453  1.00  0.00     0.074 A 
ATOM     49  C   UNL A   1      42.465  27.764  30.988  1.00  0.00     0.029 A 
ATOM     50  N   UNL A   1      41.457  29.357  32.170  1.00  0.00    -0.354 N 
ATOM     51  N   UNL A   1      41.119  31.140  34.480  1.00  0.00    -0.248 NA
ATOM     52  C   UNL A   1      41.715  31.811  36.635  1.00  0.00     0.031 C 
ATOM     53  C   UNL A   1      43.095  27.859  32.232  1.00  0.00     0.029 A 
ATOM     54  C   UNL A   1      42.487  28.870  32.959  1.00  0.00     0.049 A 
ATOM     55  H   UNL A   1      40.842  30.083  32.426  1.00  0.00     0.167 HD
ATOM     56  C   UNL A   1      42.182  30.362  34.919  1.00  0.00     0.074 A 
ATOM     57  C   UNL A   1      42.522  30.834  36.245  1.00  0.00     0.031 C 
ATOM     58  C   UNL A   1      42.820  29.354  34.277  1.00  0.00     0.037 A 
BRANCH  45  59
ATOM     59  C   UNL A   1      40.456  27.985  28.727  1.00  0.00     0.064 A 
ATOM     60  C   UNL A   1      39.745  26.774  28.709  1.00  0.00     0.173 A 
ATOM     61  C   UNL A   1      41.185  28.332  27.580  1.00  0.00     0.173 A 
ATOM     62  F   UNL A   1      39.039  26.389  29.783  1.00  0.00    -0.203 F 
ATOM     63  C   UNL A   1      39.806  25.923  27.609  1.00  0.00     0.198 A 
ATOM     64  C   UNL A   1      41.211  27.496  26.467  1.00  0.00     0.198 A 
ATOM     65  F   UNL A   1      41.874  29.482  27.537  1.00  0.00    -0.203 F 
ATOM     66  F   UNL A   1      39.178  24.739  27.644  1.00  0.00    -0.200 F 
ATOM     67  C   UNL A   1      40.534  26.288  26.486  1.00  0.00     0.200 A 
ATOM     68  F   UNL A   1      41.903  27.857  25.376  1.00  0.00    -0.200 F 
ATOM     69  F   UNL A   1      40.594  25.467  25.429  1.00  0.00    -0.200 F 
ENDBRANCH  45  59
BRANCH  46  70
ATOM     70  C   UNL A   1      39.637  33.895  36.732  1.00  0.00     0.064 A 
ATOM     71  C   UNL A   1      40.241  35.153  36.850  1.00  0.00     0.173 A 
ATOM     72  C   UNL A   1      38.821  33.461  37.787  1.00  0.00     0.173 A 
ATOM     73  F   UNL A   1      41.045  35.604  35.875  1.00  0.00    -0.203 F 
ATOM     74  C   UNL A   1      40.042  35.944  37.980  1.00  0.00     0.198 A 
ATOM     75  C   UNL A   1      38.599  34.264  38.904  1.00  0.00     0.198 A 
ATOM     76  F   UNL A   1      38.213  32.268  37.719  1.00  0.00    -0.203 F 
ATOM     77  F   UNL A   1      40.655  37.131  38.081  1.00  0.00    -0.200 F 
ATOM     78  C   UNL A   1      39.214  35.503  39.002  1.00  0.00     0.200 A 
ATOM     79  F   UNL A   1      37.784  33.842  39.880  1.00  0.00    -0.200 F 
ATOM     80  F   UNL A   1      39.009  36.272  40.080  1.00  0.00    -0.200 F 
ENDBRANCH  46  70
BRANCH  58  81
ATOM     81  C   UNL A   1      43.981  28.706  34.974  1.00  0.00     0.064 A 
ATOM     82  C   UNL A   1      43.821  27.564  35.772  1.00  0.00     0.173 A 
ATOM     83  C   UNL A   1      45.284  29.188  34.771  1.00  0.00     0.173 A 
ATOM     84  F   UNL A   1      42.595  27.073  36.008  1.00  0.00    -0.203 F 
ATOM     85  C   UNL A   1      44.920  26.933  36.346  1.00  0.00     0.198 A 
ATOM     86  C   UNL A   1      46.384  28.538  35.322  1.00  0.00     0.198 A 
ATOM     87  F   UNL A   1      45.492  30.275  34.012  1.00  0.00    -0.203 F 
ATOM     88  F   UNL A   1      44.743  25.860  37.129  1.00  0.00    -0.200 F 
ATOM     89  C   UNL A   1      46.202  27.413  36.112  1.00  0.00     0.200 A 
ATOM     90  F   UNL A   1      47.621  28.993  35.081  1.00  0.00    -0.200 F 
ATOM     91  F   UNL A   1      47.260  26.791  36.648  1.00  0.00    -0.200 F 
ENDBRANCH  58  81
ENDBRANCH  32  33
ENDBRANCH  24  27
ENDBRANCH  22  23
ENDBRANCH  21  22
ENDBRANCH   1  21
TORSDOF 14
ENDMDL
MODEL 2
REMARK VINA RESULT:     -12.5      0.298      1.994
REMARK SMILES C[C@H](C(=O)NCCCCCCNC(=O)c1ccc(-c2c3nc(c(-c4c(F)c(F)c(F)c(F)c4F)c4ccc([nH]4)c(-c4c(F)c(F)c(F)c(F)c4F)c4nc(c(-c5c(F)c(F)c(F)c(F)c5F)c5ccc2[nH]5)C=C4)C=C3)cc1)c1ccc2c(c1)OCCO2
REMARK SMILES IDX 9 1 8 2 7 3 6 4 5 5 3 6 4 7 2 9 1 10 78 11 79 12 83 13 80 14
REMARK SMILES IDX 82 15 81 16 84 17 87 18 85 19 86 20 10 21 11 22 12 23 13 24
REMARK SMILES IDX 14 26 15 27 16 28 77 29 17 30 76 31 18 32 19 33 20 34 70 35
REMARK SMILES IDX 21 36 75 37 69 38 71 39 22 40 74 41 68 42 67 43 23 45 55 46
REMARK SMILES IDX 35 47 54 48 36 49 39 50 53 51 72 52 37 53 38 54 52 56 73 57
REMARK SMILES IDX 40 58 24 59 25 60 33 61 26 62 27 63 31 64 34 65 28 66 29 67
REMARK SMILES IDX 32 68 30 69 56 70 57 71 65 72 58 73 59 74 63 75 66 76 60 77
REMARK SMILES IDX 61 78 64 79 62 80 41 81 42 82 50 83 43 84 44 85 48 86 51 87
REMARK SMILES IDX 45 88 46 89 49 90 47 91
REMARK H PARENT 5 8 12 25 71 44 39 55
REMARK Flexibility Score: inf
ROOT
ATOM      1  C   UNL A   1      31.908  30.401  26.232  1.00  0.00     0.002 C 
ENDROOT
BRANCH   1   2
ATOM      2  C   UNL A   1      31.820  29.293  27.281  1.00  0.00     0.002 C 
BRANCH   2   3
ATOM      3  C   UNL A   1      31.763  27.869  26.726  1.00  0.00     0.021 C 
BRANCH   3   4
ATOM      4  C   UNL A   1      33.114  27.279  26.329  1.00  0.00     0.116 C 
BRANCH   4   5
ATOM      5  N   UNL A   1      33.020  26.394  25.189  1.00  0.00    -0.356 N 
ATOM      6  C   UNL A   1      32.758  26.668  23.887  1.00  0.00     0.227 C 
ATOM      7  O   UNL A   1      32.778  25.723  23.091  1.00  0.00    -0.274 OA
ATOM      8  H   UNL A   1      33.170  25.442  25.390  1.00  0.00     0.163 HD
BRANCH   6   9
ATOM      9  C   UNL A   1      32.410  28.072  23.413  1.00  0.00     0.105 C 
ATOM     10  C   UNL A   1      33.492  28.619  22.479  1.00  0.00     0.023 C 
BRANCH   9  11
ATOM     11  C   UNL A   1      30.970  28.311  22.972  1.00  0.00    -0.032 A 
ATOM     12  C   UNL A   1      29.907  27.532  23.476  1.00  0.00     0.008 A 
ATOM     13  C   UNL A   1      30.664  29.474  22.249  1.00  0.00     0.055 A 
ATOM     14  C   UNL A   1      28.584  27.969  23.372  1.00  0.00     0.051 A 
ATOM     15  C   UNL A   1      29.367  29.959  22.241  1.00  0.00     0.161 A 
ATOM     16  C   UNL A   1      28.344  29.229  22.843  1.00  0.00     0.161 A 
ATOM     17  O   UNL A   1      29.198  31.234  21.775  1.00  0.00    -0.486 OA
ATOM     18  O   UNL A   1      27.135  29.827  23.106  1.00  0.00    -0.486 OA
ATOM     19  C   UNL A   1      28.140  31.935  22.444  1.00  0.00     0.271 C 
ATOM     20  C   UNL A   1      27.465  31.147  23.566  1.00  0.00     0.271 C 
ENDBRANCH   9  11
ENDBRANCH   6   9
ENDBRANCH   4   5
ENDBRANCH   3   4
ENDBRANCH   2   3
ENDBRANCH   1   2
BRANCH   1  21
ATOM     21  C   UNL A   1      31.571  31.804  26.741  1.00  0.00     0.021 C 
BRANCH  21  22
ATOM     22  C   UNL A   1      32.759  32.585  27.286  1.00  0.00     0.116 C 
BRANCH  22  23
ATOM     23  N   UNL A   1      32.429  33.974  27.570  1.00  0.00    -0.352 N 
ATOM     24  C   UNL A   1      32.973  34.814  28.509  1.00  0.00     0.251 C 
ATOM     25  H   UNL A   1      31.719  34.364  27.011  1.00  0.00     0.163 HD
ATOM     26  O   UNL A   1      32.470  35.912  28.732  1.00  0.00    -0.269 OA
BRANCH  24  27
ATOM     27  C   UNL A   1      34.157  34.376  29.274  1.00  0.00     0.039 A 
ATOM     28  C   UNL A   1      33.975  33.751  30.510  1.00  0.00     0.014 A 
ATOM     29  C   UNL A   1      35.443  34.555  28.755  1.00  0.00     0.014 A 
ATOM     30  C   UNL A   1      35.080  33.242  31.196  1.00  0.00     0.010 A 
ATOM     31  C   UNL A   1      36.530  33.980  29.401  1.00  0.00     0.010 A 
ATOM     32  C   UNL A   1      36.360  33.317  30.627  1.00  0.00    -0.014 A 
BRANCH  32  33
ATOM     33  C   UNL A   1      37.547  32.717  31.288  1.00  0.00     0.031 A 
ATOM     34  C   UNL A   1      38.242  31.547  30.655  1.00  0.00     0.074 A 
ATOM     35  C   UNL A   1      37.928  33.153  32.503  1.00  0.00     0.049 A 
ATOM     36  N   UNL A   1      39.197  30.789  31.132  1.00  0.00    -0.248 NA
ATOM     37  C   UNL A   1      37.775  31.154  29.316  1.00  0.00     0.031 C 
ATOM     38  C   UNL A   1      37.304  34.249  33.243  1.00  0.00     0.029 A 
ATOM     39  N   UNL A   1      38.917  32.703  33.345  1.00  0.00    -0.354 N 
ATOM     40  C   UNL A   1      39.423  29.818  30.167  1.00  0.00     0.074 A 
ATOM     41  C   UNL A   1      38.473  30.051  29.101  1.00  0.00     0.031 C 
ATOM     42  C   UNL A   1      37.920  34.386  34.427  1.00  0.00     0.029 A 
ATOM     43  C   UNL A   1      38.951  33.360  34.550  1.00  0.00     0.049 A 
ATOM     44  H   UNL A   1      39.539  31.978  33.107  1.00  0.00     0.167 HD
ATOM     45  C   UNL A   1      40.352  28.832  30.163  1.00  0.00     0.037 A 
ATOM     46  C   UNL A   1      39.710  33.144  35.642  1.00  0.00     0.037 A 
ATOM     47  C   UNL A   1      41.308  28.622  31.219  1.00  0.00     0.049 A 
ATOM     48  C   UNL A   1      40.734  32.042  35.623  1.00  0.00     0.074 A 
ATOM     49  C   UNL A   1      42.340  27.702  31.278  1.00  0.00     0.029 A 
ATOM     50  N   UNL A   1      41.339  29.335  32.409  1.00  0.00    -0.354 N 
ATOM     51  N   UNL A   1      40.995  31.176  34.673  1.00  0.00    -0.248 NA
ATOM     52  C   UNL A   1      41.572  31.889  36.819  1.00  0.00     0.031 C 
ATOM     53  C   UNL A   1      42.955  27.818  32.528  1.00  0.00     0.029 A 
ATOM     54  C   UNL A   1      42.351  28.854  33.223  1.00  0.00     0.049 A 
ATOM     55  H   UNL A   1      40.731  30.075  32.641  1.00  0.00     0.167 HD
ATOM     56  C   UNL A   1      42.041  30.395  35.144  1.00  0.00     0.074 A 
ATOM     57  C   UNL A   1      42.371  30.892  36.463  1.00  0.00     0.031 C 
ATOM     58  C   UNL A   1      42.674  29.363  34.534  1.00  0.00     0.037 A 
BRANCH  45  59
ATOM     59  C   UNL A   1      40.363  27.897  28.987  1.00  0.00     0.064 A 
ATOM     60  C   UNL A   1      41.120  28.163  27.835  1.00  0.00     0.173 A 
ATOM     61  C   UNL A   1      39.606  26.716  29.012  1.00  0.00     0.173 A 
ATOM     62  F   UNL A   1      41.856  29.282  27.753  1.00  0.00    -0.203 F 
ATOM     63  C   UNL A   1      41.078  27.309  26.736  1.00  0.00     0.198 A 
ATOM     64  C   UNL A   1      39.597  25.846  27.926  1.00  0.00     0.198 A 
ATOM     65  F   UNL A   1      38.871  26.405  30.091  1.00  0.00    -0.203 F 
ATOM     66  F   UNL A   1      41.752  27.622  25.620  1.00  0.00    -0.200 F 
ATOM     67  C   UNL A   1      40.321  26.149  26.784  1.00  0.00     0.200 A 
ATOM     68  F   UNL A   1      38.877  24.715  27.981  1.00  0.00    -0.200 F 
ATOM     69  F   UNL A   1      40.280  25.329  25.725  1.00  0.00    -0.200 F 
ENDBRANCH  45  59
BRANCH  46  70
ATOM     70  C   UNL A   1      39.522  34.002  36.841  1.00  0.00     0.064 A 
ATOM     71  C   UNL A   1      38.740  33.573  37.921  1.00  0.00     0.173 A 
ATOM     72  C   UNL A   1      40.155  35.249  36.947  1.00  0.00     0.173 A 
ATOM     73  F   UNL A   1      38.101  32.396  37.859  1.00  0.00    -0.203 F 
ATOM     74  C   UNL A   1      38.592  34.362  39.060  1.00  0.00     0.198 A 
ATOM     75  C   UNL A   1      40.029  36.025  38.098  1.00  0.00     0.198 A 
ATOM     76  F   UNL A   1      40.921  35.701  35.944  1.00  0.00    -0.203 F 
ATOM     77  F   UNL A   1      37.814  33.942  40.067  1.00  0.00    -0.200 F 
ATOM     78  C   UNL A   1      39.244  35.583  39.152  1.00  0.00     0.200 A 
ATOM     79  F   UNL A   1      40.675  37.195  38.189  1.00  0.00    -0.200 F 
ATOM     80  F   UNL A   1      39.115  36.333  40.254  1.00  0.00    -0.200 F 
ENDBRANCH  46  70
BRANCH  58  81
ATOM     81  C   UNL A   1      43.817  28.716  35.261  1.00  0.00     0.064 A 
ATOM     82  C   UNL A   1      45.135  29.174  35.123  1.00  0.00     0.173 A 
ATOM     83  C   UNL A   1      43.575  27.676  36.172  1.00  0.00     0.173 A 
ATOM     84  F   UNL A   1      45.421  30.155  34.255  1.00  0.00    -0.203 F 
ATOM     85  C   UNL A   1      46.169  28.611  35.866  1.00  0.00     0.198 A 
ATOM     86  C   UNL A   1      44.605  27.135  36.934  1.00  0.00     0.198 A 
ATOM     87  F   UNL A   1      42.330  27.205  36.345  1.00  0.00    -0.203 F 
ATOM     88  F   UNL A   1      47.426  29.043  35.698  1.00  0.00    -0.200 F 
ATOM     89  C   UNL A   1      45.902  27.599  36.779  1.00  0.00     0.200 A 
ATOM     90  F   UNL A   1      44.343  26.170  37.827  1.00  0.00    -0.200 F 
ATOM     91  F   UNL A   1      46.895  27.074  37.508  1.00  0.00    -0.200 F 
ENDBRANCH  58  81
ENDBRANCH  32  33
ENDBRANCH  24  27
ENDBRANCH  22  23
ENDBRANCH  21  22
ENDBRANCH   1  21
TORSDOF 14
ENDMDL
MODEL 3
REMARK VINA RESULT:     -12.3      6.403     11.708
REMARK SMILES C[C@H](C(=O)NCCCCCCNC(=O)c1ccc(-c2c3nc(c(-c4c(F)c(F)c(F)c(F)c4F)c4ccc([nH]4)c(-c4c(F)c(F)c(F)c(F)c4F)c4nc(c(-c5c(F)c(F)c(F)c(F)c5F)c5ccc2[nH]5)C=C4)C=C3)cc1)c1ccc2c(c1)OCCO2
REMARK SMILES IDX 9 1 8 2 7 3 6 4 5 5 3 6 4 7 2 9 1 10 78 11 79 12 83 13 80 14
REMARK SMILES IDX 82 15 81 16 84 17 87 18 85 19 86 20 10 21 11 22 12 23 13 24
REMARK SMILES IDX 14 26 15 27 16 28 77 29 17 30 76 31 18 32 19 33 20 34 70 35
REMARK SMILES IDX 21 36 75 37 69 38 71 39 22 40 74 41 68 42 67 43 23 45 55 46
REMARK SMILES IDX 35 47 54 48 36 49 39 50 53 51 72 52 37 53 38 54 52 56 73 57
REMARK SMILES IDX 40 58 24 59 25 60 33 61 26 62 27 63 31 64 34 65 28 66 29 67
REMARK SMILES IDX 32 68 30 69 56 70 57 71 65 72 58 73 59 74 63 75 66 76 60 77
REMARK SMILES IDX 61 78 64 79 62 80 41 81 42 82 50 83 43 84 44 85 48 86 51 87
REMARK SMILES IDX 45 88 46 89 49 90 47 91
REMARK H PARENT 5 8 12 25 71 44 39 55
REMARK Flexibility Score: inf
ROOT
ATOM      1  C   UNL A   1      37.148  21.186  24.661  1.00  0.00     0.002 C 
ENDROOT
BRANCH   1   2
ATOM      2  C   UNL A   1      37.439  22.438  25.490  1.00  0.00     0.002 C 
BRANCH   2   3
ATOM      3  C   UNL A   1      36.762  23.719  24.999  1.00  0.00     0.021 C 
BRANCH   3   4
ATOM      4  C   UNL A   1      35.583  23.502  24.054  1.00  0.00     0.116 C 
BRANCH   4   5
ATOM      5  N   UNL A   1      34.326  23.932  24.626  1.00  0.00    -0.356 N 
ATOM      6  C   UNL A   1      33.489  23.293  25.481  1.00  0.00     0.227 C 
ATOM      7  O   UNL A   1      32.485  23.905  25.858  1.00  0.00    -0.274 OA
ATOM      8  H   UNL A   1      34.031  24.829  24.350  1.00  0.00     0.163 HD
BRANCH   6   9
ATOM      9  C   UNL A   1      33.741  21.862  25.936  1.00  0.00     0.105 C 
ATOM     10  C   UNL A   1      33.661  21.750  27.460  1.00  0.00     0.023 C 
BRANCH   9  11
ATOM     11  C   UNL A   1      33.038  20.758  25.152  1.00  0.00    -0.032 A 
ATOM     12  C   UNL A   1      32.639  20.947  23.812  1.00  0.00     0.008 A 
ATOM     13  C   UNL A   1      33.007  19.460  25.684  1.00  0.00     0.055 A 
ATOM     14  C   UNL A   1      32.344  19.856  22.991  1.00  0.00     0.051 A 
ATOM     15  C   UNL A   1      32.819  18.375  24.845  1.00  0.00     0.161 A 
ATOM     16  C   UNL A   1      32.536  18.577  23.495  1.00  0.00     0.161 A 
ATOM     17  O   UNL A   1      33.093  17.144  25.373  1.00  0.00    -0.486 OA
ATOM     18  O   UNL A   1      32.648  17.536  22.606  1.00  0.00    -0.486 OA
ATOM     19  C   UNL A   1      33.623  16.229  24.403  1.00  0.00     0.271 C 
ATOM     20  C   UNL A   1      33.828  16.825  23.011  1.00  0.00     0.271 C 
ENDBRANCH   9  11
ENDBRANCH   6   9
ENDBRANCH   4   5
ENDBRANCH   3   4
ENDBRANCH   2   3
ENDBRANCH   1   2
BRANCH   1  21
ATOM     21  C   UNL A   1      38.032  19.979  24.980  1.00  0.00     0.021 C 
BRANCH  21  22
ATOM     22  C   UNL A   1      39.238  20.287  25.857  1.00  0.00     0.116 C 
BRANCH  22  23
ATOM     23  N   UNL A   1      40.189  19.186  25.903  1.00  0.00    -0.352 N 
ATOM     24  C   UNL A   1      41.549  19.229  26.083  1.00  0.00     0.251 C 
ATOM     25  H   UNL A   1      39.803  18.288  25.790  1.00  0.00     0.163 HD
ATOM     26  O   UNL A   1      42.232  18.220  25.934  1.00  0.00    -0.269 OA
BRANCH  24  27
ATOM     27  C   UNL A   1      42.194  20.511  26.432  1.00  0.00     0.039 A 
ATOM     28  C   UNL A   1      42.708  21.313  25.411  1.00  0.00     0.014 A 
ATOM     29  C   UNL A   1      42.261  20.931  27.764  1.00  0.00     0.014 A 
ATOM     30  C   UNL A   1      43.228  22.573  25.719  1.00  0.00     0.010 A 
ATOM     31  C   UNL A   1      42.707  22.214  28.058  1.00  0.00     0.010 A 
ATOM     32  C   UNL A   1      43.195  23.048  27.039  1.00  0.00    -0.014 A 
BRANCH  32  33
ATOM     33  C   UNL A   1      43.665  24.412  27.391  1.00  0.00     0.031 A 
ATOM     34  C   UNL A   1      42.682  25.438  27.874  1.00  0.00     0.074 A 
ATOM     35  C   UNL A   1      44.949  24.754  27.175  1.00  0.00     0.049 A 
ATOM     36  N   UNL A   1      42.857  26.717  28.094  1.00  0.00    -0.248 NA
ATOM     37  C   UNL A   1      41.307  24.970  28.106  1.00  0.00     0.031 C 
ATOM     38  C   UNL A   1      45.988  23.860  26.665  1.00  0.00     0.029 A 
ATOM     39  N   UNL A   1      45.591  25.958  27.329  1.00  0.00    -0.354 N 
ATOM     40  C   UNL A   1      41.611  27.208  28.462  1.00  0.00     0.074 A 
ATOM     41  C   UNL A   1      40.681  26.102  28.386  1.00  0.00     0.031 C 
ATOM     42  C   UNL A   1      47.136  24.545  26.545  1.00  0.00     0.029 A 
ATOM     43  C   UNL A   1      46.904  25.935  26.925  1.00  0.00     0.049 A 
ATOM     44  H   UNL A   1      45.152  26.762  27.692  1.00  0.00     0.167 HD
ATOM     45  C   UNL A   1      41.279  28.463  28.846  1.00  0.00     0.037 A 
ATOM     46  C   UNL A   1      47.810  26.928  26.845  1.00  0.00     0.037 A 
ATOM     47  C   UNL A   1      42.217  29.552  28.940  1.00  0.00     0.049 A 
ATOM     48  C   UNL A   1      47.424  28.318  27.272  1.00  0.00     0.074 A 
ATOM     49  C   UNL A   1      41.999  30.841  29.392  1.00  0.00     0.029 A 
ATOM     50  N   UNL A   1      43.550  29.480  28.561  1.00  0.00    -0.354 N 
ATOM     51  N   UNL A   1      46.262  28.757  27.694  1.00  0.00    -0.248 NA
ATOM     52  C   UNL A   1      48.470  29.347  27.218  1.00  0.00     0.031 C 
ATOM     53  C   UNL A   1      43.184  31.566  29.229  1.00  0.00     0.029 A 
ATOM     54  C   UNL A   1      44.159  30.712  28.738  1.00  0.00     0.049 A 
ATOM     55  H   UNL A   1      43.997  28.672  28.217  1.00  0.00     0.167 HD
ATOM     56  C   UNL A   1      46.443  30.103  27.980  1.00  0.00     0.074 A 
ATOM     57  C   UNL A   1      47.828  30.408  27.689  1.00  0.00     0.031 C 
ATOM     58  C   UNL A   1      45.543  31.001  28.449  1.00  0.00     0.037 A 
BRANCH  45  59
ATOM     59  C   UNL A   1      39.836  28.727  29.175  1.00  0.00     0.064 A 
ATOM     60  C   UNL A   1      38.931  29.203  28.214  1.00  0.00     0.173 A 
ATOM     61  C   UNL A   1      39.352  28.499  30.472  1.00  0.00     0.173 A 
ATOM     62  F   UNL A   1      39.343  29.447  26.960  1.00  0.00    -0.203 F 
ATOM     63  C   UNL A   1      37.611  29.488  28.551  1.00  0.00     0.198 A 
ATOM     64  C   UNL A   1      38.021  28.749  30.795  1.00  0.00     0.198 A 
ATOM     65  F   UNL A   1      40.169  28.034  31.429  1.00  0.00    -0.203 F 
ATOM     66  F   UNL A   1      36.785  30.011  27.634  1.00  0.00    -0.200 F 
ATOM     67  C   UNL A   1      37.156  29.256  29.840  1.00  0.00     0.200 A 
ATOM     68  F   UNL A   1      37.578  28.508  32.038  1.00  0.00    -0.200 F 
ATOM     69  F   UNL A   1      35.885  29.533  30.164  1.00  0.00    -0.200 F 
ENDBRANCH  45  59
BRANCH  46  70
ATOM     70  C   UNL A   1      49.177  26.627  26.342  1.00  0.00     0.064 A 
ATOM     71  C   UNL A   1      49.521  26.859  25.004  1.00  0.00     0.173 A 
ATOM     72  C   UNL A   1      50.175  26.142  27.199  1.00  0.00     0.173 A 
ATOM     73  F   UNL A   1      48.596  27.305  24.143  1.00  0.00    -0.203 F 
ATOM     74  C   UNL A   1      50.811  26.610  24.540  1.00  0.00     0.198 A 
ATOM     75  C   UNL A   1      51.472  25.920  26.741  1.00  0.00     0.198 A 
ATOM     76  F   UNL A   1      49.899  25.912  28.491  1.00  0.00    -0.203 F 
ATOM     77  F   UNL A   1      51.107  26.812  23.249  1.00  0.00    -0.200 F 
ATOM     78  C   UNL A   1      51.788  26.149  25.410  1.00  0.00     0.200 A 
ATOM     79  F   UNL A   1      52.417  25.493  27.589  1.00  0.00    -0.200 F 
ATOM     80  F   UNL A   1      53.033  25.927  24.967  1.00  0.00    -0.200 F 
ENDBRANCH  46  70
BRANCH  58  81
ATOM     81  C   UNL A   1      46.023  32.398  28.717  1.00  0.00     0.064 A 
ATOM     82  C   UNL A   1      46.598  32.760  29.944  1.00  0.00     0.173 A 
ATOM     83  C   UNL A   1      45.984  33.365  27.700  1.00  0.00     0.173 A 
ATOM     84  F   UNL A   1      46.647  31.877  30.953  1.00  0.00    -0.203 F 
ATOM     85  C   UNL A   1      47.108  34.039  30.145  1.00  0.00     0.198 A 
ATOM     86  C   UNL A   1      46.521  34.633  27.894  1.00  0.00     0.198 A 
ATOM     87  F   UNL A   1      45.449  33.068  26.505  1.00  0.00    -0.203 F 
ATOM     88  F   UNL A   1      47.627  34.374  31.334  1.00  0.00    -0.200 F 
ATOM     89  C   UNL A   1      47.080  34.972  29.116  1.00  0.00     0.200 A 
ATOM     90  F   UNL A   1      46.508  35.526  26.894  1.00  0.00    -0.200 F 
ATOM     91  F   UNL A   1      47.592  36.195  29.305  1.00  0.00    -0.200 F 
ENDBRANCH  58  81
ENDBRANCH  32  33
ENDBRANCH  24  27
ENDBRANCH  22  23
ENDBRANCH  21  22
ENDBRANCH   1  21
TORSDOF 14
ENDMDL
