MODEL 1
REMARK VINA RESULT:     -12.4      0.000      0.000
REMARK SMILES O=C(NCCCCCCNC(=O)c1cccc2c1ccn2Cc1ccncc1)c1ccc(-c2c3nc(c(-c4c(F)c(F)c(F)c(F)c4F)c4ccc([nH]4)c(-c4c(F)c(F)c(F)c(F)c4F)c4nc(c(-c5c(F)c(F)c(F)c(F)c5F)c5ccc2[nH]5)C=C4)C=C3)cc1
REMARK SMILES IDX 6 1 5 2 4 3 3 4 1 5 2 6 29 8 30 9 91 10 31 11 90 12 32 13
REMARK SMILES IDX 33 14 34 15 84 16 35 17 89 18 83 19 85 20 36 21 88 22 82 23
REMARK SMILES IDX 81 24 37 26 69 27 49 28 68 29 50 30 53 31 67 32 86 33 51 34
REMARK SMILES IDX 52 35 66 37 87 38 54 39 38 40 39 41 47 42 40 43 41 44 45 45
REMARK SMILES IDX 48 46 42 47 43 48 46 49 44 50 70 51 71 52 79 53 72 54 73 55
REMARK SMILES IDX 77 56 80 57 74 58 75 59 78 60 76 61 55 62 56 63 64 64 57 65
REMARK SMILES IDX 58 66 62 67 65 68 59 69 60 70 63 71 61 72 7 73 8 74 9 75
REMARK SMILES IDX 10 76 11 77 12 79 13 80 14 81 18 82 15 83 17 84 19 85 16 86
REMARK SMILES IDX 21 87 20 88 22 89 23 90 24 91 28 92 25 93 27 94 26 95
REMARK H PARENT 3 7 85 25 53 36 10 78
REMARK Flexibility Score: inf
ROOT
ATOM      1  C   UNL A   1      42.342  20.394  27.607  1.00  0.00     0.002 C 
ENDROOT
BRANCH   1   2
ATOM      2  C   UNL A   1      42.573  19.114  26.791  1.00  0.00     0.021 C 
BRANCH   2   3
ATOM      3  C   UNL A   1      42.923  19.326  25.328  1.00  0.00     0.116 C 
BRANCH   3   4
ATOM      4  N   UNL A   1      44.362  19.291  25.055  1.00  0.00    -0.352 N 
ATOM      5  O   UNL A   1      46.297  20.179  24.259  1.00  0.00    -0.269 OA
ATOM      6  C   UNL A   1      45.229  20.348  24.833  1.00  0.00     0.251 C 
ATOM      7  H   UNL A   1      44.767  18.394  25.024  1.00  0.00     0.163 HD
BRANCH   6   8
ATOM      8  C   UNL A   1      44.844  21.693  25.297  1.00  0.00     0.039 A 
ATOM      9  C   UNL A   1      43.817  22.428  24.704  1.00  0.00     0.014 A 
ATOM     10  C   UNL A   1      45.534  22.213  26.382  1.00  0.00     0.014 A 
ATOM     11  C   UNL A   1      43.470  23.658  25.261  1.00  0.00     0.010 A 
ATOM     12  C   UNL A   1      45.020  23.272  27.075  1.00  0.00     0.010 A 
ATOM     13  C   UNL A   1      44.076  24.075  26.459  1.00  0.00    -0.014 A 
BRANCH  13  14
ATOM     14  C   UNL A   1      43.772  25.367  27.065  1.00  0.00     0.031 A 
ATOM     15  C   UNL A   1      44.722  26.464  26.766  1.00  0.00     0.074 A 
ATOM     16  C   UNL A   1      42.652  25.608  27.783  1.00  0.00     0.049 A 
ATOM     17  N   UNL A   1      45.544  27.028  27.586  1.00  0.00    -0.248 NA
ATOM     18  C   UNL A   1      44.843  26.926  25.377  1.00  0.00     0.031 C 
ATOM     19  C   UNL A   1      41.466  24.761  27.982  1.00  0.00     0.029 A 
ATOM     20  N   UNL A   1      42.316  26.744  28.455  1.00  0.00    -0.354 N 
ATOM     21  C   UNL A   1      46.184  28.029  26.866  1.00  0.00     0.074 A 
ATOM     22  C   UNL A   1      45.812  27.838  25.487  1.00  0.00     0.031 C 
ATOM     23  C   UNL A   1      40.466  25.488  28.522  1.00  0.00     0.029 A 
ATOM     24  C   UNL A   1      41.004  26.778  28.899  1.00  0.00     0.049 A 
ATOM     25  H   UNL A   1      42.951  27.479  28.612  1.00  0.00     0.167 HD
ATOM     26  C   UNL A   1      46.811  29.058  27.499  1.00  0.00     0.037 A 
ATOM     27  C   UNL A   1      40.394  27.791  29.552  1.00  0.00     0.037 A 
ATOM     28  C   UNL A   1      47.059  28.751  28.884  1.00  0.00     0.049 A 
ATOM     29  C   UNL A   1      41.461  28.594  30.190  1.00  0.00     0.074 A 
ATOM     30  C   UNL A   1      47.808  27.800  29.550  1.00  0.00     0.029 A 
ATOM     31  N   UNL A   1      46.192  29.261  29.818  1.00  0.00    -0.354 N 
ATOM     32  N   UNL A   1      42.211  28.168  31.169  1.00  0.00    -0.248 NA
ATOM     33  C   UNL A   1      41.968  29.752  29.472  1.00  0.00     0.031 C 
ATOM     34  C   UNL A   1      47.044  27.465  30.707  1.00  0.00     0.029 A 
ATOM     35  C   UNL A   1      45.895  28.259  30.706  1.00  0.00     0.049 A 
ATOM     36  H   UNL A   1      45.846  30.182  29.846  1.00  0.00     0.167 HD
ATOM     37  C   UNL A   1      43.457  28.720  30.921  1.00  0.00     0.074 A 
ATOM     38  C   UNL A   1      43.215  29.779  29.948  1.00  0.00     0.031 C 
ATOM     39  C   UNL A   1      44.598  28.087  31.322  1.00  0.00     0.037 A 
BRANCH  26  40
ATOM     40  C   UNL A   1      46.891  30.462  26.960  1.00  0.00     0.064 A 
ATOM     41  C   UNL A   1      48.124  31.146  26.979  1.00  0.00     0.173 A 
ATOM     42  C   UNL A   1      45.757  31.260  26.698  1.00  0.00     0.173 A 
ATOM     43  F   UNL A   1      49.263  30.491  27.249  1.00  0.00    -0.203 F 
ATOM     44  C   UNL A   1      48.202  32.530  26.810  1.00  0.00     0.198 A 
ATOM     45  C   UNL A   1      45.845  32.632  26.475  1.00  0.00     0.198 A 
ATOM     46  F   UNL A   1      44.513  30.767  26.761  1.00  0.00    -0.203 F 
ATOM     47  F   UNL A   1      49.379  33.153  26.955  1.00  0.00    -0.200 F 
ATOM     48  C   UNL A   1      47.062  33.274  26.560  1.00  0.00     0.200 A 
ATOM     49  F   UNL A   1      44.725  33.338  26.258  1.00  0.00    -0.200 F 
ATOM     50  F   UNL A   1      47.127  34.606  26.455  1.00  0.00    -0.200 F 
ENDBRANCH  26  40
BRANCH  27  51
ATOM     51  C   UNL A   1      39.003  28.265  29.395  1.00  0.00     0.064 A 
ATOM     52  C   UNL A   1      38.180  28.442  30.518  1.00  0.00     0.173 A 
ATOM     53  C   UNL A   1      38.557  28.839  28.188  1.00  0.00     0.173 A 
ATOM     54  F   UNL A   1      38.550  27.951  31.709  1.00  0.00    -0.203 F 
ATOM     55  C   UNL A   1      37.008  29.200  30.451  1.00  0.00     0.198 A 
ATOM     56  C   UNL A   1      37.381  29.587  28.121  1.00  0.00     0.198 A 
ATOM     57  F   UNL A   1      39.302  28.771  27.075  1.00  0.00    -0.203 F 
ATOM     58  F   UNL A   1      36.291  29.416  31.561  1.00  0.00    -0.200 F 
ATOM     59  C   UNL A   1      36.619  29.785  29.257  1.00  0.00     0.200 A 
ATOM     60  F   UNL A   1      37.033  30.175  26.968  1.00  0.00    -0.200 F 
ATOM     61  F   UNL A   1      35.537  30.574  29.210  1.00  0.00    -0.200 F 
ENDBRANCH  27  51
BRANCH  39  62
ATOM     62  C   UNL A   1      44.459  26.959  32.309  1.00  0.00     0.064 A 
ATOM     63  C   UNL A   1      44.304  27.135  33.695  1.00  0.00     0.173 A 
ATOM     64  C   UNL A   1      44.344  25.653  31.811  1.00  0.00     0.173 A 
ATOM     65  F   UNL A   1      44.310  28.357  34.240  1.00  0.00    -0.203 F 
ATOM     66  C   UNL A   1      44.086  26.049  34.543  1.00  0.00     0.198 A 
ATOM     67  C   UNL A   1      44.088  24.576  32.656  1.00  0.00     0.198 A 
ATOM     68  F   UNL A   1      44.430  25.428  30.490  1.00  0.00    -0.203 F 
ATOM     69  F   UNL A   1      43.955  26.243  35.865  1.00  0.00    -0.200 F 
ATOM     70  C   UNL A   1      43.970  24.772  34.021  1.00  0.00     0.200 A 
ATOM     71  F   UNL A   1      43.931  23.348  32.140  1.00  0.00    -0.200 F 
ATOM     72  F   UNL A   1      43.718  23.733  34.831  1.00  0.00    -0.200 F 
ENDBRANCH  39  62
ENDBRANCH  13  14
ENDBRANCH   6   8
ENDBRANCH   3   4
ENDBRANCH   2   3
ENDBRANCH   1   2
BRANCH   1  73
ATOM     73  C   UNL A   1      41.050  21.185  27.359  1.00  0.00     0.002 C 
BRANCH  73  74
ATOM     74  C   UNL A   1      40.354  20.995  26.009  1.00  0.00     0.021 C 
BRANCH  74  75
ATOM     75  C   UNL A   1      38.877  21.379  25.954  1.00  0.00     0.116 C 
BRANCH  75  76
ATOM     76  N   UNL A   1      38.623  22.704  26.483  1.00  0.00    -0.352 N 
ATOM     77  C   UNL A   1      37.605  23.577  26.188  1.00  0.00     0.251 C 
ATOM     78  H   UNL A   1      39.273  23.024  27.151  1.00  0.00     0.163 HD
ATOM     79  O   UNL A   1      37.600  24.699  26.684  1.00  0.00    -0.269 OA
BRANCH  77  80
ATOM     80  C   UNL A   1      36.529  23.165  25.268  1.00  0.00     0.049 A 
ATOM     81  C   UNL A   1      36.611  23.450  23.897  1.00  0.00     0.014 A 
ATOM     82  C   UNL A   1      35.416  22.460  25.776  1.00  0.00     0.012 A 
ATOM     83  C   UNL A   1      35.579  23.078  23.042  1.00  0.00     0.003 A 
ATOM     84  C   UNL A   1      34.401  22.067  24.890  1.00  0.00     0.049 A 
ATOM     85  C   UNL A   1      35.023  22.043  27.077  1.00  0.00     0.029 A 
ATOM     86  C   UNL A   1      34.462  22.379  23.520  1.00  0.00     0.027 A 
ATOM     87  N   UNL A   1      33.457  21.383  25.640  1.00  0.00    -0.343 N 
ATOM     88  C   UNL A   1      33.789  21.450  26.973  1.00  0.00     0.087 A 
BRANCH  87  89
ATOM     89  C   UNL A   1      32.227  20.771  25.140  1.00  0.00     0.157 C 
BRANCH  89  90
ATOM     90  C   UNL A   1      32.462  19.481  24.387  1.00  0.00    -0.025 A 
ATOM     91  C   UNL A   1      32.210  19.376  23.012  1.00  0.00     0.025 A 
ATOM     92  C   UNL A   1      33.002  18.364  25.033  1.00  0.00     0.025 A 
ATOM     93  C   UNL A   1      32.485  18.182  22.361  1.00  0.00     0.111 A 
ATOM     94  C   UNL A   1      33.255  17.216  24.293  1.00  0.00     0.111 A 
ATOM     95  N   UNL A   1      33.009  17.102  22.971  1.00  0.00    -0.265 NA
ENDBRANCH  89  90
ENDBRANCH  87  89
ENDBRANCH  77  80
ENDBRANCH  75  76
ENDBRANCH  74  75
ENDBRANCH  73  74
ENDBRANCH   1  73
TORSDOF 15
ENDMDL
MODEL 2
REMARK VINA RESULT:     -12.2      3.090      8.619
REMARK SMILES O=C(NCCCCCCNC(=O)c1cccc2c1ccn2Cc1ccncc1)c1ccc(-c2c3nc(c(-c4c(F)c(F)c(F)c(F)c4F)c4ccc([nH]4)c(-c4c(F)c(F)c(F)c(F)c4F)c4nc(c(-c5c(F)c(F)c(F)c(F)c5F)c5ccc2[nH]5)C=C4)C=C3)cc1
REMARK SMILES IDX 6 1 5 2 4 3 3 4 1 5 2 6 29 8 30 9 91 10 31 11 90 12 32 13
REMARK SMILES IDX 33 14 34 15 84 16 35 17 89 18 83 19 85 20 36 21 88 22 82 23
REMARK SMILES IDX 81 24 37 26 69 27 49 28 68 29 50 30 53 31 67 32 86 33 51 34
REMARK SMILES IDX 52 35 66 37 87 38 54 39 38 40 39 41 47 42 40 43 41 44 45 45
REMARK SMILES IDX 48 46 42 47 43 48 46 49 44 50 70 51 71 52 79 53 72 54 73 55
REMARK SMILES IDX 77 56 80 57 74 58 75 59 78 60 76 61 55 62 56 63 64 64 57 65
REMARK SMILES IDX 58 66 62 67 65 68 59 69 60 70 63 71 61 72 7 73 8 74 9 75
REMARK SMILES IDX 10 76 11 77 12 79 13 80 14 81 18 82 15 83 17 84 19 85 16 86
REMARK SMILES IDX 21 87 20 88 22 89 23 90 24 91 28 92 25 93 27 94 26 95
REMARK H PARENT 3 7 85 25 53 36 10 78
REMARK Flexibility Score: inf
ROOT
ATOM      1  C   UNL A   1      32.155  28.796  27.198  1.00  0.00     0.002 C 
ENDROOT
BRANCH   1   2
ATOM      2  C   UNL A   1      32.807  30.128  26.800  1.00  0.00     0.021 C 
BRANCH   2   3
ATOM      3  C   UNL A   1      34.195  30.371  27.369  1.00  0.00     0.116 C 
BRANCH   3   4
ATOM      4  N   UNL A   1      34.295  31.589  28.178  1.00  0.00    -0.352 N 
ATOM      5  O   UNL A   1      34.952  32.753  30.016  1.00  0.00    -0.269 OA
ATOM      6  C   UNL A   1      35.198  31.889  29.184  1.00  0.00     0.251 C 
ATOM      7  H   UNL A   1      33.630  32.287  27.980  1.00  0.00     0.163 HD
BRANCH   6   8
ATOM      8  C   UNL A   1      36.470  31.146  29.243  1.00  0.00     0.039 A 
ATOM      9  C   UNL A   1      37.711  31.767  29.100  1.00  0.00     0.014 A 
ATOM     10  C   UNL A   1      36.398  29.780  29.473  1.00  0.00     0.014 A 
ATOM     11  C   UNL A   1      38.864  30.996  29.249  1.00  0.00     0.010 A 
ATOM     12  C   UNL A   1      37.509  29.097  29.879  1.00  0.00     0.010 A 
ATOM     13  C   UNL A   1      38.755  29.653  29.647  1.00  0.00    -0.014 A 
BRANCH  13  14
ATOM     14  C   UNL A   1      39.927  28.795  29.786  1.00  0.00     0.031 A 
ATOM     15  C   UNL A   1      40.452  28.631  31.162  1.00  0.00     0.074 A 
ATOM     16  C   UNL A   1      40.470  28.103  28.760  1.00  0.00     0.049 A 
ATOM     17  N   UNL A   1      41.564  29.090  31.631  1.00  0.00    -0.248 NA
ATOM     18  C   UNL A   1      39.606  27.965  32.160  1.00  0.00     0.031 C 
ATOM     19  C   UNL A   1      39.967  27.909  27.391  1.00  0.00     0.029 A 
ATOM     20  N   UNL A   1      41.602  27.347  28.765  1.00  0.00    -0.354 N 
ATOM     21  C   UNL A   1      41.645  28.641  32.944  1.00  0.00     0.074 A 
ATOM     22  C   UNL A   1      40.361  28.066  33.256  1.00  0.00     0.031 C 
ATOM     23  C   UNL A   1      40.659  26.923  26.782  1.00  0.00     0.029 A 
ATOM     24  C   UNL A   1      41.776  26.570  27.631  1.00  0.00     0.049 A 
ATOM     25  H   UNL A   1      42.244  27.351  29.512  1.00  0.00     0.167 HD
ATOM     26  C   UNL A   1      42.837  28.602  33.600  1.00  0.00     0.037 A 
ATOM     27  C   UNL A   1      42.781  25.700  27.389  1.00  0.00     0.037 A 
ATOM     28  C   UNL A   1      43.826  29.419  32.946  1.00  0.00     0.049 A 
ATOM     29  C   UNL A   1      43.919  26.111  28.242  1.00  0.00     0.074 A 
ATOM     30  C   UNL A   1      43.947  30.768  32.674  1.00  0.00     0.029 A 
ATOM     31  N   UNL A   1      44.734  28.793  32.129  1.00  0.00    -0.354 N 
ATOM     32  N   UNL A   1      44.590  27.218  28.083  1.00  0.00    -0.248 NA
ATOM     33  C   UNL A   1      44.069  25.470  29.538  1.00  0.00     0.031 C 
ATOM     34  C   UNL A   1      44.576  30.837  31.395  1.00  0.00     0.029 A 
ATOM     35  C   UNL A   1      44.843  29.532  30.978  1.00  0.00     0.049 A 
ATOM     36  H   UNL A   1      45.222  27.963  32.334  1.00  0.00     0.167 HD
ATOM     37  C   UNL A   1      44.896  27.631  29.370  1.00  0.00     0.074 A 
ATOM     38  C   UNL A   1      44.665  26.459  30.206  1.00  0.00     0.031 C 
ATOM     39  C   UNL A   1      45.042  28.955  29.667  1.00  0.00     0.037 A 
BRANCH  26  40
ATOM     40  C   UNL A   1      43.204  27.564  34.628  1.00  0.00     0.064 A 
ATOM     41  C   UNL A   1      43.432  27.957  35.963  1.00  0.00     0.173 A 
ATOM     42  C   UNL A   1      43.623  26.257  34.299  1.00  0.00     0.173 A 
ATOM     43  F   UNL A   1      43.102  29.190  36.377  1.00  0.00    -0.203 F 
ATOM     44  C   UNL A   1      44.085  27.125  36.876  1.00  0.00     0.198 A 
ATOM     45  C   UNL A   1      44.224  25.410  35.227  1.00  0.00     0.198 A 
ATOM     46  F   UNL A   1      43.573  25.792  33.044  1.00  0.00    -0.203 F 
ATOM     47  F   UNL A   1      44.388  27.585  38.097  1.00  0.00    -0.200 F 
ATOM     48  C   UNL A   1      44.483  25.852  36.507  1.00  0.00     0.200 A 
ATOM     49  F   UNL A   1      44.624  24.189  34.843  1.00  0.00    -0.200 F 
ATOM     50  F   UNL A   1      45.159  25.075  37.361  1.00  0.00    -0.200 F 
ENDBRANCH  26  40
BRANCH  27  51
ATOM     51  C   UNL A   1      42.704  24.388  26.714  1.00  0.00     0.064 A 
ATOM     52  C   UNL A   1      43.332  24.186  25.476  1.00  0.00     0.173 A 
ATOM     53  C   UNL A   1      42.279  23.234  27.403  1.00  0.00     0.173 A 
ATOM     54  F   UNL A   1      43.789  25.232  24.773  1.00  0.00    -0.203 F 
ATOM     55  C   UNL A   1      43.574  22.901  24.982  1.00  0.00     0.198 A 
ATOM     56  C   UNL A   1      42.514  21.953  26.904  1.00  0.00     0.198 A 
ATOM     57  F   UNL A   1      41.721  23.323  28.619  1.00  0.00    -0.203 F 
ATOM     58  F   UNL A   1      44.249  22.745  23.836  1.00  0.00    -0.200 F 
ATOM     59  C   UNL A   1      43.181  21.786  25.705  1.00  0.00     0.200 A 
ATOM     60  F   UNL A   1      42.157  20.883  27.628  1.00  0.00    -0.200 F 
ATOM     61  F   UNL A   1      43.481  20.555  25.269  1.00  0.00    -0.200 F 
ENDBRANCH  27  51
BRANCH  39  62
ATOM     62  C   UNL A   1      45.184  29.916  28.517  1.00  0.00     0.064 A 
ATOM     63  C   UNL A   1      44.103  30.525  27.857  1.00  0.00     0.173 A 
ATOM     64  C   UNL A   1      46.474  30.338  28.161  1.00  0.00     0.173 A 
ATOM     65  F   UNL A   1      42.840  30.246  28.200  1.00  0.00    -0.203 F 
ATOM     66  C   UNL A   1      44.307  31.479  26.860  1.00  0.00     0.198 A 
ATOM     67  C   UNL A   1      46.673  31.318  27.192  1.00  0.00     0.198 A 
ATOM     68  F   UNL A   1      47.544  29.831  28.793  1.00  0.00    -0.203 F 
ATOM     69  F   UNL A   1      43.258  32.035  26.235  1.00  0.00    -0.200 F 
ATOM     70  C   UNL A   1      45.592  31.880  26.534  1.00  0.00     0.200 A 
ATOM     71  F   UNL A   1      47.917  31.735  26.914  1.00  0.00    -0.200 F 
ATOM     72  F   UNL A   1      45.787  32.828  25.606  1.00  0.00    -0.200 F 
ENDBRANCH  39  62
ENDBRANCH  13  14
ENDBRANCH   6   8
ENDBRANCH   3   4
ENDBRANCH   2   3
ENDBRANCH   1   2
BRANCH   1  73
ATOM     73  C   UNL A   1      31.953  27.736  26.106  1.00  0.00     0.002 C 
BRANCH  73  74
ATOM     74  C   UNL A   1      32.440  28.075  24.695  1.00  0.00     0.021 C 
BRANCH  74  75
ATOM     75  C   UNL A   1      33.698  27.348  24.226  1.00  0.00     0.116 C 
BRANCH  75  76
ATOM     76  N   UNL A   1      33.669  27.034  22.811  1.00  0.00    -0.352 N 
ATOM     77  C   UNL A   1      33.225  25.897  22.183  1.00  0.00     0.251 C 
ATOM     78  H   UNL A   1      34.016  27.737  22.215  1.00  0.00     0.163 HD
ATOM     79  O   UNL A   1      33.355  25.779  20.969  1.00  0.00    -0.269 OA
BRANCH  77  80
ATOM     80  C   UNL A   1      32.603  24.817  22.972  1.00  0.00     0.049 A 
ATOM     81  C   UNL A   1      31.230  24.838  23.257  1.00  0.00     0.014 A 
ATOM     82  C   UNL A   1      33.401  23.744  23.427  1.00  0.00     0.012 A 
ATOM     83  C   UNL A   1      30.658  23.827  24.022  1.00  0.00     0.003 A 
ATOM     84  C   UNL A   1      32.798  22.719  24.171  1.00  0.00     0.049 A 
ATOM     85  C   UNL A   1      34.786  23.438  23.335  1.00  0.00     0.029 A 
ATOM     86  C   UNL A   1      31.428  22.751  24.487  1.00  0.00     0.027 A 
ATOM     87  N   UNL A   1      33.791  21.798  24.463  1.00  0.00    -0.343 N 
ATOM     88  C   UNL A   1      35.007  22.279  24.038  1.00  0.00     0.087 A 
BRANCH  87  89
ATOM     89  C   UNL A   1      33.628  20.550  25.209  1.00  0.00     0.157 C 
BRANCH  89  90
ATOM     90  C   UNL A   1      33.536  19.330  24.322  1.00  0.00    -0.025 A 
ATOM     91  C   UNL A   1      34.426  18.255  24.455  1.00  0.00     0.025 A 
ATOM     92  C   UNL A   1      32.512  19.208  23.377  1.00  0.00     0.025 A 
ATOM     93  C   UNL A   1      34.270  17.141  23.644  1.00  0.00     0.111 A 
ATOM     94  C   UNL A   1      32.429  18.047  22.620  1.00  0.00     0.111 A 
ATOM     95  N   UNL A   1      33.285  17.010  22.735  1.00  0.00    -0.265 NA
ENDBRANCH  89  90
ENDBRANCH  87  89
ENDBRANCH  77  80
ENDBRANCH  75  76
ENDBRANCH  74  75
ENDBRANCH  73  74
ENDBRANCH   1  73
TORSDOF 15
ENDMDL
MODEL 3
REMARK VINA RESULT:     -12.2      3.175      5.012
REMARK SMILES O=C(NCCCCCCNC(=O)c1cccc2c1ccn2Cc1ccncc1)c1ccc(-c2c3nc(c(-c4c(F)c(F)c(F)c(F)c4F)c4ccc([nH]4)c(-c4c(F)c(F)c(F)c(F)c4F)c4nc(c(-c5c(F)c(F)c(F)c(F)c5F)c5ccc2[nH]5)C=C4)C=C3)cc1
REMARK SMILES IDX 6 1 5 2 4 3 3 4 1 5 2 6 29 8 30 9 91 10 31 11 90 12 32 13
REMARK SMILES IDX 33 14 34 15 84 16 35 17 89 18 83 19 85 20 36 21 88 22 82 23
REMARK SMILES IDX 81 24 37 26 69 27 49 28 68 29 50 30 53 31 67 32 86 33 51 34
REMARK SMILES IDX 52 35 66 37 87 38 54 39 38 40 39 41 47 42 40 43 41 44 45 45
REMARK SMILES IDX 48 46 42 47 43 48 46 49 44 50 70 51 71 52 79 53 72 54 73 55
REMARK SMILES IDX 77 56 80 57 74 58 75 59 78 60 76 61 55 62 56 63 64 64 57 65
REMARK SMILES IDX 58 66 62 67 65 68 59 69 60 70 63 71 61 72 7 73 8 74 9 75
REMARK SMILES IDX 10 76 11 77 12 79 13 80 14 81 18 82 15 83 17 84 19 85 16 86
REMARK SMILES IDX 21 87 20 88 22 89 23 90 24 91 28 92 25 93 27 94 26 95
REMARK H PARENT 3 7 85 25 53 36 10 78
REMARK Flexibility Score: inf
ROOT
ATOM      1  C   UNL A   1      37.458  23.400  25.705  1.00  0.00     0.002 C 
ENDROOT
BRANCH   1   2
ATOM      2  C   UNL A   1      38.503  22.275  25.704  1.00  0.00     0.021 C 
BRANCH   2   3
ATOM      3  C   UNL A   1      39.470  22.282  26.876  1.00  0.00     0.116 C 
BRANCH   3   4
ATOM      4  N   UNL A   1      40.871  22.111  26.485  1.00  0.00    -0.352 N 
ATOM      5  O   UNL A   1      42.848  22.858  25.649  1.00  0.00    -0.269 OA
ATOM      6  C   UNL A   1      41.851  23.077  26.324  1.00  0.00     0.251 C 
ATOM      7  H   UNL A   1      41.155  21.184  26.312  1.00  0.00     0.163 HD
BRANCH   6   8
ATOM      8  C   UNL A   1      41.673  24.385  26.979  1.00  0.00     0.039 A 
ATOM      9  C   UNL A   1      42.175  24.664  28.251  1.00  0.00     0.014 A 
ATOM     10  C   UNL A   1      40.993  25.364  26.270  1.00  0.00     0.014 A 
ATOM     11  C   UNL A   1      42.027  25.955  28.758  1.00  0.00     0.010 A 
ATOM     12  C   UNL A   1      41.088  26.673  26.650  1.00  0.00     0.010 A 
ATOM     13  C   UNL A   1      41.484  26.963  27.944  1.00  0.00    -0.014 A 
BRANCH  13  14
ATOM     14  C   UNL A   1      41.278  28.321  28.437  1.00  0.00     0.031 A 
ATOM     15  C   UNL A   1      42.318  29.311  28.068  1.00  0.00     0.074 A 
ATOM     16  C   UNL A   1      40.173  28.710  29.112  1.00  0.00     0.049 A 
ATOM     17  N   UNL A   1      43.173  29.872  28.855  1.00  0.00    -0.248 NA
ATOM     18  C   UNL A   1      42.493  29.645  26.649  1.00  0.00     0.031 C 
ATOM     19  C   UNL A   1      38.919  27.980  29.356  1.00  0.00     0.029 A 
ATOM     20  N   UNL A   1      39.921  29.920  29.682  1.00  0.00    -0.354 N 
ATOM     21  C   UNL A   1      43.901  30.756  28.068  1.00  0.00     0.074 A 
ATOM     22  C   UNL A   1      43.531  30.483  26.702  1.00  0.00     0.031 C 
ATOM     23  C   UNL A   1      37.975  28.827  29.816  1.00  0.00     0.029 A 
ATOM     24  C   UNL A   1      38.611  30.096  30.097  1.00  0.00     0.049 A 
ATOM     25  H   UNL A   1      40.613  30.613  29.792  1.00  0.00     0.167 HD
ATOM     26  C   UNL A   1      44.601  31.780  28.628  1.00  0.00     0.037 A 
ATOM     27  C   UNL A   1      38.077  31.205  30.654  1.00  0.00     0.037 A 
ATOM     28  C   UNL A   1      44.807  31.570  30.037  1.00  0.00     0.049 A 
ATOM     29  C   UNL A   1      39.199  31.970  31.245  1.00  0.00     0.074 A 
ATOM     30  C   UNL A   1      45.467  30.621  30.793  1.00  0.00     0.029 A 
ATOM     31  N   UNL A   1      43.973  32.223  30.910  1.00  0.00    -0.354 N 
ATOM     32  N   UNL A   1      39.899  31.568  32.269  1.00  0.00    -0.248 NA
ATOM     33  C   UNL A   1      39.807  33.020  30.445  1.00  0.00     0.031 C 
ATOM     34  C   UNL A   1      44.664  30.444  31.958  1.00  0.00     0.029 A 
ATOM     35  C   UNL A   1      43.584  31.324  31.871  1.00  0.00     0.049 A 
ATOM     36  H   UNL A   1      43.702  33.168  30.856  1.00  0.00     0.167 HD
ATOM     37  C   UNL A   1      41.189  31.996  32.002  1.00  0.00     0.074 A 
ATOM     38  C   UNL A   1      41.045  32.986  30.941  1.00  0.00     0.031 C 
ATOM     39  C   UNL A   1      42.269  31.308  32.475  1.00  0.00     0.037 A 
BRANCH  26  40
ATOM     40  C   UNL A   1      44.802  33.125  27.978  1.00  0.00     0.064 A 
ATOM     41  C   UNL A   1      46.088  33.501  27.540  1.00  0.00     0.173 A 
ATOM     42  C   UNL A   1      43.849  34.164  28.033  1.00  0.00     0.173 A 
ATOM     43  F   UNL A   1      47.079  32.599  27.479  1.00  0.00    -0.203 F 
ATOM     44  C   UNL A   1      46.406  34.828  27.241  1.00  0.00     0.198 A 
ATOM     45  C   UNL A   1      44.156  35.477  27.681  1.00  0.00     0.198 A 
ATOM     46  F   UNL A   1      42.622  33.976  28.536  1.00  0.00    -0.203 F 
ATOM     47  F   UNL A   1      47.670  35.159  26.945  1.00  0.00    -0.200 F 
ATOM     48  C   UNL A   1      45.440  35.816  27.314  1.00  0.00     0.200 A 
ATOM     49  F   UNL A   1      43.211  36.424  27.782  1.00  0.00    -0.200 F 
ATOM     50  F   UNL A   1      45.757  37.096  27.084  1.00  0.00    -0.200 F 
ENDBRANCH  26  40
BRANCH  27  51
ATOM     51  C   UNL A   1      36.732  31.774  30.433  1.00  0.00     0.064 A 
ATOM     52  C   UNL A   1      35.888  32.050  31.519  1.00  0.00     0.173 A 
ATOM     53  C   UNL A   1      36.370  32.337  29.193  1.00  0.00     0.173 A 
ATOM     54  F   UNL A   1      36.181  31.574  32.738  1.00  0.00    -0.203 F 
ATOM     55  C   UNL A   1      34.778  32.889  31.386  1.00  0.00     0.198 A 
ATOM     56  C   UNL A   1      35.256  33.167  29.060  1.00  0.00     0.198 A 
ATOM     57  F   UNL A   1      37.144  32.176  28.110  1.00  0.00    -0.203 F 
ATOM     58  F   UNL A   1      34.043  33.196  32.463  1.00  0.00    -0.200 F 
ATOM     59  C   UNL A   1      34.474  33.460  30.161  1.00  0.00     0.200 A 
ATOM     60  F   UNL A   1      34.991  33.738  27.877  1.00  0.00    -0.200 F 
ATOM     61  F   UNL A   1      33.456  34.324  30.051  1.00  0.00    -0.200 F 
ENDBRANCH  27  51
BRANCH  39  62
ATOM     62  C   UNL A   1      42.027  30.280  33.547  1.00  0.00     0.064 A 
ATOM     63  C   UNL A   1      41.705  28.936  33.295  1.00  0.00     0.173 A 
ATOM     64  C   UNL A   1      42.264  30.645  34.880  1.00  0.00     0.173 A 
ATOM     65  F   UNL A   1      41.553  28.485  32.043  1.00  0.00    -0.203 F 
ATOM     66  C   UNL A   1      41.586  28.012  34.333  1.00  0.00     0.198 A 
ATOM     67  C   UNL A   1      42.181  29.712  35.911  1.00  0.00     0.198 A 
ATOM     68  F   UNL A   1      42.626  31.903  35.178  1.00  0.00    -0.203 F 
ATOM     69  F   UNL A   1      41.263  26.737  34.067  1.00  0.00    -0.200 F 
ATOM     70  C   UNL A   1      41.832  28.400  35.640  1.00  0.00     0.200 A 
ATOM     71  F   UNL A   1      42.465  30.083  37.168  1.00  0.00    -0.200 F 
ATOM     72  F   UNL A   1      41.759  27.503  36.634  1.00  0.00    -0.200 F 
ENDBRANCH  39  62
ENDBRANCH  13  14
ENDBRANCH   6   8
ENDBRANCH   3   4
ENDBRANCH   2   3
ENDBRANCH   1   2
BRANCH   1  73
ATOM     73  C   UNL A   1      35.974  23.008  25.685  1.00  0.00     0.002 C 
BRANCH  73  74
ATOM     74  C   UNL A   1      35.617  21.575  26.090  1.00  0.00     0.021 C 
BRANCH  74  75
ATOM     75  C   UNL A   1      35.369  20.595  24.945  1.00  0.00     0.116 C 
BRANCH  75  76
ATOM     76  N   UNL A   1      34.262  19.697  25.207  1.00  0.00    -0.352 N 
ATOM     77  C   UNL A   1      32.915  19.909  25.046  1.00  0.00     0.251 C 
ATOM     78  H   UNL A   1      34.511  18.808  25.548  1.00  0.00     0.163 HD
ATOM     79  O   UNL A   1      32.115  19.049  25.399  1.00  0.00    -0.269 OA
BRANCH  77  80
ATOM     80  C   UNL A   1      32.436  21.174  24.458  1.00  0.00     0.049 A 
ATOM     81  C   UNL A   1      32.337  21.325  23.067  1.00  0.00     0.014 A 
ATOM     82  C   UNL A   1      32.056  22.234  25.311  1.00  0.00     0.012 A 
ATOM     83  C   UNL A   1      31.906  22.531  22.523  1.00  0.00     0.003 A 
ATOM     84  C   UNL A   1      31.595  23.430  24.741  1.00  0.00     0.049 A 
ATOM     85  C   UNL A   1      32.056  22.412  26.721  1.00  0.00     0.029 A 
ATOM     86  C   UNL A   1      31.525  23.599  23.346  1.00  0.00     0.027 A 
ATOM     87  N   UNL A   1      31.275  24.277  25.790  1.00  0.00    -0.343 N 
ATOM     88  C   UNL A   1      31.641  23.695  26.981  1.00  0.00     0.087 A 
BRANCH  87  89
ATOM     89  C   UNL A   1      30.737  25.632  25.681  1.00  0.00     0.157 C 
BRANCH  89  90
ATOM     90  C   UNL A   1      31.713  26.702  26.114  1.00  0.00    -0.025 A 
ATOM     91  C   UNL A   1      31.365  27.677  27.058  1.00  0.00     0.025 A 
ATOM     92  C   UNL A   1      33.025  26.712  25.627  1.00  0.00     0.025 A 
ATOM     93  C   UNL A   1      32.313  28.609  27.453  1.00  0.00     0.111 A 
ATOM     94  C   UNL A   1      33.907  27.679  26.093  1.00  0.00     0.111 A 
ATOM     95  N   UNL A   1      33.579  28.626  26.996  1.00  0.00    -0.265 NA
ENDBRANCH  89  90
ENDBRANCH  87  89
ENDBRANCH  77  80
ENDBRANCH  75  76
ENDBRANCH  74  75
ENDBRANCH  73  74
ENDBRANCH   1  73
TORSDOF 15
ENDMDL
