MODEL 1
REMARK VINA RESULT:     -13.3      0.000      0.000
REMARK SMILES O=C(NCCCCCCNC(=O)c1cccc(Nc2ccnc3ccc(Cl)cc23)c1)c1ccc(-c2c3nc(c(-c4c(F)c(F)c(F)c(F)c4F)c4ccc([nH]4)c(-c4c(F)c(F)c(F)c(F)c4F)c4nc(c(-c5c(F)c(F)c(F)c(F)c5F)c5ccc2[nH]5)C=C4)C=C3)cc1
REMARK SMILES IDX 6 1 5 2 4 3 3 4 1 5 2 6 31 8 32 9 93 10 33 11 92 12 34 13
REMARK SMILES IDX 35 14 36 15 86 16 37 17 91 18 85 19 87 20 38 21 90 22 84 23
REMARK SMILES IDX 83 24 39 26 71 27 51 28 70 29 52 30 55 31 69 32 88 33 53 34
REMARK SMILES IDX 54 35 68 37 89 38 56 39 40 40 41 41 49 42 42 43 43 44 47 45
REMARK SMILES IDX 50 46 44 47 45 48 48 49 46 50 72 51 73 52 81 53 74 54 75 55
REMARK SMILES IDX 79 56 82 57 76 58 77 59 80 60 78 61 57 62 58 63 66 64 59 65
REMARK SMILES IDX 60 66 64 67 67 68 61 69 62 70 65 71 63 72 7 73 8 74 9 75
REMARK SMILES IDX 10 76 11 77 12 79 13 80 14 81 30 82 15 83 17 84 16 85 18 86
REMARK SMILES IDX 19 88 20 89 29 90 21 91 23 92 28 93 22 94 24 95 26 96 25 97
REMARK SMILES IDX 27 98
REMARK H PARENT 3 7 87 25 55 36 10 78 18 87
REMARK Flexibility Score: inf
ROOT
ATOM      1  C   UNL A   1      31.761  30.557  26.727  1.00  0.00     0.002 C 
ENDROOT
BRANCH   1   2
ATOM      2  C   UNL A   1      31.534  32.062  26.866  1.00  0.00     0.021 C 
BRANCH   2   3
ATOM      3  C   UNL A   1      32.789  32.878  27.139  1.00  0.00     0.116 C 
BRANCH   3   4
ATOM      4  N   UNL A   1      32.488  34.225  27.588  1.00  0.00    -0.352 N 
ATOM      5  O   UNL A   1      32.544  35.989  28.996  1.00  0.00    -0.269 OA
ATOM      6  C   UNL A   1      33.025  34.920  28.645  1.00  0.00     0.251 C 
ATOM      7  H   UNL A   1      31.808  34.705  27.064  1.00  0.00     0.163 HD
BRANCH   6   8
ATOM      8  C   UNL A   1      34.189  34.361  29.371  1.00  0.00     0.039 A 
ATOM      9  C   UNL A   1      34.005  33.572  30.509  1.00  0.00     0.014 A 
ATOM     10  C   UNL A   1      35.477  34.603  28.885  1.00  0.00     0.014 A 
ATOM     11  C   UNL A   1      35.106  33.117  31.224  1.00  0.00     0.010 A 
ATOM     12  C   UNL A   1      36.582  34.072  29.555  1.00  0.00     0.010 A 
ATOM     13  C   UNL A   1      36.405  33.329  30.732  1.00  0.00    -0.014 A 
BRANCH  13  14
ATOM     14  C   UNL A   1      37.544  32.639  31.387  1.00  0.00     0.031 A 
ATOM     15  C   UNL A   1      38.246  31.483  30.738  1.00  0.00     0.074 A 
ATOM     16  C   UNL A   1      37.932  33.081  32.601  1.00  0.00     0.049 A 
ATOM     17  N   UNL A   1      39.242  30.767  31.194  1.00  0.00    -0.248 NA
ATOM     18  C   UNL A   1      37.770  31.068  29.409  1.00  0.00     0.031 C 
ATOM     19  C   UNL A   1      37.301  34.184  33.334  1.00  0.00     0.029 A 
ATOM     20  N   UNL A   1      38.939  32.667  33.433  1.00  0.00    -0.354 N 
ATOM     21  C   UNL A   1      39.502  29.810  30.224  1.00  0.00     0.074 A 
ATOM     22  C   UNL A   1      38.550  30.024  29.155  1.00  0.00     0.031 C 
ATOM     23  C   UNL A   1      37.950  34.375  34.489  1.00  0.00     0.029 A 
ATOM     24  C   UNL A   1      38.994  33.366  34.614  1.00  0.00     0.049 A 
ATOM     25  H   UNL A   1      39.561  31.939  33.206  1.00  0.00     0.167 HD
ATOM     26  C   UNL A   1      40.452  28.844  30.235  1.00  0.00     0.037 A 
ATOM     27  C   UNL A   1      39.772  33.192  35.697  1.00  0.00     0.037 A 
ATOM     28  C   UNL A   1      41.406  28.655  31.299  1.00  0.00     0.049 A 
ATOM     29  C   UNL A   1      40.791  32.088  35.684  1.00  0.00     0.074 A 
ATOM     30  C   UNL A   1      42.458  27.756  31.363  1.00  0.00     0.029 A 
ATOM     31  N   UNL A   1      41.417  29.365  32.491  1.00  0.00    -0.354 N 
ATOM     32  N   UNL A   1      41.076  31.239  34.729  1.00  0.00    -0.248 NA
ATOM     33  C   UNL A   1      41.590  31.913  36.904  1.00  0.00     0.031 C 
ATOM     34  C   UNL A   1      43.062  27.877  32.617  1.00  0.00     0.029 A 
ATOM     35  C   UNL A   1      42.426  28.892  33.314  1.00  0.00     0.049 A 
ATOM     36  H   UNL A   1      40.798  30.097  32.717  1.00  0.00     0.167 HD
ATOM     37  C   UNL A   1      42.092  30.436  35.224  1.00  0.00     0.074 A 
ATOM     38  C   UNL A   1      42.396  30.922  36.555  1.00  0.00     0.031 C 
ATOM     39  C   UNL A   1      42.709  29.383  34.638  1.00  0.00     0.037 A 
BRANCH  26  40
ATOM     40  C   UNL A   1      40.517  27.893  29.075  1.00  0.00     0.064 A 
ATOM     41  C   UNL A   1      39.717  26.744  29.014  1.00  0.00     0.173 A 
ATOM     42  C   UNL A   1      41.310  28.201  27.956  1.00  0.00     0.173 A 
ATOM     43  F   UNL A   1      38.945  26.402  30.058  1.00  0.00    -0.203 F 
ATOM     44  C   UNL A   1      39.709  25.936  27.880  1.00  0.00     0.198 A 
ATOM     45  C   UNL A   1      41.282  27.403  26.815  1.00  0.00     0.198 A 
ATOM     46  F   UNL A   1      42.089  29.293  27.960  1.00  0.00    -0.203 F 
ATOM     47  F   UNL A   1      38.949  24.833  27.850  1.00  0.00    -0.200 F 
ATOM     48  C   UNL A   1      40.482  26.272  26.778  1.00  0.00     0.200 A 
ATOM     49  F   UNL A   1      42.017  27.740  25.747  1.00  0.00    -0.200 F 
ATOM     50  F   UNL A   1      40.454  25.506  25.678  1.00  0.00    -0.200 F 
ENDBRANCH  26  40
BRANCH  27  51
ATOM     51  C   UNL A   1      39.585  34.049  36.897  1.00  0.00     0.064 A 
ATOM     52  C   UNL A   1      40.204  35.302  36.999  1.00  0.00     0.173 A 
ATOM     53  C   UNL A   1      38.798  33.622  37.978  1.00  0.00     0.173 A 
ATOM     54  F   UNL A   1      40.980  35.748  36.000  1.00  0.00    -0.203 F 
ATOM     55  C   UNL A   1      40.069  36.079  38.148  1.00  0.00     0.198 A 
ATOM     56  C   UNL A   1      38.634  34.415  39.109  1.00  0.00     0.198 A 
ATOM     57  F   UNL A   1      38.178  32.433  37.929  1.00  0.00    -0.203 F 
ATOM     58  F   UNL A   1      40.722  37.245  38.243  1.00  0.00    -0.200 F 
ATOM     59  C   UNL A   1      39.281  35.638  39.199  1.00  0.00     0.200 A 
ATOM     60  F   UNL A   1      37.855  33.992  40.115  1.00  0.00    -0.200 F 
ATOM     61  F   UNL A   1      39.153  36.385  40.303  1.00  0.00    -0.200 F 
ENDBRANCH  27  51
BRANCH  39  62
ATOM     62  C   UNL A   1      43.780  28.693  35.431  1.00  0.00     0.064 A 
ATOM     63  C   UNL A   1      43.471  27.666  36.337  1.00  0.00     0.173 A 
ATOM     64  C   UNL A   1      45.128  29.043  35.268  1.00  0.00     0.173 A 
ATOM     65  F   UNL A   1      42.194  27.311  36.544  1.00  0.00    -0.203 F 
ATOM     66  C   UNL A   1      44.472  27.034  37.068  1.00  0.00     0.198 A 
ATOM     67  C   UNL A   1      46.129  28.385  35.976  1.00  0.00     0.198 A 
ATOM     68  F   UNL A   1      45.475  30.015  34.411  1.00  0.00    -0.203 F 
ATOM     69  F   UNL A   1      44.149  26.093  37.966  1.00  0.00    -0.200 F 
ATOM     70  C   UNL A   1      45.800  27.388  36.881  1.00  0.00     0.200 A 
ATOM     71  F   UNL A   1      47.412  28.719  35.784  1.00  0.00    -0.200 F 
ATOM     72  F   UNL A   1      46.763  26.773  37.581  1.00  0.00    -0.200 F 
ENDBRANCH  39  62
ENDBRANCH  13  14
ENDBRANCH   6   8
ENDBRANCH   3   4
ENDBRANCH   2   3
ENDBRANCH   1   2
BRANCH   1  73
ATOM     73  C   UNL A   1      31.718  30.001  25.300  1.00  0.00     0.002 C 
BRANCH  73  74
ATOM     74  C   UNL A   1      33.002  29.338  24.787  1.00  0.00     0.021 C 
BRANCH  74  75
ATOM     75  C   UNL A   1      33.062  29.085  23.284  1.00  0.00     0.116 C 
BRANCH  75  76
ATOM     76  N   UNL A   1      31.816  29.384  22.611  1.00  0.00    -0.352 N 
ATOM     77  C   UNL A   1      30.726  28.600  22.344  1.00  0.00     0.251 C 
ATOM     78  H   UNL A   1      31.739  30.311  22.290  1.00  0.00     0.163 HD
ATOM     79  O   UNL A   1      29.817  29.060  21.657  1.00  0.00    -0.269 OA
BRANCH  77  80
ATOM     80  C   UNL A   1      30.623  27.207  22.836  1.00  0.00     0.041 A 
ATOM     81  C   UNL A   1      29.918  27.001  24.029  1.00  0.00     0.014 A 
ATOM     82  C   UNL A   1      31.324  26.144  22.250  1.00  0.00     0.039 A 
ATOM     83  C   UNL A   1      29.876  25.737  24.611  1.00  0.00     0.003 A 
ATOM     84  C   UNL A   1      31.291  24.869  22.835  1.00  0.00     0.039 A 
ATOM     85  C   UNL A   1      30.561  24.680  24.017  1.00  0.00     0.026 A 
BRANCH  84  86
ATOM     86  N   UNL A   1      32.196  23.855  22.421  1.00  0.00    -0.355 N 
ATOM     87  H   UNL A   1      32.068  23.386  21.565  1.00  0.00     0.167 HD
BRANCH  86  88
ATOM     88  C   UNL A   1      33.295  23.531  23.269  1.00  0.00     0.050 A 
ATOM     89  C   UNL A   1      34.178  24.557  23.617  1.00  0.00     0.047 A 
ATOM     90  C   UNL A   1      33.503  22.230  23.782  1.00  0.00     0.025 A 
ATOM     91  C   UNL A   1      35.155  24.297  24.550  1.00  0.00     0.114 A 
ATOM     92  C   UNL A   1      34.573  22.073  24.695  1.00  0.00     0.072 A 
ATOM     93  C   UNL A   1      32.712  21.102  23.453  1.00  0.00     0.033 A 
ATOM     94  N   UNL A   1      35.360  23.083  25.090  1.00  0.00    -0.256 NA
ATOM     95  C   UNL A   1      34.838  20.816  25.215  1.00  0.00     0.030 A 
ATOM     96  C   UNL A   1      33.016  19.848  23.982  1.00  0.00     0.041 A 
ATOM     97  C   UNL A   1      34.085  19.698  24.856  1.00  0.00     0.023 A 
ATOM     98  Cl  UNL A   1      32.076  18.475  23.548  1.00  0.00    -0.084 Cl
ENDBRANCH  86  88
ENDBRANCH  84  86
ENDBRANCH  77  80
ENDBRANCH  75  76
ENDBRANCH  74  75
ENDBRANCH  73  74
ENDBRANCH   1  73
TORSDOF 15
ENDMDL
MODEL 2
REMARK VINA RESULT:     -13.2      0.074      1.559
REMARK SMILES O=C(NCCCCCCNC(=O)c1cccc(Nc2ccnc3ccc(Cl)cc23)c1)c1ccc(-c2c3nc(c(-c4c(F)c(F)c(F)c(F)c4F)c4ccc([nH]4)c(-c4c(F)c(F)c(F)c(F)c4F)c4nc(c(-c5c(F)c(F)c(F)c(F)c5F)c5ccc2[nH]5)C=C4)C=C3)cc1
REMARK SMILES IDX 6 1 5 2 4 3 3 4 1 5 2 6 31 8 32 9 93 10 33 11 92 12 34 13
REMARK SMILES IDX 35 14 36 15 86 16 37 17 91 18 85 19 87 20 38 21 90 22 84 23
REMARK SMILES IDX 83 24 39 26 71 27 51 28 70 29 52 30 55 31 69 32 88 33 53 34
REMARK SMILES IDX 54 35 68 37 89 38 56 39 40 40 41 41 49 42 42 43 43 44 47 45
REMARK SMILES IDX 50 46 44 47 45 48 48 49 46 50 72 51 73 52 81 53 74 54 75 55
REMARK SMILES IDX 79 56 82 57 76 58 77 59 80 60 78 61 57 62 58 63 66 64 59 65
REMARK SMILES IDX 60 66 64 67 67 68 61 69 62 70 65 71 63 72 7 73 8 74 9 75
REMARK SMILES IDX 10 76 11 77 12 79 13 80 14 81 30 82 15 83 17 84 16 85 18 86
REMARK SMILES IDX 19 88 20 89 29 90 21 91 23 92 28 93 22 94 24 95 26 96 25 97
REMARK SMILES IDX 27 98
REMARK H PARENT 3 7 87 25 55 36 10 78 18 87
REMARK Flexibility Score: inf
ROOT
ATOM      1  C   UNL A   1      31.775  30.640  26.790  1.00  0.00     0.002 C 
ENDROOT
BRANCH   1   2
ATOM      2  C   UNL A   1      31.549  32.144  26.939  1.00  0.00     0.021 C 
BRANCH   2   3
ATOM      3  C   UNL A   1      32.808  32.959  27.192  1.00  0.00     0.116 C 
BRANCH   3   4
ATOM      4  N   UNL A   1      32.515  34.302  27.658  1.00  0.00    -0.352 N 
ATOM      5  O   UNL A   1      32.589  36.052  29.082  1.00  0.00    -0.269 OA
ATOM      6  C   UNL A   1      33.064  34.986  28.716  1.00  0.00     0.251 C 
ATOM      7  H   UNL A   1      31.831  34.789  27.145  1.00  0.00     0.163 HD
BRANCH   6   8
ATOM      8  C   UNL A   1      34.234  34.418  29.425  1.00  0.00     0.039 A 
ATOM      9  C   UNL A   1      34.071  33.744  30.638  1.00  0.00     0.014 A 
ATOM     10  C   UNL A   1      35.503  34.532  28.850  1.00  0.00     0.014 A 
ATOM     11  C   UNL A   1      35.185  33.282  31.330  1.00  0.00     0.010 A 
ATOM     12  C   UNL A   1      36.612  33.990  29.503  1.00  0.00     0.010 A 
ATOM     13  C   UNL A   1      36.461  33.365  30.751  1.00  0.00    -0.014 A 
BRANCH  13  14
ATOM     14  C   UNL A   1      37.595  32.662  31.402  1.00  0.00     0.031 A 
ATOM     15  C   UNL A   1      38.290  31.507  30.744  1.00  0.00     0.074 A 
ATOM     16  C   UNL A   1      37.983  33.090  32.620  1.00  0.00     0.049 A 
ATOM     17  N   UNL A   1      39.281  30.780  31.196  1.00  0.00    -0.248 NA
ATOM     18  C   UNL A   1      37.815  31.107  29.410  1.00  0.00     0.031 C 
ATOM     19  C   UNL A   1      37.358  34.190  33.362  1.00  0.00     0.029 A 
ATOM     20  N   UNL A   1      38.985  32.662  33.451  1.00  0.00    -0.354 N 
ATOM     21  C   UNL A   1      39.536  29.830  30.218  1.00  0.00     0.074 A 
ATOM     22  C   UNL A   1      38.588  30.060  29.149  1.00  0.00     0.031 C 
ATOM     23  C   UNL A   1      38.005  34.367  34.520  1.00  0.00     0.029 A 
ATOM     24  C   UNL A   1      39.042  33.350  34.638  1.00  0.00     0.049 A 
ATOM     25  H   UNL A   1      39.603  31.932  33.219  1.00  0.00     0.167 HD
ATOM     26  C   UNL A   1      40.480  28.858  30.222  1.00  0.00     0.037 A 
ATOM     27  C   UNL A   1      39.816  33.161  35.722  1.00  0.00     0.037 A 
ATOM     28  C   UNL A   1      41.430  28.653  31.287  1.00  0.00     0.049 A 
ATOM     29  C   UNL A   1      40.828  32.051  35.701  1.00  0.00     0.074 A 
ATOM     30  C   UNL A   1      42.476  27.747  31.345  1.00  0.00     0.029 A 
ATOM     31  N   UNL A   1      41.443  29.352  32.485  1.00  0.00    -0.354 N 
ATOM     32  N   UNL A   1      41.110  31.208  34.739  1.00  0.00    -0.248 NA
ATOM     33  C   UNL A   1      41.623  31.859  36.921  1.00  0.00     0.031 C 
ATOM     34  C   UNL A   1      43.078  27.852  32.601  1.00  0.00     0.029 A 
ATOM     35  C   UNL A   1      42.448  28.865  33.306  1.00  0.00     0.049 A 
ATOM     36  H   UNL A   1      40.829  30.086  32.717  1.00  0.00     0.167 HD
ATOM     37  C   UNL A   1      42.119  30.394  35.229  1.00  0.00     0.074 A 
ATOM     38  C   UNL A   1      42.424  30.866  36.565  1.00  0.00     0.031 C 
ATOM     39  C   UNL A   1      42.731  29.342  34.635  1.00  0.00     0.037 A 
BRANCH  26  40
ATOM     40  C   UNL A   1      40.542  27.917  29.054  1.00  0.00     0.064 A 
ATOM     41  C   UNL A   1      39.747  26.764  28.990  1.00  0.00     0.173 A 
ATOM     42  C   UNL A   1      41.324  28.238  27.932  1.00  0.00     0.173 A 
ATOM     43  F   UNL A   1      38.986  26.409  30.036  1.00  0.00    -0.203 F 
ATOM     44  C   UNL A   1      39.735  25.965  27.849  1.00  0.00     0.198 A 
ATOM     45  C   UNL A   1      41.292  27.450  26.784  1.00  0.00     0.198 A 
ATOM     46  F   UNL A   1      42.097  29.335  27.938  1.00  0.00    -0.203 F 
ATOM     47  F   UNL A   1      38.981  24.858  27.815  1.00  0.00    -0.200 F 
ATOM     48  C   UNL A   1      40.498  26.314  26.744  1.00  0.00     0.200 A 
ATOM     49  F   UNL A   1      42.017  27.799  25.713  1.00  0.00    -0.200 F 
ATOM     50  F   UNL A   1      40.465  25.557  25.637  1.00  0.00    -0.200 F 
ENDBRANCH  26  40
BRANCH  27  51
ATOM     51  C   UNL A   1      39.632  34.009  36.928  1.00  0.00     0.064 A 
ATOM     52  C   UNL A   1      38.828  33.589  37.996  1.00  0.00     0.173 A 
ATOM     53  C   UNL A   1      40.241  35.270  37.029  1.00  0.00     0.173 A 
ATOM     54  F   UNL A   1      38.209  32.400  37.941  1.00  0.00    -0.203 F 
ATOM     55  C   UNL A   1      38.614  34.410  39.102  1.00  0.00     0.198 A 
ATOM     56  C   UNL A   1      40.057  36.073  38.150  1.00  0.00     0.198 A 
ATOM     57  F   UNL A   1      41.026  35.718  36.037  1.00  0.00    -0.203 F 
ATOM     58  F   UNL A   1      37.791  34.009  40.080  1.00  0.00    -0.200 F 
ATOM     59  C   UNL A   1      39.233  35.648  39.180  1.00  0.00     0.200 A 
ATOM     60  F   UNL A   1      40.673  37.261  38.229  1.00  0.00    -0.200 F 
ATOM     61  F   UNL A   1      39.026  36.436  40.243  1.00  0.00    -0.200 F 
ENDBRANCH  27  51
BRANCH  39  62
ATOM     62  C   UNL A   1      43.795  28.638  35.425  1.00  0.00     0.064 A 
ATOM     63  C   UNL A   1      45.144  29.011  35.328  1.00  0.00     0.173 A 
ATOM     64  C   UNL A   1      43.461  27.598  36.304  1.00  0.00     0.173 A 
ATOM     65  F   UNL A   1      45.515  29.986  34.484  1.00  0.00    -0.203 F 
ATOM     66  C   UNL A   1      46.122  28.350  36.064  1.00  0.00     0.198 A 
ATOM     67  C   UNL A   1      44.439  26.962  37.064  1.00  0.00     0.198 A 
ATOM     68  F   UNL A   1      42.185  27.206  36.436  1.00  0.00    -0.203 F 
ATOM     69  F   UNL A   1      47.411  28.688  35.915  1.00  0.00    -0.200 F 
ATOM     70  C   UNL A   1      45.768  27.333  36.937  1.00  0.00     0.200 A 
ATOM     71  F   UNL A   1      44.093  25.988  37.917  1.00  0.00    -0.200 F 
ATOM     72  F   UNL A   1      46.711  26.702  37.650  1.00  0.00    -0.200 F 
ENDBRANCH  39  62
ENDBRANCH  13  14
ENDBRANCH   6   8
ENDBRANCH   3   4
ENDBRANCH   2   3
ENDBRANCH   1   2
BRANCH   1  73
ATOM     73  C   UNL A   1      31.742  30.095  25.358  1.00  0.00     0.002 C 
BRANCH  73  74
ATOM     74  C   UNL A   1      33.009  29.381  24.871  1.00  0.00     0.021 C 
BRANCH  74  75
ATOM     75  C   UNL A   1      33.073  29.093  23.374  1.00  0.00     0.116 C 
BRANCH  75  76
ATOM     76  N   UNL A   1      31.838  29.404  22.686  1.00  0.00    -0.352 N 
ATOM     77  C   UNL A   1      30.754  28.625  22.386  1.00  0.00     0.251 C 
ATOM     78  H   UNL A   1      31.766  30.338  22.381  1.00  0.00     0.163 HD
ATOM     79  O   UNL A   1      29.856  29.097  21.693  1.00  0.00    -0.269 OA
BRANCH  77  80
ATOM     80  C   UNL A   1      30.644  27.223  22.850  1.00  0.00     0.041 A 
ATOM     81  C   UNL A   1      29.914  26.994  24.024  1.00  0.00     0.014 A 
ATOM     82  C   UNL A   1      31.359  26.172  22.260  1.00  0.00     0.039 A 
ATOM     83  C   UNL A   1      29.863  25.720  24.582  1.00  0.00     0.003 A 
ATOM     84  C   UNL A   1      31.317  24.886  22.820  1.00  0.00     0.039 A 
ATOM     85  C   UNL A   1      30.562  24.674  23.982  1.00  0.00     0.026 A 
BRANCH  84  86
ATOM     86  N   UNL A   1      32.233  23.882  22.407  1.00  0.00    -0.355 N 
ATOM     87  H   UNL A   1      32.122  23.428  21.539  1.00  0.00     0.167 HD
BRANCH  86  88
ATOM     88  C   UNL A   1      33.315  23.545  23.270  1.00  0.00     0.050 A 
ATOM     89  C   UNL A   1      34.199  24.563  23.639  1.00  0.00     0.047 A 
ATOM     90  C   UNL A   1      33.504  22.239  23.780  1.00  0.00     0.025 A 
ATOM     91  C   UNL A   1      35.159  24.290  24.586  1.00  0.00     0.114 A 
ATOM     92  C   UNL A   1      34.557  22.070  24.710  1.00  0.00     0.072 A 
ATOM     93  C   UNL A   1      32.710  21.120  23.431  1.00  0.00     0.033 A 
ATOM     94  N   UNL A   1      35.346  23.071  25.122  1.00  0.00    -0.256 NA
ATOM     95  C   UNL A   1      34.805  20.808  25.227  1.00  0.00     0.030 A 
ATOM     96  C   UNL A   1      32.997  19.861  23.958  1.00  0.00     0.041 A 
ATOM     97  C   UNL A   1      34.049  19.697  24.849  1.00  0.00     0.023 A 
ATOM     98  Cl  UNL A   1      32.054  18.496  23.501  1.00  0.00    -0.084 Cl
ENDBRANCH  86  88
ENDBRANCH  84  86
ENDBRANCH  77  80
ENDBRANCH  75  76
ENDBRANCH  74  75
ENDBRANCH  73  74
ENDBRANCH   1  73
TORSDOF 15
ENDMDL
MODEL 3
REMARK VINA RESULT:     -13.1      0.804      1.385
REMARK SMILES O=C(NCCCCCCNC(=O)c1cccc(Nc2ccnc3ccc(Cl)cc23)c1)c1ccc(-c2c3nc(c(-c4c(F)c(F)c(F)c(F)c4F)c4ccc([nH]4)c(-c4c(F)c(F)c(F)c(F)c4F)c4nc(c(-c5c(F)c(F)c(F)c(F)c5F)c5ccc2[nH]5)C=C4)C=C3)cc1
REMARK SMILES IDX 6 1 5 2 4 3 3 4 1 5 2 6 31 8 32 9 93 10 33 11 92 12 34 13
REMARK SMILES IDX 35 14 36 15 86 16 37 17 91 18 85 19 87 20 38 21 90 22 84 23
REMARK SMILES IDX 83 24 39 26 71 27 51 28 70 29 52 30 55 31 69 32 88 33 53 34
REMARK SMILES IDX 54 35 68 37 89 38 56 39 40 40 41 41 49 42 42 43 43 44 47 45
REMARK SMILES IDX 50 46 44 47 45 48 48 49 46 50 72 51 73 52 81 53 74 54 75 55
REMARK SMILES IDX 79 56 82 57 76 58 77 59 80 60 78 61 57 62 58 63 66 64 59 65
REMARK SMILES IDX 60 66 64 67 67 68 61 69 62 70 65 71 63 72 7 73 8 74 9 75
REMARK SMILES IDX 10 76 11 77 12 79 13 80 14 81 30 82 15 83 17 84 16 85 18 86
REMARK SMILES IDX 19 88 20 89 29 90 21 91 23 92 28 93 22 94 24 95 26 96 25 97
REMARK SMILES IDX 27 98
REMARK H PARENT 3 7 87 25 55 36 10 78 18 87
REMARK Flexibility Score: inf
ROOT
ATOM      1  C   UNL A   1      31.509  30.401  25.917  1.00  0.00     0.002 C 
ENDROOT
BRANCH   1   2
ATOM      2  C   UNL A   1      31.324  31.795  26.516  1.00  0.00     0.021 C 
BRANCH   2   3
ATOM      3  C   UNL A   1      32.600  32.449  27.025  1.00  0.00     0.116 C 
BRANCH   3   4
ATOM      4  N   UNL A   1      32.394  33.828  27.428  1.00  0.00    -0.352 N 
ATOM      5  O   UNL A   1      32.623  35.646  28.747  1.00  0.00    -0.269 OA
ATOM      6  C   UNL A   1      33.028  34.540  28.418  1.00  0.00     0.251 C 
ATOM      7  H   UNL A   1      31.707  34.319  26.924  1.00  0.00     0.163 HD
BRANCH   6   8
ATOM      8  C   UNL A   1      34.206  33.953  29.098  1.00  0.00     0.039 A 
ATOM      9  C   UNL A   1      34.043  32.997  30.103  1.00  0.00     0.014 A 
ATOM     10  C   UNL A   1      35.489  34.342  28.701  1.00  0.00     0.014 A 
ATOM     11  C   UNL A   1      35.153  32.511  30.786  1.00  0.00     0.010 A 
ATOM     12  C   UNL A   1      36.608  33.788  29.328  1.00  0.00     0.010 A 
ATOM     13  C   UNL A   1      36.447  32.871  30.378  1.00  0.00    -0.014 A 
BRANCH  13  14
ATOM     14  C   UNL A   1      37.611  32.165  30.968  1.00  0.00     0.031 A 
ATOM     15  C   UNL A   1      38.365  31.113  30.208  1.00  0.00     0.074 A 
ATOM     16  C   UNL A   1      37.973  32.492  32.225  1.00  0.00     0.049 A 
ATOM     17  N   UNL A   1      39.388  30.395  30.598  1.00  0.00    -0.248 NA
ATOM     18  C   UNL A   1      37.914  30.821  28.839  1.00  0.00     0.031 C 
ATOM     19  C   UNL A   1      37.292  33.485  33.063  1.00  0.00     0.029 A 
ATOM     20  N   UNL A   1      38.992  32.035  33.020  1.00  0.00    -0.354 N 
ATOM     21  C   UNL A   1      39.694  29.557  29.535  1.00  0.00     0.074 A 
ATOM     22  C   UNL A   1      38.739  29.842  28.485  1.00  0.00     0.031 C 
ATOM     23  C   UNL A   1      37.926  33.580  34.239  1.00  0.00     0.029 A 
ATOM     24  C   UNL A   1      39.011  32.609  34.268  1.00  0.00     0.049 A 
ATOM     25  H   UNL A   1      39.646  31.362  32.724  1.00  0.00     0.167 HD
ATOM     26  C   UNL A   1      40.684  28.636  29.454  1.00  0.00     0.037 A 
ATOM     27  C   UNL A   1      39.790  32.354  35.334  1.00  0.00     0.037 A 
ATOM     28  C   UNL A   1      41.639  28.376  30.502  1.00  0.00     0.049 A 
ATOM     29  C   UNL A   1      40.855  31.301  35.216  1.00  0.00     0.074 A 
ATOM     30  C   UNL A   1      42.728  27.520  30.482  1.00  0.00     0.029 A 
ATOM     31  N   UNL A   1      41.613  28.957  31.762  1.00  0.00    -0.354 N 
ATOM     32  N   UNL A   1      41.181  30.570  34.180  1.00  0.00    -0.248 NA
ATOM     33  C   UNL A   1      41.654  31.032  36.419  1.00  0.00     0.031 C 
ATOM     34  C   UNL A   1      43.320  27.534  31.748  1.00  0.00     0.029 A 
ATOM     35  C   UNL A   1      42.637  28.442  32.541  1.00  0.00     0.049 A 
ATOM     36  H   UNL A   1      40.963  29.634  32.058  1.00  0.00     0.167 HD
ATOM     37  C   UNL A   1      42.227  29.762  34.599  1.00  0.00     0.074 A 
ATOM     38  C   UNL A   1      42.504  30.118  35.976  1.00  0.00     0.031 C 
ATOM     39  C   UNL A   1      42.892  28.803  33.912  1.00  0.00     0.037 A 
BRANCH  26  40
ATOM     40  C   UNL A   1      40.796  27.815  28.202  1.00  0.00     0.064 A 
ATOM     41  C   UNL A   1      41.561  28.238  27.107  1.00  0.00     0.173 A 
ATOM     42  C   UNL A   1      40.220  26.534  28.146  1.00  0.00     0.173 A 
ATOM     43  F   UNL A   1      42.127  29.454  27.107  1.00  0.00    -0.203 F 
ATOM     44  C   UNL A   1      41.745  27.411  26.000  1.00  0.00     0.198 A 
ATOM     45  C   UNL A   1      40.426  25.702  27.049  1.00  0.00     0.198 A 
ATOM     46  F   UNL A   1      39.485  26.078  29.171  1.00  0.00    -0.203 F 
ATOM     47  F   UNL A   1      42.467  27.842  24.957  1.00  0.00    -0.200 F 
ATOM     48  C   UNL A   1      41.188  26.141  25.977  1.00  0.00     0.200 A 
ATOM     49  F   UNL A   1      39.899  24.470  27.036  1.00  0.00    -0.200 F 
ATOM     50  F   UNL A   1      41.387  25.339  24.921  1.00  0.00    -0.200 F 
ENDBRANCH  26  40
BRANCH  27  51
ATOM     51  C   UNL A   1      39.560  33.072  36.615  1.00  0.00     0.064 A 
ATOM     52  C   UNL A   1      40.278  34.231  36.938  1.00  0.00     0.173 A 
ATOM     53  C   UNL A   1      38.630  32.600  37.554  1.00  0.00     0.173 A 
ATOM     54  F   UNL A   1      41.192  34.712  36.082  1.00  0.00    -0.203 F 
ATOM     55  C   UNL A   1      40.098  34.871  38.163  1.00  0.00     0.198 A 
ATOM     56  C   UNL A   1      38.424  33.261  38.762  1.00  0.00     0.198 A 
ATOM     57  F   UNL A   1      37.910  31.498  37.292  1.00  0.00    -0.203 F 
ATOM     58  F   UNL A   1      40.843  35.941  38.471  1.00  0.00    -0.200 F 
ATOM     59  C   UNL A   1      39.168  34.389  39.071  1.00  0.00     0.200 A 
ATOM     60  F   UNL A   1      37.509  32.802  39.627  1.00  0.00    -0.200 F 
ATOM     61  F   UNL A   1      38.997  35.004  40.249  1.00  0.00    -0.200 F 
ENDBRANCH  27  51
BRANCH  39  62
ATOM     62  C   UNL A   1      43.986  28.079  34.639  1.00  0.00     0.064 A 
ATOM     63  C   UNL A   1      43.749  26.855  35.284  1.00  0.00     0.173 A 
ATOM     64  C   UNL A   1      45.288  28.599  34.671  1.00  0.00     0.173 A 
ATOM     65  F   UNL A   1      42.516  26.329  35.300  1.00  0.00    -0.203 F 
ATOM     66  C   UNL A   1      44.772  26.193  35.957  1.00  0.00     0.198 A 
ATOM     67  C   UNL A   1      46.316  27.916  35.317  1.00  0.00     0.198 A 
ATOM     68  F   UNL A   1      45.567  29.763  34.067  1.00  0.00    -0.203 F 
ATOM     69  F   UNL A   1      44.511  25.053  36.611  1.00  0.00    -0.200 F 
ATOM     70  C   UNL A   1      46.055  26.719  35.965  1.00  0.00     0.200 A 
ATOM     71  F   UNL A   1      47.557  28.419  35.312  1.00  0.00    -0.200 F 
ATOM     72  F   UNL A   1      47.040  26.076  36.608  1.00  0.00    -0.200 F 
ENDBRANCH  39  62
ENDBRANCH  13  14
ENDBRANCH   6   8
ENDBRANCH   3   4
ENDBRANCH   2   3
ENDBRANCH   1   2
BRANCH   1  73
ATOM     73  C   UNL A   1      32.951  29.995  25.594  1.00  0.00     0.002 C 
BRANCH  73  74
ATOM     74  C   UNL A   1      33.128  28.751  24.716  1.00  0.00     0.021 C 
BRANCH  74  75
ATOM     75  C   UNL A   1      33.296  29.012  23.222  1.00  0.00     0.116 C 
BRANCH  75  76
ATOM     76  N   UNL A   1      32.072  29.449  22.584  1.00  0.00    -0.352 N 
ATOM     77  C   UNL A   1      30.915  28.776  22.302  1.00  0.00     0.251 C 
ATOM     78  H   UNL A   1      32.073  30.393  22.304  1.00  0.00     0.163 HD
ATOM     79  O   UNL A   1      30.040  29.343  21.651  1.00  0.00    -0.269 OA
BRANCH  77  80
ATOM     80  C   UNL A   1      30.696  27.376  22.735  1.00  0.00     0.041 A 
ATOM     81  C   UNL A   1      29.862  27.173  23.841  1.00  0.00     0.014 A 
ATOM     82  C   UNL A   1      31.403  26.297  22.189  1.00  0.00     0.039 A 
ATOM     83  C   UNL A   1      29.701  25.897  24.374  1.00  0.00     0.003 A 
ATOM     84  C   UNL A   1      31.250  25.009  22.724  1.00  0.00     0.039 A 
ATOM     85  C   UNL A   1      30.393  24.823  23.819  1.00  0.00     0.026 A 
BRANCH  84  86
ATOM     86  N   UNL A   1      32.145  23.963  22.372  1.00  0.00    -0.355 N 
ATOM     87  H   UNL A   1      32.026  23.462  21.533  1.00  0.00     0.167 HD
BRANCH  86  88
ATOM     88  C   UNL A   1      33.219  23.654  23.256  1.00  0.00     0.050 A 
ATOM     89  C   UNL A   1      34.069  24.695  23.642  1.00  0.00     0.047 A 
ATOM     90  C   UNL A   1      33.433  22.354  23.769  1.00  0.00     0.025 A 
ATOM     91  C   UNL A   1      35.018  24.447  24.607  1.00  0.00     0.114 A 
ATOM     92  C   UNL A   1      34.473  22.211  24.719  1.00  0.00     0.072 A 
ATOM     93  C   UNL A   1      32.676  21.214  23.405  1.00  0.00     0.033 A 
ATOM     94  N   UNL A   1      35.226  23.233  25.147  1.00  0.00    -0.256 NA
ATOM     95  C   UNL A   1      34.743  20.956  25.240  1.00  0.00     0.030 A 
ATOM     96  C   UNL A   1      32.986  19.962  23.937  1.00  0.00     0.041 A 
ATOM     97  C   UNL A   1      34.025  19.826  24.847  1.00  0.00     0.023 A 
ATOM     98  Cl  UNL A   1      32.088  18.574  23.461  1.00  0.00    -0.084 Cl
ENDBRANCH  86  88
ENDBRANCH  84  86
ENDBRANCH  77  80
ENDBRANCH  75  76
ENDBRANCH  74  75
ENDBRANCH  73  74
ENDBRANCH   1  73
TORSDOF 15
ENDMDL
