MODEL 1
REMARK VINA RESULT:     -12.6      0.000      0.000
REMARK SMILES O=C(NCCCCCCNC(=O)[C@H]1CN(S(=O)(=O)c2ccc(Cl)nc2)c2ccccc21)c1ccc(-c2c3nc(c(-c4c(F)c(F)c(F)c(F)c4F)c4ccc([nH]4)c(-c4c(F)c(F)c(F)c(F)c4F)c4nc(c(-c5c(F)c(F)c(F)c(F)c5F)c5ccc2[nH]5)C=C4)C=C3)cc1
REMARK SMILES IDX 6 1 5 2 4 3 3 4 1 5 2 6 32 8 33 9 94 10 34 11 93 12 35 13
REMARK SMILES IDX 36 14 37 15 87 16 38 17 92 18 86 19 88 20 39 21 91 22 85 23
REMARK SMILES IDX 84 24 40 26 72 27 52 28 71 29 53 30 56 31 70 32 89 33 54 34
REMARK SMILES IDX 55 35 69 37 90 38 57 39 41 40 42 41 50 42 43 43 44 44 48 45
REMARK SMILES IDX 51 46 45 47 46 48 49 49 47 50 73 51 74 52 82 53 75 54 76 55
REMARK SMILES IDX 80 56 83 57 77 58 78 59 81 60 79 61 58 62 59 63 67 64 60 65
REMARK SMILES IDX 61 66 65 67 68 68 62 69 63 70 66 71 64 72 7 73 8 74 9 75
REMARK SMILES IDX 10 76 11 77 12 79 13 80 14 81 31 82 15 83 26 84 30 85 27 86
REMARK SMILES IDX 29 87 28 88 16 89 17 90 18 91 19 92 20 93 25 94 21 95 24 96
REMARK SMILES IDX 22 97 23 98
REMARK H PARENT 3 7 88 25 56 36 10 78
REMARK Flexibility Score: inf
ROOT
ATOM      1  C   UNL A   1      34.597  33.925  29.146  1.00  0.00     0.002 C 
ENDROOT
BRANCH   1   2
ATOM      2  C   UNL A   1      33.258  34.672  29.158  1.00  0.00     0.021 C 
BRANCH   2   3
ATOM      3  C   UNL A   1      33.345  36.119  29.637  1.00  0.00     0.116 C 
BRANCH   3   4
ATOM      4  N   UNL A   1      32.497  36.351  30.794  1.00  0.00    -0.352 N 
ATOM      5  O   UNL A   1      31.612  35.933  32.821  1.00  0.00    -0.269 OA
ATOM      6  C   UNL A   1      32.554  35.797  32.046  1.00  0.00     0.251 C 
ATOM      7  H   UNL A   1      31.774  37.005  30.658  1.00  0.00     0.163 HD
BRANCH   6   8
ATOM      8  C   UNL A   1      33.743  35.028  32.465  1.00  0.00     0.039 A 
ATOM      9  C   UNL A   1      33.630  33.697  32.877  1.00  0.00     0.014 A 
ATOM     10  C   UNL A   1      34.998  35.638  32.390  1.00  0.00     0.014 A 
ATOM     11  C   UNL A   1      34.760  33.005  33.306  1.00  0.00     0.010 A 
ATOM     12  C   UNL A   1      36.138  34.924  32.760  1.00  0.00     0.010 A 
ATOM     13  C   UNL A   1      36.024  33.608  33.239  1.00  0.00    -0.014 A 
BRANCH  13  14
ATOM     14  C   UNL A   1      37.239  32.848  33.619  1.00  0.00     0.031 A 
ATOM     15  C   UNL A   1      37.953  33.145  34.904  1.00  0.00     0.074 A 
ATOM     16  C   UNL A   1      37.715  31.914  32.776  1.00  0.00     0.049 A 
ATOM     17  N   UNL A   1      39.077  32.652  35.359  1.00  0.00    -0.248 NA
ATOM     18  C   UNL A   1      37.327  34.136  35.791  1.00  0.00     0.031 C 
ATOM     19  C   UNL A   1      37.104  31.544  31.499  1.00  0.00     0.029 A 
ATOM     20  N   UNL A   1      38.827  31.116  32.859  1.00  0.00    -0.354 N 
ATOM     21  C   UNL A   1      39.305  33.288  36.571  1.00  0.00     0.074 A 
ATOM     22  C   UNL A   1      38.215  34.219  36.772  1.00  0.00     0.031 C 
ATOM     23  C   UNL A   1      37.845  30.588  30.919  1.00  0.00     0.029 A 
ATOM     24  C   UNL A   1      39.009  30.318  31.758  1.00  0.00     0.049 A 
ATOM     25  H   UNL A   1      39.435  31.114  33.634  1.00  0.00     0.167 HD
ATOM     26  C   UNL A   1      40.332  33.105  37.437  1.00  0.00     0.037 A 
ATOM     27  C   UNL A   1      40.018  29.486  31.441  1.00  0.00     0.037 A 
ATOM     28  C   UNL A   1      41.407  32.168  37.230  1.00  0.00     0.049 A 
ATOM     29  C   UNL A   1      41.160  29.321  32.402  1.00  0.00     0.074 A 
ATOM     30  C   UNL A   1      42.473  31.878  38.064  1.00  0.00     0.029 A 
ATOM     31  N   UNL A   1      41.556  31.373  36.102  1.00  0.00    -0.354 N 
ATOM     32  N   UNL A   1      41.353  29.901  33.561  1.00  0.00    -0.248 NA
ATOM     33  C   UNL A   1      42.225  28.389  32.012  1.00  0.00     0.031 C 
ATOM     34  C   UNL A   1      43.293  30.946  37.419  1.00  0.00     0.029 A 
ATOM     35  C   UNL A   1      42.709  30.611  36.207  1.00  0.00     0.049 A 
ATOM     36  H   UNL A   1      40.934  31.353  35.339  1.00  0.00     0.167 HD
ATOM     37  C   UNL A   1      42.543  29.388  34.052  1.00  0.00     0.074 A 
ATOM     38  C   UNL A   1      43.029  28.444  33.066  1.00  0.00     0.031 C 
ATOM     39  C   UNL A   1      43.173  29.670  35.219  1.00  0.00     0.037 A 
BRANCH  26  40
ATOM     40  C   UNL A   1      40.355  33.956  38.674  1.00  0.00     0.064 A 
ATOM     41  C   UNL A   1      41.039  35.180  38.717  1.00  0.00     0.173 A 
ATOM     42  C   UNL A   1      39.666  33.549  39.827  1.00  0.00     0.173 A 
ATOM     43  F   UNL A   1      41.723  35.610  37.647  1.00  0.00    -0.203 F 
ATOM     44  C   UNL A   1      41.061  35.948  39.880  1.00  0.00     0.198 A 
ATOM     45  C   UNL A   1      39.665  34.333  40.977  1.00  0.00     0.198 A 
ATOM     46  F   UNL A   1      38.990  32.390  39.838  1.00  0.00    -0.203 F 
ATOM     47  F   UNL A   1      41.767  37.086  39.915  1.00  0.00    -0.200 F 
ATOM     48  C   UNL A   1      40.370  35.527  41.007  1.00  0.00     0.200 A 
ATOM     49  F   UNL A   1      38.988  33.930  42.062  1.00  0.00    -0.200 F 
ATOM     50  F   UNL A   1      40.393  36.266  42.123  1.00  0.00    -0.200 F 
ENDBRANCH  26  40
BRANCH  27  51
ATOM     51  C   UNL A   1      39.976  28.754  30.151  1.00  0.00     0.064 A 
ATOM     52  C   UNL A   1      40.552  29.297  28.995  1.00  0.00     0.173 A 
ATOM     53  C   UNL A   1      39.406  27.476  30.060  1.00  0.00     0.173 A 
ATOM     54  F   UNL A   1      41.093  30.524  29.030  1.00  0.00    -0.203 F 
ATOM     55  C   UNL A   1      40.558  28.590  27.795  1.00  0.00     0.198 A 
ATOM     56  C   UNL A   1      39.435  26.759  28.866  1.00  0.00     0.198 A 
ATOM     57  F   UNL A   1      38.847  26.911  31.140  1.00  0.00    -0.203 F 
ATOM     58  F   UNL A   1      41.093  29.141  26.698  1.00  0.00    -0.200 F 
ATOM     59  C   UNL A   1      40.008  27.318  27.733  1.00  0.00     0.200 A 
ATOM     60  F   UNL A   1      38.917  25.524  28.816  1.00  0.00    -0.200 F 
ATOM     61  F   UNL A   1      40.029  26.631  26.584  1.00  0.00    -0.200 F 
ENDBRANCH  27  51
BRANCH  39  62
ATOM     62  C   UNL A   1      44.436  28.918  35.518  1.00  0.00     0.064 A 
ATOM     63  C   UNL A   1      44.422  27.697  36.207  1.00  0.00     0.173 A 
ATOM     64  C   UNL A   1      45.670  29.401  35.056  1.00  0.00     0.173 A 
ATOM     65  F   UNL A   1      43.269  27.204  36.683  1.00  0.00    -0.203 F 
ATOM     66  C   UNL A   1      45.601  26.992  36.433  1.00  0.00     0.198 A 
ATOM     67  C   UNL A   1      46.842  28.681  35.261  1.00  0.00     0.198 A 
ATOM     68  F   UNL A   1      45.734  30.563  34.387  1.00  0.00    -0.203 F 
ATOM     69  F   UNL A   1      45.571  25.844  37.123  1.00  0.00    -0.200 F 
ATOM     70  C   UNL A   1      46.808  27.480  35.953  1.00  0.00     0.200 A 
ATOM     71  F   UNL A   1      48.005  29.147  34.785  1.00  0.00    -0.200 F 
ATOM     72  F   UNL A   1      47.940  26.792  36.160  1.00  0.00    -0.200 F 
ENDBRANCH  39  62
ENDBRANCH  13  14
ENDBRANCH   6   8
ENDBRANCH   3   4
ENDBRANCH   2   3
ENDBRANCH   1   2
BRANCH   1  73
ATOM     73  C   UNL A   1      34.498  32.394  29.100  1.00  0.00     0.002 C 
BRANCH  73  74
ATOM     74  C   UNL A   1      35.340  31.716  28.018  1.00  0.00     0.021 C 
BRANCH  74  75
ATOM     75  C   UNL A   1      34.923  30.279  27.728  1.00  0.00     0.116 C 
BRANCH  75  76
ATOM     76  N   UNL A   1      33.522  30.159  27.379  1.00  0.00    -0.356 N 
ATOM     77  C   UNL A   1      32.798  29.123  26.875  1.00  0.00     0.229 C 
ATOM     78  H   UNL A   1      32.997  30.977  27.535  1.00  0.00     0.163 HD
ATOM     79  O   UNL A   1      31.579  29.303  26.770  1.00  0.00    -0.274 OA
BRANCH  77  80
ATOM     80  C   UNL A   1      33.402  27.824  26.361  1.00  0.00     0.131 C 
ATOM     81  C   UNL A   1      32.603  26.619  26.871  1.00  0.00     0.154 C 
ATOM     82  C   UNL A   1      33.427  27.607  24.879  1.00  0.00    -0.009 A 
ATOM     83  N   UNL A   1      31.929  26.001  25.663  1.00  0.00    -0.265 N 
ATOM     84  C   UNL A   1      32.598  26.542  24.510  1.00  0.00     0.056 A 
ATOM     85  C   UNL A   1      34.060  28.406  23.932  1.00  0.00     0.007 A 
ATOM     86  C   UNL A   1      32.292  26.351  23.172  1.00  0.00     0.027 A 
ATOM     87  C   UNL A   1      33.798  28.170  22.583  1.00  0.00     0.000 A 
ATOM     88  C   UNL A   1      32.907  27.159  22.208  1.00  0.00     0.002 A 
BRANCH  83  89
ATOM     89  S   UNL A   1      31.682  24.329  25.859  1.00  0.00     0.265 S 
ATOM     90  O   UNL A   1      31.399  24.078  27.260  1.00  0.00    -0.201 OA
ATOM     91  O   UNL A   1      30.744  23.914  24.839  1.00  0.00    -0.201 OA
BRANCH  89  92
ATOM     92  C   UNL A   1      33.214  23.566  25.476  1.00  0.00     0.106 A 
ATOM     93  C   UNL A   1      34.288  23.618  26.368  1.00  0.00     0.027 A 
ATOM     94  C   UNL A   1      33.358  22.884  24.281  1.00  0.00     0.135 A 
ATOM     95  C   UNL A   1      35.497  23.038  25.995  1.00  0.00     0.042 A 
ATOM     96  N   UNL A   1      34.526  22.315  23.894  1.00  0.00    -0.243 NA
ATOM     97  C   UNL A   1      35.562  22.410  24.761  1.00  0.00     0.129 A 
ATOM     98  Cl  UNL A   1      37.025  21.711  24.208  1.00  0.00    -0.062 Cl
ENDBRANCH  89  92
ENDBRANCH  83  89
ENDBRANCH  77  80
ENDBRANCH  75  76
ENDBRANCH  74  75
ENDBRANCH  73  74
ENDBRANCH   1  73
TORSDOF 15
ENDMDL
MODEL 2
REMARK VINA RESULT:     -12.6      6.144     10.797
REMARK SMILES O=C(NCCCCCCNC(=O)[C@H]1CN(S(=O)(=O)c2ccc(Cl)nc2)c2ccccc21)c1ccc(-c2c3nc(c(-c4c(F)c(F)c(F)c(F)c4F)c4ccc([nH]4)c(-c4c(F)c(F)c(F)c(F)c4F)c4nc(c(-c5c(F)c(F)c(F)c(F)c5F)c5ccc2[nH]5)C=C4)C=C3)cc1
REMARK SMILES IDX 6 1 5 2 4 3 3 4 1 5 2 6 32 8 33 9 94 10 34 11 93 12 35 13
REMARK SMILES IDX 36 14 37 15 87 16 38 17 92 18 86 19 88 20 39 21 91 22 85 23
REMARK SMILES IDX 84 24 40 26 72 27 52 28 71 29 53 30 56 31 70 32 89 33 54 34
REMARK SMILES IDX 55 35 69 37 90 38 57 39 41 40 42 41 50 42 43 43 44 44 48 45
REMARK SMILES IDX 51 46 45 47 46 48 49 49 47 50 73 51 74 52 82 53 75 54 76 55
REMARK SMILES IDX 80 56 83 57 77 58 78 59 81 60 79 61 58 62 59 63 67 64 60 65
REMARK SMILES IDX 61 66 65 67 68 68 62 69 63 70 66 71 64 72 7 73 8 74 9 75
REMARK SMILES IDX 10 76 11 77 12 79 13 80 14 81 31 82 15 83 26 84 30 85 27 86
REMARK SMILES IDX 29 87 28 88 16 89 17 90 18 91 19 92 20 93 25 94 21 95 24 96
REMARK SMILES IDX 22 97 23 98
REMARK H PARENT 3 7 88 25 56 36 10 78
REMARK Flexibility Score: inf
ROOT
ATOM      1  C   UNL A   1      37.254  21.019  24.580  1.00  0.00     0.002 C 
ENDROOT
BRANCH   1   2
ATOM      2  C   UNL A   1      38.149  19.824  24.928  1.00  0.00     0.021 C 
BRANCH   2   3
ATOM      3  C   UNL A   1      39.144  20.084  26.056  1.00  0.00     0.116 C 
BRANCH   3   4
ATOM      4  N   UNL A   1      40.271  19.169  25.997  1.00  0.00    -0.352 N 
ATOM      5  O   UNL A   1      42.415  18.554  25.697  1.00  0.00    -0.269 OA
ATOM      6  C   UNL A   1      41.615  19.436  25.992  1.00  0.00     0.251 C 
ATOM      7  H   UNL A   1      40.034  18.215  25.956  1.00  0.00     0.163 HD
BRANCH   6   8
ATOM      8  C   UNL A   1      42.106  20.787  26.332  1.00  0.00     0.039 A 
ATOM      9  C   UNL A   1      42.293  21.755  25.341  1.00  0.00     0.014 A 
ATOM     10  C   UNL A   1      42.328  21.102  27.676  1.00  0.00     0.014 A 
ATOM     11  C   UNL A   1      42.795  23.009  25.682  1.00  0.00     0.010 A 
ATOM     12  C   UNL A   1      42.771  22.378  28.023  1.00  0.00     0.010 A 
ATOM     13  C   UNL A   1      43.026  23.335  27.026  1.00  0.00    -0.014 A 
BRANCH  13  14
ATOM     14  C   UNL A   1      43.484  24.694  27.400  1.00  0.00     0.031 A 
ATOM     15  C   UNL A   1      42.520  25.695  27.962  1.00  0.00     0.074 A 
ATOM     16  C   UNL A   1      44.770  25.031  27.191  1.00  0.00     0.049 A 
ATOM     17  N   UNL A   1      42.714  26.955  28.259  1.00  0.00    -0.248 NA
ATOM     18  C   UNL A   1      41.151  25.222  28.215  1.00  0.00     0.031 C 
ATOM     19  C   UNL A   1      45.795  24.139  26.646  1.00  0.00     0.029 A 
ATOM     20  N   UNL A   1      45.431  26.214  27.398  1.00  0.00    -0.354 N 
ATOM     21  C   UNL A   1      41.491  27.430  28.709  1.00  0.00     0.074 A 
ATOM     22  C   UNL A   1      40.553  26.330  28.628  1.00  0.00     0.031 C 
ATOM     23  C   UNL A   1      46.957  24.804  26.568  1.00  0.00     0.029 A 
ATOM     24  C   UNL A   1      46.744  26.181  27.003  1.00  0.00     0.049 A 
ATOM     25  H   UNL A   1      45.005  27.010  27.792  1.00  0.00     0.167 HD
ATOM     26  C   UNL A   1      41.183  28.673  29.155  1.00  0.00     0.037 A 
ATOM     27  C   UNL A   1      47.668  27.159  26.965  1.00  0.00     0.037 A 
ATOM     28  C   UNL A   1      42.127  29.758  29.241  1.00  0.00     0.049 A 
ATOM     29  C   UNL A   1      47.297  28.536  27.435  1.00  0.00     0.074 A 
ATOM     30  C   UNL A   1      41.926  31.043  29.714  1.00  0.00     0.029 A 
ATOM     31  N   UNL A   1      43.453  29.686  28.834  1.00  0.00    -0.354 N 
ATOM     32  N   UNL A   1      46.147  28.970  27.891  1.00  0.00    -0.248 NA
ATOM     33  C   UNL A   1      48.348  29.559  27.385  1.00  0.00     0.031 C 
ATOM     34  C   UNL A   1      43.115  31.762  29.549  1.00  0.00     0.029 A 
ATOM     35  C   UNL A   1      44.075  30.910  29.024  1.00  0.00     0.049 A 
ATOM     36  H   UNL A   1      43.888  28.883  28.466  1.00  0.00     0.167 HD
ATOM     37  C   UNL A   1      46.340  30.305  28.207  1.00  0.00     0.074 A 
ATOM     38  C   UNL A   1      47.722  30.612  27.894  1.00  0.00     0.031 C 
ATOM     39  C   UNL A   1      45.453  31.195  28.715  1.00  0.00     0.037 A 
BRANCH  26  40
ATOM     40  C   UNL A   1      39.759  28.933  29.557  1.00  0.00     0.064 A 
ATOM     41  C   UNL A   1      38.805  29.396  28.639  1.00  0.00     0.173 A 
ATOM     42  C   UNL A   1      39.341  28.695  30.875  1.00  0.00     0.173 A 
ATOM     43  F   UNL A   1      39.154  29.650  27.370  1.00  0.00    -0.203 F 
ATOM     44  C   UNL A   1      37.492  29.646  29.036  1.00  0.00     0.198 A 
ATOM     45  C   UNL A   1      38.021  28.917  31.260  1.00  0.00     0.198 A 
ATOM     46  F   UNL A   1      40.212  28.245  31.791  1.00  0.00    -0.203 F 
ATOM     47  F   UNL A   1      36.611  30.140  28.156  1.00  0.00    -0.200 F 
ATOM     48  C   UNL A   1      37.100  29.401  30.344  1.00  0.00     0.200 A 
ATOM     49  F   UNL A   1      37.642  28.669  32.522  1.00  0.00    -0.200 F 
ATOM     50  F   UNL A   1      35.839  29.641  30.722  1.00  0.00    -0.200 F 
ENDBRANCH  26  40
BRANCH  27  51
ATOM     51  C   UNL A   1      49.028  26.852  26.457  1.00  0.00     0.064 A 
ATOM     52  C   UNL A   1      50.010  26.319  27.302  1.00  0.00     0.173 A 
ATOM     53  C   UNL A   1      49.357  27.036  25.106  1.00  0.00     0.173 A 
ATOM     54  F   UNL A   1      49.747  26.142  28.606  1.00  0.00    -0.203 F 
ATOM     55  C   UNL A   1      51.271  25.983  26.816  1.00  0.00     0.198 A 
ATOM     56  C   UNL A   1      50.610  26.676  24.615  1.00  0.00     0.198 A 
ATOM     57  F   UNL A   1      48.449  27.537  24.256  1.00  0.00    -0.203 F 
ATOM     58  F   UNL A   1      52.201  25.498  27.649  1.00  0.00    -0.200 F 
ATOM     59  C   UNL A   1      51.568  26.153  25.471  1.00  0.00     0.200 A 
ATOM     60  F   UNL A   1      50.886  26.827  23.313  1.00  0.00    -0.200 F 
ATOM     61  F   UNL A   1      52.775  25.814  25.000  1.00  0.00    -0.200 F 
ENDBRANCH  27  51
BRANCH  39  62
ATOM     62  C   UNL A   1      45.957  32.577  29.010  1.00  0.00     0.064 A 
ATOM     63  C   UNL A   1      45.864  33.612  28.068  1.00  0.00     0.173 A 
ATOM     64  C   UNL A   1      46.485  32.881  30.275  1.00  0.00     0.173 A 
ATOM     65  F   UNL A   1      45.381  33.367  26.841  1.00  0.00    -0.203 F 
ATOM     66  C   UNL A   1      46.294  34.899  28.379  1.00  0.00     0.198 A 
ATOM     67  C   UNL A   1      46.889  34.174  30.589  1.00  0.00     0.198 A 
ATOM     68  F   UNL A   1      46.591  31.925  31.211  1.00  0.00    -0.203 F 
ATOM     69  F   UNL A   1      46.228  35.866  27.454  1.00  0.00    -0.200 F 
ATOM     70  C   UNL A   1      46.798  35.181  29.641  1.00  0.00     0.200 A 
ATOM     71  F   UNL A   1      47.365  34.446  31.813  1.00  0.00    -0.200 F 
ATOM     72  F   UNL A   1      47.199  36.424  29.941  1.00  0.00    -0.200 F 
ENDBRANCH  39  62
ENDBRANCH  13  14
ENDBRANCH   6   8
ENDBRANCH   3   4
ENDBRANCH   2   3
ENDBRANCH   1   2
BRANCH   1  73
ATOM     73  C   UNL A   1      35.864  21.015  25.230  1.00  0.00     0.002 C 
BRANCH  73  74
ATOM     74  C   UNL A   1      34.997  19.795  24.913  1.00  0.00     0.021 C 
BRANCH  74  75
ATOM     75  C   UNL A   1      33.513  20.011  25.189  1.00  0.00     0.116 C 
BRANCH  75  76
ATOM     76  N   UNL A   1      32.755  20.311  23.992  1.00  0.00    -0.356 N 
ATOM     77  C   UNL A   1      32.542  21.475  23.322  1.00  0.00     0.229 C 
ATOM     78  H   UNL A   1      32.313  19.529  23.589  1.00  0.00     0.163 HD
ATOM     79  O   UNL A   1      31.913  21.392  22.260  1.00  0.00    -0.274 OA
BRANCH  77  80
ATOM     80  C   UNL A   1      32.942  22.849  23.839  1.00  0.00     0.131 C 
ATOM     81  C   UNL A   1      33.072  23.845  22.680  1.00  0.00     0.154 C 
ATOM     82  C   UNL A   1      31.999  23.543  24.773  1.00  0.00    -0.009 A 
ATOM     83  N   UNL A   1      31.951  24.851  22.843  1.00  0.00    -0.265 N 
ATOM     84  C   UNL A   1      31.469  24.699  24.189  1.00  0.00     0.056 A 
ATOM     85  C   UNL A   1      31.566  23.081  26.012  1.00  0.00     0.007 A 
ATOM     86  C   UNL A   1      30.393  25.332  24.794  1.00  0.00     0.027 A 
ATOM     87  C   UNL A   1      30.525  23.759  26.645  1.00  0.00     0.000 A 
ATOM     88  C   UNL A   1      29.933  24.867  26.031  1.00  0.00     0.002 A 
BRANCH  83  89
ATOM     89  S   UNL A   1      32.362  26.372  22.200  1.00  0.00     0.265 S 
ATOM     90  O   UNL A   1      33.586  26.219  21.435  1.00  0.00    -0.201 OA
ATOM     91  O   UNL A   1      31.172  26.907  21.577  1.00  0.00    -0.201 OA
BRANCH  89  92
ATOM     92  C   UNL A   1      32.717  27.399  23.577  1.00  0.00     0.106 A 
ATOM     93  C   UNL A   1      33.721  27.063  24.488  1.00  0.00     0.027 A 
ATOM     94  C   UNL A   1      32.004  28.571  23.757  1.00  0.00     0.135 A 
ATOM     95  C   UNL A   1      33.929  27.887  25.590  1.00  0.00     0.042 A 
ATOM     96  N   UNL A   1      32.186  29.387  24.823  1.00  0.00    -0.243 NA
ATOM     97  C   UNL A   1      33.141  29.021  25.710  1.00  0.00     0.129 A 
ATOM     98  Cl  UNL A   1      33.304  30.063  27.060  1.00  0.00    -0.062 Cl
ENDBRANCH  89  92
ENDBRANCH  83  89
ENDBRANCH  77  80
ENDBRANCH  75  76
ENDBRANCH  74  75
ENDBRANCH  73  74
ENDBRANCH   1  73
TORSDOF 15
ENDMDL
MODEL 3
REMARK VINA RESULT:     -12.6      1.766      7.668
REMARK SMILES O=C(NCCCCCCNC(=O)[C@H]1CN(S(=O)(=O)c2ccc(Cl)nc2)c2ccccc21)c1ccc(-c2c3nc(c(-c4c(F)c(F)c(F)c(F)c4F)c4ccc([nH]4)c(-c4c(F)c(F)c(F)c(F)c4F)c4nc(c(-c5c(F)c(F)c(F)c(F)c5F)c5ccc2[nH]5)C=C4)C=C3)cc1
REMARK SMILES IDX 6 1 5 2 4 3 3 4 1 5 2 6 32 8 33 9 94 10 34 11 93 12 35 13
REMARK SMILES IDX 36 14 37 15 87 16 38 17 92 18 86 19 88 20 39 21 91 22 85 23
REMARK SMILES IDX 84 24 40 26 72 27 52 28 71 29 53 30 56 31 70 32 89 33 54 34
REMARK SMILES IDX 55 35 69 37 90 38 57 39 41 40 42 41 50 42 43 43 44 44 48 45
REMARK SMILES IDX 51 46 45 47 46 48 49 49 47 50 73 51 74 52 82 53 75 54 76 55
REMARK SMILES IDX 80 56 83 57 77 58 78 59 81 60 79 61 58 62 59 63 67 64 60 65
REMARK SMILES IDX 61 66 65 67 68 68 62 69 63 70 66 71 64 72 7 73 8 74 9 75
REMARK SMILES IDX 10 76 11 77 12 79 13 80 14 81 31 82 15 83 26 84 30 85 27 86
REMARK SMILES IDX 29 87 28 88 16 89 17 90 18 91 19 92 20 93 25 94 21 95 24 96
REMARK SMILES IDX 22 97 23 98
REMARK H PARENT 3 7 88 25 56 36 10 78
REMARK Flexibility Score: inf
ROOT
ATOM      1  C   UNL A   1      31.359  30.868  25.902  1.00  0.00     0.002 C 
ENDROOT
BRANCH   1   2
ATOM      2  C   UNL A   1      31.246  32.294  26.453  1.00  0.00     0.021 C 
BRANCH   2   3
ATOM      3  C   UNL A   1      32.476  32.778  27.215  1.00  0.00     0.116 C 
BRANCH   3   4
ATOM      4  N   UNL A   1      32.341  34.167  27.623  1.00  0.00    -0.352 N 
ATOM      5  O   UNL A   1      32.550  35.947  28.984  1.00  0.00    -0.269 OA
ATOM      6  C   UNL A   1      32.964  34.845  28.636  1.00  0.00     0.251 C 
ATOM      7  H   UNL A   1      31.707  34.699  27.091  1.00  0.00     0.163 HD
BRANCH   6   8
ATOM      8  C   UNL A   1      34.133  34.252  29.319  1.00  0.00     0.039 A 
ATOM      9  C   UNL A   1      33.969  33.406  30.419  1.00  0.00     0.014 A 
ATOM     10  C   UNL A   1      35.409  34.507  28.810  1.00  0.00     0.014 A 
ATOM     11  C   UNL A   1      35.086  32.891  31.072  1.00  0.00     0.010 A 
ATOM     12  C   UNL A   1      36.525  33.941  29.426  1.00  0.00     0.010 A 
ATOM     13  C   UNL A   1      36.372  33.144  30.573  1.00  0.00    -0.014 A 
BRANCH  13  14
ATOM     14  C   UNL A   1      37.560  32.533  31.217  1.00  0.00     0.031 A 
ATOM     15  C   UNL A   1      38.304  31.420  30.542  1.00  0.00     0.074 A 
ATOM     16  C   UNL A   1      37.938  32.964  32.434  1.00  0.00     0.049 A 
ATOM     17  N   UNL A   1      39.303  30.703  30.988  1.00  0.00    -0.248 NA
ATOM     18  C   UNL A   1      37.860  31.057  29.188  1.00  0.00     0.031 C 
ATOM     19  C   UNL A   1      37.286  34.037  33.185  1.00  0.00     0.029 A 
ATOM     20  N   UNL A   1      38.950  32.545  33.258  1.00  0.00    -0.354 N 
ATOM     21  C   UNL A   1      39.592  29.790  29.984  1.00  0.00     0.074 A 
ATOM     22  C   UNL A   1      38.649  30.028  28.912  1.00  0.00     0.031 C 
ATOM     23  C   UNL A   1      37.918  34.198  34.358  1.00  0.00     0.029 A 
ATOM     24  C   UNL A   1      38.981  33.203  34.462  1.00  0.00     0.049 A 
ATOM     25  H   UNL A   1      39.593  31.841  33.011  1.00  0.00     0.167 HD
ATOM     26  C   UNL A   1      40.561  28.842  29.962  1.00  0.00     0.037 A 
ATOM     27  C   UNL A   1      39.757  33.007  35.543  1.00  0.00     0.037 A 
ATOM     28  C   UNL A   1      41.500  28.620  31.031  1.00  0.00     0.049 A 
ATOM     29  C   UNL A   1      40.804  31.931  35.507  1.00  0.00     0.074 A 
ATOM     30  C   UNL A   1      42.544  27.713  31.091  1.00  0.00     0.029 A 
ATOM     31  N   UNL A   1      41.503  29.310  32.236  1.00  0.00    -0.354 N 
ATOM     32  N   UNL A   1      41.093  31.093  34.541  1.00  0.00    -0.248 NA
ATOM     33  C   UNL A   1      41.632  31.771  36.709  1.00  0.00     0.031 C 
ATOM     34  C   UNL A   1      43.146  27.820  32.348  1.00  0.00     0.029 A 
ATOM     35  C   UNL A   1      42.515  28.833  33.054  1.00  0.00     0.049 A 
ATOM     36  H   UNL A   1      40.878  30.033  32.474  1.00  0.00     0.167 HD
ATOM     37  C   UNL A   1      42.150  30.326  35.004  1.00  0.00     0.074 A 
ATOM     38  C   UNL A   1      42.457  30.800  36.339  1.00  0.00     0.031 C 
ATOM     39  C   UNL A   1      42.811  29.322  34.377  1.00  0.00     0.037 A 
BRANCH  26  40
ATOM     40  C   UNL A   1      40.634  27.955  28.752  1.00  0.00     0.064 A 
ATOM     41  C   UNL A   1      39.919  26.751  28.673  1.00  0.00     0.173 A 
ATOM     42  C   UNL A   1      41.418  28.326  27.648  1.00  0.00     0.173 A 
ATOM     43  F   UNL A   1      39.164  26.344  29.704  1.00  0.00    -0.203 F 
ATOM     44  C   UNL A   1      40.012  25.934  27.547  1.00  0.00     0.198 A 
ATOM     45  C   UNL A   1      41.486  27.522  26.513  1.00  0.00     0.198 A 
ATOM     46  F   UNL A   1      42.118  29.470  27.669  1.00  0.00    -0.203 F 
ATOM     47  F   UNL A   1      39.363  24.763  27.516  1.00  0.00    -0.200 F 
ATOM     48  C   UNL A   1      40.791  26.323  26.467  1.00  0.00     0.200 A 
ATOM     49  F   UNL A   1      42.230  27.904  25.466  1.00  0.00    -0.200 F 
ATOM     50  F   UNL A   1      40.880  25.536  25.387  1.00  0.00    -0.200 F 
ENDBRANCH  26  40
BRANCH  27  51
ATOM     51  C   UNL A   1      39.557  33.856  36.743  1.00  0.00     0.064 A 
ATOM     52  C   UNL A   1      38.756  33.424  37.807  1.00  0.00     0.173 A 
ATOM     53  C   UNL A   1      40.205  35.094  36.872  1.00  0.00     0.173 A 
ATOM     54  F   UNL A   1      38.102  32.256  37.721  1.00  0.00    -0.203 F 
ATOM     55  C   UNL A   1      38.607  34.199  38.955  1.00  0.00     0.198 A 
ATOM     56  C   UNL A   1      40.077  35.856  38.031  1.00  0.00     0.198 A 
ATOM     57  F   UNL A   1      40.989  35.548  35.882  1.00  0.00    -0.203 F 
ATOM     58  F   UNL A   1      37.815  33.775  39.949  1.00  0.00    -0.200 F 
ATOM     59  C   UNL A   1      39.275  35.409  39.070  1.00  0.00     0.200 A 
ATOM     60  F   UNL A   1      40.737  37.016  38.144  1.00  0.00    -0.200 F 
ATOM     61  F   UNL A   1      39.146  36.146  40.182  1.00  0.00    -0.200 F 
ENDBRANCH  27  51
BRANCH  39  62
ATOM     62  C   UNL A   1      43.962  28.694  35.106  1.00  0.00     0.064 A 
ATOM     63  C   UNL A   1      45.262  29.212  35.017  1.00  0.00     0.173 A 
ATOM     64  C   UNL A   1      43.745  27.594  35.951  1.00  0.00     0.173 A 
ATOM     65  F   UNL A   1      45.521  30.251  34.210  1.00  0.00    -0.203 F 
ATOM     66  C   UNL A   1      46.307  28.642  35.739  1.00  0.00     0.198 A 
ATOM     67  C   UNL A   1      44.787  27.045  36.691  1.00  0.00     0.198 A 
ATOM     68  F   UNL A   1      42.517  27.066  36.073  1.00  0.00    -0.203 F 
ATOM     69  F   UNL A   1      47.548  29.129  35.615  1.00  0.00    -0.200 F 
ATOM     70  C   UNL A   1      46.067  27.565  36.581  1.00  0.00     0.200 A 
ATOM     71  F   UNL A   1      44.551  26.013  37.514  1.00  0.00    -0.200 F 
ATOM     72  F   UNL A   1      47.073  27.028  37.286  1.00  0.00    -0.200 F 
ENDBRANCH  39  62
ENDBRANCH  13  14
ENDBRANCH   6   8
ENDBRANCH   3   4
ENDBRANCH   2   3
ENDBRANCH   1   2
BRANCH   1  73
ATOM     73  C   UNL A   1      32.042  29.853  26.830  1.00  0.00     0.002 C 
BRANCH  73  74
ATOM     74  C   UNL A   1      32.017  28.403  26.344  1.00  0.00     0.021 C 
BRANCH  74  75
ATOM     75  C   UNL A   1      33.385  27.875  25.927  1.00  0.00     0.116 C 
BRANCH  75  76
ATOM     76  N   UNL A   1      33.951  28.600  24.807  1.00  0.00    -0.356 N 
ATOM     77  C   UNL A   1      33.810  28.446  23.463  1.00  0.00     0.229 C 
ATOM     78  H   UNL A   1      34.547  29.339  25.067  1.00  0.00     0.163 HD
ATOM     79  O   UNL A   1      34.359  29.296  22.752  1.00  0.00    -0.274 OA
BRANCH  77  80
ATOM     80  C   UNL A   1      33.113  27.267  22.802  1.00  0.00     0.131 C 
ATOM     81  C   UNL A   1      33.668  25.942  23.338  1.00  0.00     0.154 C 
ATOM     82  C   UNL A   1      31.637  27.122  23.014  1.00  0.00    -0.009 A 
ATOM     83  N   UNL A   1      32.553  25.292  24.133  1.00  0.00    -0.265 N 
ATOM     84  C   UNL A   1      31.343  25.971  23.754  1.00  0.00     0.056 A 
ATOM     85  C   UNL A   1      30.653  28.042  22.666  1.00  0.00     0.007 A 
ATOM     86  C   UNL A   1      30.066  25.801  24.266  1.00  0.00     0.027 A 
ATOM     87  C   UNL A   1      29.356  27.833  23.132  1.00  0.00     0.000 A 
ATOM     88  C   UNL A   1      29.069  26.728  23.941  1.00  0.00     0.002 A 
BRANCH  83  89
ATOM     89  S   UNL A   1      32.674  23.595  24.127  1.00  0.00     0.265 S 
ATOM     90  O   UNL A   1      31.858  23.083  25.213  1.00  0.00    -0.201 OA
ATOM     91  O   UNL A   1      32.442  23.156  22.768  1.00  0.00    -0.201 OA
BRANCH  89  92
ATOM     92  C   UNL A   1      34.349  23.229  24.497  1.00  0.00     0.106 A 
ATOM     93  C   UNL A   1      35.217  22.752  23.512  1.00  0.00     0.027 A 
ATOM     94  C   UNL A   1      34.826  23.432  25.779  1.00  0.00     0.135 A 
ATOM     95  C   UNL A   1      36.523  22.430  23.869  1.00  0.00     0.042 A 
ATOM     96  N   UNL A   1      36.092  23.122  26.152  1.00  0.00    -0.243 NA
ATOM     97  C   UNL A   1      36.903  22.629  25.187  1.00  0.00     0.129 A 
ATOM     98  Cl  UNL A   1      38.479  22.216  25.717  1.00  0.00    -0.062 Cl
ENDBRANCH  89  92
ENDBRANCH  83  89
ENDBRANCH  77  80
ENDBRANCH  75  76
ENDBRANCH  74  75
ENDBRANCH  73  74
ENDBRANCH   1  73
TORSDOF 15
ENDMDL
