MODEL 1
REMARK VINA RESULT:     -12.4      0.000      0.000
REMARK SMILES Nc1ncc(C(=O)NCCCCCCNC(=O)c2ccc(-c3c4nc(c(-c5c(F)c(F)c(F)c(F)c5F)c5ccc([nH]5)c(-c5c(F)c(F)c(F)c(F)c5F)c5nc(c(-c6c(F)c(F)c(F)c(F)c6F)c6ccc3[nH]6)C=C5)C=C4)cc2)c(-c2ccccc2)n1
REMARK SMILES IDX 12 1 11 2 10 3 9 4 8 5 6 6 7 7 5 9 2 10 3 11 88 12 4 13
REMARK SMILES IDX 81 14 1 15 82 18 83 19 87 20 84 21 86 22 85 23 13 24 14 25
REMARK SMILES IDX 15 26 16 27 17 29 18 30 19 31 80 32 20 33 79 34 21 35 22 36
REMARK SMILES IDX 23 37 73 38 24 39 78 40 72 41 74 42 25 43 77 44 71 45 70 46
REMARK SMILES IDX 26 48 58 49 38 50 57 51 39 52 42 53 56 54 75 55 40 56 41 57
REMARK SMILES IDX 55 59 76 60 43 61 27 62 28 63 36 64 29 65 30 66 34 67 37 68
REMARK SMILES IDX 31 69 32 70 35 71 33 72 59 73 60 74 68 75 61 76 62 77 66 78
REMARK SMILES IDX 69 79 63 80 64 81 67 82 65 83 44 84 45 85 53 86 46 87 47 88
REMARK SMILES IDX 51 89 54 90 48 91 49 92 52 93 50 94
REMARK H PARENT 8 8 1 16 1 17 15 28 74 47 42 58
REMARK Flexibility Score: inf
ROOT
ATOM      1  C   UNL A   1      31.303  31.095  25.936  1.00  0.00     0.002 C 
ENDROOT
BRANCH   1   2
ATOM      2  C   UNL A   1      32.462  30.171  26.325  1.00  0.00     0.002 C 
BRANCH   2   3
ATOM      3  C   UNL A   1      32.204  28.987  27.261  1.00  0.00     0.021 C 
BRANCH   3   4
ATOM      4  C   UNL A   1      32.266  27.579  26.682  1.00  0.00     0.116 C 
BRANCH   4   5
ATOM      5  N   UNL A   1      31.025  26.849  26.650  1.00  0.00    -0.352 N 
ATOM      6  C   UNL A   1      30.395  26.187  25.623  1.00  0.00     0.255 C 
ATOM      7  O   UNL A   1      29.361  25.580  25.920  1.00  0.00    -0.269 OA
ATOM      8  H   UNL A   1      30.547  26.817  27.510  1.00  0.00     0.163 HD
BRANCH   6   9
ATOM      9  C   UNL A   1      30.789  26.196  24.190  1.00  0.00     0.084 A 
ATOM     10  C   UNL A   1      31.860  25.923  21.672  1.00  0.00     0.220 A 
ATOM     11  N   UNL A   1      32.282  25.084  22.610  1.00  0.00    -0.221 NA
ATOM     12  N   UNL A   1      30.959  26.877  21.881  1.00  0.00    -0.212 NA
ATOM     13  C   UNL A   1      31.741  25.246  23.842  1.00  0.00     0.131 A 
ATOM     14  C   UNL A   1      30.437  27.025  23.136  1.00  0.00     0.089 A 
BRANCH  10  15
ATOM     15  N   UNL A   1      32.387  25.813  20.420  1.00  0.00    -0.368 N 
ATOM     16  H   UNL A   1      31.865  26.105  19.638  1.00  0.00     0.159 HD
ATOM     17  H   UNL A   1      33.291  25.442  20.297  1.00  0.00     0.159 HD
ENDBRANCH  10  15
BRANCH  14  18
ATOM     18  C   UNL A   1      29.503  28.154  23.166  1.00  0.00     0.001 A 
ATOM     19  C   UNL A   1      29.932  29.488  23.110  1.00  0.00     0.010 A 
ATOM     20  C   UNL A   1      28.115  27.900  23.207  1.00  0.00     0.010 A 
ATOM     21  C   UNL A   1      29.002  30.532  23.154  1.00  0.00     0.001 A 
ATOM     22  C   UNL A   1      27.190  28.942  23.269  1.00  0.00     0.001 A 
ATOM     23  C   UNL A   1      27.636  30.259  23.247  1.00  0.00     0.000 A 
ENDBRANCH  14  18
ENDBRANCH   6   9
ENDBRANCH   4   5
ENDBRANCH   3   4
ENDBRANCH   2   3
ENDBRANCH   1   2
BRANCH   1  24
ATOM     24  C   UNL A   1      31.260  32.517  26.499  1.00  0.00     0.021 C 
BRANCH  24  25
ATOM     25  C   UNL A   1      32.512  33.062  27.179  1.00  0.00     0.116 C 
BRANCH  25  26
ATOM     26  N   UNL A   1      32.340  34.388  27.738  1.00  0.00    -0.352 N 
ATOM     27  C   UNL A   1      33.034  35.031  28.730  1.00  0.00     0.251 C 
ATOM     28  H   UNL A   1      31.607  34.912  27.340  1.00  0.00     0.163 HD
ATOM     29  O   UNL A   1      32.657  36.144  29.102  1.00  0.00    -0.269 OA
BRANCH  27  30
ATOM     30  C   UNL A   1      34.213  34.416  29.394  1.00  0.00     0.039 A 
ATOM     31  C   UNL A   1      34.012  33.758  30.614  1.00  0.00     0.014 A 
ATOM     32  C   UNL A   1      35.510  34.534  28.886  1.00  0.00     0.014 A 
ATOM     33  C   UNL A   1      35.090  33.181  31.294  1.00  0.00     0.010 A 
ATOM     34  C   UNL A   1      36.582  33.915  29.541  1.00  0.00     0.010 A 
ATOM     35  C   UNL A   1      36.383  33.234  30.754  1.00  0.00    -0.014 A 
BRANCH  35  36
ATOM     36  C   UNL A   1      37.530  32.594  31.453  1.00  0.00     0.031 A 
ATOM     37  C   UNL A   1      38.267  31.445  30.820  1.00  0.00     0.074 A 
ATOM     38  C   UNL A   1      37.892  33.022  32.679  1.00  0.00     0.049 A 
ATOM     39  N   UNL A   1      39.253  30.727  31.301  1.00  0.00    -0.248 NA
ATOM     40  C   UNL A   1      37.830  31.040  29.476  1.00  0.00     0.031 C 
ATOM     41  C   UNL A   1      37.251  34.109  33.417  1.00  0.00     0.029 A 
ATOM     42  N   UNL A   1      38.883  32.584  33.524  1.00  0.00    -0.354 N 
ATOM     43  C   UNL A   1      39.546  29.783  30.326  1.00  0.00     0.074 A 
ATOM     44  C   UNL A   1      38.610  29.994  29.241  1.00  0.00     0.031 C 
ATOM     45  C   UNL A   1      37.868  34.260  34.600  1.00  0.00     0.029 A 
ATOM     46  C   UNL A   1      38.928  33.262  34.717  1.00  0.00     0.049 A 
ATOM     47  H   UNL A   1      39.502  31.854  33.296  1.00  0.00     0.167 HD
ATOM     48  C   UNL A   1      40.516  28.836  30.326  1.00  0.00     0.037 A 
ATOM     49  C   UNL A   1      39.727  33.095  35.790  1.00  0.00     0.037 A 
ATOM     50  C   UNL A   1      41.467  28.637  31.390  1.00  0.00     0.049 A 
ATOM     51  C   UNL A   1      40.789  32.030  35.768  1.00  0.00     0.074 A 
ATOM     52  C   UNL A   1      42.514  27.733  31.453  1.00  0.00     0.029 A 
ATOM     53  N   UNL A   1      41.485  29.353  32.576  1.00  0.00    -0.354 N 
ATOM     54  N   UNL A   1      41.085  31.177  34.819  1.00  0.00    -0.248 NA
ATOM     55  C   UNL A   1      41.632  31.909  36.966  1.00  0.00     0.031 C 
ATOM     56  C   UNL A   1      43.145  27.879  32.693  1.00  0.00     0.029 A 
ATOM     57  C   UNL A   1      42.517  28.900  33.385  1.00  0.00     0.049 A 
ATOM     58  H   UNL A   1      40.861  30.076  32.810  1.00  0.00     0.167 HD
ATOM     59  C   UNL A   1      42.161  30.437  35.293  1.00  0.00     0.074 A 
ATOM     60  C   UNL A   1      42.475  30.950  36.609  1.00  0.00     0.031 C 
ATOM     61  C   UNL A   1      42.827  29.423  34.689  1.00  0.00     0.037 A 
BRANCH  48  62
ATOM     62  C   UNL A   1      40.608  27.937  29.129  1.00  0.00     0.064 A 
ATOM     63  C   UNL A   1      39.802  26.796  29.008  1.00  0.00     0.173 A 
ATOM     64  C   UNL A   1      41.468  28.251  28.066  1.00  0.00     0.173 A 
ATOM     65  F   UNL A   1      38.971  26.449  30.003  1.00  0.00    -0.203 F 
ATOM     66  C   UNL A   1      39.867  25.989  27.875  1.00  0.00     0.198 A 
ATOM     67  C   UNL A   1      41.513  27.457  26.923  1.00  0.00     0.198 A 
ATOM     68  F   UNL A   1      42.254  29.336  28.129  1.00  0.00    -0.203 F 
ATOM     69  F   UNL A   1      39.113  24.885  27.796  1.00  0.00    -0.200 F 
ATOM     70  C   UNL A   1      40.716  26.325  26.831  1.00  0.00     0.200 A 
ATOM     71  F   UNL A   1      42.325  27.787  25.910  1.00  0.00    -0.200 F 
ATOM     72  F   UNL A   1      40.772  25.553  25.736  1.00  0.00    -0.200 F 
ENDBRANCH  48  62
BRANCH  49  73
ATOM     73  C   UNL A   1      39.561  33.969  36.980  1.00  0.00     0.064 A 
ATOM     74  C   UNL A   1      40.179  35.225  37.039  1.00  0.00     0.173 A 
ATOM     75  C   UNL A   1      38.800  33.560  38.083  1.00  0.00     0.173 A 
ATOM     76  F   UNL A   1      40.939  35.648  36.018  1.00  0.00    -0.203 F 
ATOM     77  C   UNL A   1      40.057  36.033  38.168  1.00  0.00     0.198 A 
ATOM     78  C   UNL A   1      38.657  34.379  39.201  1.00  0.00     0.198 A 
ATOM     79  F   UNL A   1      38.189  32.366  38.073  1.00  0.00    -0.203 F 
ATOM     80  F   UNL A   1      40.693  37.211  38.219  1.00  0.00    -0.200 F 
ATOM     81  C   UNL A   1      39.292  35.612  39.245  1.00  0.00     0.200 A 
ATOM     82  F   UNL A   1      37.909  33.973  40.235  1.00  0.00    -0.200 F 
ATOM     83  F   UNL A   1      39.173  36.389  40.331  1.00  0.00    -0.200 F 
ENDBRANCH  49  73
BRANCH  61  84
ATOM     84  C   UNL A   1      43.982  28.821  35.432  1.00  0.00     0.064 A 
ATOM     85  C   UNL A   1      45.291  29.294  35.261  1.00  0.00     0.173 A 
ATOM     86  C   UNL A   1      43.771  27.783  36.352  1.00  0.00     0.173 A 
ATOM     87  F   UNL A   1      45.544  30.274  34.380  1.00  0.00    -0.203 F 
ATOM     88  C   UNL A   1      46.351  28.735  35.970  1.00  0.00     0.198 A 
ATOM     89  C   UNL A   1      44.831  27.243  37.077  1.00  0.00     0.198 A 
ATOM     90  F   UNL A   1      42.537  27.299  36.556  1.00  0.00    -0.203 F 
ATOM     91  F   UNL A   1      47.600  29.175  35.761  1.00  0.00    -0.200 F 
ATOM     92  C   UNL A   1      46.120  27.716  36.882  1.00  0.00     0.200 A 
ATOM     93  F   UNL A   1      44.604  26.265  37.964  1.00  0.00    -0.200 F 
ATOM     94  F   UNL A   1      47.141  27.183  37.565  1.00  0.00    -0.200 F 
ENDBRANCH  61  84
ENDBRANCH  35  36
ENDBRANCH  27  30
ENDBRANCH  25  26
ENDBRANCH  24  25
ENDBRANCH   1  24
TORSDOF 15
ENDMDL
MODEL 2
REMARK VINA RESULT:     -12.4      0.337      1.713
REMARK SMILES Nc1ncc(C(=O)NCCCCCCNC(=O)c2ccc(-c3c4nc(c(-c5c(F)c(F)c(F)c(F)c5F)c5ccc([nH]5)c(-c5c(F)c(F)c(F)c(F)c5F)c5nc(c(-c6c(F)c(F)c(F)c(F)c6F)c6ccc3[nH]6)C=C5)C=C4)cc2)c(-c2ccccc2)n1
REMARK SMILES IDX 12 1 11 2 10 3 9 4 8 5 6 6 7 7 5 9 2 10 3 11 88 12 4 13
REMARK SMILES IDX 81 14 1 15 82 18 83 19 87 20 84 21 86 22 85 23 13 24 14 25
REMARK SMILES IDX 15 26 16 27 17 29 18 30 19 31 80 32 20 33 79 34 21 35 22 36
REMARK SMILES IDX 23 37 73 38 24 39 78 40 72 41 74 42 25 43 77 44 71 45 70 46
REMARK SMILES IDX 26 48 58 49 38 50 57 51 39 52 42 53 56 54 75 55 40 56 41 57
REMARK SMILES IDX 55 59 76 60 43 61 27 62 28 63 36 64 29 65 30 66 34 67 37 68
REMARK SMILES IDX 31 69 32 70 35 71 33 72 59 73 60 74 68 75 61 76 62 77 66 78
REMARK SMILES IDX 69 79 63 80 64 81 67 82 65 83 44 84 45 85 53 86 46 87 47 88
REMARK SMILES IDX 51 89 54 90 48 91 49 92 52 93 50 94
REMARK H PARENT 8 8 1 16 1 17 15 28 74 47 42 58
REMARK Flexibility Score: inf
ROOT
ATOM      1  C   UNL A   1      31.347  30.811  26.053  1.00  0.00     0.002 C 
ENDROOT
BRANCH   1   2
ATOM      2  C   UNL A   1      32.658  30.033  26.199  1.00  0.00     0.002 C 
BRANCH   2   3
ATOM      3  C   UNL A   1      32.726  28.836  27.153  1.00  0.00     0.021 C 
BRANCH   3   4
ATOM      4  C   UNL A   1      32.636  27.434  26.563  1.00  0.00     0.116 C 
BRANCH   4   5
ATOM      5  N   UNL A   1      31.330  26.827  26.561  1.00  0.00    -0.352 N 
ATOM      6  C   UNL A   1      30.608  26.244  25.547  1.00  0.00     0.255 C 
ATOM      7  O   UNL A   1      29.530  25.735  25.869  1.00  0.00    -0.269 OA
ATOM      8  H   UNL A   1      30.877  26.828  27.436  1.00  0.00     0.163 HD
BRANCH   6   9
ATOM      9  C   UNL A   1      30.958  26.237  24.102  1.00  0.00     0.084 A 
ATOM     10  C   UNL A   1      31.963  25.951  21.559  1.00  0.00     0.220 A 
ATOM     11  N   UNL A   1      32.449  25.153  22.501  1.00  0.00    -0.221 NA
ATOM     12  N   UNL A   1      31.028  26.870  21.775  1.00  0.00    -0.212 NA
ATOM     13  C   UNL A   1      31.939  25.320  23.746  1.00  0.00     0.131 A 
ATOM     14  C   UNL A   1      30.539  27.025  23.042  1.00  0.00     0.089 A 
BRANCH  10  15
ATOM     15  N   UNL A   1      32.456  25.835  20.294  1.00  0.00    -0.368 N 
ATOM     16  H   UNL A   1      33.242  25.268  20.121  1.00  0.00     0.159 HD
ATOM     17  H   UNL A   1      32.026  26.319  19.552  1.00  0.00     0.159 HD
ENDBRANCH  10  15
BRANCH  14  18
ATOM     18  C   UNL A   1      29.558  28.114  23.076  1.00  0.00     0.001 A 
ATOM     19  C   UNL A   1      28.176  27.881  23.127  1.00  0.00     0.010 A 
ATOM     20  C   UNL A   1      30.012  29.450  23.104  1.00  0.00     0.010 A 
ATOM     21  C   UNL A   1      27.279  28.954  23.147  1.00  0.00     0.001 A 
ATOM     22  C   UNL A   1      29.116  30.519  23.105  1.00  0.00     0.001 A 
ATOM     23  C   UNL A   1      27.748  30.269  23.122  1.00  0.00     0.000 A 
ENDBRANCH  14  18
ENDBRANCH   6   9
ENDBRANCH   4   5
ENDBRANCH   3   4
ENDBRANCH   2   3
ENDBRANCH   1   2
BRANCH   1  24
ATOM     24  C   UNL A   1      31.276  32.256  26.552  1.00  0.00     0.021 C 
BRANCH  24  25
ATOM     25  C   UNL A   1      32.564  32.916  27.036  1.00  0.00     0.116 C 
BRANCH  25  26
ATOM     26  N   UNL A   1      32.360  34.223  27.627  1.00  0.00    -0.352 N 
ATOM     27  C   UNL A   1      33.040  34.858  28.636  1.00  0.00     0.251 C 
ATOM     28  H   UNL A   1      31.615  34.739  27.243  1.00  0.00     0.163 HD
ATOM     29  O   UNL A   1      32.636  35.951  29.035  1.00  0.00    -0.269 OA
BRANCH  27  30
ATOM     30  C   UNL A   1      34.233  34.255  29.284  1.00  0.00     0.039 A 
ATOM     31  C   UNL A   1      34.025  33.348  30.332  1.00  0.00     0.014 A 
ATOM     32  C   UNL A   1      35.539  34.612  28.938  1.00  0.00     0.014 A 
ATOM     33  C   UNL A   1      35.113  32.768  30.993  1.00  0.00     0.010 A 
ATOM     34  C   UNL A   1      36.628  33.995  29.566  1.00  0.00     0.010 A 
ATOM     35  C   UNL A   1      36.426  33.069  30.603  1.00  0.00    -0.014 A 
BRANCH  35  36
ATOM     36  C   UNL A   1      37.589  32.431  31.277  1.00  0.00     0.031 A 
ATOM     37  C   UNL A   1      38.339  31.309  30.612  1.00  0.00     0.074 A 
ATOM     38  C   UNL A   1      37.954  32.835  32.511  1.00  0.00     0.049 A 
ATOM     39  N   UNL A   1      39.339  30.596  31.068  1.00  0.00    -0.248 NA
ATOM     40  C   UNL A   1      37.897  30.929  29.263  1.00  0.00     0.031 C 
ATOM     41  C   UNL A   1      37.302  33.895  33.279  1.00  0.00     0.029 A 
ATOM     42  N   UNL A   1      38.959  32.394  33.338  1.00  0.00    -0.354 N 
ATOM     43  C   UNL A   1      39.640  29.680  30.069  1.00  0.00     0.074 A 
ATOM     44  C   UNL A   1      38.692  29.901  28.996  1.00  0.00     0.031 C 
ATOM     45  C   UNL A   1      37.926  34.028  34.460  1.00  0.00     0.029 A 
ATOM     46  C   UNL A   1      39.003  33.045  34.546  1.00  0.00     0.049 A 
ATOM     47  H   UNL A   1      39.587  31.679  33.088  1.00  0.00     0.167 HD
ATOM     48  C   UNL A   1      40.625  28.749  30.039  1.00  0.00     0.037 A 
ATOM     49  C   UNL A   1      39.813  32.865  35.608  1.00  0.00     0.037 A 
ATOM     50  C   UNL A   1      41.587  28.540  31.090  1.00  0.00     0.049 A 
ATOM     51  C   UNL A   1      40.891  31.818  35.552  1.00  0.00     0.074 A 
ATOM     52  C   UNL A   1      42.649  27.652  31.124  1.00  0.00     0.029 A 
ATOM     53  N   UNL A   1      41.604  29.228  32.293  1.00  0.00    -0.354 N 
ATOM     54  N   UNL A   1      41.193  30.992  34.581  1.00  0.00    -0.248 NA
ATOM     55  C   UNL A   1      41.746  31.683  36.741  1.00  0.00     0.031 C 
ATOM     56  C   UNL A   1      43.288  27.779  32.362  1.00  0.00     0.029 A 
ATOM     57  C   UNL A   1      42.649  28.773  33.083  1.00  0.00     0.049 A 
ATOM     58  H   UNL A   1      40.970  29.936  32.549  1.00  0.00     0.167 HD
ATOM     59  C   UNL A   1      42.284  30.259  35.029  1.00  0.00     0.074 A 
ATOM     60  C   UNL A   1      42.601  30.746  36.355  1.00  0.00     0.031 C 
ATOM     61  C   UNL A   1      42.961  29.270  34.397  1.00  0.00     0.037 A 
BRANCH  48  62
ATOM     62  C   UNL A   1      40.721  27.879  28.821  1.00  0.00     0.064 A 
ATOM     63  C   UNL A   1      39.966  26.703  28.700  1.00  0.00     0.173 A 
ATOM     64  C   UNL A   1      41.530  28.256  27.739  1.00  0.00     0.173 A 
ATOM     65  F   UNL A   1      39.184  26.297  29.712  1.00  0.00    -0.203 F 
ATOM     66  C   UNL A   1      40.033  25.924  27.548  1.00  0.00     0.198 A 
ATOM     67  C   UNL A   1      41.577  27.488  26.578  1.00  0.00     0.198 A 
ATOM     68  F   UNL A   1      42.266  29.376  27.801  1.00  0.00    -0.203 F 
ATOM     69  F   UNL A   1      39.331  24.786  27.469  1.00  0.00    -0.200 F 
ATOM     70  C   UNL A   1      40.832  26.321  26.486  1.00  0.00     0.200 A 
ATOM     71  F   UNL A   1      42.340  27.877  25.548  1.00  0.00    -0.200 F 
ATOM     72  F   UNL A   1      40.889  25.575  25.373  1.00  0.00    -0.200 F 
ENDBRANCH  48  62
BRANCH  49  73
ATOM     73  C   UNL A   1      39.643  33.709  36.819  1.00  0.00     0.064 A 
ATOM     74  C   UNL A   1      38.780  33.319  37.851  1.00  0.00     0.173 A 
ATOM     75  C   UNL A   1      40.326  34.924  36.960  1.00  0.00     0.173 A 
ATOM     76  F   UNL A   1      38.086  32.175  37.748  1.00  0.00    -0.203 F 
ATOM     77  C   UNL A   1      38.590  34.124  38.973  1.00  0.00     0.198 A 
ATOM     78  C   UNL A   1      40.155  35.717  38.093  1.00  0.00     0.198 A 
ATOM     79  F   UNL A   1      41.164  35.340  35.999  1.00  0.00    -0.203 F 
ATOM     80  F   UNL A   1      37.726  33.750  39.925  1.00  0.00    -0.200 F 
ATOM     81  C   UNL A   1      39.282  35.319  39.095  1.00  0.00     0.200 A 
ATOM     82  F   UNL A   1      40.833  36.866  38.212  1.00  0.00    -0.200 F 
ATOM     83  F   UNL A   1      39.101  36.094  40.174  1.00  0.00    -0.200 F 
ENDBRANCH  49  73
BRANCH  61  84
ATOM     84  C   UNL A   1      44.132  28.669  35.116  1.00  0.00     0.064 A 
ATOM     85  C   UNL A   1      43.986  27.554  35.952  1.00  0.00     0.173 A 
ATOM     86  C   UNL A   1      45.421  29.195  34.937  1.00  0.00     0.173 A 
ATOM     87  F   UNL A   1      42.770  27.026  36.166  1.00  0.00    -0.203 F 
ATOM     88  C   UNL A   1      45.085  26.996  36.599  1.00  0.00     0.198 A 
ATOM     89  C   UNL A   1      46.522  28.620  35.568  1.00  0.00     0.198 A 
ATOM     90  F   UNL A   1      45.614  30.259  34.144  1.00  0.00    -0.203 F 
ATOM     91  F   UNL A   1      44.917  25.954  37.426  1.00  0.00    -0.200 F 
ATOM     92  C   UNL A   1      46.352  27.525  36.403  1.00  0.00     0.200 A 
ATOM     93  F   UNL A   1      47.746  29.127  35.369  1.00  0.00    -0.200 F 
ATOM     94  F   UNL A   1      47.409  26.985  37.024  1.00  0.00    -0.200 F 
ENDBRANCH  61  84
ENDBRANCH  35  36
ENDBRANCH  27  30
ENDBRANCH  25  26
ENDBRANCH  24  25
ENDBRANCH   1  24
TORSDOF 15
ENDMDL
MODEL 3
REMARK VINA RESULT:     -12.3      0.899      7.484
REMARK SMILES Nc1ncc(C(=O)NCCCCCCNC(=O)c2ccc(-c3c4nc(c(-c5c(F)c(F)c(F)c(F)c5F)c5ccc([nH]5)c(-c5c(F)c(F)c(F)c(F)c5F)c5nc(c(-c6c(F)c(F)c(F)c(F)c6F)c6ccc3[nH]6)C=C5)C=C4)cc2)c(-c2ccccc2)n1
REMARK SMILES IDX 12 1 11 2 10 3 9 4 8 5 6 6 7 7 5 9 2 10 3 11 88 12 4 13
REMARK SMILES IDX 81 14 1 15 82 18 83 19 87 20 84 21 86 22 85 23 13 24 14 25
REMARK SMILES IDX 15 26 16 27 17 29 18 30 19 31 80 32 20 33 79 34 21 35 22 36
REMARK SMILES IDX 23 37 73 38 24 39 78 40 72 41 74 42 25 43 77 44 71 45 70 46
REMARK SMILES IDX 26 48 58 49 38 50 57 51 39 52 42 53 56 54 75 55 40 56 41 57
REMARK SMILES IDX 55 59 76 60 43 61 27 62 28 63 36 64 29 65 30 66 34 67 37 68
REMARK SMILES IDX 31 69 32 70 35 71 33 72 59 73 60 74 68 75 61 76 62 77 66 78
REMARK SMILES IDX 69 79 63 80 64 81 67 82 65 83 44 84 45 85 53 86 46 87 47 88
REMARK SMILES IDX 51 89 54 90 48 91 49 92 52 93 50 94
REMARK H PARENT 8 8 1 16 1 17 15 28 74 47 42 58
REMARK Flexibility Score: inf
ROOT
ATOM      1  C   UNL A   1      31.202  30.955  25.901  1.00  0.00     0.002 C 
ENDROOT
BRANCH   1   2
ATOM      2  C   UNL A   1      32.405  30.020  26.058  1.00  0.00     0.002 C 
BRANCH   2   3
ATOM      3  C   UNL A   1      32.369  28.911  27.114  1.00  0.00     0.021 C 
BRANCH   3   4
ATOM      4  C   UNL A   1      32.370  27.461  26.642  1.00  0.00     0.116 C 
BRANCH   4   5
ATOM      5  N   UNL A   1      31.091  26.802  26.609  1.00  0.00    -0.352 N 
ATOM      6  C   UNL A   1      30.422  26.184  25.580  1.00  0.00     0.255 C 
ATOM      7  O   UNL A   1      29.356  25.633  25.876  1.00  0.00    -0.269 OA
ATOM      8  H   UNL A   1      30.614  26.791  27.471  1.00  0.00     0.163 HD
BRANCH   6   9
ATOM      9  C   UNL A   1      30.812  26.181  24.145  1.00  0.00     0.084 A 
ATOM     10  C   UNL A   1      31.885  25.899  21.629  1.00  0.00     0.220 A 
ATOM     11  N   UNL A   1      32.336  25.091  22.580  1.00  0.00    -0.221 NA
ATOM     12  N   UNL A   1      30.953  26.827  21.825  1.00  0.00    -0.212 NA
ATOM     13  C   UNL A   1      31.793  25.256  23.811  1.00  0.00     0.131 A 
ATOM     14  C   UNL A   1      30.431  26.980  23.078  1.00  0.00     0.089 A 
BRANCH  10  15
ATOM     15  N   UNL A   1      32.412  25.785  20.378  1.00  0.00    -0.368 N 
ATOM     16  H   UNL A   1      32.973  25.010  20.148  1.00  0.00     0.159 HD
ATOM     17  H   UNL A   1      32.231  26.479  19.703  1.00  0.00     0.159 HD
ENDBRANCH  10  15
BRANCH  14  18
ATOM     18  C   UNL A   1      29.460  28.078  23.092  1.00  0.00     0.001 A 
ATOM     19  C   UNL A   1      28.084  27.865  23.254  1.00  0.00     0.010 A 
ATOM     20  C   UNL A   1      29.922  29.407  22.983  1.00  0.00     0.010 A 
ATOM     21  C   UNL A   1      27.196  28.946  23.248  1.00  0.00     0.001 A 
ATOM     22  C   UNL A   1      29.035  30.483  22.959  1.00  0.00     0.001 A 
ATOM     23  C   UNL A   1      27.670  30.249  23.088  1.00  0.00     0.000 A 
ENDBRANCH  14  18
ENDBRANCH   6   9
ENDBRANCH   4   5
ENDBRANCH   3   4
ENDBRANCH   2   3
ENDBRANCH   1   2
BRANCH   1  24
ATOM     24  C   UNL A   1      31.252  32.349  26.529  1.00  0.00     0.021 C 
BRANCH  24  25
ATOM     25  C   UNL A   1      32.589  32.849  27.069  1.00  0.00     0.116 C 
BRANCH  25  26
ATOM     26  N   UNL A   1      32.518  34.166  27.669  1.00  0.00    -0.352 N 
ATOM     27  C   UNL A   1      33.293  34.743  28.643  1.00  0.00     0.251 C 
ATOM     28  H   UNL A   1      31.797  34.741  27.320  1.00  0.00     0.163 HD
ATOM     29  O   UNL A   1      32.995  35.863  29.060  1.00  0.00    -0.269 OA
BRANCH  27  30
ATOM     30  C   UNL A   1      34.465  34.046  29.232  1.00  0.00     0.039 A 
ATOM     31  C   UNL A   1      34.226  33.038  30.175  1.00  0.00     0.014 A 
ATOM     32  C   UNL A   1      35.783  34.407  28.937  1.00  0.00     0.014 A 
ATOM     33  C   UNL A   1      35.293  32.365  30.779  1.00  0.00     0.010 A 
ATOM     34  C   UNL A   1      36.851  33.701  29.505  1.00  0.00     0.010 A 
ATOM     35  C   UNL A   1      36.617  32.675  30.434  1.00  0.00    -0.014 A 
BRANCH  35  36
ATOM     36  C   UNL A   1      37.757  31.941  31.046  1.00  0.00     0.031 A 
ATOM     37  C   UNL A   1      38.216  32.265  32.442  1.00  0.00     0.074 A 
ATOM     38  C   UNL A   1      38.409  31.000  30.334  1.00  0.00     0.049 A 
ATOM     39  N   UNL A   1      39.224  31.771  33.119  1.00  0.00    -0.248 NA
ATOM     40  C   UNL A   1      37.451  33.289  33.167  1.00  0.00     0.031 C 
ATOM     41  C   UNL A   1      38.084  30.602  28.965  1.00  0.00     0.029 A 
ATOM     42  N   UNL A   1      39.488  30.215  30.662  1.00  0.00    -0.354 N 
ATOM     43  C   UNL A   1      39.219  32.429  34.342  1.00  0.00     0.074 A 
ATOM     44  C   UNL A   1      38.132  33.385  34.301  1.00  0.00     0.031 C 
ATOM     45  C   UNL A   1      38.938  29.643  28.572  1.00  0.00     0.029 A 
ATOM     46  C   UNL A   1      39.890  29.380  29.649  1.00  0.00     0.049 A 
ATOM     47  H   UNL A   1      39.932  30.249  31.540  1.00  0.00     0.167 HD
ATOM     48  C   UNL A   1      40.035  32.244  35.408  1.00  0.00     0.037 A 
ATOM     49  C   UNL A   1      40.914  28.506  29.588  1.00  0.00     0.037 A 
ATOM     50  C   UNL A   1      41.102  31.278  35.465  1.00  0.00     0.049 A 
ATOM     51  C   UNL A   1      41.811  28.327  30.783  1.00  0.00     0.074 A 
ATOM     52  C   UNL A   1      41.949  30.990  36.523  1.00  0.00     0.029 A 
ATOM     53  N   UNL A   1      41.469  30.444  34.422  1.00  0.00    -0.354 N 
ATOM     54  N   UNL A   1      41.764  28.923  31.949  1.00  0.00    -0.248 NA
ATOM     55  C   UNL A   1      42.901  27.349  30.653  1.00  0.00     0.031 C 
ATOM     56  C   UNL A   1      42.850  30.004  36.107  1.00  0.00     0.029 A 
ATOM     57  C   UNL A   1      42.540  29.650  34.805  1.00  0.00     0.049 A 
ATOM     58  H   UNL A   1      41.033  30.416  33.540  1.00  0.00     0.167 HD
ATOM     59  C   UNL A   1      42.798  28.376  32.698  1.00  0.00     0.074 A 
ATOM     60  C   UNL A   1      43.448  27.391  31.860  1.00  0.00     0.031 C 
ATOM     61  C   UNL A   1      43.174  28.667  33.967  1.00  0.00     0.037 A 
BRANCH  48  62
ATOM     62  C   UNL A   1      39.806  33.105  36.615  1.00  0.00     0.064 A 
ATOM     63  C   UNL A   1      40.507  34.305  36.801  1.00  0.00     0.173 A 
ATOM     64  C   UNL A   1      38.834  32.756  37.565  1.00  0.00     0.173 A 
ATOM     65  F   UNL A   1      41.453  34.677  35.925  1.00  0.00    -0.203 F 
ATOM     66  C   UNL A   1      40.257  35.117  37.905  1.00  0.00     0.198 A 
ATOM     67  C   UNL A   1      38.569  33.581  38.655  1.00  0.00     0.198 A 
ATOM     68  F   UNL A   1      38.131  31.622  37.428  1.00  0.00    -0.203 F 
ATOM     69  F   UNL A   1      40.963  36.241  38.081  1.00  0.00    -0.200 F 
ATOM     70  C   UNL A   1      39.285  34.757  38.826  1.00  0.00     0.200 A 
ATOM     71  F   UNL A   1      37.622  33.239  39.538  1.00  0.00    -0.200 F 
ATOM     72  F   UNL A   1      39.038  35.543  39.884  1.00  0.00    -0.200 F 
ENDBRANCH  48  62
BRANCH  49  73
ATOM     73  C   UNL A   1      41.142  27.717  28.350  1.00  0.00     0.064 A 
ATOM     74  C   UNL A   1      40.498  26.488  28.152  1.00  0.00     0.173 A 
ATOM     75  C   UNL A   1      42.018  28.165  27.353  1.00  0.00     0.173 A 
ATOM     76  F   UNL A   1      39.670  26.007  29.092  1.00  0.00    -0.203 F 
ATOM     77  C   UNL A   1      40.736  25.728  27.010  1.00  0.00     0.198 A 
ATOM     78  C   UNL A   1      42.237  27.416  26.199  1.00  0.00     0.198 A 
ATOM     79  F   UNL A   1      42.658  29.335  27.497  1.00  0.00    -0.203 F 
ATOM     80  F   UNL A   1      40.142  24.536  26.864  1.00  0.00    -0.200 F 
ATOM     81  C   UNL A   1      41.602  26.195  26.032  1.00  0.00     0.200 A 
ATOM     82  F   UNL A   1      43.066  27.875  25.252  1.00  0.00    -0.200 F 
ATOM     83  F   UNL A   1      41.831  25.464  24.932  1.00  0.00    -0.200 F 
ENDBRANCH  49  73
BRANCH  61  84
ATOM     84  C   UNL A   1      44.321  27.889  34.540  1.00  0.00     0.064 A 
ATOM     85  C   UNL A   1      45.639  28.360  34.460  1.00  0.00     0.173 A 
ATOM     86  C   UNL A   1      44.093  26.676  35.208  1.00  0.00     0.173 A 
ATOM     87  F   UNL A   1      45.907  29.507  33.817  1.00  0.00    -0.203 F 
ATOM     88  C   UNL A   1      46.691  27.635  35.012  1.00  0.00     0.198 A 
ATOM     89  C   UNL A   1      45.146  25.966  35.780  1.00  0.00     0.198 A 
ATOM     90  F   UNL A   1      42.849  26.186  35.316  1.00  0.00    -0.203 F 
ATOM     91  F   UNL A   1      47.949  28.083  34.889  1.00  0.00    -0.200 F 
ATOM     92  C   UNL A   1      46.444  26.442  35.676  1.00  0.00     0.200 A 
ATOM     93  F   UNL A   1      44.903  24.819  36.429  1.00  0.00    -0.200 F 
ATOM     94  F   UNL A   1      47.458  25.748  36.210  1.00  0.00    -0.200 F 
ENDBRANCH  61  84
ENDBRANCH  35  36
ENDBRANCH  27  30
ENDBRANCH  25  26
ENDBRANCH  24  25
ENDBRANCH   1  24
TORSDOF 15
ENDMDL
