MODEL 1
REMARK VINA RESULT:     -11.7      0.000      0.000
REMARK SMILES COc1ccc(-c2ccc(C(=O)NCc3ccc(C(=O)NCCCCCCNC(=O)c4ccc(-c5c6nc(c(-c7c(F)c(F)c(F)c(F)c7F)c7ccc([nH]7)c(-c7c(F)c(F)c(F)c(F)c7F)c7nc(c(-c8c(F)c(F)c(F)c(F)c8F)c8ccc5[nH]8)C=C7)C=C6)cc4)cc3)o2)c([N+](=O)[O-])c1
REMARK SMILES IDX 23 1 22 2 21 3 19 4 20 5 18 7 15 8 16 9 95 10 17 11 94 12
REMARK SMILES IDX 14 13 13 14 11 15 12 16 10 18 7 19 8 20 96 21 9 22 6 23 3 24
REMARK SMILES IDX 4 25 101 26 5 27 97 28 2 29 1 30 98 31 99 32 100 33 24 34
REMARK SMILES IDX 25 35 26 36 27 37 28 38 29 39 30 41 31 42 32 43 93 44 33 45
REMARK SMILES IDX 92 46 34 47 35 48 36 49 86 50 37 51 91 52 85 53 87 54 38 55
REMARK SMILES IDX 90 56 84 57 83 58 39 60 71 61 51 62 70 63 52 64 55 65 69 66
REMARK SMILES IDX 88 67 53 68 54 69 68 71 89 72 56 73 40 74 41 75 49 76 42 77
REMARK SMILES IDX 43 78 47 79 50 80 44 81 45 82 48 83 46 84 72 85 73 86 81 87
REMARK SMILES IDX 74 88 75 89 79 90 82 91 76 92 77 93 80 94 78 95 57 96 58 97
REMARK SMILES IDX 66 98 59 99 60 100 64 101 67 102 61 103 62 104 65 105 63 106
REMARK H PARENT 21 6 13 17 28 40 87 59 55 70
REMARK Flexibility Score: inf
ROOT
ATOM      1  C   UNL A   1      32.774  24.692  23.052  1.00  0.00     0.021 C 
ENDROOT
BRANCH   1   2
ATOM      2  C   UNL A   1      31.641  25.629  22.630  1.00  0.00     0.116 C 
BRANCH   2   3
ATOM      3  N   UNL A   1      30.563  25.561  23.596  1.00  0.00    -0.352 N 
ATOM      4  C   UNL A   1      30.339  26.203  24.785  1.00  0.00     0.251 C 
ATOM      5  O   UNL A   1      29.318  25.914  25.408  1.00  0.00    -0.269 OA
ATOM      6  H   UNL A   1      29.850  24.930  23.349  1.00  0.00     0.163 HD
BRANCH   4   7
ATOM      7  C   UNL A   1      31.228  27.272  25.313  1.00  0.00     0.039 A 
ATOM      8  C   UNL A   1      32.861  29.233  26.532  1.00  0.00    -0.029 A 
ATOM      9  C   UNL A   1      32.665  27.990  27.143  1.00  0.00     0.006 A 
ATOM     10  C   UNL A   1      32.280  29.455  25.275  1.00  0.00     0.006 A 
ATOM     11  C   UNL A   1      31.858  27.021  26.539  1.00  0.00     0.014 A 
ATOM     12  C   UNL A   1      31.492  28.475  24.660  1.00  0.00     0.014 A 
BRANCH   8  13
ATOM     13  C   UNL A   1      33.676  30.297  27.225  1.00  0.00     0.152 C 
BRANCH  13  14
ATOM     14  N   UNL A   1      34.785  29.727  27.950  1.00  0.00    -0.345 N 
ATOM     15  C   UNL A   1      35.742  30.276  28.762  1.00  0.00     0.287 C 
ATOM     16  O   UNL A   1      36.506  29.464  29.296  1.00  0.00    -0.266 OA
ATOM     17  H   UNL A   1      34.871  28.751  27.839  1.00  0.00     0.164 HD
BRANCH  15  18
ATOM     18  C   UNL A   1      35.857  31.708  28.974  1.00  0.00     0.192 A 
ATOM     19  C   UNL A   1      35.170  33.606  29.888  1.00  0.00     0.142 A 
ATOM     20  C   UNL A   1      36.271  33.928  29.132  1.00  0.00     0.052 A 
ATOM     21  O   UNL A   1      34.937  32.271  29.833  1.00  0.00    -0.451 OA
ATOM     22  C   UNL A   1      36.706  32.717  28.542  1.00  0.00     0.057 A 
BRANCH  19  23
ATOM     23  C   UNL A   1      34.230  34.385  30.669  1.00  0.00     0.095 A 
ATOM     24  C   UNL A   1      32.586  36.033  32.274  1.00  0.00     0.125 A 
ATOM     25  C   UNL A   1      33.483  35.136  32.858  1.00  0.00     0.047 A 
ATOM     26  C   UNL A   1      32.495  36.107  30.887  1.00  0.00     0.132 A 
ATOM     27  C   UNL A   1      34.287  34.309  32.066  1.00  0.00     0.023 A 
ATOM     28  C   UNL A   1      33.312  35.279  30.096  1.00  0.00     0.284 A 
BRANCH  24  29
ATOM     29  O   UNL A   1      31.892  36.817  33.152  1.00  0.00    -0.497 OA
ATOM     30  C   UNL A   1      30.536  36.449  33.381  1.00  0.00     0.278 C 
ENDBRANCH  24  29
BRANCH  28  31
ATOM     31  N   UNL A   1      33.177  35.400  28.646  1.00  0.00     0.063 N 
ATOM     32  O   UNL A   1      32.468  34.580  28.051  1.00  0.00    -0.258 OA
ATOM     33  O   UNL A   1      33.764  36.349  28.106  1.00  0.00    -0.258 OA
ENDBRANCH  28  31
ENDBRANCH  19  23
ENDBRANCH  15  18
ENDBRANCH  13  14
ENDBRANCH   8  13
ENDBRANCH   4   7
ENDBRANCH   2   3
ENDBRANCH   1   2
BRANCH   1  34
ATOM     34  C   UNL A   1      33.944  25.425  23.724  1.00  0.00     0.002 C 
BRANCH  34  35
ATOM     35  C   UNL A   1      34.464  24.764  25.007  1.00  0.00     0.002 C 
BRANCH  35  36
ATOM     36  C   UNL A   1      35.789  24.014  24.850  1.00  0.00     0.021 C 
BRANCH  36  37
ATOM     37  C   UNL A   1      36.492  23.708  26.168  1.00  0.00     0.116 C 
BRANCH  37  38
ATOM     38  N   UNL A   1      37.273  22.486  26.084  1.00  0.00    -0.352 N 
ATOM     39  C   UNL A   1      38.630  22.312  26.178  1.00  0.00     0.251 C 
ATOM     40  H   UNL A   1      36.753  21.661  25.939  1.00  0.00     0.163 HD
ATOM     41  O   UNL A   1      39.139  21.248  25.843  1.00  0.00    -0.269 OA
BRANCH  39  42
ATOM     42  C   UNL A   1      39.484  23.408  26.684  1.00  0.00     0.039 A 
ATOM     43  C   UNL A   1      40.378  23.139  27.723  1.00  0.00     0.014 A 
ATOM     44  C   UNL A   1      39.366  24.705  26.176  1.00  0.00     0.014 A 
ATOM     45  C   UNL A   1      41.168  24.168  28.240  1.00  0.00     0.010 A 
ATOM     46  C   UNL A   1      40.209  25.711  26.637  1.00  0.00     0.010 A 
ATOM     47  C   UNL A   1      41.098  25.460  27.693  1.00  0.00    -0.014 A 
BRANCH  47  48
ATOM     48  C   UNL A   1      41.900  26.572  28.258  1.00  0.00     0.031 A 
ATOM     49  C   UNL A   1      43.342  26.734  27.860  1.00  0.00     0.074 A 
ATOM     50  C   UNL A   1      41.344  27.413  29.152  1.00  0.00     0.049 A 
ATOM     51  N   UNL A   1      44.221  27.615  28.266  1.00  0.00    -0.248 NA
ATOM     52  C   UNL A   1      43.877  25.755  26.900  1.00  0.00     0.031 C 
ATOM     53  C   UNL A   1      39.970  27.332  29.647  1.00  0.00     0.029 A 
ATOM     54  N   UNL A   1      41.870  28.499  29.804  1.00  0.00    -0.354 N 
ATOM     55  C   UNL A   1      45.408  27.288  27.623  1.00  0.00     0.074 A 
ATOM     56  C   UNL A   1      45.156  26.091  26.850  1.00  0.00     0.031 C 
ATOM     57  C   UNL A   1      39.753  28.342  30.504  1.00  0.00     0.029 A 
ATOM     58  C   UNL A   1      40.980  29.121  30.645  1.00  0.00     0.049 A 
ATOM     59  H   UNL A   1      42.799  28.804  29.681  1.00  0.00     0.167 HD
ATOM     60  C   UNL A   1      46.593  27.942  27.651  1.00  0.00     0.037 A 
ATOM     61  C   UNL A   1      41.140  30.195  31.439  1.00  0.00     0.037 A 
ATOM     62  C   UNL A   1      46.830  29.148  28.398  1.00  0.00     0.049 A 
ATOM     63  C   UNL A   1      42.467  30.907  31.448  1.00  0.00     0.074 A 
ATOM     64  C   UNL A   1      47.978  29.919  28.454  1.00  0.00     0.029 A 
ATOM     65  N   UNL A   1      45.896  29.761  29.222  1.00  0.00    -0.354 N 
ATOM     66  N   UNL A   1      43.562  30.628  30.785  1.00  0.00    -0.248 NA
ATOM     67  C   UNL A   1      42.573  32.094  32.309  1.00  0.00     0.031 C 
ATOM     68  C   UNL A   1      47.754  30.971  29.348  1.00  0.00     0.029 A 
ATOM     69  C   UNL A   1      46.449  30.890  29.804  1.00  0.00     0.049 A 
ATOM     70  H   UNL A   1      44.977  29.440  29.370  1.00  0.00     0.167 HD
ATOM     71  C   UNL A   1      44.474  31.622  31.117  1.00  0.00     0.074 A 
ATOM     72  C   UNL A   1      43.798  32.517  32.033  1.00  0.00     0.031 C 
ATOM     73  C   UNL A   1      45.755  31.779  30.701  1.00  0.00     0.037 A 
BRANCH  60  74
ATOM     74  C   UNL A   1      47.724  27.366  26.846  1.00  0.00     0.064 A 
ATOM     75  C   UNL A   1      47.892  27.671  25.486  1.00  0.00     0.173 A 
ATOM     76  C   UNL A   1      48.668  26.520  27.448  1.00  0.00     0.173 A 
ATOM     77  F   UNL A   1      47.012  28.466  24.858  1.00  0.00    -0.203 F 
ATOM     78  C   UNL A   1      48.943  27.125  24.752  1.00  0.00     0.198 A 
ATOM     79  C   UNL A   1      49.736  26.003  26.718  1.00  0.00     0.198 A 
ATOM     80  F   UNL A   1      48.560  26.199  28.745  1.00  0.00    -0.203 F 
ATOM     81  F   UNL A   1      49.049  27.386  23.442  1.00  0.00    -0.200 F 
ATOM     82  C   UNL A   1      49.867  26.298  25.370  1.00  0.00     0.200 A 
ATOM     83  F   UNL A   1      50.637  25.214  27.321  1.00  0.00    -0.200 F 
ATOM     84  F   UNL A   1      50.881  25.778  24.664  1.00  0.00    -0.200 F 
ENDBRANCH  60  74
BRANCH  61  85
ATOM     85  C   UNL A   1      40.004  30.687  32.262  1.00  0.00     0.064 A 
ATOM     86  C   UNL A   1      39.778  30.187  33.552  1.00  0.00     0.173 A 
ATOM     87  C   UNL A   1      39.118  31.660  31.776  1.00  0.00     0.173 A 
ATOM     88  F   UNL A   1      40.588  29.242  34.055  1.00  0.00    -0.203 F 
ATOM     89  C   UNL A   1      38.695  30.620  34.314  1.00  0.00     0.198 A 
ATOM     90  C   UNL A   1      38.053  32.115  32.551  1.00  0.00     0.198 A 
ATOM     91  F   UNL A   1      39.294  32.178  30.551  1.00  0.00    -0.203 F 
ATOM     92  F   UNL A   1      38.474  30.086  35.523  1.00  0.00    -0.200 F 
ATOM     93  C   UNL A   1      37.836  31.587  33.815  1.00  0.00     0.200 A 
ATOM     94  F   UNL A   1      37.235  33.062  32.072  1.00  0.00    -0.200 F 
ATOM     95  F   UNL A   1      36.796  32.006  34.549  1.00  0.00    -0.200 F 
ENDBRANCH  61  85
BRANCH  73  96
ATOM     96  C   UNL A   1      46.494  32.992  31.189  1.00  0.00     0.064 A 
ATOM     97  C   UNL A   1      46.452  34.213  30.498  1.00  0.00     0.173 A 
ATOM     98  C   UNL A   1      47.223  32.940  32.387  1.00  0.00     0.173 A 
ATOM     99  F   UNL A   1      45.780  34.312  29.342  1.00  0.00    -0.203 F 
ATOM    100  C   UNL A   1      47.141  35.326  30.973  1.00  0.00     0.198 A 
ATOM    101  C   UNL A   1      47.882  34.064  32.875  1.00  0.00     0.198 A 
ATOM    102  F   UNL A   1      47.288  31.799  33.090  1.00  0.00    -0.203 F 
ATOM    103  F   UNL A   1      47.131  36.466  30.269  1.00  0.00    -0.200 F 
ATOM    104  C   UNL A   1      47.848  35.254  32.164  1.00  0.00     0.200 A 
ATOM    105  F   UNL A   1      48.550  33.996  34.035  1.00  0.00    -0.200 F 
ATOM    106  F   UNL A   1      48.503  36.329  32.623  1.00  0.00    -0.200 F 
ENDBRANCH  73  96
ENDBRANCH  47  48
ENDBRANCH  39  42
ENDBRANCH  37  38
ENDBRANCH  36  37
ENDBRANCH  35  36
ENDBRANCH  34  35
ENDBRANCH   1  34
TORSDOF 19
ENDMDL
MODEL 2
REMARK VINA RESULT:     -11.4      2.287      4.124
REMARK SMILES COc1ccc(-c2ccc(C(=O)NCc3ccc(C(=O)NCCCCCCNC(=O)c4ccc(-c5c6nc(c(-c7c(F)c(F)c(F)c(F)c7F)c7ccc([nH]7)c(-c7c(F)c(F)c(F)c(F)c7F)c7nc(c(-c8c(F)c(F)c(F)c(F)c8F)c8ccc5[nH]8)C=C7)C=C6)cc4)cc3)o2)c([N+](=O)[O-])c1
REMARK SMILES IDX 23 1 22 2 21 3 19 4 20 5 18 7 15 8 16 9 95 10 17 11 94 12
REMARK SMILES IDX 14 13 13 14 11 15 12 16 10 18 7 19 8 20 96 21 9 22 6 23 3 24
REMARK SMILES IDX 4 25 101 26 5 27 97 28 2 29 1 30 98 31 99 32 100 33 24 34
REMARK SMILES IDX 25 35 26 36 27 37 28 38 29 39 30 41 31 42 32 43 93 44 33 45
REMARK SMILES IDX 92 46 34 47 35 48 36 49 86 50 37 51 91 52 85 53 87 54 38 55
REMARK SMILES IDX 90 56 84 57 83 58 39 60 71 61 51 62 70 63 52 64 55 65 69 66
REMARK SMILES IDX 88 67 53 68 54 69 68 71 89 72 56 73 40 74 41 75 49 76 42 77
REMARK SMILES IDX 43 78 47 79 50 80 44 81 45 82 48 83 46 84 72 85 73 86 81 87
REMARK SMILES IDX 74 88 75 89 79 90 82 91 76 92 77 93 80 94 78 95 57 96 58 97
REMARK SMILES IDX 66 98 59 99 60 100 64 101 67 102 61 103 62 104 65 105 63 106
REMARK H PARENT 21 6 13 17 28 40 87 59 55 70
REMARK Flexibility Score: inf
ROOT
ATOM      1  C   UNL A   1      33.957  19.833  24.970  1.00  0.00     0.021 C 
ENDROOT
BRANCH   1   2
ATOM      2  C   UNL A   1      32.558  20.313  24.575  1.00  0.00     0.116 C 
BRANCH   2   3
ATOM      3  N   UNL A   1      31.973  21.067  25.666  1.00  0.00    -0.352 N 
ATOM      4  C   UNL A   1      31.760  22.405  25.861  1.00  0.00     0.251 C 
ATOM      5  O   UNL A   1      31.248  22.754  26.925  1.00  0.00    -0.269 OA
ATOM      6  H   UNL A   1      31.667  20.506  26.414  1.00  0.00     0.163 HD
BRANCH   4   7
ATOM      7  C   UNL A   1      32.048  23.434  24.827  1.00  0.00     0.039 A 
ATOM      8  C   UNL A   1      32.701  25.518  23.029  1.00  0.00    -0.029 A 
ATOM      9  C   UNL A   1      33.531  25.232  24.119  1.00  0.00     0.006 A 
ATOM     10  C   UNL A   1      31.578  24.706  22.819  1.00  0.00     0.006 A 
ATOM     11  C   UNL A   1      33.208  24.201  25.006  1.00  0.00     0.014 A 
ATOM     12  C   UNL A   1      31.268  23.659  23.695  1.00  0.00     0.014 A 
BRANCH   8  13
ATOM     13  C   UNL A   1      33.021  26.677  22.117  1.00  0.00     0.152 C 
BRANCH  13  14
ATOM     14  N   UNL A   1      31.839  27.440  21.798  1.00  0.00    -0.345 N 
ATOM     15  C   UNL A   1      31.003  28.216  22.557  1.00  0.00     0.287 C 
ATOM     16  O   UNL A   1      30.116  28.803  21.928  1.00  0.00    -0.266 OA
ATOM     17  H   UNL A   1      31.581  27.393  20.848  1.00  0.00     0.164 HD
BRANCH  15  18
ATOM     18  C   UNL A   1      31.143  28.334  23.999  1.00  0.00     0.192 A 
ATOM     19  C   UNL A   1      31.718  29.462  25.816  1.00  0.00     0.142 A 
ATOM     20  C   UNL A   1      31.246  28.249  26.258  1.00  0.00     0.052 A 
ATOM     21  O   UNL A   1      31.622  29.539  24.466  1.00  0.00    -0.451 OA
ATOM     22  C   UNL A   1      30.886  27.525  25.096  1.00  0.00     0.057 A 
BRANCH  19  23
ATOM     23  C   UNL A   1      32.304  30.609  26.480  1.00  0.00     0.095 A 
ATOM     24  C   UNL A   1      33.270  32.831  27.939  1.00  0.00     0.125 A 
ATOM     25  C   UNL A   1      32.053  32.900  27.258  1.00  0.00     0.047 A 
ATOM     26  C   UNL A   1      34.018  31.658  27.889  1.00  0.00     0.132 A 
ATOM     27  C   UNL A   1      31.579  31.807  26.524  1.00  0.00     0.023 A 
ATOM     28  C   UNL A   1      33.534  30.559  27.156  1.00  0.00     0.284 A 
BRANCH  24  29
ATOM     29  O   UNL A   1      33.599  33.945  28.658  1.00  0.00    -0.497 OA
ATOM     30  C   UNL A   1      34.393  34.913  27.980  1.00  0.00     0.278 C 
ENDBRANCH  24  29
BRANCH  28  31
ATOM     31  N   UNL A   1      34.359  29.354  27.139  1.00  0.00     0.063 N 
ATOM     32  O   UNL A   1      35.545  29.457  26.803  1.00  0.00    -0.258 OA
ATOM     33  O   UNL A   1      33.816  28.298  27.497  1.00  0.00    -0.258 OA
ENDBRANCH  28  31
ENDBRANCH  19  23
ENDBRANCH  15  18
ENDBRANCH  13  14
ENDBRANCH   8  13
ENDBRANCH   4   7
ENDBRANCH   2   3
ENDBRANCH   1   2
BRANCH   1  34
ATOM     34  C   UNL A   1      34.817  20.938  25.601  1.00  0.00     0.002 C 
BRANCH  34  35
ATOM     35  C   UNL A   1      35.931  21.480  24.695  1.00  0.00     0.002 C 
BRANCH  35  36
ATOM     36  C   UNL A   1      37.241  20.691  24.750  1.00  0.00     0.021 C 
BRANCH  36  37
ATOM     37  C   UNL A   1      38.378  21.420  25.458  1.00  0.00     0.116 C 
BRANCH  37  38
ATOM     38  N   UNL A   1      39.209  20.502  26.218  1.00  0.00    -0.352 N 
ATOM     39  C   UNL A   1      40.380  20.740  26.889  1.00  0.00     0.251 C 
ATOM     40  H   UNL A   1      38.883  19.573  26.258  1.00  0.00     0.163 HD
ATOM     41  O   UNL A   1      41.072  19.803  27.271  1.00  0.00    -0.269 OA
BRANCH  39  42
ATOM     42  C   UNL A   1      40.813  22.129  27.154  1.00  0.00     0.039 A 
ATOM     43  C   UNL A   1      40.440  23.132  26.256  1.00  0.00     0.014 A 
ATOM     44  C   UNL A   1      41.628  22.433  28.248  1.00  0.00     0.014 A 
ATOM     45  C   UNL A   1      40.868  24.444  26.468  1.00  0.00     0.010 A 
ATOM     46  C   UNL A   1      41.989  23.751  28.502  1.00  0.00     0.010 A 
ATOM     47  C   UNL A   1      41.637  24.766  27.599  1.00  0.00    -0.014 A 
BRANCH  47  48
ATOM     48  C   UNL A   1      42.135  26.147  27.815  1.00  0.00     0.031 A 
ATOM     49  C   UNL A   1      43.476  26.555  27.268  1.00  0.00     0.074 A 
ATOM     50  C   UNL A   1      41.399  27.021  28.529  1.00  0.00     0.049 A 
ATOM     51  N   UNL A   1      44.103  27.699  27.377  1.00  0.00    -0.248 NA
ATOM     52  C   UNL A   1      44.225  25.530  26.523  1.00  0.00     0.031 C 
ATOM     53  C   UNL A   1      40.105  26.729  29.145  1.00  0.00     0.029 A 
ATOM     54  N   UNL A   1      41.637  28.331  28.858  1.00  0.00    -0.354 N 
ATOM     55  C   UNL A   1      45.320  27.525  26.729  1.00  0.00     0.074 A 
ATOM     56  C   UNL A   1      45.372  26.149  26.286  1.00  0.00     0.031 C 
ATOM     57  C   UNL A   1      39.651  27.835  29.755  1.00  0.00     0.029 A 
ATOM     58  C   UNL A   1      40.635  28.903  29.602  1.00  0.00     0.049 A 
ATOM     59  H   UNL A   1      42.452  28.814  28.588  1.00  0.00     0.167 HD
ATOM     60  C   UNL A   1      46.294  28.437  26.501  1.00  0.00     0.037 A 
ATOM     61  C   UNL A   1      40.527  30.147  30.104  1.00  0.00     0.037 A 
ATOM     62  C   UNL A   1      46.225  29.812  26.919  1.00  0.00     0.049 A 
ATOM     63  C   UNL A   1      41.623  31.144  29.831  1.00  0.00     0.074 A 
ATOM     64  C   UNL A   1      47.133  30.831  26.692  1.00  0.00     0.029 A 
ATOM     65  N   UNL A   1      45.182  30.360  27.651  1.00  0.00    -0.354 N 
ATOM     66  N   UNL A   1      42.738  30.987  29.161  1.00  0.00    -0.248 NA
ATOM     67  C   UNL A   1      41.435  32.496  30.375  1.00  0.00     0.031 C 
ATOM     68  C   UNL A   1      46.663  31.984  27.329  1.00  0.00     0.029 A 
ATOM     69  C   UNL A   1      45.434  31.700  27.902  1.00  0.00     0.049 A 
ATOM     70  H   UNL A   1      44.382  29.870  27.950  1.00  0.00     0.167 HD
ATOM     71  C   UNL A   1      43.367  32.225  29.170  1.00  0.00     0.074 A 
ATOM     72  C   UNL A   1      42.501  33.125  29.903  1.00  0.00     0.031 C 
ATOM     73  C   UNL A   1      44.552  32.585  28.619  1.00  0.00     0.037 A 
BRANCH  60  74
ATOM     74  C   UNL A   1      47.518  27.976  25.760  1.00  0.00     0.064 A 
ATOM     75  C   UNL A   1      47.531  27.852  24.361  1.00  0.00     0.173 A 
ATOM     76  C   UNL A   1      48.701  27.680  26.454  1.00  0.00     0.173 A 
ATOM     77  F   UNL A   1      46.424  28.111  23.650  1.00  0.00    -0.203 F 
ATOM     78  C   UNL A   1      48.672  27.418  23.690  1.00  0.00     0.198 A 
ATOM     79  C   UNL A   1      49.849  27.278  25.776  1.00  0.00     0.198 A 
ATOM     80  F   UNL A   1      48.746  27.785  27.790  1.00  0.00    -0.203 F 
ATOM     81  F   UNL A   1      48.643  27.254  22.360  1.00  0.00    -0.200 F 
ATOM     82  C   UNL A   1      49.831  27.138  24.397  1.00  0.00     0.200 A 
ATOM     83  F   UNL A   1      50.973  27.022  26.459  1.00  0.00    -0.200 F 
ATOM     84  F   UNL A   1      50.930  26.727  23.749  1.00  0.00    -0.200 F 
ENDBRANCH  60  74
BRANCH  61  85
ATOM     85  C   UNL A   1      39.321  30.533  30.882  1.00  0.00     0.064 A 
ATOM     86  C   UNL A   1      39.244  30.289  32.260  1.00  0.00     0.173 A 
ATOM     87  C   UNL A   1      38.219  31.145  30.266  1.00  0.00     0.173 A 
ATOM     88  F   UNL A   1      40.264  29.690  32.893  1.00  0.00    -0.203 F 
ATOM     89  C   UNL A   1      38.102  30.618  32.988  1.00  0.00     0.198 A 
ATOM     90  C   UNL A   1      37.090  31.501  31.000  1.00  0.00     0.198 A 
ATOM     91  F   UNL A   1      38.246  31.408  28.951  1.00  0.00    -0.203 F 
ATOM     92  F   UNL A   1      38.035  30.326  34.295  1.00  0.00    -0.200 F 
ATOM     93  C   UNL A   1      37.027  31.228  32.358  1.00  0.00     0.200 A 
ATOM     94  F   UNL A   1      36.061  32.106  30.391  1.00  0.00    -0.200 F 
ATOM     95  F   UNL A   1      35.930  31.547  33.058  1.00  0.00    -0.200 F 
ENDBRANCH  61  85
BRANCH  73  96
ATOM     96  C   UNL A   1      44.960  34.025  28.742  1.00  0.00     0.064 A 
ATOM     97  C   UNL A   1      45.765  34.480  29.798  1.00  0.00     0.173 A 
ATOM     98  C   UNL A   1      44.570  34.955  27.766  1.00  0.00     0.173 A 
ATOM     99  F   UNL A   1      46.153  33.634  30.763  1.00  0.00    -0.203 F 
ATOM    100  C   UNL A   1      46.135  35.820  29.887  1.00  0.00     0.198 A 
ATOM    101  C   UNL A   1      44.972  36.285  27.841  1.00  0.00     0.198 A 
ATOM    102  F   UNL A   1      43.809  34.569  26.731  1.00  0.00    -0.203 F 
ATOM    103  F   UNL A   1      46.858  36.242  30.933  1.00  0.00    -0.200 F 
ATOM    104  C   UNL A   1      45.746  36.719  28.906  1.00  0.00     0.200 A 
ATOM    105  F   UNL A   1      44.608  37.148  26.882  1.00  0.00    -0.200 F 
ATOM    106  F   UNL A   1      46.111  38.005  28.991  1.00  0.00    -0.200 F 
ENDBRANCH  73  96
ENDBRANCH  47  48
ENDBRANCH  39  42
ENDBRANCH  37  38
ENDBRANCH  36  37
ENDBRANCH  35  36
ENDBRANCH  34  35
ENDBRANCH   1  34
TORSDOF 19
ENDMDL
MODEL 3
REMARK VINA RESULT:     -11.4      4.546     10.945
REMARK SMILES COc1ccc(-c2ccc(C(=O)NCc3ccc(C(=O)NCCCCCCNC(=O)c4ccc(-c5c6nc(c(-c7c(F)c(F)c(F)c(F)c7F)c7ccc([nH]7)c(-c7c(F)c(F)c(F)c(F)c7F)c7nc(c(-c8c(F)c(F)c(F)c(F)c8F)c8ccc5[nH]8)C=C7)C=C6)cc4)cc3)o2)c([N+](=O)[O-])c1
REMARK SMILES IDX 23 1 22 2 21 3 19 4 20 5 18 7 15 8 16 9 95 10 17 11 94 12
REMARK SMILES IDX 14 13 13 14 11 15 12 16 10 18 7 19 8 20 96 21 9 22 6 23 3 24
REMARK SMILES IDX 4 25 101 26 5 27 97 28 2 29 1 30 98 31 99 32 100 33 24 34
REMARK SMILES IDX 25 35 26 36 27 37 28 38 29 39 30 41 31 42 32 43 93 44 33 45
REMARK SMILES IDX 92 46 34 47 35 48 36 49 86 50 37 51 91 52 85 53 87 54 38 55
REMARK SMILES IDX 90 56 84 57 83 58 39 60 71 61 51 62 70 63 52 64 55 65 69 66
REMARK SMILES IDX 88 67 53 68 54 69 68 71 89 72 56 73 40 74 41 75 49 76 42 77
REMARK SMILES IDX 43 78 47 79 50 80 44 81 45 82 48 83 46 84 72 85 73 86 81 87
REMARK SMILES IDX 74 88 75 89 79 90 82 91 76 92 77 93 80 94 78 95 57 96 58 97
REMARK SMILES IDX 66 98 59 99 60 100 64 101 67 102 61 103 62 104 65 105 63 106
REMARK H PARENT 21 6 13 17 28 40 87 59 55 70
REMARK Flexibility Score: inf
ROOT
ATOM      1  C   UNL A   1      34.761  34.899  33.371  1.00  0.00     0.021 C 
ENDROOT
BRANCH   1   2
ATOM      2  C   UNL A   1      36.205  34.651  33.811  1.00  0.00     0.116 C 
BRANCH   2   3
ATOM      3  N   UNL A   1      37.106  34.923  32.709  1.00  0.00    -0.352 N 
ATOM      4  C   UNL A   1      38.181  34.244  32.199  1.00  0.00     0.251 C 
ATOM      5  O   UNL A   1      38.776  34.749  31.246  1.00  0.00    -0.269 OA
ATOM      6  H   UNL A   1      36.906  35.760  32.233  1.00  0.00     0.163 HD
BRANCH   4   7
ATOM      7  C   UNL A   1      38.608  32.908  32.691  1.00  0.00     0.039 A 
ATOM      8  C   UNL A   1      39.641  30.442  33.615  1.00  0.00    -0.029 A 
ATOM      9  C   UNL A   1      40.294  31.644  33.911  1.00  0.00     0.006 A 
ATOM     10  C   UNL A   1      38.433  30.500  32.906  1.00  0.00     0.006 A 
ATOM     11  C   UNL A   1      39.782  32.862  33.455  1.00  0.00     0.014 A 
ATOM     12  C   UNL A   1      37.908  31.723  32.470  1.00  0.00     0.014 A 
BRANCH   8  13
ATOM     13  C   UNL A   1      40.239  29.128  34.052  1.00  0.00     0.152 C 
BRANCH  13  14
ATOM     14  N   UNL A   1      40.859  29.234  35.350  1.00  0.00    -0.345 N 
ATOM     15  C   UNL A   1      42.065  28.805  35.840  1.00  0.00     0.287 C 
ATOM     16  O   UNL A   1      42.312  29.148  37.001  1.00  0.00    -0.266 OA
ATOM     17  H   UNL A   1      40.307  29.708  36.015  1.00  0.00     0.164 HD
BRANCH  15  18
ATOM     18  C   UNL A   1      42.982  27.996  35.055  1.00  0.00     0.192 A 
ATOM     19  C   UNL A   1      43.965  26.068  34.581  1.00  0.00     0.142 A 
ATOM     20  C   UNL A   1      44.463  26.978  33.679  1.00  0.00     0.052 A 
ATOM     21  O   UNL A   1      43.046  26.659  35.384  1.00  0.00    -0.451 OA
ATOM     22  C   UNL A   1      43.841  28.212  33.987  1.00  0.00     0.057 A 
BRANCH  19  23
ATOM     23  C   UNL A   1      44.245  24.673  34.851  1.00  0.00     0.095 A 
ATOM     24  C   UNL A   1      44.935  21.950  35.181  1.00  0.00     0.125 A 
ATOM     25  C   UNL A   1      44.164  22.363  34.093  1.00  0.00     0.047 A 
ATOM     26  C   UNL A   1      45.357  22.889  36.118  1.00  0.00     0.132 A 
ATOM     27  C   UNL A   1      43.810  23.707  33.934  1.00  0.00     0.023 A 
ATOM     28  C   UNL A   1      45.005  24.241  35.950  1.00  0.00     0.284 A 
BRANCH  24  29
ATOM     29  O   UNL A   1      45.254  20.622  35.199  1.00  0.00    -0.497 OA
ATOM     30  C   UNL A   1      46.543  20.283  34.699  1.00  0.00     0.278 C 
ENDBRANCH  24  29
BRANCH  28  31
ATOM     31  N   UNL A   1      45.477  25.183  36.961  1.00  0.00     0.063 N 
ATOM     32  O   UNL A   1      44.699  25.518  37.863  1.00  0.00    -0.258 OA
ATOM     33  O   UNL A   1      46.653  25.565  36.865  1.00  0.00    -0.258 OA
ENDBRANCH  28  31
ENDBRANCH  19  23
ENDBRANCH  15  18
ENDBRANCH  13  14
ENDBRANCH   8  13
ENDBRANCH   4   7
ENDBRANCH   2   3
ENDBRANCH   1   2
BRANCH   1  34
ATOM     34  C   UNL A   1      34.018  33.611  32.987  1.00  0.00     0.002 C 
BRANCH  34  35
ATOM     35  C   UNL A   1      34.684  32.795  31.871  1.00  0.00     0.002 C 
BRANCH  35  36
ATOM     36  C   UNL A   1      34.393  33.293  30.453  1.00  0.00     0.021 C 
BRANCH  36  37
ATOM     37  C   UNL A   1      35.208  32.598  29.369  1.00  0.00     0.116 C 
BRANCH  37  38
ATOM     38  N   UNL A   1      34.444  31.548  28.718  1.00  0.00    -0.352 N 
ATOM     39  C   UNL A   1      34.883  30.397  28.116  1.00  0.00     0.251 C 
ATOM     40  H   UNL A   1      33.468  31.681  28.707  1.00  0.00     0.163 HD
ATOM     41  O   UNL A   1      34.124  29.746  27.406  1.00  0.00    -0.269 OA
BRANCH  39  42
ATOM     42  C   UNL A   1      36.273  29.938  28.321  1.00  0.00     0.039 A 
ATOM     43  C   UNL A   1      36.609  29.329  29.533  1.00  0.00     0.014 A 
ATOM     44  C   UNL A   1      37.253  30.154  27.348  1.00  0.00     0.014 A 
ATOM     45  C   UNL A   1      37.924  28.921  29.761  1.00  0.00     0.010 A 
ATOM     46  C   UNL A   1      38.544  29.676  27.544  1.00  0.00     0.010 A 
ATOM     47  C   UNL A   1      38.900  29.080  28.764  1.00  0.00    -0.014 A 
BRANCH  47  48
ATOM     48  C   UNL A   1      40.310  28.689  29.007  1.00  0.00     0.031 A 
ATOM     49  C   UNL A   1      41.237  29.632  29.726  1.00  0.00     0.074 A 
ATOM     50  C   UNL A   1      40.766  27.505  28.553  1.00  0.00     0.049 A 
ATOM     51  N   UNL A   1      42.508  29.494  30.006  1.00  0.00    -0.248 NA
ATOM     52  C   UNL A   1      40.664  30.915  30.163  1.00  0.00     0.031 C 
ATOM     53  C   UNL A   1      39.975  26.527  27.806  1.00  0.00     0.029 A 
ATOM     54  N   UNL A   1      42.005  26.927  28.653  1.00  0.00    -0.354 N 
ATOM     55  C   UNL A   1      42.886  30.673  30.637  1.00  0.00     0.074 A 
ATOM     56  C   UNL A   1      41.729  31.541  30.642  1.00  0.00     0.031 C 
ATOM     57  C   UNL A   1      40.742  25.458  27.538  1.00  0.00     0.029 A 
ATOM     58  C   UNL A   1      42.084  25.689  28.063  1.00  0.00     0.049 A 
ATOM     59  H   UNL A   1      42.767  27.360  29.103  1.00  0.00     0.167 HD
ATOM     60  C   UNL A   1      44.081  30.992  31.187  1.00  0.00     0.037 A 
ATOM     61  C   UNL A   1      43.124  24.841  27.960  1.00  0.00     0.037 A 
ATOM     62  C   UNL A   1      45.220  30.114  31.204  1.00  0.00     0.049 A 
ATOM     63  C   UNL A   1      44.442  25.218  28.584  1.00  0.00     0.074 A 
ATOM     64  C   UNL A   1      46.461  30.319  31.781  1.00  0.00     0.029 A 
ATOM     65  N   UNL A   1      45.255  28.857  30.617  1.00  0.00    -0.354 N 
ATOM     66  N   UNL A   1      44.768  26.307  29.236  1.00  0.00    -0.248 NA
ATOM     67  C   UNL A   1      45.531  24.239  28.469  1.00  0.00     0.031 C 
ATOM     68  C   UNL A   1      47.262  29.207  31.501  1.00  0.00     0.029 A 
ATOM     69  C   UNL A   1      46.503  28.284  30.801  1.00  0.00     0.049 A 
ATOM     70  H   UNL A   1      44.504  28.436  30.139  1.00  0.00     0.167 HD
ATOM     71  C   UNL A   1      46.085  26.130  29.640  1.00  0.00     0.074 A 
ATOM     72  C   UNL A   1      46.492  24.823  29.169  1.00  0.00     0.031 C 
ATOM     73  C   UNL A   1      46.884  26.973  30.339  1.00  0.00     0.037 A 
BRANCH  60  74
ATOM     74  C   UNL A   1      44.215  32.349  31.818  1.00  0.00     0.064 A 
ATOM     75  C   UNL A   1      43.991  32.550  33.190  1.00  0.00     0.173 A 
ATOM     76  C   UNL A   1      44.599  33.458  31.050  1.00  0.00     0.173 A 
ATOM     77  F   UNL A   1      43.611  31.527  33.969  1.00  0.00    -0.203 F 
ATOM     78  C   UNL A   1      44.115  33.815  33.760  1.00  0.00     0.198 A 
ATOM     79  C   UNL A   1      44.754  34.715  31.630  1.00  0.00     0.198 A 
ATOM     80  F   UNL A   1      44.831  33.323  29.735  1.00  0.00    -0.203 F 
ATOM     81  F   UNL A   1      43.840  33.992  35.059  1.00  0.00    -0.200 F 
ATOM     82  C   UNL A   1      44.502  34.894  32.981  1.00  0.00     0.200 A 
ATOM     83  F   UNL A   1      45.142  35.754  30.878  1.00  0.00    -0.200 F 
ATOM     84  F   UNL A   1      44.626  36.110  33.532  1.00  0.00    -0.200 F 
ENDBRANCH  60  74
BRANCH  61  85
ATOM     85  C   UNL A   1      42.953  23.535  27.270  1.00  0.00     0.064 A 
ATOM     86  C   UNL A   1      42.326  22.458  27.910  1.00  0.00     0.173 A 
ATOM     87  C   UNL A   1      43.419  23.335  25.962  1.00  0.00     0.173 A 
ATOM     88  F   UNL A   1      41.878  22.594  29.168  1.00  0.00    -0.203 F 
ATOM     89  C   UNL A   1      42.194  21.222  27.280  1.00  0.00     0.198 A 
ATOM     90  C   UNL A   1      43.260  22.108  25.321  1.00  0.00     0.198 A 
ATOM     91  F   UNL A   1      44.019  24.336  25.302  1.00  0.00    -0.203 F 
ATOM     92  F   UNL A   1      41.636  20.194  27.935  1.00  0.00    -0.200 F 
ATOM     93  C   UNL A   1      42.657  21.050  25.984  1.00  0.00     0.200 A 
ATOM     94  F   UNL A   1      43.693  21.951  24.063  1.00  0.00    -0.200 F 
ATOM     95  F   UNL A   1      42.528  19.862  25.376  1.00  0.00    -0.200 F 
ENDBRANCH  61  85
BRANCH  73  96
ATOM     96  C   UNL A   1      48.263  26.488  30.684  1.00  0.00     0.064 A 
ATOM     97  C   UNL A   1      48.514  25.726  31.835  1.00  0.00     0.173 A 
ATOM     98  C   UNL A   1      49.342  26.759  29.829  1.00  0.00     0.173 A 
ATOM     99  F   UNL A   1      47.520  25.451  32.693  1.00  0.00    -0.203 F 
ATOM    100  C   UNL A   1      49.800  25.281  32.132  1.00  0.00     0.198 A 
ATOM    101  C   UNL A   1      50.619  26.284  30.111  1.00  0.00     0.198 A 
ATOM    102  F   UNL A   1      49.154  27.476  28.710  1.00  0.00    -0.203 F 
ATOM    103  F   UNL A   1      50.026  24.601  33.264  1.00  0.00    -0.200 F 
ATOM    104  C   UNL A   1      50.850  25.554  31.267  1.00  0.00     0.200 A 
ATOM    105  F   UNL A   1      51.628  26.535  29.265  1.00  0.00    -0.200 F 
ATOM    106  F   UNL A   1      52.085  25.119  31.551  1.00  0.00    -0.200 F 
ENDBRANCH  73  96
ENDBRANCH  47  48
ENDBRANCH  39  42
ENDBRANCH  37  38
ENDBRANCH  36  37
ENDBRANCH  35  36
ENDBRANCH  34  35
ENDBRANCH   1  34
TORSDOF 19
ENDMDL
