MODEL 1
REMARK VINA RESULT:     -11.4      0.000      0.000
REMARK SMILES C=C(c1ccccc1)[C@@H](C(=O)NCCCCCCNC(=O)c1ccc(-c2c3nc(c(-c4c(F)c(F)c(F)c(F)c4F)c4ccc([nH]4)c(-c4c(F)c(F)c(F)c(F)c4F)c4nc(c(-c5c(F)c(F)c(F)c(F)c5F)c5ccc2[nH]5)C=C4)C=C3)cc1)S(C)(=O)=O
REMARK SMILES IDX 15 1 14 2 13 3 12 4 10 5 11 6 9 8 2 9 1 10 3 11 4 12 8 13
REMARK SMILES IDX 5 14 7 15 6 16 85 17 86 18 87 19 88 20 16 21 17 22 18 23
REMARK SMILES IDX 19 24 20 25 21 27 22 28 23 29 84 30 24 31 83 32 25 33 26 34
REMARK SMILES IDX 27 35 77 36 28 37 82 38 76 39 78 40 29 41 81 42 75 43 74 44
REMARK SMILES IDX 30 46 62 47 42 48 61 49 43 50 46 51 60 52 79 53 44 54 45 55
REMARK SMILES IDX 59 57 80 58 47 59 31 60 32 61 40 62 33 63 34 64 38 65 41 66
REMARK SMILES IDX 35 67 36 68 39 69 37 70 63 71 64 72 72 73 65 74 66 75 70 76
REMARK SMILES IDX 73 77 67 78 68 79 71 80 69 81 48 82 49 83 57 84 50 85 51 86
REMARK SMILES IDX 55 87 58 88 52 89 53 90 56 91 54 92
REMARK H PARENT 12 7 19 26 78 45 46 56
REMARK Flexibility Score: inf
ROOT
ATOM      1  C   UNL A   1      31.793  29.367  27.200  1.00  0.00     0.002 C 
ENDROOT
BRANCH   1   2
ATOM      2  C   UNL A   1      33.186  28.724  27.201  1.00  0.00     0.021 C 
BRANCH   2   3
ATOM      3  C   UNL A   1      33.795  28.574  25.804  1.00  0.00     0.116 C 
BRANCH   3   4
ATOM      4  N   UNL A   1      34.032  27.177  25.507  1.00  0.00    -0.355 N 
ATOM      5  C   UNL A   1      33.325  26.325  24.697  1.00  0.00     0.242 C 
ATOM      6  O   UNL A   1      33.559  25.126  24.844  1.00  0.00    -0.273 OA
ATOM      7  H   UNL A   1      34.817  26.781  25.950  1.00  0.00     0.163 HD
BRANCH   5   8
ATOM      8  C   UNL A   1      32.343  26.897  23.675  1.00  0.00     0.227 C 
BRANCH   8   9
ATOM      9  C   UNL A   1      30.912  27.009  24.202  1.00  0.00    -0.020 C 
ATOM     10  C   UNL A   1      30.483  26.350  25.296  1.00  0.00     0.015 C 
BRANCH   9  11
ATOM     11  C   UNL A   1      29.982  27.947  23.502  1.00  0.00    -0.021 A 
ATOM     12  C   UNL A   1      30.422  29.165  22.959  1.00  0.00     0.008 A 
ATOM     13  C   UNL A   1      28.600  27.687  23.466  1.00  0.00     0.008 A 
ATOM     14  C   UNL A   1      29.520  30.089  22.419  1.00  0.00     0.001 A 
ATOM     15  C   UNL A   1      27.696  28.612  22.935  1.00  0.00     0.001 A 
ATOM     16  C   UNL A   1      28.157  29.816  22.414  1.00  0.00     0.000 A 
ENDBRANCH   9  11
ENDBRANCH   8   9
BRANCH   8  17
ATOM     17  S   UNL A   1      32.426  25.891  22.171  1.00  0.00     0.163 S 
ATOM     18  C   UNL A   1      31.758  24.315  22.642  1.00  0.00     0.159 C 
ATOM     19  O   UNL A   1      31.471  26.429  21.214  1.00  0.00    -0.228 OA
ATOM     20  O   UNL A   1      33.799  25.633  21.780  1.00  0.00    -0.228 OA
ENDBRANCH   8  17
ENDBRANCH   5   8
ENDBRANCH   3   4
ENDBRANCH   2   3
ENDBRANCH   1   2
BRANCH   1  21
ATOM     21  C   UNL A   1      31.557  30.387  26.082  1.00  0.00     0.002 C 
BRANCH  21  22
ATOM     22  C   UNL A   1      31.394  31.833  26.556  1.00  0.00     0.021 C 
BRANCH  22  23
ATOM     23  C   UNL A   1      32.668  32.456  27.117  1.00  0.00     0.116 C 
BRANCH  23  24
ATOM     24  N   UNL A   1      32.478  33.854  27.473  1.00  0.00    -0.352 N 
ATOM     25  C   UNL A   1      33.074  34.590  28.465  1.00  0.00     0.251 C 
ATOM     26  H   UNL A   1      31.827  34.343  26.921  1.00  0.00     0.163 HD
ATOM     27  O   UNL A   1      32.638  35.698  28.761  1.00  0.00    -0.269 OA
BRANCH  25  28
ATOM     28  C   UNL A   1      34.236  34.040  29.193  1.00  0.00     0.039 A 
ATOM     29  C   UNL A   1      34.027  33.037  30.142  1.00  0.00     0.014 A 
ATOM     30  C   UNL A   1      35.526  34.518  28.949  1.00  0.00     0.014 A 
ATOM     31  C   UNL A   1      35.119  32.473  30.805  1.00  0.00     0.010 A 
ATOM     32  C   UNL A   1      36.620  33.902  29.551  1.00  0.00     0.010 A 
ATOM     33  C   UNL A   1      36.427  32.877  30.489  1.00  0.00    -0.014 A 
BRANCH  33  34
ATOM     34  C   UNL A   1      37.605  32.235  31.127  1.00  0.00     0.031 A 
ATOM     35  C   UNL A   1      38.371  31.166  30.399  1.00  0.00     0.074 A 
ATOM     36  C   UNL A   1      37.943  32.571  32.386  1.00  0.00     0.049 A 
ATOM     37  N   UNL A   1      39.387  30.450  30.812  1.00  0.00    -0.248 NA
ATOM     38  C   UNL A   1      37.920  30.838  29.038  1.00  0.00     0.031 C 
ATOM     39  C   UNL A   1      37.253  33.564  33.210  1.00  0.00     0.029 A 
ATOM     40  N   UNL A   1      38.951  32.111  33.196  1.00  0.00    -0.354 N 
ATOM     41  C   UNL A   1      39.684  29.579  29.770  1.00  0.00     0.074 A 
ATOM     42  C   UNL A   1      38.708  29.819  28.729  1.00  0.00     0.031 C 
ATOM     43  C   UNL A   1      37.875  33.661  34.396  1.00  0.00     0.029 A 
ATOM     44  C   UNL A   1      38.979  32.707  34.434  1.00  0.00     0.049 A 
ATOM     45  H   UNL A   1      39.593  31.419  32.917  1.00  0.00     0.167 HD
ATOM     46  C   UNL A   1      40.691  28.678  29.684  1.00  0.00     0.037 A 
ATOM     47  C   UNL A   1      39.798  32.502  35.483  1.00  0.00     0.037 A 
ATOM     48  C   UNL A   1      41.674  28.463  30.714  1.00  0.00     0.049 A 
ATOM     49  C   UNL A   1      40.897  31.479  35.366  1.00  0.00     0.074 A 
ATOM     50  C   UNL A   1      42.775  27.625  30.692  1.00  0.00     0.029 A 
ATOM     51  N   UNL A   1      41.669  29.084  31.954  1.00  0.00    -0.354 N 
ATOM     52  N   UNL A   1      41.215  30.717  34.348  1.00  0.00    -0.248 NA
ATOM     53  C   UNL A   1      41.753  31.291  36.546  1.00  0.00     0.031 C 
ATOM     54  C   UNL A   1      43.399  27.691  31.942  1.00  0.00     0.029 A 
ATOM     55  C   UNL A   1      42.728  28.621  32.719  1.00  0.00     0.049 A 
ATOM     56  H   UNL A   1      41.010  29.755  32.247  1.00  0.00     0.167 HD
ATOM     57  C   UNL A   1      42.326  29.987  34.749  1.00  0.00     0.074 A 
ATOM     58  C   UNL A   1      42.634  30.408  36.100  1.00  0.00     0.031 C 
ATOM     59  C   UNL A   1      43.029  29.054  34.061  1.00  0.00     0.037 A 
BRANCH  46  60
ATOM     60  C   UNL A   1      40.778  27.846  28.435  1.00  0.00     0.064 A 
ATOM     61  C   UNL A   1      41.529  28.256  27.322  1.00  0.00     0.173 A 
ATOM     62  C   UNL A   1      40.129  26.604  28.364  1.00  0.00     0.173 A 
ATOM     63  F   UNL A   1      42.161  29.440  27.332  1.00  0.00    -0.203 F 
ATOM     64  C   UNL A   1      41.600  27.468  26.175  1.00  0.00     0.198 A 
ATOM     65  C   UNL A   1      40.231  25.804  27.229  1.00  0.00     0.198 A 
ATOM     66  F   UNL A   1      39.402  26.159  29.400  1.00  0.00    -0.203 F 
ATOM     67  F   UNL A   1      42.278  27.907  25.105  1.00  0.00    -0.200 F 
ATOM     68  C   UNL A   1      40.958  26.241  26.132  1.00  0.00     0.200 A 
ATOM     69  F   UNL A   1      39.623  24.609  27.196  1.00  0.00    -0.200 F 
ATOM     70  F   UNL A   1      41.034  25.481  25.031  1.00  0.00    -0.200 F 
ENDBRANCH  46  60
BRANCH  47  71
ATOM     71  C   UNL A   1      39.631  33.299  36.726  1.00  0.00     0.064 A 
ATOM     72  C   UNL A   1      40.364  34.478  36.928  1.00  0.00     0.173 A 
ATOM     73  C   UNL A   1      38.750  32.899  37.742  1.00  0.00     0.173 A 
ATOM     74  F   UNL A   1      41.235  34.891  35.996  1.00  0.00    -0.203 F 
ATOM     75  C   UNL A   1      40.240  35.211  38.105  1.00  0.00     0.198 A 
ATOM     76  C   UNL A   1      38.602  33.651  38.905  1.00  0.00     0.198 A 
ATOM     77  F   UNL A   1      38.021  31.782  37.597  1.00  0.00    -0.203 F 
ATOM     78  F   UNL A   1      40.991  36.305  38.293  1.00  0.00    -0.200 F 
ATOM     79  C   UNL A   1      39.355  34.802  39.091  1.00  0.00     0.200 A 
ATOM     80  F   UNL A   1      37.734  33.259  39.848  1.00  0.00    -0.200 F 
ATOM     81  F   UNL A   1      39.233  35.509  40.222  1.00  0.00    -0.200 F 
ENDBRANCH  47  71
BRANCH  59  82
ATOM     82  C   UNL A   1      44.228  28.453  34.738  1.00  0.00     0.064 A 
ATOM     83  C   UNL A   1      44.142  27.263  35.476  1.00  0.00     0.173 A 
ATOM     84  C   UNL A   1      45.488  29.059  34.614  1.00  0.00     0.173 A 
ATOM     85  F   UNL A   1      42.959  26.652  35.638  1.00  0.00    -0.203 F 
ATOM     86  C   UNL A   1      45.268  26.718  36.088  1.00  0.00     0.198 A 
ATOM     87  C   UNL A   1      46.617  28.492  35.197  1.00  0.00     0.198 A 
ATOM     88  F   UNL A   1      45.627  30.195  33.914  1.00  0.00    -0.203 F 
ATOM     89  F   UNL A   1      45.153  25.609  36.832  1.00  0.00    -0.200 F 
ATOM     90  C   UNL A   1      46.506  27.328  35.941  1.00  0.00     0.200 A 
ATOM     91  F   UNL A   1      47.814  29.074  35.040  1.00  0.00    -0.200 F 
ATOM     92  F   UNL A   1      47.590  26.796  36.523  1.00  0.00    -0.200 F 
ENDBRANCH  59  82
ENDBRANCH  33  34
ENDBRANCH  25  28
ENDBRANCH  23  24
ENDBRANCH  22  23
ENDBRANCH  21  22
ENDBRANCH   1  21
TORSDOF 16
ENDMDL
MODEL 2
REMARK VINA RESULT:     -11.4      0.633      1.801
REMARK SMILES C=C(c1ccccc1)[C@@H](C(=O)NCCCCCCNC(=O)c1ccc(-c2c3nc(c(-c4c(F)c(F)c(F)c(F)c4F)c4ccc([nH]4)c(-c4c(F)c(F)c(F)c(F)c4F)c4nc(c(-c5c(F)c(F)c(F)c(F)c5F)c5ccc2[nH]5)C=C4)C=C3)cc1)S(C)(=O)=O
REMARK SMILES IDX 15 1 14 2 13 3 12 4 10 5 11 6 9 8 2 9 1 10 3 11 4 12 8 13
REMARK SMILES IDX 5 14 7 15 6 16 85 17 86 18 87 19 88 20 16 21 17 22 18 23
REMARK SMILES IDX 19 24 20 25 21 27 22 28 23 29 84 30 24 31 83 32 25 33 26 34
REMARK SMILES IDX 27 35 77 36 28 37 82 38 76 39 78 40 29 41 81 42 75 43 74 44
REMARK SMILES IDX 30 46 62 47 42 48 61 49 43 50 46 51 60 52 79 53 44 54 45 55
REMARK SMILES IDX 59 57 80 58 47 59 31 60 32 61 40 62 33 63 34 64 38 65 41 66
REMARK SMILES IDX 35 67 36 68 39 69 37 70 63 71 64 72 72 73 65 74 66 75 70 76
REMARK SMILES IDX 73 77 67 78 68 79 71 80 69 81 48 82 49 83 57 84 50 85 51 86
REMARK SMILES IDX 55 87 58 88 52 89 53 90 56 91 54 92
REMARK H PARENT 12 7 19 26 78 45 46 56
REMARK Flexibility Score: inf
ROOT
ATOM      1  C   UNL A   1      31.811  29.491  26.966  1.00  0.00     0.002 C 
ENDROOT
BRANCH   1   2
ATOM      2  C   UNL A   1      33.241  28.945  27.054  1.00  0.00     0.021 C 
BRANCH   2   3
ATOM      3  C   UNL A   1      33.706  28.232  25.782  1.00  0.00     0.116 C 
BRANCH   3   4
ATOM      4  N   UNL A   1      33.510  26.802  25.907  1.00  0.00    -0.355 N 
ATOM      5  C   UNL A   1      32.610  25.986  25.271  1.00  0.00     0.242 C 
ATOM      6  O   UNL A   1      32.453  24.871  25.765  1.00  0.00    -0.273 OA
ATOM      7  H   UNL A   1      34.112  26.350  26.542  1.00  0.00     0.163 HD
BRANCH   5   8
ATOM      8  C   UNL A   1      31.902  26.482  24.010  1.00  0.00     0.227 C 
BRANCH   8   9
ATOM      9  C   UNL A   1      30.419  26.788  24.225  1.00  0.00    -0.020 C 
ATOM     10  C   UNL A   1      29.648  26.092  25.082  1.00  0.00     0.015 C 
BRANCH   9  11
ATOM     11  C   UNL A   1      29.835  27.955  23.498  1.00  0.00    -0.021 A 
ATOM     12  C   UNL A   1      28.449  28.153  23.395  1.00  0.00     0.008 A 
ATOM     13  C   UNL A   1      30.666  28.842  22.788  1.00  0.00     0.008 A 
ATOM     14  C   UNL A   1      27.916  29.178  22.607  1.00  0.00     0.001 A 
ATOM     15  C   UNL A   1      30.136  29.862  21.993  1.00  0.00     0.001 A 
ATOM     16  C   UNL A   1      28.759  30.028  21.900  1.00  0.00     0.000 A 
ENDBRANCH   9  11
ENDBRANCH   8   9
BRANCH   8  17
ATOM     17  S   UNL A   1      32.151  25.263  22.693  1.00  0.00     0.163 S 
ATOM     18  C   UNL A   1      33.866  24.822  22.801  1.00  0.00     0.159 C 
ATOM     19  O   UNL A   1      31.430  24.052  23.057  1.00  0.00    -0.228 OA
ATOM     20  O   UNL A   1      31.981  25.858  21.381  1.00  0.00    -0.228 OA
ENDBRANCH   8  17
ENDBRANCH   5   8
ENDBRANCH   3   4
ENDBRANCH   2   3
ENDBRANCH   1   2
BRANCH   1  21
ATOM     21  C   UNL A   1      31.604  30.583  25.912  1.00  0.00     0.002 C 
BRANCH  21  22
ATOM     22  C   UNL A   1      31.371  31.986  26.478  1.00  0.00     0.021 C 
BRANCH  22  23
ATOM     23  C   UNL A   1      32.555  32.554  27.252  1.00  0.00     0.116 C 
BRANCH  23  24
ATOM     24  N   UNL A   1      32.390  33.972  27.533  1.00  0.00    -0.352 N 
ATOM     25  C   UNL A   1      33.012  34.753  28.473  1.00  0.00     0.251 C 
ATOM     26  H   UNL A   1      31.737  34.440  26.964  1.00  0.00     0.163 HD
ATOM     27  O   UNL A   1      32.597  35.882  28.715  1.00  0.00    -0.269 OA
BRANCH  25  28
ATOM     28  C   UNL A   1      34.178  34.227  29.212  1.00  0.00     0.039 A 
ATOM     29  C   UNL A   1      33.963  33.453  30.355  1.00  0.00     0.014 A 
ATOM     30  C   UNL A   1      35.481  34.504  28.788  1.00  0.00     0.014 A 
ATOM     31  C   UNL A   1      35.052  32.908  31.037  1.00  0.00     0.010 A 
ATOM     32  C   UNL A   1      36.561  33.897  29.422  1.00  0.00     0.010 A 
ATOM     33  C   UNL A   1      36.358  33.097  30.556  1.00  0.00    -0.014 A 
BRANCH  33  34
ATOM     34  C   UNL A   1      37.523  32.462  31.224  1.00  0.00     0.031 A 
ATOM     35  C   UNL A   1      38.264  31.341  30.551  1.00  0.00     0.074 A 
ATOM     36  C   UNL A   1      37.871  32.854  32.465  1.00  0.00     0.049 A 
ATOM     37  N   UNL A   1      39.265  30.625  30.998  1.00  0.00    -0.248 NA
ATOM     38  C   UNL A   1      37.803  30.955  29.209  1.00  0.00     0.031 C 
ATOM     39  C   UNL A   1      37.205  33.903  33.238  1.00  0.00     0.029 A 
ATOM     40  N   UNL A   1      38.871  32.414  33.296  1.00  0.00    -0.354 N 
ATOM     41  C   UNL A   1      39.540  29.696  30.002  1.00  0.00     0.074 A 
ATOM     42  C   UNL A   1      38.567  29.904  28.951  1.00  0.00     0.031 C 
ATOM     43  C   UNL A   1      37.831  34.046  34.417  1.00  0.00     0.029 A 
ATOM     44  C   UNL A   1      38.914  33.070  34.502  1.00  0.00     0.049 A 
ATOM     45  H   UNL A   1      39.497  31.695  33.051  1.00  0.00     0.167 HD
ATOM     46  C   UNL A   1      40.527  28.770  29.960  1.00  0.00     0.037 A 
ATOM     47  C   UNL A   1      39.731  32.901  35.559  1.00  0.00     0.037 A 
ATOM     48  C   UNL A   1      41.507  28.585  30.999  1.00  0.00     0.049 A 
ATOM     49  C   UNL A   1      40.807  31.850  35.493  1.00  0.00     0.074 A 
ATOM     50  C   UNL A   1      42.589  27.723  31.018  1.00  0.00     0.029 A 
ATOM     51  N   UNL A   1      41.518  29.268  32.205  1.00  0.00    -0.354 N 
ATOM     52  N   UNL A   1      41.106  31.030  34.514  1.00  0.00    -0.248 NA
ATOM     53  C   UNL A   1      41.661  31.703  36.680  1.00  0.00     0.031 C 
ATOM     54  C   UNL A   1      43.217  27.838  32.263  1.00  0.00     0.029 A 
ATOM     55  C   UNL A   1      42.569  28.821  32.992  1.00  0.00     0.049 A 
ATOM     56  H   UNL A   1      40.875  29.968  32.465  1.00  0.00     0.167 HD
ATOM     57  C   UNL A   1      42.202  30.297  34.951  1.00  0.00     0.074 A 
ATOM     58  C   UNL A   1      42.522  30.779  36.279  1.00  0.00     0.031 C 
ATOM     59  C   UNL A   1      42.882  29.315  34.310  1.00  0.00     0.037 A 
BRANCH  46  60
ATOM     60  C   UNL A   1      40.592  27.874  28.755  1.00  0.00     0.064 A 
ATOM     61  C   UNL A   1      39.883  26.664  28.690  1.00  0.00     0.173 A 
ATOM     62  C   UNL A   1      41.346  28.250  27.632  1.00  0.00     0.173 A 
ATOM     63  F   UNL A   1      39.154  26.252  29.739  1.00  0.00    -0.203 F 
ATOM     64  C   UNL A   1      39.954  25.850  27.562  1.00  0.00     0.198 A 
ATOM     65  C   UNL A   1      41.387  27.450  26.493  1.00  0.00     0.198 A 
ATOM     66  F   UNL A   1      42.040  29.399  27.636  1.00  0.00    -0.203 F 
ATOM     67  F   UNL A   1      39.312  24.674  27.547  1.00  0.00    -0.200 F 
ATOM     68  C   UNL A   1      40.698  26.247  26.462  1.00  0.00     0.200 A 
ATOM     69  F   UNL A   1      42.095  27.844  25.425  1.00  0.00    -0.200 F 
ATOM     70  F   UNL A   1      40.759  25.467  25.375  1.00  0.00    -0.200 F 
ENDBRANCH  46  60
BRANCH  47  71
ATOM     71  C   UNL A   1      39.584  33.763  36.761  1.00  0.00     0.064 A 
ATOM     72  C   UNL A   1      40.228  35.007  36.835  1.00  0.00     0.173 A 
ATOM     73  C   UNL A   1      38.812  33.364  37.861  1.00  0.00     0.173 A 
ATOM     74  F   UNL A   1      40.996  35.424  35.818  1.00  0.00    -0.203 F 
ATOM     75  C   UNL A   1      40.125  35.805  37.972  1.00  0.00     0.198 A 
ATOM     76  C   UNL A   1      38.682  34.177  38.984  1.00  0.00     0.198 A 
ATOM     77  F   UNL A   1      38.170  32.185  37.839  1.00  0.00    -0.203 F 
ATOM     78  F   UNL A   1      40.794  36.965  38.036  1.00  0.00    -0.200 F 
ATOM     79  C   UNL A   1      39.348  35.394  39.043  1.00  0.00     0.200 A 
ATOM     80  F   UNL A   1      37.917  33.782  40.011  1.00  0.00    -0.200 F 
ATOM     81  F   UNL A   1      39.245  36.163  40.135  1.00  0.00    -0.200 F 
ENDBRANCH  47  71
BRANCH  59  82
ATOM     82  C   UNL A   1      44.069  28.723  35.015  1.00  0.00     0.064 A 
ATOM     83  C   UNL A   1      45.352  29.278  34.897  1.00  0.00     0.173 A 
ATOM     84  C   UNL A   1      43.912  27.606  35.851  1.00  0.00     0.173 A 
ATOM     85  F   UNL A   1      45.560  30.337  34.099  1.00  0.00    -0.203 F 
ATOM     86  C   UNL A   1      46.438  28.720  35.567  1.00  0.00     0.198 A 
ATOM     87  C   UNL A   1      44.992  27.073  36.546  1.00  0.00     0.198 A 
ATOM     88  F   UNL A   1      42.705  27.041  36.005  1.00  0.00    -0.203 F 
ATOM     89  F   UNL A   1      47.664  29.234  35.397  1.00  0.00    -0.200 F 
ATOM     90  C   UNL A   1      46.256  27.623  36.397  1.00  0.00     0.200 A 
ATOM     91  F   UNL A   1      44.811  26.024  37.361  1.00  0.00    -0.200 F 
ATOM     92  F   UNL A   1      47.301  27.093  37.049  1.00  0.00    -0.200 F 
ENDBRANCH  59  82
ENDBRANCH  33  34
ENDBRANCH  25  28
ENDBRANCH  23  24
ENDBRANCH  22  23
ENDBRANCH  21  22
ENDBRANCH   1  21
TORSDOF 16
ENDMDL
MODEL 3
REMARK VINA RESULT:     -11.3      0.791      7.533
REMARK SMILES C=C(c1ccccc1)[C@@H](C(=O)NCCCCCCNC(=O)c1ccc(-c2c3nc(c(-c4c(F)c(F)c(F)c(F)c4F)c4ccc([nH]4)c(-c4c(F)c(F)c(F)c(F)c4F)c4nc(c(-c5c(F)c(F)c(F)c(F)c5F)c5ccc2[nH]5)C=C4)C=C3)cc1)S(C)(=O)=O
REMARK SMILES IDX 15 1 14 2 13 3 12 4 10 5 11 6 9 8 2 9 1 10 3 11 4 12 8 13
REMARK SMILES IDX 5 14 7 15 6 16 85 17 86 18 87 19 88 20 16 21 17 22 18 23
REMARK SMILES IDX 19 24 20 25 21 27 22 28 23 29 84 30 24 31 83 32 25 33 26 34
REMARK SMILES IDX 27 35 77 36 28 37 82 38 76 39 78 40 29 41 81 42 75 43 74 44
REMARK SMILES IDX 30 46 62 47 42 48 61 49 43 50 46 51 60 52 79 53 44 54 45 55
REMARK SMILES IDX 59 57 80 58 47 59 31 60 32 61 40 62 33 63 34 64 38 65 41 66
REMARK SMILES IDX 35 67 36 68 39 69 37 70 63 71 64 72 72 73 65 74 66 75 70 76
REMARK SMILES IDX 73 77 67 78 68 79 71 80 69 81 48 82 49 83 57 84 50 85 51 86
REMARK SMILES IDX 55 87 58 88 52 89 53 90 56 91 54 92
REMARK H PARENT 12 7 19 26 78 45 46 56
REMARK Flexibility Score: inf
ROOT
ATOM      1  C   UNL A   1      32.422  30.044  26.381  1.00  0.00     0.002 C 
ENDROOT
BRANCH   1   2
ATOM      2  C   UNL A   1      31.813  28.893  27.191  1.00  0.00     0.021 C 
BRANCH   2   3
ATOM      3  C   UNL A   1      32.517  27.550  26.977  1.00  0.00     0.116 C 
BRANCH   3   4
ATOM      4  N   UNL A   1      31.543  26.483  26.880  1.00  0.00    -0.355 N 
ATOM      5  C   UNL A   1      30.604  26.244  25.909  1.00  0.00     0.242 C 
ATOM      6  O   UNL A   1      29.714  25.449  26.206  1.00  0.00    -0.273 OA
ATOM      7  H   UNL A   1      31.558  25.832  27.618  1.00  0.00     0.163 HD
BRANCH   5   8
ATOM      8  C   UNL A   1      30.730  26.935  24.551  1.00  0.00     0.227 C 
BRANCH   8   9
ATOM      9  C   UNL A   1      29.390  27.139  23.844  1.00  0.00    -0.020 C 
ATOM     10  C   UNL A   1      28.401  26.224  23.877  1.00  0.00     0.015 C 
BRANCH   9  11
ATOM     11  C   UNL A   1      29.157  28.443  23.153  1.00  0.00    -0.021 A 
ATOM     12  C   UNL A   1      27.878  29.011  23.043  1.00  0.00     0.008 A 
ATOM     13  C   UNL A   1      30.210  29.094  22.484  1.00  0.00     0.008 A 
ATOM     14  C   UNL A   1      27.657  30.167  22.286  1.00  0.00     0.001 A 
ATOM     15  C   UNL A   1      29.991  30.244  21.721  1.00  0.00     0.001 A 
ATOM     16  C   UNL A   1      28.712  30.779  21.619  1.00  0.00     0.000 A 
ENDBRANCH   9  11
ENDBRANCH   8   9
BRANCH   8  17
ATOM     17  S   UNL A   1      31.888  25.988  23.529  1.00  0.00     0.163 S 
ATOM     18  C   UNL A   1      33.314  27.032  23.371  1.00  0.00     0.159 C 
ATOM     19  O   UNL A   1      32.347  24.846  24.308  1.00  0.00    -0.228 OA
ATOM     20  O   UNL A   1      31.383  25.808  22.182  1.00  0.00    -0.228 OA
ENDBRANCH   8  17
ENDBRANCH   5   8
ENDBRANCH   3   4
ENDBRANCH   2   3
ENDBRANCH   1   2
BRANCH   1  21
ATOM     21  C   UNL A   1      31.402  31.004  25.762  1.00  0.00     0.002 C 
BRANCH  21  22
ATOM     22  C   UNL A   1      31.243  32.335  26.501  1.00  0.00     0.021 C 
BRANCH  22  23
ATOM     23  C   UNL A   1      32.502  32.806  27.222  1.00  0.00     0.116 C 
BRANCH  23  24
ATOM     24  N   UNL A   1      32.407  34.200  27.626  1.00  0.00    -0.352 N 
ATOM     25  C   UNL A   1      33.073  34.867  28.623  1.00  0.00     0.251 C 
ATOM     26  H   UNL A   1      31.773  34.746  27.107  1.00  0.00     0.163 HD
ATOM     27  O   UNL A   1      32.713  35.989  28.965  1.00  0.00    -0.269 OA
BRANCH  25  28
ATOM     28  C   UNL A   1      34.217  34.225  29.301  1.00  0.00     0.039 A 
ATOM     29  C   UNL A   1      33.975  33.384  30.389  1.00  0.00     0.014 A 
ATOM     30  C   UNL A   1      35.527  34.458  28.872  1.00  0.00     0.014 A 
ATOM     31  C   UNL A   1      35.041  32.732  31.011  1.00  0.00     0.010 A 
ATOM     32  C   UNL A   1      36.580  33.747  29.441  1.00  0.00     0.010 A 
ATOM     33  C   UNL A   1      36.349  32.881  30.520  1.00  0.00    -0.014 A 
BRANCH  33  34
ATOM     34  C   UNL A   1      37.484  32.135  31.120  1.00  0.00     0.031 A 
ATOM     35  C   UNL A   1      37.966  32.473  32.503  1.00  0.00     0.074 A 
ATOM     36  C   UNL A   1      38.122  31.198  30.392  1.00  0.00     0.049 A 
ATOM     37  N   UNL A   1      38.976  31.976  33.173  1.00  0.00    -0.248 NA
ATOM     38  C   UNL A   1      37.232  33.528  33.220  1.00  0.00     0.031 C 
ATOM     39  C   UNL A   1      37.776  30.809  29.025  1.00  0.00     0.029 A 
ATOM     40  N   UNL A   1      39.199  30.405  30.700  1.00  0.00    -0.354 N 
ATOM     41  C   UNL A   1      39.008  32.668  34.377  1.00  0.00     0.074 A 
ATOM     42  C   UNL A   1      37.951  33.655  34.325  1.00  0.00     0.031 C 
ATOM     43  C   UNL A   1      38.602  29.831  28.622  1.00  0.00     0.029 A 
ATOM     44  C   UNL A   1      39.565  29.554  29.684  1.00  0.00     0.049 A 
ATOM     45  H   UNL A   1      39.665  30.441  31.566  1.00  0.00     0.167 HD
ATOM     46  C   UNL A   1      39.830  32.482  35.436  1.00  0.00     0.037 A 
ATOM     47  C   UNL A   1      40.568  28.658  29.616  1.00  0.00     0.037 A 
ATOM     48  C   UNL A   1      40.864  31.480  35.491  1.00  0.00     0.049 A 
ATOM     49  C   UNL A   1      41.480  28.486  30.801  1.00  0.00     0.074 A 
ATOM     50  C   UNL A   1      41.702  31.164  36.546  1.00  0.00     0.029 A 
ATOM     51  N   UNL A   1      41.205  30.639  34.443  1.00  0.00    -0.354 N 
ATOM     52  N   UNL A   1      41.452  29.092  31.963  1.00  0.00    -0.248 NA
ATOM     53  C   UNL A   1      42.562  27.501  30.664  1.00  0.00     0.031 C 
ATOM     54  C   UNL A   1      42.593  30.177  36.115  1.00  0.00     0.029 A 
ATOM     55  C   UNL A   1      42.267  29.828  34.814  1.00  0.00     0.049 A 
ATOM     56  H   UNL A   1      40.760  30.621  33.565  1.00  0.00     0.167 HD
ATOM     57  C   UNL A   1      42.485  28.538  32.707  1.00  0.00     0.074 A 
ATOM     58  C   UNL A   1      43.113  27.539  31.868  1.00  0.00     0.031 C 
ATOM     59  C   UNL A   1      42.878  28.831  33.972  1.00  0.00     0.037 A 
BRANCH  46  60
ATOM     60  C   UNL A   1      39.655  33.386  36.624  1.00  0.00     0.064 A 
ATOM     61  C   UNL A   1      40.317  34.620  36.721  1.00  0.00     0.173 A 
ATOM     62  C   UNL A   1      38.782  33.030  37.664  1.00  0.00     0.173 A 
ATOM     63  F   UNL A   1      41.170  35.006  35.759  1.00  0.00    -0.203 F 
ATOM     64  C   UNL A   1      40.137  35.446  37.828  1.00  0.00     0.198 A 
ATOM     65  C   UNL A   1      38.579  33.874  38.752  1.00  0.00     0.198 A 
ATOM     66  F   UNL A   1      38.118  31.865  37.622  1.00  0.00    -0.203 F 
ATOM     67  F   UNL A   1      40.823  36.594  37.922  1.00  0.00    -0.200 F 
ATOM     68  C   UNL A   1      39.264  35.077  38.838  1.00  0.00     0.200 A 
ATOM     69  F   UNL A   1      37.721  33.522  39.721  1.00  0.00    -0.200 F 
ATOM     70  F   UNL A   1      39.086  35.876  39.898  1.00  0.00    -0.200 F 
ENDBRANCH  46  60
BRANCH  47  71
ATOM     71  C   UNL A   1      40.748  27.834  28.392  1.00  0.00     0.064 A 
ATOM     72  C   UNL A   1      40.141  26.575  28.279  1.00  0.00     0.173 A 
ATOM     73  C   UNL A   1      41.535  28.276  27.318  1.00  0.00     0.173 A 
ATOM     74  F   UNL A   1      39.396  26.099  29.287  1.00  0.00    -0.203 F 
ATOM     75  C   UNL A   1      40.334  25.780  27.151  1.00  0.00     0.198 A 
ATOM     76  C   UNL A   1      41.700  27.495  26.177  1.00  0.00     0.198 A 
ATOM     77  F   UNL A   1      42.134  29.475  27.373  1.00  0.00    -0.203 F 
ATOM     78  F   UNL A   1      39.784  24.560  27.092  1.00  0.00    -0.200 F 
ATOM     79  C   UNL A   1      41.108  26.243  26.098  1.00  0.00     0.200 A 
ATOM     80  F   UNL A   1      42.437  27.953  25.155  1.00  0.00    -0.200 F 
ATOM     81  F   UNL A   1      41.290  25.480  25.011  1.00  0.00    -0.200 F 
ENDBRANCH  47  71
BRANCH  59  82
ATOM     82  C   UNL A   1      44.014  28.031  34.545  1.00  0.00     0.064 A 
ATOM     83  C   UNL A   1      45.342  28.479  34.479  1.00  0.00     0.173 A 
ATOM     84  C   UNL A   1      43.763  26.817  35.203  1.00  0.00     0.173 A 
ATOM     85  F   UNL A   1      45.637  29.625  33.848  1.00  0.00    -0.203 F 
ATOM     86  C   UNL A   1      46.379  27.726  35.025  1.00  0.00     0.198 A 
ATOM     87  C   UNL A   1      44.797  26.085  35.778  1.00  0.00     0.198 A 
ATOM     88  F   UNL A   1      42.510  26.346  35.300  1.00  0.00    -0.203 F 
ATOM     89  F   UNL A   1      47.645  28.148  34.903  1.00  0.00    -0.200 F 
ATOM     90  C   UNL A   1      46.105  26.535  35.681  1.00  0.00     0.200 A 
ATOM     91  F   UNL A   1      44.529  24.943  36.427  1.00  0.00    -0.200 F 
ATOM     92  F   UNL A   1      47.103  25.817  36.215  1.00  0.00    -0.200 F 
ENDBRANCH  59  82
ENDBRANCH  33  34
ENDBRANCH  25  28
ENDBRANCH  23  24
ENDBRANCH  22  23
ENDBRANCH  21  22
ENDBRANCH   1  21
TORSDOF 16
ENDMDL
