MODEL 1
REMARK VINA RESULT:     -13.2      0.000      0.000
REMARK SMILES Cc1ccccc1NC(=O)C[NH+]1CCC(CC(=O)NCCCCCCNC(=O)c2ccc(-c3c4nc(c(-c5c(F)c(F)c(F)c(F)c5F)c5ccc([nH]5)c(-c5c(F)c(F)c(F)c(F)c5F)c5nc(c(-c6c(F)c(F)c(F)c(F)c6F)c6ccc3[nH]6)C=C5)C=C4)cc2)CC1
REMARK SMILES IDX 21 1 20 2 19 3 17 4 18 5 16 7 15 8 12 9 13 10 93 11 14 13
REMARK SMILES IDX 92 14 11 15 9 16 8 17 10 19 7 20 1 21 2 22 3 23 4 24 6 25
REMARK SMILES IDX 5 26 22 27 23 28 24 29 25 30 26 31 27 32 28 34 29 35 30 36
REMARK SMILES IDX 91 37 31 38 90 39 32 40 33 41 34 42 84 43 35 44 89 45 83 46
REMARK SMILES IDX 85 47 36 48 88 49 82 50 81 51 37 53 69 54 49 55 68 56 50 57
REMARK SMILES IDX 53 58 67 59 86 60 51 61 52 62 66 64 87 65 54 66 38 67 39 68
REMARK SMILES IDX 47 69 40 70 41 71 45 72 48 73 42 74 43 75 46 76 44 77 70 78
REMARK SMILES IDX 71 79 79 80 72 81 73 82 77 83 80 84 74 85 75 86 78 87 76 88
REMARK SMILES IDX 55 89 56 90 64 91 57 92 58 93 62 94 65 95 59 96 60 97 63 98
REMARK SMILES IDX 61 99
REMARK H PARENT 19 6 12 12 8 18 26 33 85 52 53 63
REMARK Flexibility Score: inf
ROOT
ATOM      1  C   UNL A   1      35.071  21.763  25.957  1.00  0.00     0.021 C 
ENDROOT
BRANCH   1   2
ATOM      2  C   UNL A   1      33.541  21.681  26.035  1.00  0.00     0.116 C 
BRANCH   2   3
ATOM      3  N   UNL A   1      32.994  20.961  24.900  1.00  0.00    -0.356 N 
ATOM      4  C   UNL A   1      32.755  21.390  23.626  1.00  0.00     0.220 C 
ATOM      5  O   UNL A   1      32.189  20.629  22.840  1.00  0.00    -0.275 OA
ATOM      6  H   UNL A   1      32.759  20.021  25.074  1.00  0.00     0.163 HD
BRANCH   4   7
ATOM      7  C   UNL A   1      33.185  22.780  23.199  1.00  0.00     0.104 C 
BRANCH   7   8
ATOM      8  C   UNL A   1      32.029  23.773  23.007  1.00  0.00     0.009 C 
ATOM      9  N   UNL A   1      30.827  26.413  23.524  1.00  0.00    -0.327 N 
ATOM     10  C   UNL A   1      30.238  25.220  24.132  1.00  0.00     0.262 C 
ATOM     11  C   UNL A   1      31.462  26.104  22.245  1.00  0.00     0.262 C 
ATOM     12  H   UNL A   1      31.573  26.726  24.143  1.00  0.00     0.348 HD
ATOM     13  C   UNL A   1      31.292  24.129  24.300  1.00  0.00     0.066 C 
ATOM     14  C   UNL A   1      32.567  25.062  22.376  1.00  0.00     0.066 C 
BRANCH   9  15
ATOM     15  C   UNL A   1      29.886  27.560  23.467  1.00  0.00     0.363 C 
BRANCH  15  16
ATOM     16  C   UNL A   1      30.435  28.868  22.869  1.00  0.00     0.279 C 
ATOM     17  N   UNL A   1      31.442  29.596  23.438  1.00  0.00    -0.321 N 
ATOM     18  H   UNL A   1      31.722  30.386  22.920  1.00  0.00     0.170 HD
ATOM     19  O   UNL A   1      30.008  29.264  21.775  1.00  0.00    -0.268 OA
BRANCH  17  20
ATOM     20  C   UNL A   1      32.143  29.405  24.637  1.00  0.00     0.044 A 
ATOM     21  C   UNL A   1      34.100  28.326  23.356  1.00  0.00     0.046 C 
ATOM     22  C   UNL A   1      33.380  28.731  24.614  1.00  0.00    -0.027 A 
ATOM     23  C   UNL A   1      33.973  28.369  25.838  1.00  0.00     0.005 A 
ATOM     24  C   UNL A   1      33.371  28.693  27.053  1.00  0.00     0.000 A 
ATOM     25  C   UNL A   1      31.603  29.817  25.861  1.00  0.00     0.026 A 
ATOM     26  C   UNL A   1      32.203  29.445  27.066  1.00  0.00     0.002 A 
ENDBRANCH  17  20
ENDBRANCH  15  16
ENDBRANCH   9  15
ENDBRANCH   7   8
ENDBRANCH   4   7
ENDBRANCH   2   3
ENDBRANCH   1   2
BRANCH   1  27
ATOM     27  C   UNL A   1      35.730  20.727  25.048  1.00  0.00     0.002 C 
BRANCH  27  28
ATOM     28  C   UNL A   1      37.135  21.080  24.546  1.00  0.00     0.002 C 
BRANCH  28  29
ATOM     29  C   UNL A   1      38.229  21.126  25.614  1.00  0.00     0.021 C 
BRANCH  29  30
ATOM     30  C   UNL A   1      38.670  22.535  25.987  1.00  0.00     0.116 C 
BRANCH  30  31
ATOM     31  N   UNL A   1      40.097  22.628  26.251  1.00  0.00    -0.352 N 
ATOM     32  C   UNL A   1      40.899  23.719  26.530  1.00  0.00     0.251 C 
ATOM     33  H   UNL A   1      40.575  21.767  26.227  1.00  0.00     0.163 HD
ATOM     34  O   UNL A   1      42.109  23.577  26.579  1.00  0.00    -0.269 OA
BRANCH  32  35
ATOM     35  C   UNL A   1      40.290  25.010  26.941  1.00  0.00     0.039 A 
ATOM     36  C   UNL A   1      40.609  26.137  26.168  1.00  0.00     0.014 A 
ATOM     37  C   UNL A   1      39.628  25.164  28.153  1.00  0.00     0.014 A 
ATOM     38  C   UNL A   1      40.513  27.407  26.729  1.00  0.00     0.010 A 
ATOM     39  C   UNL A   1      39.625  26.406  28.750  1.00  0.00     0.010 A 
ATOM     40  C   UNL A   1      40.145  27.509  28.065  1.00  0.00    -0.014 A 
BRANCH  40  41
ATOM     41  C   UNL A   1      40.335  28.699  28.877  1.00  0.00     0.031 A 
ATOM     42  C   UNL A   1      39.288  29.732  28.920  1.00  0.00     0.074 A 
ATOM     43  C   UNL A   1      41.380  28.740  29.732  1.00  0.00     0.049 A 
ATOM     44  N   UNL A   1      39.434  30.894  29.455  1.00  0.00    -0.248 NA
ATOM     45  C   UNL A   1      37.988  29.548  28.289  1.00  0.00     0.031 C 
ATOM     46  C   UNL A   1      41.547  29.611  30.892  1.00  0.00     0.029 A 
ATOM     47  N   UNL A   1      42.628  28.111  29.587  1.00  0.00    -0.354 N 
ATOM     48  C   UNL A   1      38.194  31.484  29.521  1.00  0.00     0.074 A 
ATOM     49  C   UNL A   1      37.363  30.664  28.674  1.00  0.00     0.031 C 
ATOM     50  C   UNL A   1      42.856  29.714  31.167  1.00  0.00     0.029 A 
ATOM     51  C   UNL A   1      43.567  29.050  30.090  1.00  0.00     0.049 A 
ATOM     52  H   UNL A   1      42.812  27.219  29.216  1.00  0.00     0.167 HD
ATOM     53  C   UNL A   1      38.019  32.516  30.400  1.00  0.00     0.037 A 
ATOM     54  C   UNL A   1      44.453  29.661  29.249  1.00  0.00     0.037 A 
ATOM     55  C   UNL A   1      39.314  32.979  30.922  1.00  0.00     0.049 A 
ATOM     56  C   UNL A   1      44.324  31.170  29.167  1.00  0.00     0.074 A 
ATOM     57  C   UNL A   1      39.996  32.862  32.122  1.00  0.00     0.029 A 
ATOM     58  N   UNL A   1      40.242  33.462  30.014  1.00  0.00    -0.354 N 
ATOM     59  N   UNL A   1      43.384  31.866  29.746  1.00  0.00    -0.248 NA
ATOM     60  C   UNL A   1      45.198  32.002  28.341  1.00  0.00     0.031 C 
ATOM     61  C   UNL A   1      41.345  33.284  31.914  1.00  0.00     0.029 A 
ATOM     62  C   UNL A   1      41.479  33.662  30.591  1.00  0.00     0.049 A 
ATOM     63  H   UNL A   1      40.042  33.643  29.067  1.00  0.00     0.167 HD
ATOM     64  C   UNL A   1      43.474  33.176  29.355  1.00  0.00     0.074 A 
ATOM     65  C   UNL A   1      44.626  33.212  28.471  1.00  0.00     0.031 C 
ATOM     66  C   UNL A   1      42.572  34.123  29.748  1.00  0.00     0.037 A 
BRANCH  53  67
ATOM     67  C   UNL A   1      36.683  32.982  30.960  1.00  0.00     0.064 A 
ATOM     68  C   UNL A   1      35.838  33.810  30.185  1.00  0.00     0.173 A 
ATOM     69  C   UNL A   1      36.200  32.738  32.263  1.00  0.00     0.173 A 
ATOM     70  F   UNL A   1      36.097  34.067  28.897  1.00  0.00    -0.203 F 
ATOM     71  C   UNL A   1      34.682  34.411  30.701  1.00  0.00     0.198 A 
ATOM     72  C   UNL A   1      35.059  33.354  32.785  1.00  0.00     0.198 A 
ATOM     73  F   UNL A   1      36.770  31.860  33.085  1.00  0.00    -0.203 F 
ATOM     74  F   UNL A   1      33.940  35.205  29.916  1.00  0.00    -0.200 F 
ATOM     75  C   UNL A   1      34.306  34.204  32.010  1.00  0.00     0.200 A 
ATOM     76  F   UNL A   1      34.698  33.108  34.054  1.00  0.00    -0.200 F 
ATOM     77  F   UNL A   1      33.217  34.797  32.514  1.00  0.00    -0.200 F 
ENDBRANCH  53  67
BRANCH  54  78
ATOM     78  C   UNL A   1      44.864  28.776  28.124  1.00  0.00     0.064 A 
ATOM     79  C   UNL A   1      45.749  27.715  28.400  1.00  0.00     0.173 A 
ATOM     80  C   UNL A   1      44.114  28.705  26.945  1.00  0.00     0.173 A 
ATOM     81  F   UNL A   1      46.490  27.734  29.521  1.00  0.00    -0.203 F 
ATOM     82  C   UNL A   1      45.784  26.575  27.600  1.00  0.00     0.198 A 
ATOM     83  C   UNL A   1      44.167  27.569  26.135  1.00  0.00     0.198 A 
ATOM     84  F   UNL A   1      43.241  29.674  26.636  1.00  0.00    -0.203 F 
ATOM     85  F   UNL A   1      46.546  25.531  27.955  1.00  0.00    -0.200 F 
ATOM     86  C   UNL A   1      44.970  26.491  26.483  1.00  0.00     0.200 A 
ATOM     87  F   UNL A   1      43.363  27.478  25.066  1.00  0.00    -0.200 F 
ATOM     88  F   UNL A   1      44.927  25.361  25.765  1.00  0.00    -0.200 F 
ENDBRANCH  54  78
BRANCH  66  89
ATOM     89  C   UNL A   1      42.630  35.571  29.335  1.00  0.00     0.064 A 
ATOM     90  C   UNL A   1      42.081  36.041  28.131  1.00  0.00     0.173 A 
ATOM     91  C   UNL A   1      43.342  36.526  30.097  1.00  0.00     0.173 A 
ATOM     92  F   UNL A   1      41.458  35.206  27.287  1.00  0.00    -0.203 F 
ATOM     93  C   UNL A   1      42.180  37.383  27.751  1.00  0.00     0.198 A 
ATOM     94  C   UNL A   1      43.490  37.850  29.686  1.00  0.00     0.198 A 
ATOM     95  F   UNL A   1      43.895  36.215  31.277  1.00  0.00    -0.203 F 
ATOM     96  F   UNL A   1      41.586  37.800  26.624  1.00  0.00    -0.200 F 
ATOM     97  C   UNL A   1      42.893  38.284  28.523  1.00  0.00     0.200 A 
ATOM     98  F   UNL A   1      44.206  38.701  30.435  1.00  0.00    -0.200 F 
ATOM     99  F   UNL A   1      43.002  39.565  28.147  1.00  0.00    -0.200 F 
ENDBRANCH  66  89
ENDBRANCH  40  41
ENDBRANCH  32  35
ENDBRANCH  30  31
ENDBRANCH  29  30
ENDBRANCH  28  29
ENDBRANCH  27  28
ENDBRANCH   1  27
TORSDOF 17
ENDMDL
MODEL 2
REMARK VINA RESULT:     -13.0      1.143      1.913
REMARK SMILES Cc1ccccc1NC(=O)C[NH+]1CCC(CC(=O)NCCCCCCNC(=O)c2ccc(-c3c4nc(c(-c5c(F)c(F)c(F)c(F)c5F)c5ccc([nH]5)c(-c5c(F)c(F)c(F)c(F)c5F)c5nc(c(-c6c(F)c(F)c(F)c(F)c6F)c6ccc3[nH]6)C=C5)C=C4)cc2)CC1
REMARK SMILES IDX 21 1 20 2 19 3 17 4 18 5 16 7 15 8 12 9 13 10 93 11 14 13
REMARK SMILES IDX 92 14 11 15 9 16 8 17 10 19 7 20 1 21 2 22 3 23 4 24 6 25
REMARK SMILES IDX 5 26 22 27 23 28 24 29 25 30 26 31 27 32 28 34 29 35 30 36
REMARK SMILES IDX 91 37 31 38 90 39 32 40 33 41 34 42 84 43 35 44 89 45 83 46
REMARK SMILES IDX 85 47 36 48 88 49 82 50 81 51 37 53 69 54 49 55 68 56 50 57
REMARK SMILES IDX 53 58 67 59 86 60 51 61 52 62 66 64 87 65 54 66 38 67 39 68
REMARK SMILES IDX 47 69 40 70 41 71 45 72 48 73 42 74 43 75 46 76 44 77 70 78
REMARK SMILES IDX 71 79 79 80 72 81 73 82 77 83 80 84 74 85 75 86 78 87 76 88
REMARK SMILES IDX 55 89 56 90 64 91 57 92 58 93 62 94 65 95 59 96 60 97 63 98
REMARK SMILES IDX 61 99
REMARK H PARENT 19 6 12 12 8 18 26 33 85 52 53 63
REMARK Flexibility Score: inf
ROOT
ATOM      1  C   UNL A   1      35.423  20.829  25.086  1.00  0.00     0.021 C 
ENDROOT
BRANCH   1   2
ATOM      2  C   UNL A   1      33.890  20.801  25.141  1.00  0.00     0.116 C 
BRANCH   2   3
ATOM      3  N   UNL A   1      33.405  21.166  26.461  1.00  0.00    -0.356 N 
ATOM      4  C   UNL A   1      32.777  22.305  26.875  1.00  0.00     0.220 C 
ATOM      5  O   UNL A   1      32.536  22.445  28.075  1.00  0.00    -0.275 OA
ATOM      6  H   UNL A   1      33.550  20.491  27.161  1.00  0.00     0.163 HD
BRANCH   4   7
ATOM      7  C   UNL A   1      32.387  23.369  25.868  1.00  0.00     0.104 C 
BRANCH   7   8
ATOM      8  C   UNL A   1      32.532  24.811  26.377  1.00  0.00     0.009 C 
ATOM      9  N   UNL A   1      32.357  27.712  25.894  1.00  0.00    -0.327 N 
ATOM     10  C   UNL A   1      33.668  27.088  26.072  1.00  0.00     0.262 C 
ATOM     11  C   UNL A   1      31.320  27.002  26.638  1.00  0.00     0.262 C 
ATOM     12  H   UNL A   1      32.114  27.619  24.908  1.00  0.00     0.348 HD
ATOM     13  C   UNL A   1      33.620  25.617  25.665  1.00  0.00     0.066 C 
ATOM     14  C   UNL A   1      31.194  25.541  26.219  1.00  0.00     0.066 C 
BRANCH   9  15
ATOM     15  C   UNL A   1      32.374  29.177  26.135  1.00  0.00     0.363 C 
BRANCH  15  16
ATOM     16  C   UNL A   1      31.570  30.044  25.151  1.00  0.00     0.279 C 
ATOM     17  N   UNL A   1      31.352  29.702  23.845  1.00  0.00    -0.321 N 
ATOM     18  H   UNL A   1      30.779  30.330  23.346  1.00  0.00     0.170 HD
ATOM     19  O   UNL A   1      31.018  31.076  25.558  1.00  0.00    -0.268 OA
BRANCH  17  20
ATOM     20  C   UNL A   1      31.806  28.606  23.099  1.00  0.00     0.044 A 
ATOM     21  C   UNL A   1      29.489  27.493  23.265  1.00  0.00     0.046 C 
ATOM     22  C   UNL A   1      30.944  27.512  22.882  1.00  0.00    -0.027 A 
ATOM     23  C   UNL A   1      31.474  26.340  22.311  1.00  0.00     0.005 A 
ATOM     24  C   UNL A   1      32.814  26.264  21.935  1.00  0.00     0.000 A 
ATOM     25  C   UNL A   1      33.121  28.554  22.623  1.00  0.00     0.026 A 
ATOM     26  C   UNL A   1      33.631  27.381  22.061  1.00  0.00     0.002 A 
ENDBRANCH  17  20
ENDBRANCH  15  16
ENDBRANCH   9  15
ENDBRANCH   7   8
ENDBRANCH   4   7
ENDBRANCH   2   3
ENDBRANCH   1   2
BRANCH   1  27
ATOM     27  C   UNL A   1      36.024  22.025  24.350  1.00  0.00     0.002 C 
BRANCH  27  28
ATOM     28  C   UNL A   1      36.449  23.205  25.233  1.00  0.00     0.002 C 
BRANCH  28  29
ATOM     29  C   UNL A   1      37.956  23.428  25.362  1.00  0.00     0.021 C 
BRANCH  29  30
ATOM     30  C   UNL A   1      38.623  22.556  26.416  1.00  0.00     0.116 C 
BRANCH  30  31
ATOM     31  N   UNL A   1      40.067  22.724  26.456  1.00  0.00    -0.352 N 
ATOM     32  C   UNL A   1      40.845  23.862  26.559  1.00  0.00     0.251 C 
ATOM     33  H   UNL A   1      40.579  21.885  26.401  1.00  0.00     0.163 HD
ATOM     34  O   UNL A   1      42.055  23.776  26.430  1.00  0.00    -0.269 OA
BRANCH  32  35
ATOM     35  C   UNL A   1      40.239  25.146  26.997  1.00  0.00     0.039 A 
ATOM     36  C   UNL A   1      40.496  26.273  26.200  1.00  0.00     0.014 A 
ATOM     37  C   UNL A   1      39.645  25.298  28.243  1.00  0.00     0.014 A 
ATOM     38  C   UNL A   1      40.412  27.545  26.759  1.00  0.00     0.010 A 
ATOM     39  C   UNL A   1      39.656  26.543  28.833  1.00  0.00     0.010 A 
ATOM     40  C   UNL A   1      40.118  27.650  28.113  1.00  0.00    -0.014 A 
BRANCH  40  41
ATOM     41  C   UNL A   1      40.335  28.847  28.906  1.00  0.00     0.031 A 
ATOM     42  C   UNL A   1      39.282  29.872  28.990  1.00  0.00     0.074 A 
ATOM     43  C   UNL A   1      41.417  28.905  29.712  1.00  0.00     0.049 A 
ATOM     44  N   UNL A   1      39.442  31.039  29.508  1.00  0.00    -0.248 NA
ATOM     45  C   UNL A   1      37.956  29.672  28.421  1.00  0.00     0.031 C 
ATOM     46  C   UNL A   1      41.629  29.787  30.857  1.00  0.00     0.029 A 
ATOM     47  N   UNL A   1      42.663  28.286  29.514  1.00  0.00    -0.354 N 
ATOM     48  C   UNL A   1      38.200  31.619  29.627  1.00  0.00     0.074 A 
ATOM     49  C   UNL A   1      37.338  30.785  28.826  1.00  0.00     0.031 C 
ATOM     50  C   UNL A   1      42.949  29.903  31.070  1.00  0.00     0.029 A 
ATOM     51  C   UNL A   1      43.615  29.236  29.967  1.00  0.00     0.049 A 
ATOM     52  H   UNL A   1      42.838  27.392  29.143  1.00  0.00     0.167 HD
ATOM     53  C   UNL A   1      38.057  32.657  30.506  1.00  0.00     0.037 A 
ATOM     54  C   UNL A   1      44.457  29.849  29.081  1.00  0.00     0.037 A 
ATOM     55  C   UNL A   1      39.370  33.135  30.964  1.00  0.00     0.049 A 
ATOM     56  C   UNL A   1      44.310  31.355  28.994  1.00  0.00     0.074 A 
ATOM     57  C   UNL A   1      40.107  33.033  32.132  1.00  0.00     0.029 A 
ATOM     58  N   UNL A   1      40.251  33.619  30.010  1.00  0.00    -0.354 N 
ATOM     59  N   UNL A   1      43.392  32.048  29.611  1.00  0.00    -0.248 NA
ATOM     60  C   UNL A   1      45.138  32.188  28.122  1.00  0.00     0.031 C 
ATOM     61  C   UNL A   1      41.442  33.465  31.859  1.00  0.00     0.029 A 
ATOM     62  C   UNL A   1      41.511  33.834  30.528  1.00  0.00     0.049 A 
ATOM     63  H   UNL A   1      40.007  33.790  29.073  1.00  0.00     0.167 HD
ATOM     64  C   UNL A   1      43.452  33.355  29.205  1.00  0.00     0.074 A 
ATOM     65  C   UNL A   1      44.562  33.394  28.270  1.00  0.00     0.031 C 
ATOM     66  C   UNL A   1      42.560  34.298  29.632  1.00  0.00     0.037 A 
BRANCH  53  67
ATOM     67  C   UNL A   1      36.743  33.115  31.123  1.00  0.00     0.064 A 
ATOM     68  C   UNL A   1      35.814  33.850  30.350  1.00  0.00     0.173 A 
ATOM     69  C   UNL A   1      36.361  32.955  32.471  1.00  0.00     0.173 A 
ATOM     70  F   UNL A   1      35.974  34.016  29.031  1.00  0.00    -0.203 F 
ATOM     71  C   UNL A   1      34.672  34.447  30.900  1.00  0.00     0.198 A 
ATOM     72  C   UNL A   1      35.233  33.569  33.026  1.00  0.00     0.198 A 
ATOM     73  F   UNL A   1      37.021  32.165  33.314  1.00  0.00    -0.203 F 
ATOM     74  F   UNL A   1      33.846  35.150  30.113  1.00  0.00    -0.200 F 
ATOM     75  C   UNL A   1      34.395  34.328  32.244  1.00  0.00     0.200 A 
ATOM     76  F   UNL A   1      34.971  33.408  34.332  1.00  0.00    -0.200 F 
ATOM     77  F   UNL A   1      33.319  34.918  32.779  1.00  0.00    -0.200 F 
ENDBRANCH  53  67
BRANCH  54  78
ATOM     78  C   UNL A   1      44.823  28.958  27.946  1.00  0.00     0.064 A 
ATOM     79  C   UNL A   1      45.748  27.921  28.184  1.00  0.00     0.173 A 
ATOM     80  C   UNL A   1      44.010  28.854  26.812  1.00  0.00     0.173 A 
ATOM     81  F   UNL A   1      46.550  27.972  29.259  1.00  0.00    -0.203 F 
ATOM     82  C   UNL A   1      45.763  26.772  27.396  1.00  0.00     0.198 A 
ATOM     83  C   UNL A   1      44.043  27.709  26.014  1.00  0.00     0.198 A 
ATOM     84  F   UNL A   1      43.098  29.799  26.542  1.00  0.00    -0.203 F 
ATOM     85  F   UNL A   1      46.568  25.750  27.719  1.00  0.00    -0.200 F 
ATOM     86  C   UNL A   1      44.889  26.654  26.329  1.00  0.00     0.200 A 
ATOM     87  F   UNL A   1      43.181  27.585  24.994  1.00  0.00    -0.200 F 
ATOM     88  F   UNL A   1      44.832  25.514  25.629  1.00  0.00    -0.200 F 
ENDBRANCH  54  78
BRANCH  66  89
ATOM     89  C   UNL A   1      42.586  35.743  29.206  1.00  0.00     0.064 A 
ATOM     90  C   UNL A   1      42.030  36.189  27.997  1.00  0.00     0.173 A 
ATOM     91  C   UNL A   1      43.274  36.720  29.961  1.00  0.00     0.173 A 
ATOM     92  F   UNL A   1      41.428  35.332  27.159  1.00  0.00    -0.203 F 
ATOM     93  C   UNL A   1      42.100  37.529  27.604  1.00  0.00     0.198 A 
ATOM     94  C   UNL A   1      43.393  38.044  29.539  1.00  0.00     0.198 A 
ATOM     95  F   UNL A   1      43.831  36.434  31.146  1.00  0.00    -0.203 F 
ATOM     96  F   UNL A   1      41.500  37.923  26.472  1.00  0.00    -0.200 F 
ATOM     97  C   UNL A   1      42.790  38.453  28.370  1.00  0.00     0.200 A 
ATOM     98  F   UNL A   1      44.088  38.918  30.282  1.00  0.00    -0.200 F 
ATOM     99  F   UNL A   1      42.870  39.734  27.982  1.00  0.00    -0.200 F 
ENDBRANCH  66  89
ENDBRANCH  40  41
ENDBRANCH  32  35
ENDBRANCH  30  31
ENDBRANCH  29  30
ENDBRANCH  28  29
ENDBRANCH  27  28
ENDBRANCH   1  27
TORSDOF 17
ENDMDL
MODEL 3
REMARK VINA RESULT:     -12.6      3.710     10.141
REMARK SMILES Cc1ccccc1NC(=O)C[NH+]1CCC(CC(=O)NCCCCCCNC(=O)c2ccc(-c3c4nc(c(-c5c(F)c(F)c(F)c(F)c5F)c5ccc([nH]5)c(-c5c(F)c(F)c(F)c(F)c5F)c5nc(c(-c6c(F)c(F)c(F)c(F)c6F)c6ccc3[nH]6)C=C5)C=C4)cc2)CC1
REMARK SMILES IDX 21 1 20 2 19 3 17 4 18 5 16 7 15 8 12 9 13 10 93 11 14 13
REMARK SMILES IDX 92 14 11 15 9 16 8 17 10 19 7 20 1 21 2 22 3 23 4 24 6 25
REMARK SMILES IDX 5 26 22 27 23 28 24 29 25 30 26 31 27 32 28 34 29 35 30 36
REMARK SMILES IDX 91 37 31 38 90 39 32 40 33 41 34 42 84 43 35 44 89 45 83 46
REMARK SMILES IDX 85 47 36 48 88 49 82 50 81 51 37 53 69 54 49 55 68 56 50 57
REMARK SMILES IDX 53 58 67 59 86 60 51 61 52 62 66 64 87 65 54 66 38 67 39 68
REMARK SMILES IDX 47 69 40 70 41 71 45 72 48 73 42 74 43 75 46 76 44 77 70 78
REMARK SMILES IDX 71 79 79 80 72 81 73 82 77 83 80 84 74 85 75 86 78 87 76 88
REMARK SMILES IDX 55 89 56 90 64 91 57 92 58 93 62 94 65 95 59 96 60 97 63 98
REMARK SMILES IDX 61 99
REMARK H PARENT 19 6 12 12 8 18 26 33 85 52 53 63
REMARK Flexibility Score: inf
ROOT
ATOM      1  C   UNL A   1      31.354  28.325  25.803  1.00  0.00     0.021 C 
ENDROOT
BRANCH   1   2
ATOM      2  C   UNL A   1      31.450  29.614  24.978  1.00  0.00     0.116 C 
BRANCH   2   3
ATOM      3  N   UNL A   1      30.587  29.558  23.812  1.00  0.00    -0.356 N 
ATOM      4  C   UNL A   1      30.851  29.104  22.552  1.00  0.00     0.220 C 
ATOM      5  O   UNL A   1      29.992  29.242  21.681  1.00  0.00    -0.275 OA
ATOM      6  H   UNL A   1      29.674  29.899  23.950  1.00  0.00     0.163 HD
BRANCH   4   7
ATOM      7  C   UNL A   1      32.181  28.445  22.243  1.00  0.00     0.104 C 
BRANCH   7   8
ATOM      8  C   UNL A   1      32.296  26.989  22.719  1.00  0.00     0.009 C 
ATOM      9  N   UNL A   1      33.713  24.406  22.696  1.00  0.00    -0.327 N 
ATOM     10  C   UNL A   1      32.406  24.517  22.050  1.00  0.00     0.262 C 
ATOM     11  C   UNL A   1      33.835  25.330  23.822  1.00  0.00     0.262 C 
ATOM     12  H   UNL A   1      34.411  24.698  22.013  1.00  0.00     0.348 HD
ATOM     13  C   UNL A   1      32.152  25.954  21.601  1.00  0.00     0.066 C 
ATOM     14  C   UNL A   1      33.650  26.786  23.407  1.00  0.00     0.066 C 
BRANCH   9  15
ATOM     15  C   UNL A   1      34.080  23.006  23.026  1.00  0.00     0.363 C 
BRANCH  15  16
ATOM     16  C   UNL A   1      33.650  22.491  24.410  1.00  0.00     0.279 C 
ATOM     17  N   UNL A   1      34.511  22.334  25.461  1.00  0.00    -0.321 N 
ATOM     18  H   UNL A   1      34.086  22.042  26.300  1.00  0.00     0.170 HD
ATOM     19  O   UNL A   1      32.451  22.270  24.633  1.00  0.00    -0.268 OA
BRANCH  17  20
ATOM     20  C   UNL A   1      35.898  22.522  25.542  1.00  0.00     0.044 A 
ATOM     21  C   UNL A   1      36.302  20.067  24.876  1.00  0.00     0.046 C 
ATOM     22  C   UNL A   1      36.758  21.425  25.337  1.00  0.00    -0.027 A 
ATOM     23  C   UNL A   1      38.128  21.581  25.618  1.00  0.00     0.005 A 
ATOM     24  C   UNL A   1      38.637  22.801  26.060  1.00  0.00     0.000 A 
ATOM     25  C   UNL A   1      36.437  23.768  25.884  1.00  0.00     0.026 A 
ATOM     26  C   UNL A   1      37.798  23.904  26.163  1.00  0.00     0.002 A 
ENDBRANCH  17  20
ENDBRANCH  15  16
ENDBRANCH   9  15
ENDBRANCH   7   8
ENDBRANCH   4   7
ENDBRANCH   2   3
ENDBRANCH   1   2
BRANCH   1  27
ATOM     27  C   UNL A   1      31.924  28.416  27.218  1.00  0.00     0.002 C 
BRANCH  27  28
ATOM     28  C   UNL A   1      32.616  29.738  27.573  1.00  0.00     0.002 C 
BRANCH  28  29
ATOM     29  C   UNL A   1      34.144  29.725  27.508  1.00  0.00     0.021 C 
BRANCH  29  30
ATOM     30  C   UNL A   1      34.768  31.104  27.340  1.00  0.00     0.116 C 
BRANCH  30  31
ATOM     31  N   UNL A   1      35.203  31.684  28.601  1.00  0.00    -0.352 N 
ATOM     32  C   UNL A   1      36.081  31.214  29.560  1.00  0.00     0.251 C 
ATOM     33  H   UNL A   1      34.805  32.560  28.807  1.00  0.00     0.163 HD
ATOM     34  O   UNL A   1      36.188  31.810  30.618  1.00  0.00    -0.269 OA
BRANCH  32  35
ATOM     35  C   UNL A   1      37.011  30.100  29.243  1.00  0.00     0.039 A 
ATOM     36  C   UNL A   1      37.109  29.066  30.187  1.00  0.00     0.014 A 
ATOM     37  C   UNL A   1      37.917  30.169  28.192  1.00  0.00     0.014 A 
ATOM     38  C   UNL A   1      38.258  28.282  30.231  1.00  0.00     0.010 A 
ATOM     39  C   UNL A   1      39.098  29.466  28.291  1.00  0.00     0.010 A 
ATOM     40  C   UNL A   1      39.296  28.585  29.359  1.00  0.00    -0.014 A 
BRANCH  40  41
ATOM     41  C   UNL A   1      40.658  28.106  29.512  1.00  0.00     0.031 A 
ATOM     42  C   UNL A   1      41.036  26.787  28.980  1.00  0.00     0.074 A 
ATOM     43  C   UNL A   1      41.601  28.963  29.962  1.00  0.00     0.049 A 
ATOM     44  N   UNL A   1      42.155  26.198  29.221  1.00  0.00    -0.248 NA
ATOM     45  C   UNL A   1      40.128  25.988  28.167  1.00  0.00     0.031 C 
ATOM     46  C   UNL A   1      43.050  28.845  29.824  1.00  0.00     0.029 A 
ATOM     47  N   UNL A   1      41.422  30.045  30.840  1.00  0.00    -0.354 N 
ATOM     48  C   UNL A   1      42.251  25.118  28.375  1.00  0.00     0.074 A 
ATOM     49  C   UNL A   1      40.921  24.964  27.839  1.00  0.00     0.031 C 
ATOM     50  C   UNL A   1      43.634  29.572  30.788  1.00  0.00     0.029 A 
ATOM     51  C   UNL A   1      42.576  30.034  31.667  1.00  0.00     0.049 A 
ATOM     52  H   UNL A   1      40.664  30.671  30.875  1.00  0.00     0.167 HD
ATOM     53  C   UNL A   1      43.491  24.588  28.147  1.00  0.00     0.037 A 
ATOM     54  C   UNL A   1      42.473  29.721  32.994  1.00  0.00     0.037 A 
ATOM     55  C   UNL A   1      44.471  25.133  29.099  1.00  0.00     0.049 A 
ATOM     56  C   UNL A   1      43.241  28.486  33.422  1.00  0.00     0.074 A 
ATOM     57  C   UNL A   1      45.509  26.049  29.035  1.00  0.00     0.029 A 
ATOM     58  N   UNL A   1      44.253  24.912  30.449  1.00  0.00    -0.354 N 
ATOM     59  N   UNL A   1      43.872  27.685  32.608  1.00  0.00    -0.248 NA
ATOM     60  C   UNL A   1      43.273  28.006  34.804  1.00  0.00     0.031 C 
ATOM     61  C   UNL A   1      45.904  26.370  30.371  1.00  0.00     0.029 A 
ATOM     62  C   UNL A   1      45.113  25.645  31.241  1.00  0.00     0.049 A 
ATOM     63  H   UNL A   1      43.565  24.304  30.803  1.00  0.00     0.167 HD
ATOM     64  C   UNL A   1      44.334  26.596  33.299  1.00  0.00     0.074 A 
ATOM     65  C   UNL A   1      43.932  26.842  34.673  1.00  0.00     0.031 C 
ATOM     66  C   UNL A   1      44.972  25.555  32.687  1.00  0.00     0.037 A 
BRANCH  53  67
ATOM     67  C   UNL A   1      43.882  23.742  26.944  1.00  0.00     0.064 A 
ATOM     68  C   UNL A   1      43.381  22.426  26.808  1.00  0.00     0.173 A 
ATOM     69  C   UNL A   1      44.799  24.108  25.937  1.00  0.00     0.173 A 
ATOM     70  F   UNL A   1      42.432  21.950  27.623  1.00  0.00    -0.203 F 
ATOM     71  C   UNL A   1      43.834  21.538  25.823  1.00  0.00     0.198 A 
ATOM     72  C   UNL A   1      45.267  23.216  24.966  1.00  0.00     0.198 A 
ATOM     73  F   UNL A   1      45.257  25.350  25.801  1.00  0.00    -0.203 F 
ATOM     74  F   UNL A   1      43.333  20.297  25.768  1.00  0.00    -0.200 F 
ATOM     75  C   UNL A   1      44.796  21.925  24.918  1.00  0.00     0.200 A 
ATOM     76  F   UNL A   1      46.182  23.630  24.076  1.00  0.00    -0.200 F 
ATOM     77  F   UNL A   1      45.250  21.072  23.991  1.00  0.00    -0.200 F 
ENDBRANCH  53  67
BRANCH  54  78
ATOM     78  C   UNL A   1      41.181  30.171  33.579  1.00  0.00     0.064 A 
ATOM     79  C   UNL A   1      41.016  31.543  33.857  1.00  0.00     0.173 A 
ATOM     80  C   UNL A   1      40.026  29.387  33.480  1.00  0.00     0.173 A 
ATOM     81  F   UNL A   1      42.092  32.340  33.960  1.00  0.00    -0.203 F 
ATOM     82  C   UNL A   1      39.751  32.125  33.902  1.00  0.00     0.198 A 
ATOM     83  C   UNL A   1      38.760  29.972  33.545  1.00  0.00     0.198 A 
ATOM     84  F   UNL A   1      40.116  28.079  33.198  1.00  0.00    -0.203 F 
ATOM     85  F   UNL A   1      39.630  33.452  34.046  1.00  0.00    -0.200 F 
ATOM     86  C   UNL A   1      38.624  31.342  33.716  1.00  0.00     0.200 A 
ATOM     87  F   UNL A   1      37.669  29.218  33.343  1.00  0.00    -0.200 F 
ATOM     88  F   UNL A   1      37.413  31.911  33.662  1.00  0.00    -0.200 F 
ENDBRANCH  54  78
BRANCH  66  89
ATOM     89  C   UNL A   1      45.488  24.337  33.408  1.00  0.00     0.064 A 
ATOM     90  C   UNL A   1      44.682  23.224  33.693  1.00  0.00     0.173 A 
ATOM     91  C   UNL A   1      46.799  24.294  33.934  1.00  0.00     0.173 A 
ATOM     92  F   UNL A   1      43.395  23.191  33.317  1.00  0.00    -0.203 F 
ATOM     93  C   UNL A   1      45.174  22.120  34.397  1.00  0.00     0.198 A 
ATOM     94  C   UNL A   1      47.269  23.218  34.687  1.00  0.00     0.198 A 
ATOM     95  F   UNL A   1      47.679  25.281  33.716  1.00  0.00    -0.203 F 
ATOM     96  F   UNL A   1      44.387  21.052  34.592  1.00  0.00    -0.200 F 
ATOM     97  C   UNL A   1      46.462  22.122  34.902  1.00  0.00     0.200 A 
ATOM     98  F   UNL A   1      48.511  23.251  35.189  1.00  0.00    -0.200 F 
ATOM     99  F   UNL A   1      46.925  21.071  35.592  1.00  0.00    -0.200 F 
ENDBRANCH  66  89
ENDBRANCH  40  41
ENDBRANCH  32  35
ENDBRANCH  30  31
ENDBRANCH  29  30
ENDBRANCH  28  29
ENDBRANCH  27  28
ENDBRANCH   1  27
TORSDOF 17
ENDMDL
