MODEL 1
REMARK VINA RESULT:     -13.0      0.000      0.000
REMARK SMILES O=C(NCCCCCCNC(=O)c1cccc(Nc2ccnc3ccc(F)cc23)c1)c1ccc(-c2c3nc(c(-c4c(F)c(F)c(F)c(F)c4F)c4ccc([nH]4)c(-c4c(F)c(F)c(F)c(F)c4F)c4nc(c(-c5c(F)c(F)c(F)c(F)c5F)c5ccc2[nH]5)C=C4)C=C3)cc1
REMARK SMILES IDX 6 1 5 2 4 3 3 4 1 5 2 6 31 8 32 9 93 10 33 11 92 12 34 13
REMARK SMILES IDX 35 14 36 15 86 16 37 17 91 18 85 19 87 20 38 21 90 22 84 23
REMARK SMILES IDX 83 24 39 26 71 27 51 28 70 29 52 30 55 31 69 32 88 33 53 34
REMARK SMILES IDX 54 35 68 37 89 38 56 39 40 40 41 41 49 42 42 43 43 44 47 45
REMARK SMILES IDX 50 46 44 47 45 48 48 49 46 50 72 51 73 52 81 53 74 54 75 55
REMARK SMILES IDX 79 56 82 57 76 58 77 59 80 60 78 61 57 62 58 63 66 64 59 65
REMARK SMILES IDX 60 66 64 67 67 68 61 69 62 70 65 71 63 72 7 73 8 74 9 75
REMARK SMILES IDX 10 76 11 77 12 79 13 80 14 81 30 82 15 83 17 84 16 85 18 86
REMARK SMILES IDX 19 88 20 89 29 90 21 91 23 92 28 93 22 94 24 95 26 96 25 97
REMARK SMILES IDX 27 98
REMARK H PARENT 3 7 87 25 55 36 10 78 18 87
REMARK Flexibility Score: inf
ROOT
ATOM      1  C   UNL A   1      31.853  30.514  26.766  1.00  0.00     0.002 C 
ENDROOT
BRANCH   1   2
ATOM      2  C   UNL A   1      31.573  32.011  26.875  1.00  0.00     0.021 C 
BRANCH   2   3
ATOM      3  C   UNL A   1      32.798  32.888  27.077  1.00  0.00     0.116 C 
BRANCH   3   4
ATOM      4  N   UNL A   1      32.484  34.196  27.626  1.00  0.00    -0.352 N 
ATOM      5  O   UNL A   1      32.581  35.898  29.109  1.00  0.00    -0.269 OA
ATOM      6  C   UNL A   1      33.052  34.848  28.700  1.00  0.00     0.251 C 
ATOM      7  H   UNL A   1      31.763  34.685  27.167  1.00  0.00     0.163 HD
BRANCH   6   8
ATOM      8  C   UNL A   1      34.226  34.249  29.380  1.00  0.00     0.039 A 
ATOM      9  C   UNL A   1      35.520  34.536  28.946  1.00  0.00     0.014 A 
ATOM     10  C   UNL A   1      34.028  33.380  30.457  1.00  0.00     0.014 A 
ATOM     11  C   UNL A   1      36.594  33.827  29.465  1.00  0.00     0.010 A 
ATOM     12  C   UNL A   1      35.125  32.749  31.056  1.00  0.00     0.010 A 
ATOM     13  C   UNL A   1      36.416  32.941  30.543  1.00  0.00    -0.014 A 
BRANCH  13  14
ATOM     14  C   UNL A   1      37.621  32.311  31.146  1.00  0.00     0.031 A 
ATOM     15  C   UNL A   1      38.070  32.633  32.544  1.00  0.00     0.074 A 
ATOM     16  C   UNL A   1      38.269  31.373  30.427  1.00  0.00     0.049 A 
ATOM     17  N   UNL A   1      39.046  32.099  33.237  1.00  0.00    -0.248 NA
ATOM     18  C   UNL A   1      37.342  33.692  33.258  1.00  0.00     0.031 C 
ATOM     19  C   UNL A   1      37.941  30.999  29.049  1.00  0.00     0.029 A 
ATOM     20  N   UNL A   1      39.308  30.540  30.757  1.00  0.00    -0.354 N 
ATOM     21  C   UNL A   1      39.055  32.759  34.460  1.00  0.00     0.074 A 
ATOM     22  C   UNL A   1      38.007  33.756  34.405  1.00  0.00     0.031 C 
ATOM     23  C   UNL A   1      38.714  29.971  28.675  1.00  0.00     0.029 A 
ATOM     24  C   UNL A   1      39.638  29.658  29.758  1.00  0.00     0.049 A 
ATOM     25  H   UNL A   1      39.772  30.573  31.624  1.00  0.00     0.167 HD
ATOM     26  C   UNL A   1      39.857  32.540  35.530  1.00  0.00     0.037 A 
ATOM     27  C   UNL A   1      40.589  28.708  29.708  1.00  0.00     0.037 A 
ATOM     28  C   UNL A   1      40.898  31.543  35.579  1.00  0.00     0.049 A 
ATOM     29  C   UNL A   1      41.461  28.493  30.911  1.00  0.00     0.074 A 
ATOM     30  C   UNL A   1      41.758  31.241  36.622  1.00  0.00     0.029 A 
ATOM     31  N   UNL A   1      41.221  30.684  34.538  1.00  0.00    -0.354 N 
ATOM     32  N   UNL A   1      41.437  29.106  32.070  1.00  0.00    -0.248 NA
ATOM     33  C   UNL A   1      42.493  27.455  30.799  1.00  0.00     0.031 C 
ATOM     34  C   UNL A   1      42.626  30.229  36.198  1.00  0.00     0.029 A 
ATOM     35  C   UNL A   1      42.275  29.863  34.909  1.00  0.00     0.049 A 
ATOM     36  H   UNL A   1      40.768  30.662  33.664  1.00  0.00     0.167 HD
ATOM     37  C   UNL A   1      42.445  28.528  32.825  1.00  0.00     0.074 A 
ATOM     38  C   UNL A   1      43.034  27.487  32.008  1.00  0.00     0.031 C 
ATOM     39  C   UNL A   1      42.856  28.840  34.078  1.00  0.00     0.037 A 
BRANCH  26  40
ATOM     40  C   UNL A   1      39.649  33.396  36.749  1.00  0.00     0.064 A 
ATOM     41  C   UNL A   1      38.745  33.028  37.757  1.00  0.00     0.173 A 
ATOM     42  C   UNL A   1      40.412  34.558  36.945  1.00  0.00     0.173 A 
ATOM     43  F   UNL A   1      37.985  31.933  37.616  1.00  0.00    -0.203 F 
ATOM     44  C   UNL A   1      38.603  33.801  38.909  1.00  0.00     0.198 A 
ATOM     45  C   UNL A   1      40.286  35.312  38.108  1.00  0.00     0.198 A 
ATOM     46  F   UNL A   1      41.296  34.950  36.015  1.00  0.00    -0.203 F 
ATOM     47  F   UNL A   1      37.710  33.446  39.843  1.00  0.00    -0.200 F 
ATOM     48  C   UNL A   1      39.379  34.936  39.088  1.00  0.00     0.200 A 
ATOM     49  F   UNL A   1      41.046  36.402  38.286  1.00  0.00    -0.200 F 
ATOM     50  F   UNL A   1      39.251  35.668  40.202  1.00  0.00    -0.200 F 
ENDBRANCH  26  40
BRANCH  27  51
ATOM     51  C   UNL A   1      40.768  27.905  28.471  1.00  0.00     0.064 A 
ATOM     52  C   UNL A   1      40.101  26.687  28.290  1.00  0.00     0.173 A 
ATOM     53  C   UNL A   1      41.612  28.347  27.440  1.00  0.00     0.173 A 
ATOM     54  F   UNL A   1      39.297  26.213  29.253  1.00  0.00    -0.203 F 
ATOM     55  C   UNL A   1      40.287  25.930  27.135  1.00  0.00     0.198 A 
ATOM     56  C   UNL A   1      41.769  27.608  26.270  1.00  0.00     0.198 A 
ATOM     57  F   UNL A   1      42.267  29.511  27.560  1.00  0.00    -0.203 F 
ATOM     58  F   UNL A   1      39.677  24.745  27.007  1.00  0.00    -0.200 F 
ATOM     59  C   UNL A   1      41.115  26.395  26.123  1.00  0.00     0.200 A 
ATOM     60  F   UNL A   1      42.553  28.073  25.288  1.00  0.00    -0.200 F 
ATOM     61  F   UNL A   1      41.288  25.670  25.010  1.00  0.00    -0.200 F 
ENDBRANCH  27  51
BRANCH  39  62
ATOM     62  C   UNL A   1      43.992  28.031  34.634  1.00  0.00     0.064 A 
ATOM     63  C   UNL A   1      43.766  26.834  35.331  1.00  0.00     0.173 A 
ATOM     64  C   UNL A   1      45.318  28.459  34.473  1.00  0.00     0.173 A 
ATOM     65  F   UNL A   1      42.515  26.392  35.527  1.00  0.00    -0.203 F 
ATOM     66  C   UNL A   1      44.825  26.118  35.883  1.00  0.00     0.198 A 
ATOM     67  C   UNL A   1      46.376  27.722  34.998  1.00  0.00     0.198 A 
ATOM     68  F   UNL A   1      45.588  29.593  33.809  1.00  0.00    -0.203 F 
ATOM     69  F   UNL A   1      44.581  25.013  36.602  1.00  0.00    -0.200 F 
ATOM     70  C   UNL A   1      46.129  26.560  35.712  1.00  0.00     0.200 A 
ATOM     71  F   UNL A   1      47.636  28.145  34.824  1.00  0.00    -0.200 F 
ATOM     72  F   UNL A   1      47.146  25.871  36.249  1.00  0.00    -0.200 F 
ENDBRANCH  39  62
ENDBRANCH  13  14
ENDBRANCH   6   8
ENDBRANCH   3   4
ENDBRANCH   2   3
ENDBRANCH   1   2
BRANCH   1  73
ATOM     73  C   UNL A   1      31.775  29.909  25.360  1.00  0.00     0.002 C 
BRANCH  73  74
ATOM     74  C   UNL A   1      33.033  29.204  24.839  1.00  0.00     0.021 C 
BRANCH  74  75
ATOM     75  C   UNL A   1      33.113  29.007  23.328  1.00  0.00     0.116 C 
BRANCH  75  76
ATOM     76  N   UNL A   1      31.873  29.327  22.653  1.00  0.00    -0.352 N 
ATOM     77  C   UNL A   1      30.797  28.544  22.334  1.00  0.00     0.251 C 
ATOM     78  H   UNL A   1      31.790  30.267  22.375  1.00  0.00     0.163 HD
ATOM     79  O   UNL A   1      29.901  29.016  21.637  1.00  0.00    -0.269 OA
BRANCH  77  80
ATOM     80  C   UNL A   1      30.686  27.142  22.796  1.00  0.00     0.041 A 
ATOM     81  C   UNL A   1      29.977  26.906  23.980  1.00  0.00     0.014 A 
ATOM     82  C   UNL A   1      31.401  26.100  22.191  1.00  0.00     0.039 A 
ATOM     83  C   UNL A   1      29.946  25.630  24.536  1.00  0.00     0.003 A 
ATOM     84  C   UNL A   1      31.383  24.815  22.751  1.00  0.00     0.039 A 
ATOM     85  C   UNL A   1      30.650  24.594  23.926  1.00  0.00     0.026 A 
BRANCH  84  86
ATOM     86  N   UNL A   1      32.298  23.823  22.311  1.00  0.00    -0.355 N 
ATOM     87  H   UNL A   1      32.212  23.432  21.412  1.00  0.00     0.167 HD
BRANCH  86  88
ATOM     88  C   UNL A   1      33.341  23.402  23.184  1.00  0.00     0.050 A 
ATOM     89  C   UNL A   1      34.305  24.339  23.566  1.00  0.00     0.047 A 
ATOM     90  C   UNL A   1      33.414  22.085  23.690  1.00  0.00     0.027 A 
ATOM     91  C   UNL A   1      35.249  23.971  24.497  1.00  0.00     0.114 A 
ATOM     92  C   UNL A   1      34.431  21.820  24.638  1.00  0.00     0.072 A 
ATOM     93  C   UNL A   1      32.529  21.047  23.322  1.00  0.00     0.051 A 
ATOM     94  N   UNL A   1      35.320  22.741  25.039  1.00  0.00    -0.256 NA
ATOM     95  C   UNL A   1      34.523  20.550  25.190  1.00  0.00     0.032 A 
ATOM     96  C   UNL A   1      32.667  19.782  23.880  1.00  0.00     0.124 A 
ATOM     97  C   UNL A   1      33.655  19.524  24.817  1.00  0.00     0.041 A 
ATOM     98  F   UNL A   1      31.835  18.799  23.511  1.00  0.00    -0.207 F 
ENDBRANCH  86  88
ENDBRANCH  84  86
ENDBRANCH  77  80
ENDBRANCH  75  76
ENDBRANCH  74  75
ENDBRANCH  73  74
ENDBRANCH   1  73
TORSDOF 15
ENDMDL
MODEL 2
REMARK VINA RESULT:     -13.0      5.422     10.882
REMARK SMILES O=C(NCCCCCCNC(=O)c1cccc(Nc2ccnc3ccc(F)cc23)c1)c1ccc(-c2c3nc(c(-c4c(F)c(F)c(F)c(F)c4F)c4ccc([nH]4)c(-c4c(F)c(F)c(F)c(F)c4F)c4nc(c(-c5c(F)c(F)c(F)c(F)c5F)c5ccc2[nH]5)C=C4)C=C3)cc1
REMARK SMILES IDX 6 1 5 2 4 3 3 4 1 5 2 6 31 8 32 9 93 10 33 11 92 12 34 13
REMARK SMILES IDX 35 14 36 15 86 16 37 17 91 18 85 19 87 20 38 21 90 22 84 23
REMARK SMILES IDX 83 24 39 26 71 27 51 28 70 29 52 30 55 31 69 32 88 33 53 34
REMARK SMILES IDX 54 35 68 37 89 38 56 39 40 40 41 41 49 42 42 43 43 44 47 45
REMARK SMILES IDX 50 46 44 47 45 48 48 49 46 50 72 51 73 52 81 53 74 54 75 55
REMARK SMILES IDX 79 56 82 57 76 58 77 59 80 60 78 61 57 62 58 63 66 64 59 65
REMARK SMILES IDX 60 66 64 67 67 68 61 69 62 70 65 71 63 72 7 73 8 74 9 75
REMARK SMILES IDX 10 76 11 77 12 79 13 80 14 81 30 82 15 83 17 84 16 85 18 86
REMARK SMILES IDX 19 88 20 89 29 90 21 91 23 92 28 93 22 94 24 95 26 96 25 97
REMARK SMILES IDX 27 98
REMARK H PARENT 3 7 87 25 55 36 10 78 18 87
REMARK Flexibility Score: inf
ROOT
ATOM      1  C   UNL A   1      37.328  21.144  24.668  1.00  0.00     0.002 C 
ENDROOT
BRANCH   1   2
ATOM      2  C   UNL A   1      38.215  19.926  24.913  1.00  0.00     0.021 C 
BRANCH   2   3
ATOM      3  C   UNL A   1      39.256  20.088  26.009  1.00  0.00     0.116 C 
BRANCH   3   4
ATOM      4  N   UNL A   1      40.341  19.127  25.919  1.00  0.00    -0.352 N 
ATOM      5  O   UNL A   1      42.487  18.430  25.787  1.00  0.00    -0.269 OA
ATOM      6  C   UNL A   1      41.701  19.337  26.012  1.00  0.00     0.251 C 
ATOM      7  H   UNL A   1      40.067  18.193  25.769  1.00  0.00     0.163 HD
BRANCH   6   8
ATOM      8  C   UNL A   1      42.209  20.687  26.359  1.00  0.00     0.039 A 
ATOM      9  C   UNL A   1      42.468  21.028  27.686  1.00  0.00     0.014 A 
ATOM     10  C   UNL A   1      42.415  21.626  25.343  1.00  0.00     0.014 A 
ATOM     11  C   UNL A   1      42.760  22.344  28.014  1.00  0.00     0.010 A 
ATOM     12  C   UNL A   1      42.821  22.927  25.668  1.00  0.00     0.010 A 
ATOM     13  C   UNL A   1      42.964  23.307  27.010  1.00  0.00    -0.014 A 
BRANCH  13  14
ATOM     14  C   UNL A   1      43.406  24.669  27.414  1.00  0.00     0.031 A 
ATOM     15  C   UNL A   1      44.812  25.148  27.185  1.00  0.00     0.074 A 
ATOM     16  C   UNL A   1      42.483  25.504  27.933  1.00  0.00     0.049 A 
ATOM     17  N   UNL A   1      45.320  26.336  27.402  1.00  0.00    -0.248 NA
ATOM     18  C   UNL A   1      45.776  24.175  26.651  1.00  0.00     0.031 C 
ATOM     19  C   UNL A   1      41.096  25.138  28.228  1.00  0.00     0.029 A 
ATOM     20  N   UNL A   1      42.554  26.831  28.270  1.00  0.00    -0.354 N 
ATOM     21  C   UNL A   1      46.659  26.253  27.041  1.00  0.00     0.074 A 
ATOM     22  C   UNL A   1      46.895  24.888  26.620  1.00  0.00     0.031 C 
ATOM     23  C   UNL A   1      40.430  26.227  28.637  1.00  0.00     0.029 A 
ATOM     24  C   UNL A   1      41.358  27.349  28.701  1.00  0.00     0.049 A 
ATOM     25  H   UNL A   1      43.383  27.360  28.210  1.00  0.00     0.167 HD
ATOM     26  C   UNL A   1      47.597  27.231  27.049  1.00  0.00     0.037 A 
ATOM     27  C   UNL A   1      41.040  28.589  29.116  1.00  0.00     0.037 A 
ATOM     28  C   UNL A   1      47.355  28.590  27.468  1.00  0.00     0.049 A 
ATOM     29  C   UNL A   1      42.104  29.648  29.114  1.00  0.00     0.074 A 
ATOM     30  C   UNL A   1      48.241  29.654  27.505  1.00  0.00     0.029 A 
ATOM     31  N   UNL A   1      46.136  29.073  27.923  1.00  0.00    -0.354 N 
ATOM     32  N   UNL A   1      43.358  29.559  28.742  1.00  0.00    -0.248 NA
ATOM     33  C   UNL A   1      41.708  30.979  29.591  1.00  0.00     0.031 C 
ATOM     34  C   UNL A   1      47.568  30.769  28.020  1.00  0.00     0.029 A 
ATOM     35  C   UNL A   1      46.251  30.414  28.256  1.00  0.00     0.049 A 
ATOM     36  H   UNL A   1      45.311  28.540  27.999  1.00  0.00     0.167 HD
ATOM     37  C   UNL A   1      43.900  30.820  28.936  1.00  0.00     0.074 A 
ATOM     38  C   UNL A   1      42.828  31.666  29.419  1.00  0.00     0.031 C 
ATOM     39  C   UNL A   1      45.175  31.238  28.746  1.00  0.00     0.037 A 
BRANCH  26  40
ATOM     40  C   UNL A   1      48.985  26.875  26.594  1.00  0.00     0.064 A 
ATOM     41  C   UNL A   1      49.937  26.354  27.482  1.00  0.00     0.173 A 
ATOM     42  C   UNL A   1      49.345  26.988  25.241  1.00  0.00     0.173 A 
ATOM     43  F   UNL A   1      49.649  26.234  28.786  1.00  0.00    -0.203 F 
ATOM     44  C   UNL A   1      51.203  25.975  27.037  1.00  0.00     0.198 A 
ATOM     45  C   UNL A   1      50.600  26.583  24.795  1.00  0.00     0.198 A 
ATOM     46  F   UNL A   1      48.469  27.473  24.347  1.00  0.00    -0.203 F 
ATOM     47  F   UNL A   1      52.106  25.510  27.911  1.00  0.00    -0.200 F 
ATOM     48  C   UNL A   1      51.530  26.080  25.693  1.00  0.00     0.200 A 
ATOM     49  F   UNL A   1      50.910  26.674  23.494  1.00  0.00    -0.200 F 
ATOM     50  F   UNL A   1      52.741  25.701  25.265  1.00  0.00    -0.200 F 
ENDBRANCH  26  40
BRANCH  27  51
ATOM     51  C   UNL A   1      39.658  28.882  29.578  1.00  0.00     0.064 A 
ATOM     52  C   UNL A   1      39.282  28.691  30.913  1.00  0.00     0.173 A 
ATOM     53  C   UNL A   1      38.687  29.364  28.687  1.00  0.00     0.173 A 
ATOM     54  F   UNL A   1      40.169  28.216  31.799  1.00  0.00    -0.203 F 
ATOM     55  C   UNL A   1      37.979  28.950  31.336  1.00  0.00     0.198 A 
ATOM     56  C   UNL A   1      37.396  29.657  29.118  1.00  0.00     0.198 A 
ATOM     57  F   UNL A   1      39.000  29.572  27.400  1.00  0.00    -0.203 F 
ATOM     58  F   UNL A   1      37.630  28.712  32.607  1.00  0.00    -0.200 F 
ATOM     59  C   UNL A   1      37.040  29.440  30.441  1.00  0.00     0.200 A 
ATOM     60  F   UNL A   1      36.500  30.151  28.253  1.00  0.00    -0.200 F 
ATOM     61  F   UNL A   1      35.790  29.696  30.849  1.00  0.00    -0.200 F 
ENDBRANCH  27  51
BRANCH  39  62
ATOM     62  C   UNL A   1      45.465  32.678  29.054  1.00  0.00     0.064 A 
ATOM     63  C   UNL A   1      45.305  33.680  28.085  1.00  0.00     0.173 A 
ATOM     64  C   UNL A   1      45.910  33.059  30.328  1.00  0.00     0.173 A 
ATOM     65  F   UNL A   1      44.898  33.364  26.846  1.00  0.00    -0.203 F 
ATOM     66  C   UNL A   1      45.622  35.006  28.369  1.00  0.00     0.198 A 
ATOM     67  C   UNL A   1      46.195  34.390  30.618  1.00  0.00     0.198 A 
ATOM     68  F   UNL A   1      46.073  32.140  31.291  1.00  0.00    -0.203 F 
ATOM     69  F   UNL A   1      45.526  35.936  27.409  1.00  0.00    -0.200 F 
ATOM     70  C   UNL A   1      46.062  35.361  29.636  1.00  0.00     0.200 A 
ATOM     71  F   UNL A   1      46.611  34.733  31.845  1.00  0.00    -0.200 F 
ATOM     72  F   UNL A   1      46.372  36.636  29.906  1.00  0.00    -0.200 F 
ENDBRANCH  39  62
ENDBRANCH  13  14
ENDBRANCH   6   8
ENDBRANCH   3   4
ENDBRANCH   2   3
ENDBRANCH   1   2
BRANCH   1  73
ATOM     73  C   UNL A   1      35.877  21.035  25.148  1.00  0.00     0.002 C 
BRANCH  73  74
ATOM     74  C   UNL A   1      35.506  21.813  26.416  1.00  0.00     0.021 C 
BRANCH  74  75
ATOM     75  C   UNL A   1      34.135  21.509  27.012  1.00  0.00     0.116 C 
BRANCH  75  76
ATOM     76  N   UNL A   1      33.517  20.337  26.430  1.00  0.00    -0.352 N 
ATOM     77  C   UNL A   1      32.582  20.215  25.437  1.00  0.00     0.251 C 
ATOM     78  H   UNL A   1      33.818  19.483  26.814  1.00  0.00     0.163 HD
ATOM     79  O   UNL A   1      32.108  19.107  25.198  1.00  0.00    -0.269 OA
BRANCH  77  80
ATOM     80  C   UNL A   1      32.119  21.381  24.653  1.00  0.00     0.041 A 
ATOM     81  C   UNL A   1      32.736  21.614  23.418  1.00  0.00     0.014 A 
ATOM     82  C   UNL A   1      31.230  22.327  25.179  1.00  0.00     0.039 A 
ATOM     83  C   UNL A   1      32.437  22.765  22.692  1.00  0.00     0.003 A 
ATOM     84  C   UNL A   1      30.933  23.493  24.459  1.00  0.00     0.039 A 
ATOM     85  C   UNL A   1      31.544  23.699  23.214  1.00  0.00     0.026 A 
BRANCH  84  86
ATOM     86  N   UNL A   1      30.252  24.571  25.080  1.00  0.00    -0.355 N 
ATOM     87  H   UNL A   1      29.307  24.479  25.340  1.00  0.00     0.167 HD
BRANCH  86  88
ATOM     88  C   UNL A   1      30.950  25.788  25.323  1.00  0.00     0.050 A 
ATOM     89  C   UNL A   1      32.036  25.765  26.201  1.00  0.00     0.047 A 
ATOM     90  C   UNL A   1      30.596  26.999  24.689  1.00  0.00     0.027 A 
ATOM     91  C   UNL A   1      32.785  26.909  26.353  1.00  0.00     0.114 A 
ATOM     92  C   UNL A   1      31.436  28.114  24.924  1.00  0.00     0.072 A 
ATOM     93  C   UNL A   1      29.482  27.147  23.832  1.00  0.00     0.051 A 
ATOM     94  N   UNL A   1      32.509  28.068  25.728  1.00  0.00    -0.256 NA
ATOM     95  C   UNL A   1      31.150  29.318  24.296  1.00  0.00     0.032 A 
ATOM     96  C   UNL A   1      29.215  28.375  23.239  1.00  0.00     0.124 A 
ATOM     97  C   UNL A   1      30.043  29.463  23.460  1.00  0.00     0.041 A 
ATOM     98  F   UNL A   1      28.145  28.511  22.444  1.00  0.00    -0.207 F 
ENDBRANCH  86  88
ENDBRANCH  84  86
ENDBRANCH  77  80
ENDBRANCH  75  76
ENDBRANCH  74  75
ENDBRANCH  73  74
ENDBRANCH   1  73
TORSDOF 15
ENDMDL
MODEL 3
REMARK VINA RESULT:     -13.0      0.362      1.672
REMARK SMILES O=C(NCCCCCCNC(=O)c1cccc(Nc2ccnc3ccc(F)cc23)c1)c1ccc(-c2c3nc(c(-c4c(F)c(F)c(F)c(F)c4F)c4ccc([nH]4)c(-c4c(F)c(F)c(F)c(F)c4F)c4nc(c(-c5c(F)c(F)c(F)c(F)c5F)c5ccc2[nH]5)C=C4)C=C3)cc1
REMARK SMILES IDX 6 1 5 2 4 3 3 4 1 5 2 6 31 8 32 9 93 10 33 11 92 12 34 13
REMARK SMILES IDX 35 14 36 15 86 16 37 17 91 18 85 19 87 20 38 21 90 22 84 23
REMARK SMILES IDX 83 24 39 26 71 27 51 28 70 29 52 30 55 31 69 32 88 33 53 34
REMARK SMILES IDX 54 35 68 37 89 38 56 39 40 40 41 41 49 42 42 43 43 44 47 45
REMARK SMILES IDX 50 46 44 47 45 48 48 49 46 50 72 51 73 52 81 53 74 54 75 55
REMARK SMILES IDX 79 56 82 57 76 58 77 59 80 60 78 61 57 62 58 63 66 64 59 65
REMARK SMILES IDX 60 66 64 67 67 68 61 69 62 70 65 71 63 72 7 73 8 74 9 75
REMARK SMILES IDX 10 76 11 77 12 79 13 80 14 81 30 82 15 83 17 84 16 85 18 86
REMARK SMILES IDX 19 88 20 89 29 90 21 91 23 92 28 93 22 94 24 95 26 96 25 97
REMARK SMILES IDX 27 98
REMARK H PARENT 3 7 87 25 55 36 10 78 18 87
REMARK Flexibility Score: inf
ROOT
ATOM      1  C   UNL A   1      31.146  30.839  25.511  1.00  0.00     0.002 C 
ENDROOT
BRANCH   1   2
ATOM      2  C   UNL A   1      31.247  31.681  26.781  1.00  0.00     0.021 C 
BRANCH   2   3
ATOM      3  C   UNL A   1      32.532  32.479  26.932  1.00  0.00     0.116 C 
BRANCH   3   4
ATOM      4  N   UNL A   1      32.321  33.814  27.463  1.00  0.00    -0.352 N 
ATOM      5  O   UNL A   1      32.638  35.563  28.859  1.00  0.00    -0.269 OA
ATOM      6  C   UNL A   1      33.029  34.485  28.438  1.00  0.00     0.251 C 
ATOM      7  H   UNL A   1      31.564  34.310  27.073  1.00  0.00     0.163 HD
BRANCH   6   8
ATOM      8  C   UNL A   1      34.258  33.874  28.999  1.00  0.00     0.039 A 
ATOM      9  C   UNL A   1      34.176  32.789  29.873  1.00  0.00     0.014 A 
ATOM     10  C   UNL A   1      35.507  34.401  28.656  1.00  0.00     0.014 A 
ATOM     11  C   UNL A   1      35.315  32.350  30.533  1.00  0.00     0.010 A 
ATOM     12  C   UNL A   1      36.669  33.880  29.240  1.00  0.00     0.010 A 
ATOM     13  C   UNL A   1      36.580  32.872  30.210  1.00  0.00    -0.014 A 
BRANCH  13  14
ATOM     14  C   UNL A   1      37.778  32.270  30.853  1.00  0.00     0.031 A 
ATOM     15  C   UNL A   1      38.204  32.643  32.245  1.00  0.00     0.074 A 
ATOM     16  C   UNL A   1      38.444  31.312  30.177  1.00  0.00     0.049 A 
ATOM     17  N   UNL A   1      39.173  32.140  32.971  1.00  0.00    -0.248 NA
ATOM     18  C   UNL A   1      37.459  33.721  32.911  1.00  0.00     0.031 C 
ATOM     19  C   UNL A   1      38.139  30.889  28.808  1.00  0.00     0.029 A 
ATOM     20  N   UNL A   1      39.482  30.498  30.551  1.00  0.00    -0.354 N 
ATOM     21  C   UNL A   1      39.158  32.841  34.170  1.00  0.00     0.074 A 
ATOM     22  C   UNL A   1      38.106  33.829  34.065  1.00  0.00     0.031 C 
ATOM     23  C   UNL A   1      38.923  29.853  28.481  1.00  0.00     0.029 A 
ATOM     24  C   UNL A   1      39.832  29.584  29.589  1.00  0.00     0.049 A 
ATOM     25  H   UNL A   1      39.932  30.563  31.424  1.00  0.00     0.167 HD
ATOM     26  C   UNL A   1      39.945  32.664  35.260  1.00  0.00     0.037 A 
ATOM     27  C   UNL A   1      40.790  28.638  29.587  1.00  0.00     0.037 A 
ATOM     28  C   UNL A   1      40.990  31.676  35.359  1.00  0.00     0.049 A 
ATOM     29  C   UNL A   1      41.644  28.471  30.809  1.00  0.00     0.074 A 
ATOM     30  C   UNL A   1      41.836  31.416  36.425  1.00  0.00     0.029 A 
ATOM     31  N   UNL A   1      41.335  30.784  34.353  1.00  0.00    -0.354 N 
ATOM     32  N   UNL A   1      41.598  29.123  31.945  1.00  0.00    -0.248 NA
ATOM     33  C   UNL A   1      42.683  27.435  30.749  1.00  0.00     0.031 C 
ATOM     34  C   UNL A   1      42.717  30.395  36.050  1.00  0.00     0.029 A 
ATOM     35  C   UNL A   1      42.388  29.983  34.769  1.00  0.00     0.049 A 
ATOM     36  H   UNL A   1      40.896  30.729  33.474  1.00  0.00     0.167 HD
ATOM     37  C   UNL A   1      42.598  28.577  32.736  1.00  0.00     0.074 A 
ATOM     38  C   UNL A   1      43.205  27.513  31.964  1.00  0.00     0.031 C 
ATOM     39  C   UNL A   1      42.988  28.935  33.983  1.00  0.00     0.037 A 
BRANCH  26  40
ATOM     40  C   UNL A   1      39.713  33.560  36.445  1.00  0.00     0.064 A 
ATOM     41  C   UNL A   1      40.291  34.835  36.524  1.00  0.00     0.173 A 
ATOM     42  C   UNL A   1      38.845  33.169  37.478  1.00  0.00     0.173 A 
ATOM     43  F   UNL A   1      41.135  35.254  35.569  1.00  0.00    -0.203 F 
ATOM     44  C   UNL A   1      40.023  35.680  37.601  1.00  0.00     0.198 A 
ATOM     45  C   UNL A   1      38.559  34.026  38.538  1.00  0.00     0.198 A 
ATOM     46  F   UNL A   1      38.259  31.963  37.447  1.00  0.00    -0.203 F 
ATOM     47  F   UNL A   1      40.614  36.881  37.670  1.00  0.00    -0.200 F 
ATOM     48  C   UNL A   1      39.150  35.278  38.601  1.00  0.00     0.200 A 
ATOM     49  F   UNL A   1      37.705  33.642  39.497  1.00  0.00    -0.200 F 
ATOM     50  F   UNL A   1      38.883  36.097  39.627  1.00  0.00    -0.200 F 
ENDBRANCH  26  40
BRANCH  27  51
ATOM     51  C   UNL A   1      40.993  27.794  28.380  1.00  0.00     0.064 A 
ATOM     52  C   UNL A   1      41.826  28.209  27.333  1.00  0.00     0.173 A 
ATOM     53  C   UNL A   1      40.356  26.550  28.254  1.00  0.00     0.173 A 
ATOM     54  F   UNL A   1      42.444  29.397  27.399  1.00  0.00    -0.203 F 
ATOM     55  C   UNL A   1      41.998  27.421  26.197  1.00  0.00     0.198 A 
ATOM     56  C   UNL A   1      40.556  25.748  27.135  1.00  0.00     0.198 A 
ATOM     57  F   UNL A   1      39.554  26.104  29.233  1.00  0.00    -0.203 F 
ATOM     58  F   UNL A   1      42.760  27.862  25.188  1.00  0.00    -0.200 F 
ATOM     59  C   UNL A   1      41.369  26.188  26.101  1.00  0.00     0.200 A 
ATOM     60  F   UNL A   1      39.963  24.549  27.059  1.00  0.00    -0.200 F 
ATOM     61  F   UNL A   1      41.540  25.428  25.012  1.00  0.00    -0.200 F 
ENDBRANCH  27  51
BRANCH  39  62
ATOM     62  C   UNL A   1      44.119  28.153  34.585  1.00  0.00     0.064 A 
ATOM     63  C   UNL A   1      43.890  26.978  35.317  1.00  0.00     0.173 A 
ATOM     64  C   UNL A   1      45.445  28.585  34.431  1.00  0.00     0.173 A 
ATOM     65  F   UNL A   1      42.638  26.534  35.506  1.00  0.00    -0.203 F 
ATOM     66  C   UNL A   1      44.943  26.288  35.910  1.00  0.00     0.198 A 
ATOM     67  C   UNL A   1      46.499  27.873  34.998  1.00  0.00     0.198 A 
ATOM     68  F   UNL A   1      45.718  29.698  33.735  1.00  0.00    -0.203 F 
ATOM     69  F   UNL A   1      44.695  25.206  36.660  1.00  0.00    -0.200 F 
ATOM     70  C   UNL A   1      46.247  26.733  35.746  1.00  0.00     0.200 A 
ATOM     71  F   UNL A   1      47.759  28.299  34.830  1.00  0.00    -0.200 F 
ATOM     72  F   UNL A   1      47.259  26.070  36.321  1.00  0.00    -0.200 F 
ENDBRANCH  39  62
ENDBRANCH  13  14
ENDBRANCH   6   8
ENDBRANCH   3   4
ENDBRANCH   2   3
ENDBRANCH   1   2
BRANCH   1  73
ATOM     73  C   UNL A   1      31.854  29.481  25.539  1.00  0.00     0.002 C 
BRANCH  73  74
ATOM     74  C   UNL A   1      33.211  29.392  24.831  1.00  0.00     0.021 C 
BRANCH  74  75
ATOM     75  C   UNL A   1      33.171  29.020  23.352  1.00  0.00     0.116 C 
BRANCH  75  76
ATOM     76  N   UNL A   1      31.934  29.408  22.708  1.00  0.00    -0.352 N 
ATOM     77  C   UNL A   1      30.828  28.674  22.375  1.00  0.00     0.251 C 
ATOM     78  H   UNL A   1      31.880  30.360  22.468  1.00  0.00     0.163 HD
ATOM     79  O   UNL A   1      29.940  29.202  21.709  1.00  0.00    -0.269 OA
BRANCH  77  80
ATOM     80  C   UNL A   1      30.677  27.259  22.783  1.00  0.00     0.041 A 
ATOM     81  C   UNL A   1      29.906  26.995  23.922  1.00  0.00     0.014 A 
ATOM     82  C   UNL A   1      31.406  26.227  22.180  1.00  0.00     0.039 A 
ATOM     83  C   UNL A   1      29.831  25.702  24.433  1.00  0.00     0.003 A 
ATOM     84  C   UNL A   1      31.344  24.925  22.695  1.00  0.00     0.039 A 
ATOM     85  C   UNL A   1      30.551  24.676  23.824  1.00  0.00     0.026 A 
BRANCH  84  86
ATOM     86  N   UNL A   1      32.266  23.934  22.267  1.00  0.00    -0.355 N 
ATOM     87  H   UNL A   1      32.185  23.534  21.372  1.00  0.00     0.167 HD
BRANCH  86  88
ATOM     88  C   UNL A   1      33.309  23.528  23.148  1.00  0.00     0.050 A 
ATOM     89  C   UNL A   1      34.258  24.477  23.534  1.00  0.00     0.047 A 
ATOM     90  C   UNL A   1      33.395  22.213  23.655  1.00  0.00     0.027 A 
ATOM     91  C   UNL A   1      35.200  24.122  24.472  1.00  0.00     0.114 A 
ATOM     92  C   UNL A   1      34.409  21.962  24.610  1.00  0.00     0.072 A 
ATOM     93  C   UNL A   1      32.526  21.163  23.283  1.00  0.00     0.051 A 
ATOM     94  N   UNL A   1      35.283  22.895  25.016  1.00  0.00    -0.256 NA
ATOM     95  C   UNL A   1      34.513  20.694  25.165  1.00  0.00     0.032 A 
ATOM     96  C   UNL A   1      32.676  19.900  23.844  1.00  0.00     0.124 A 
ATOM     97  C   UNL A   1      33.661  19.656  24.787  1.00  0.00     0.041 A 
ATOM     98  F   UNL A   1      31.860  18.906  23.471  1.00  0.00    -0.207 F 
ENDBRANCH  86  88
ENDBRANCH  84  86
ENDBRANCH  77  80
ENDBRANCH  75  76
ENDBRANCH  74  75
ENDBRANCH  73  74
ENDBRANCH   1  73
TORSDOF 15
ENDMDL
