MODEL 1
REMARK VINA RESULT:     -12.1      0.000      0.000
REMARK SMILES Cc1cc(Br)cc2c1O[C@H](C(F)(F)F)C(C(=O)NCCCCCCNC(=O)c1ccc(-c3c4nc(c(-c5c(F)c(F)c(F)c(F)c5F)c5ccc([nH]5)c(-c5c(F)c(F)c(F)c(F)c5F)c5nc(c(-c6c(F)c(F)c(F)c(F)c6F)c6ccc3[nH]6)C=C5)C=C4)cc1)=C2
REMARK SMILES IDX 22 1 21 2 20 3 19 4 18 5 16 6 17 7 15 9 1 10 2 11 3 12 8 13
REMARK SMILES IDX 4 14 7 15 9 16 5 17 6 18 91 19 10 20 11 21 12 22 13 23 14 24
REMARK SMILES IDX 23 25 24 26 25 27 26 28 27 30 28 31 29 32 90 33 30 34 89 35
REMARK SMILES IDX 31 36 32 37 33 38 83 39 34 40 88 41 82 42 84 43 35 44 87 45
REMARK SMILES IDX 81 46 80 47 36 49 68 50 48 51 67 52 49 53 52 54 66 55 85 56
REMARK SMILES IDX 50 57 51 58 65 60 86 61 53 62 37 63 38 64 46 65 39 66 40 67
REMARK SMILES IDX 44 68 47 69 41 70 42 71 45 72 43 73 69 74 70 75 78 76 71 77
REMARK SMILES IDX 72 78 76 79 79 80 73 81 74 82 77 83 75 84 54 85 55 86 63 87
REMARK SMILES IDX 56 88 57 89 61 90 64 91 58 92 59 93 62 94 60 95
REMARK H PARENT 18 8 25 29 84 48 52 59
REMARK Flexibility Score: inf
ROOT
ATOM      1  C   UNL A   1      35.213  21.922  26.157  1.00  0.00     0.002 C 
ENDROOT
BRANCH   1   2
ATOM      2  C   UNL A   1      34.702  20.979  25.060  1.00  0.00     0.002 C 
BRANCH   2   3
ATOM      3  C   UNL A   1      33.306  20.402  25.306  1.00  0.00     0.021 C 
BRANCH   3   4
ATOM      4  C   UNL A   1      32.184  21.312  24.820  1.00  0.00     0.116 C 
BRANCH   4   5
ATOM      5  N   UNL A   1      31.504  21.966  25.923  1.00  0.00    -0.352 N 
ATOM      6  C   UNL A   1      31.311  23.232  26.359  1.00  0.00     0.251 C 
ATOM      7  O   UNL A   1      30.611  23.343  27.370  1.00  0.00    -0.270 OA
ATOM      8  H   UNL A   1      31.065  21.311  26.513  1.00  0.00     0.163 HD
BRANCH   6   9
ATOM      9  C   UNL A   1      31.874  24.456  25.714  1.00  0.00     0.067 C 
ATOM     10  C   UNL A   1      34.037  27.933  22.582  1.00  0.00     0.048 C 
ATOM     11  C   UNL A   1      33.670  27.873  24.039  1.00  0.00    -0.007 A 
ATOM     12  C   UNL A   1      33.925  28.979  24.859  1.00  0.00     0.023 A 
ATOM     13  C   UNL A   1      33.107  26.726  24.615  1.00  0.00     0.130 A 
ATOM     14  C   UNL A   1      33.611  28.931  26.219  1.00  0.00     0.019 A 
ATOM     15  C   UNL A   1      32.794  26.674  25.978  1.00  0.00     0.019 A 
ATOM     16  O   UNL A   1      32.932  25.652  23.794  1.00  0.00    -0.475 OA
ATOM     17  Br  UNL A   1      33.971  30.433  27.310  1.00  0.00    -0.051 Br
ATOM     18  C   UNL A   1      33.047  27.787  26.783  1.00  0.00     0.027 A 
ATOM     19  C   UNL A   1      32.248  25.446  26.545  1.00  0.00     0.025 C 
ATOM     20  C   UNL A   1      32.005  24.630  24.231  1.00  0.00     0.314 C 
BRANCH  20  21
ATOM     21  C   UNL A   1      30.651  24.843  23.529  1.00  0.00     0.429 C 
ATOM     22  F   UNL A   1      30.118  23.650  23.161  1.00  0.00    -0.167 F 
ATOM     23  F   UNL A   1      29.734  25.436  24.329  1.00  0.00    -0.167 F 
ATOM     24  F   UNL A   1      30.754  25.603  22.416  1.00  0.00    -0.167 F 
ENDBRANCH  20  21
ENDBRANCH   6   9
ENDBRANCH   4   5
ENDBRANCH   3   4
ENDBRANCH   2   3
ENDBRANCH   1   2
BRANCH   1  25
ATOM     25  C   UNL A   1      35.394  23.381  25.726  1.00  0.00     0.021 C 
BRANCH  25  26
ATOM     26  C   UNL A   1      36.793  23.712  25.222  1.00  0.00     0.116 C 
BRANCH  26  27
ATOM     27  N   UNL A   1      37.756  22.692  25.602  1.00  0.00    -0.352 N 
ATOM     28  C   UNL A   1      38.979  22.835  26.198  1.00  0.00     0.251 C 
ATOM     29  H   UNL A   1      37.490  21.765  25.403  1.00  0.00     0.163 HD
ATOM     30  O   UNL A   1      39.768  21.895  26.241  1.00  0.00    -0.269 OA
BRANCH  28  31
ATOM     31  C   UNL A   1      39.352  24.136  26.785  1.00  0.00     0.039 A 
ATOM     32  C   UNL A   1      38.991  24.414  28.104  1.00  0.00     0.014 A 
ATOM     33  C   UNL A   1      40.053  25.080  26.027  1.00  0.00     0.014 A 
ATOM     34  C   UNL A   1      39.373  25.624  28.679  1.00  0.00     0.010 A 
ATOM     35  C   UNL A   1      40.499  26.252  26.625  1.00  0.00     0.010 A 
ATOM     36  C   UNL A   1      40.151  26.541  27.952  1.00  0.00    -0.014 A 
BRANCH  36  37
ATOM     37  C   UNL A   1      40.586  27.821  28.559  1.00  0.00     0.031 A 
ATOM     38  C   UNL A   1      42.028  28.023  28.926  1.00  0.00     0.074 A 
ATOM     39  C   UNL A   1      39.678  28.785  28.806  1.00  0.00     0.049 A 
ATOM     40  N   UNL A   1      42.600  29.054  29.494  1.00  0.00    -0.248 NA
ATOM     41  C   UNL A   1      42.949  26.911  28.637  1.00  0.00     0.031 C 
ATOM     42  C   UNL A   1      38.246  28.687  28.519  1.00  0.00     0.029 A 
ATOM     43  N   UNL A   1      39.825  30.035  29.351  1.00  0.00    -0.354 N 
ATOM     44  C   UNL A   1      43.939  28.715  29.626  1.00  0.00     0.074 A 
ATOM     45  C   UNL A   1      44.087  27.360  29.144  1.00  0.00     0.031 C 
ATOM     46  C   UNL A   1      37.652  29.843  28.857  1.00  0.00     0.029 A 
ATOM     47  C   UNL A   1      38.651  30.745  29.422  1.00  0.00     0.049 A 
ATOM     48  H   UNL A   1      40.688  30.389  29.664  1.00  0.00     0.167 HD
ATOM     49  C   UNL A   1      44.961  29.480  30.077  1.00  0.00     0.037 A 
ATOM     50  C   UNL A   1      38.411  31.986  29.889  1.00  0.00     0.037 A 
ATOM     51  C   UNL A   1      44.811  30.835  30.538  1.00  0.00     0.049 A 
ATOM     52  C   UNL A   1      39.558  32.799  30.427  1.00  0.00     0.074 A 
ATOM     53  C   UNL A   1      45.788  31.706  30.981  1.00  0.00     0.029 A 
ATOM     54  N   UNL A   1      43.603  31.513  30.614  1.00  0.00    -0.354 N 
ATOM     55  N   UNL A   1      40.830  32.489  30.497  1.00  0.00    -0.248 NA
ATOM     56  C   UNL A   1      39.237  34.135  30.947  1.00  0.00     0.031 C 
ATOM     57  C   UNL A   1      45.167  32.894  31.375  1.00  0.00     0.029 A 
ATOM     58  C   UNL A   1      43.808  32.785  31.124  1.00  0.00     0.049 A 
ATOM     59  H   UNL A   1      42.729  31.145  30.346  1.00  0.00     0.167 HD
ATOM     60  C   UNL A   1      41.463  33.595  31.045  1.00  0.00     0.074 A 
ATOM     61  C   UNL A   1      40.438  34.593  31.272  1.00  0.00     0.031 C 
ATOM     62  C   UNL A   1      42.776  33.768  31.337  1.00  0.00     0.037 A 
BRANCH  49  63
ATOM     63  C   UNL A   1      46.337  28.880  30.079  1.00  0.00     0.064 A 
ATOM     64  C   UNL A   1      46.830  28.183  31.193  1.00  0.00     0.173 A 
ATOM     65  C   UNL A   1      47.148  28.948  28.936  1.00  0.00     0.173 A 
ATOM     66  F   UNL A   1      46.100  28.102  32.316  1.00  0.00    -0.203 F 
ATOM     67  C   UNL A   1      48.089  27.590  31.168  1.00  0.00     0.198 A 
ATOM     68  C   UNL A   1      48.393  28.326  28.903  1.00  0.00     0.198 A 
ATOM     69  F   UNL A   1      46.724  29.599  27.843  1.00  0.00    -0.203 F 
ATOM     70  F   UNL A   1      48.554  26.963  32.258  1.00  0.00    -0.200 F 
ATOM     71  C   UNL A   1      48.865  27.651  30.020  1.00  0.00     0.200 A 
ATOM     72  F   UNL A   1      49.136  28.373  27.788  1.00  0.00    -0.200 F 
ATOM     73  F   UNL A   1      50.069  27.065  29.992  1.00  0.00    -0.200 F 
ENDBRANCH  49  63
BRANCH  50  74
ATOM     74  C   UNL A   1      37.034  32.543  29.833  1.00  0.00     0.064 A 
ATOM     75  C   UNL A   1      36.151  32.383  30.911  1.00  0.00     0.173 A 
ATOM     76  C   UNL A   1      36.578  33.263  28.719  1.00  0.00     0.173 A 
ATOM     77  F   UNL A   1      36.533  31.684  31.989  1.00  0.00    -0.203 F 
ATOM     78  C   UNL A   1      34.863  32.911  30.872  1.00  0.00     0.198 A 
ATOM     79  C   UNL A   1      35.299  33.817  28.693  1.00  0.00     0.198 A 
ATOM     80  F   UNL A   1      37.384  33.450  27.663  1.00  0.00    -0.203 F 
ATOM     81  F   UNL A   1      34.028  32.711  31.901  1.00  0.00    -0.200 F 
ATOM     82  C   UNL A   1      34.441  33.635  29.768  1.00  0.00     0.200 A 
ATOM     83  F   UNL A   1      34.902  34.530  27.632  1.00  0.00    -0.200 F 
ATOM     84  F   UNL A   1      33.206  34.155  29.736  1.00  0.00    -0.200 F 
ENDBRANCH  50  74
BRANCH  62  85
ATOM     85  C   UNL A   1      43.193  35.087  31.921  1.00  0.00     0.064 A 
ATOM     86  C   UNL A   1      43.638  36.140  31.109  1.00  0.00     0.173 A 
ATOM     87  C   UNL A   1      43.063  35.329  33.298  1.00  0.00     0.173 A 
ATOM     88  F   UNL A   1      43.790  35.955  29.789  1.00  0.00    -0.203 F 
ATOM     89  C   UNL A   1      43.952  37.381  31.654  1.00  0.00     0.198 A 
ATOM     90  C   UNL A   1      43.346  36.581  33.835  1.00  0.00     0.198 A 
ATOM     91  F   UNL A   1      42.631  34.358  34.117  1.00  0.00    -0.203 F 
ATOM     92  F   UNL A   1      44.409  38.361  30.864  1.00  0.00    -0.200 F 
ATOM     93  C   UNL A   1      43.794  37.604  33.015  1.00  0.00     0.200 A 
ATOM     94  F   UNL A   1      43.174  36.800  35.146  1.00  0.00    -0.200 F 
ATOM     95  F   UNL A   1      44.076  38.807  33.534  1.00  0.00    -0.200 F 
ENDBRANCH  62  85
ENDBRANCH  36  37
ENDBRANCH  28  31
ENDBRANCH  26  27
ENDBRANCH  25  26
ENDBRANCH   1  25
TORSDOF 14
ENDMDL
MODEL 2
REMARK VINA RESULT:     -12.0      3.375      8.649
REMARK SMILES Cc1cc(Br)cc2c1O[C@H](C(F)(F)F)C(C(=O)NCCCCCCNC(=O)c1ccc(-c3c4nc(c(-c5c(F)c(F)c(F)c(F)c5F)c5ccc([nH]5)c(-c5c(F)c(F)c(F)c(F)c5F)c5nc(c(-c6c(F)c(F)c(F)c(F)c6F)c6ccc3[nH]6)C=C5)C=C4)cc1)=C2
REMARK SMILES IDX 22 1 21 2 20 3 19 4 18 5 16 6 17 7 15 9 1 10 2 11 3 12 8 13
REMARK SMILES IDX 4 14 7 15 9 16 5 17 6 18 91 19 10 20 11 21 12 22 13 23 14 24
REMARK SMILES IDX 23 25 24 26 25 27 26 28 27 30 28 31 29 32 90 33 30 34 89 35
REMARK SMILES IDX 31 36 32 37 33 38 83 39 34 40 88 41 82 42 84 43 35 44 87 45
REMARK SMILES IDX 81 46 80 47 36 49 68 50 48 51 67 52 49 53 52 54 66 55 85 56
REMARK SMILES IDX 50 57 51 58 65 60 86 61 53 62 37 63 38 64 46 65 39 66 40 67
REMARK SMILES IDX 44 68 47 69 41 70 42 71 45 72 43 73 69 74 70 75 78 76 71 77
REMARK SMILES IDX 72 78 76 79 79 80 73 81 74 82 77 83 75 84 54 85 55 86 63 87
REMARK SMILES IDX 56 88 57 89 61 90 64 91 58 92 59 93 62 94 60 95
REMARK H PARENT 18 8 25 29 84 48 52 59
REMARK Flexibility Score: inf
ROOT
ATOM      1  C   UNL A   1      33.012  28.820  24.722  1.00  0.00     0.002 C 
ENDROOT
BRANCH   1   2
ATOM      2  C   UNL A   1      31.479  28.768  24.684  1.00  0.00     0.002 C 
BRANCH   2   3
ATOM      3  C   UNL A   1      30.868  28.816  23.282  1.00  0.00     0.021 C 
BRANCH   3   4
ATOM      4  C   UNL A   1      30.547  27.438  22.717  1.00  0.00     0.116 C 
BRANCH   4   5
ATOM      5  N   UNL A   1      31.598  26.956  21.839  1.00  0.00    -0.352 N 
ATOM      6  C   UNL A   1      32.617  26.069  21.906  1.00  0.00     0.251 C 
ATOM      7  O   UNL A   1      33.278  25.943  20.871  1.00  0.00    -0.270 OA
ATOM      8  H   UNL A   1      31.559  27.394  20.958  1.00  0.00     0.163 HD
BRANCH   6   9
ATOM      9  C   UNL A   1      32.975  25.264  23.113  1.00  0.00     0.067 C 
ATOM     10  C   UNL A   1      33.204  22.954  27.715  1.00  0.00     0.048 C 
ATOM     11  C   UNL A   1      34.155  23.181  26.573  1.00  0.00    -0.007 A 
ATOM     12  C   UNL A   1      35.461  22.685  26.656  1.00  0.00     0.023 A 
ATOM     13  C   UNL A   1      33.784  23.907  25.433  1.00  0.00     0.130 A 
ATOM     14  C   UNL A   1      36.364  22.907  25.614  1.00  0.00     0.019 A 
ATOM     15  C   UNL A   1      34.687  24.133  24.388  1.00  0.00     0.019 A 
ATOM     16  O   UNL A   1      32.523  24.423  25.419  1.00  0.00    -0.475 OA
ATOM     17  Br  UNL A   1      38.126  22.235  25.751  1.00  0.00    -0.051 Br
ATOM     18  C   UNL A   1      35.985  23.627  24.481  1.00  0.00     0.027 A 
ATOM     19  C   UNL A   1      34.272  24.930  23.238  1.00  0.00     0.025 C 
ATOM     20  C   UNL A   1      31.979  24.808  24.135  1.00  0.00     0.314 C 
BRANCH  20  21
ATOM     21  C   UNL A   1      31.061  23.685  23.619  1.00  0.00     0.429 C 
ATOM     22  F   UNL A   1      29.950  24.211  23.041  1.00  0.00    -0.167 F 
ATOM     23  F   UNL A   1      31.652  22.918  22.671  1.00  0.00    -0.167 F 
ATOM     24  F   UNL A   1      30.653  22.852  24.601  1.00  0.00    -0.167 F 
ENDBRANCH  20  21
ENDBRANCH   6   9
ENDBRANCH   4   5
ENDBRANCH   3   4
ENDBRANCH   2   3
ENDBRANCH   1   2
BRANCH   1  25
ATOM     25  C   UNL A   1      33.668  27.907  25.762  1.00  0.00     0.021 C 
BRANCH  25  26
ATOM     26  C   UNL A   1      33.479  28.367  27.202  1.00  0.00     0.116 C 
BRANCH  26  27
ATOM     27  N   UNL A   1      33.443  29.816  27.301  1.00  0.00    -0.352 N 
ATOM     28  C   UNL A   1      34.351  30.667  27.872  1.00  0.00     0.251 C 
ATOM     29  H   UNL A   1      32.656  30.249  26.899  1.00  0.00     0.163 HD
ATOM     30  O   UNL A   1      34.061  31.844  28.078  1.00  0.00    -0.269 OA
BRANCH  28  31
ATOM     31  C   UNL A   1      35.682  30.160  28.252  1.00  0.00     0.039 A 
ATOM     32  C   UNL A   1      36.700  30.147  27.299  1.00  0.00     0.014 A 
ATOM     33  C   UNL A   1      35.919  29.693  29.550  1.00  0.00     0.014 A 
ATOM     34  C   UNL A   1      37.973  29.706  27.658  1.00  0.00     0.010 A 
ATOM     35  C   UNL A   1      37.204  29.327  29.928  1.00  0.00     0.010 A 
ATOM     36  C   UNL A   1      38.240  29.317  28.982  1.00  0.00    -0.014 A 
BRANCH  36  37
ATOM     37  C   UNL A   1      39.594  28.869  29.386  1.00  0.00     0.031 A 
ATOM     38  C   UNL A   1      40.418  29.720  30.309  1.00  0.00     0.074 A 
ATOM     39  C   UNL A   1      40.088  27.715  28.897  1.00  0.00     0.049 A 
ATOM     40  N   UNL A   1      41.633  29.521  30.753  1.00  0.00    -0.248 NA
ATOM     41  C   UNL A   1      39.806  30.973  30.782  1.00  0.00     0.031 C 
ATOM     42  C   UNL A   1      39.389  26.825  27.971  1.00  0.00     0.029 A 
ATOM     43  N   UNL A   1      41.293  27.095  29.113  1.00  0.00    -0.354 N 
ATOM     44  C   UNL A   1      41.925  30.616  31.553  1.00  0.00     0.074 A 
ATOM     45  C   UNL A   1      40.793  31.512  31.482  1.00  0.00     0.031 C 
ATOM     46  C   UNL A   1      40.161  25.753  27.727  1.00  0.00     0.029 A 
ATOM     47  C   UNL A   1      41.424  25.903  28.445  1.00  0.00     0.049 A 
ATOM     48  H   UNL A   1      41.996  27.469  29.692  1.00  0.00     0.167 HD
ATOM     49  C   UNL A   1      43.028  30.838  32.307  1.00  0.00     0.037 A 
ATOM     50  C   UNL A   1      42.449  25.028  28.416  1.00  0.00     0.037 A 
ATOM     51  C   UNL A   1      44.144  29.934  32.387  1.00  0.00     0.049 A 
ATOM     52  C   UNL A   1      43.682  25.322  29.229  1.00  0.00     0.074 A 
ATOM     53  C   UNL A   1      45.291  30.050  33.149  1.00  0.00     0.029 A 
ATOM     54  N   UNL A   1      44.250  28.746  31.679  1.00  0.00    -0.354 N 
ATOM     55  N   UNL A   1      43.926  26.334  30.025  1.00  0.00    -0.248 NA
ATOM     56  C   UNL A   1      44.779  24.349  29.143  1.00  0.00     0.031 C 
ATOM     57  C   UNL A   1      46.117  28.959  32.864  1.00  0.00     0.029 A 
ATOM     58  C   UNL A   1      45.458  28.133  31.967  1.00  0.00     0.049 A 
ATOM     59  H   UNL A   1      43.568  28.391  31.063  1.00  0.00     0.167 HD
ATOM     60  C   UNL A   1      45.191  26.111  30.551  1.00  0.00     0.074 A 
ATOM     61  C   UNL A   1      45.656  24.856  29.999  1.00  0.00     0.031 C 
ATOM     62  C   UNL A   1      45.903  26.879  31.412  1.00  0.00     0.037 A 
BRANCH  49  63
ATOM     63  C   UNL A   1      43.077  32.098  33.121  1.00  0.00     0.064 A 
ATOM     64  C   UNL A   1      43.614  33.286  32.600  1.00  0.00     0.173 A 
ATOM     65  C   UNL A   1      42.526  32.138  34.411  1.00  0.00     0.173 A 
ATOM     66  F   UNL A   1      44.165  33.298  31.377  1.00  0.00    -0.203 F 
ATOM     67  C   UNL A   1      43.612  34.461  33.345  1.00  0.00     0.198 A 
ATOM     68  C   UNL A   1      42.497  33.323  35.141  1.00  0.00     0.198 A 
ATOM     69  F   UNL A   1      41.997  31.033  34.955  1.00  0.00    -0.203 F 
ATOM     70  F   UNL A   1      44.166  35.572  32.841  1.00  0.00    -0.200 F 
ATOM     71  C   UNL A   1      43.044  34.482  34.610  1.00  0.00     0.200 A 
ATOM     72  F   UNL A   1      41.934  33.346  36.357  1.00  0.00    -0.200 F 
ATOM     73  F   UNL A   1      43.027  35.619  35.319  1.00  0.00    -0.200 F 
ENDBRANCH  49  63
BRANCH  50  74
ATOM     74  C   UNL A   1      42.334  23.780  27.618  1.00  0.00     0.064 A 
ATOM     75  C   UNL A   1      42.751  23.743  26.280  1.00  0.00     0.173 A 
ATOM     76  C   UNL A   1      41.830  22.596  28.176  1.00  0.00     0.173 A 
ATOM     77  F   UNL A   1      43.220  24.855  25.696  1.00  0.00    -0.203 F 
ATOM     78  C   UNL A   1      42.657  22.574  25.528  1.00  0.00     0.198 A 
ATOM     79  C   UNL A   1      41.764  21.419  27.432  1.00  0.00     0.198 A 
ATOM     80  F   UNL A   1      41.422  22.575  29.454  1.00  0.00    -0.203 F 
ATOM     81  F   UNL A   1      43.028  22.578  24.240  1.00  0.00    -0.200 F 
ATOM     82  C   UNL A   1      42.173  21.411  26.107  1.00  0.00     0.200 A 
ATOM     83  F   UNL A   1      41.311  20.294  28.000  1.00  0.00    -0.200 F 
ATOM     84  F   UNL A   1      42.095  20.283  25.387  1.00  0.00    -0.200 F 
ENDBRANCH  50  74
BRANCH  62  85
ATOM     85  C   UNL A   1      47.259  26.384  31.829  1.00  0.00     0.064 A 
ATOM     86  C   UNL A   1      47.418  25.519  32.921  1.00  0.00     0.173 A 
ATOM     87  C   UNL A   1      48.398  26.710  31.076  1.00  0.00     0.173 A 
ATOM     88  F   UNL A   1      46.362  25.187  33.679  1.00  0.00    -0.203 F 
ATOM     89  C   UNL A   1      48.671  25.010  33.253  1.00  0.00     0.198 A 
ATOM     90  C   UNL A   1      49.642  26.173  31.391  1.00  0.00     0.198 A 
ATOM     91  F   UNL A   1      48.297  27.525  30.015  1.00  0.00    -0.203 F 
ATOM     92  F   UNL A   1      48.805  24.214  34.322  1.00  0.00    -0.200 F 
ATOM     93  C   UNL A   1      49.778  25.328  32.480  1.00  0.00     0.200 A 
ATOM     94  F   UNL A   1      50.708  26.464  30.632  1.00  0.00    -0.200 F 
ATOM     95  F   UNL A   1      50.979  24.818  32.789  1.00  0.00    -0.200 F 
ENDBRANCH  62  85
ENDBRANCH  36  37
ENDBRANCH  28  31
ENDBRANCH  26  27
ENDBRANCH  25  26
ENDBRANCH   1  25
TORSDOF 14
ENDMDL
MODEL 3
REMARK VINA RESULT:     -12.0      0.281      1.726
REMARK SMILES Cc1cc(Br)cc2c1O[C@H](C(F)(F)F)C(C(=O)NCCCCCCNC(=O)c1ccc(-c3c4nc(c(-c5c(F)c(F)c(F)c(F)c5F)c5ccc([nH]5)c(-c5c(F)c(F)c(F)c(F)c5F)c5nc(c(-c6c(F)c(F)c(F)c(F)c6F)c6ccc3[nH]6)C=C5)C=C4)cc1)=C2
REMARK SMILES IDX 22 1 21 2 20 3 19 4 18 5 16 6 17 7 15 9 1 10 2 11 3 12 8 13
REMARK SMILES IDX 4 14 7 15 9 16 5 17 6 18 91 19 10 20 11 21 12 22 13 23 14 24
REMARK SMILES IDX 23 25 24 26 25 27 26 28 27 30 28 31 29 32 90 33 30 34 89 35
REMARK SMILES IDX 31 36 32 37 33 38 83 39 34 40 88 41 82 42 84 43 35 44 87 45
REMARK SMILES IDX 81 46 80 47 36 49 68 50 48 51 67 52 49 53 52 54 66 55 85 56
REMARK SMILES IDX 50 57 51 58 65 60 86 61 53 62 37 63 38 64 46 65 39 66 40 67
REMARK SMILES IDX 44 68 47 69 41 70 42 71 45 72 43 73 69 74 70 75 78 76 71 77
REMARK SMILES IDX 72 78 76 79 79 80 73 81 74 82 77 83 75 84 54 85 55 86 63 87
REMARK SMILES IDX 56 88 57 89 61 90 64 91 58 92 59 93 62 94 60 95
REMARK H PARENT 18 8 25 29 84 48 52 59
REMARK Flexibility Score: inf
ROOT
ATOM      1  C   UNL A   1      35.371  21.928  24.645  1.00  0.00     0.002 C 
ENDROOT
BRANCH   1   2
ATOM      2  C   UNL A   1      34.547  21.101  25.641  1.00  0.00     0.002 C 
BRANCH   2   3
ATOM      3  C   UNL A   1      33.350  20.366  25.033  1.00  0.00     0.021 C 
BRANCH   3   4
ATOM      4  C   UNL A   1      32.205  21.295  24.649  1.00  0.00     0.116 C 
BRANCH   4   5
ATOM      5  N   UNL A   1      31.601  21.916  25.813  1.00  0.00    -0.352 N 
ATOM      6  C   UNL A   1      31.445  23.169  26.299  1.00  0.00     0.251 C 
ATOM      7  O   UNL A   1      30.812  23.252  27.357  1.00  0.00    -0.270 OA
ATOM      8  H   UNL A   1      31.196  21.246  26.410  1.00  0.00     0.163 HD
BRANCH   6   9
ATOM      9  C   UNL A   1      31.973  24.410  25.657  1.00  0.00     0.067 C 
ATOM     10  C   UNL A   1      33.989  27.965  22.515  1.00  0.00     0.048 C 
ATOM     11  C   UNL A   1      33.678  27.874  23.983  1.00  0.00    -0.007 A 
ATOM     12  C   UNL A   1      33.955  28.966  24.814  1.00  0.00     0.023 A 
ATOM     13  C   UNL A   1      33.146  26.711  24.557  1.00  0.00     0.130 A 
ATOM     14  C   UNL A   1      33.692  28.890  26.183  1.00  0.00     0.019 A 
ATOM     15  C   UNL A   1      32.885  26.631  25.929  1.00  0.00     0.019 A 
ATOM     16  O   UNL A   1      32.949  25.652  23.723  1.00  0.00    -0.475 OA
ATOM     17  Br  UNL A   1      34.081  30.374  27.289  1.00  0.00    -0.051 Br
ATOM     18  C   UNL A   1      33.159  27.730  26.746  1.00  0.00     0.027 A 
ATOM     19  C   UNL A   1      32.370  25.387  26.493  1.00  0.00     0.025 C 
ATOM     20  C   UNL A   1      32.048  24.614  24.174  1.00  0.00     0.314 C 
BRANCH  20  21
ATOM     21  C   UNL A   1      30.667  24.828  23.527  1.00  0.00     0.429 C 
ATOM     22  F   UNL A   1      30.781  25.600  22.416  1.00  0.00    -0.167 F 
ATOM     23  F   UNL A   1      30.091  23.671  23.126  1.00  0.00    -0.167 F 
ATOM     24  F   UNL A   1      29.791  25.437  24.357  1.00  0.00    -0.167 F 
ENDBRANCH  20  21
ENDBRANCH   6   9
ENDBRANCH   4   5
ENDBRANCH   3   4
ENDBRANCH   2   3
ENDBRANCH   1   2
BRANCH   1  25
ATOM     25  C   UNL A   1      35.466  23.423  24.964  1.00  0.00     0.021 C 
BRANCH  25  26
ATOM     26  C   UNL A   1      36.549  23.776  25.976  1.00  0.00     0.116 C 
BRANCH  26  27
ATOM     27  N   UNL A   1      37.595  22.767  26.015  1.00  0.00    -0.352 N 
ATOM     28  C   UNL A   1      38.925  22.911  26.301  1.00  0.00     0.251 C 
ATOM     29  H   UNL A   1      37.305  21.850  25.807  1.00  0.00     0.163 HD
ATOM     30  O   UNL A   1      39.717  22.002  26.065  1.00  0.00    -0.269 OA
BRANCH  28  31
ATOM     31  C   UNL A   1      39.409  24.174  26.890  1.00  0.00     0.039 A 
ATOM     32  C   UNL A   1      40.055  25.100  26.071  1.00  0.00     0.014 A 
ATOM     33  C   UNL A   1      39.226  24.437  28.252  1.00  0.00     0.014 A 
ATOM     34  C   UNL A   1      40.481  26.313  26.610  1.00  0.00     0.010 A 
ATOM     35  C   UNL A   1      39.580  25.676  28.770  1.00  0.00     0.010 A 
ATOM     36  C   UNL A   1      40.224  26.620  27.957  1.00  0.00    -0.014 A 
BRANCH  36  37
ATOM     37  C   UNL A   1      40.648  27.916  28.537  1.00  0.00     0.031 A 
ATOM     38  C   UNL A   1      42.092  28.144  28.880  1.00  0.00     0.074 A 
ATOM     39  C   UNL A   1      39.729  28.870  28.783  1.00  0.00     0.049 A 
ATOM     40  N   UNL A   1      42.657  29.192  29.423  1.00  0.00    -0.248 NA
ATOM     41  C   UNL A   1      43.025  27.042  28.594  1.00  0.00     0.031 C 
ATOM     42  C   UNL A   1      38.296  28.746  28.518  1.00  0.00     0.029 A 
ATOM     43  N   UNL A   1      39.865  30.130  29.306  1.00  0.00    -0.354 N 
ATOM     44  C   UNL A   1      44.003  28.875  29.540  1.00  0.00     0.074 A 
ATOM     45  C   UNL A   1      44.164  27.515  29.078  1.00  0.00     0.031 C 
ATOM     46  C   UNL A   1      37.689  29.898  28.847  1.00  0.00     0.029 A 
ATOM     47  C   UNL A   1      38.683  30.824  29.383  1.00  0.00     0.049 A 
ATOM     48  H   UNL A   1      40.728  30.502  29.600  1.00  0.00     0.167 HD
ATOM     49  C   UNL A   1      45.020  29.662  29.965  1.00  0.00     0.037 A 
ATOM     50  C   UNL A   1      38.430  32.068  29.834  1.00  0.00     0.037 A 
ATOM     51  C   UNL A   1      44.856  31.022  30.407  1.00  0.00     0.049 A 
ATOM     52  C   UNL A   1      39.573  32.906  30.343  1.00  0.00     0.074 A 
ATOM     53  C   UNL A   1      45.826  31.914  30.822  1.00  0.00     0.029 A 
ATOM     54  N   UNL A   1      43.639  31.683  30.490  1.00  0.00    -0.354 N 
ATOM     55  N   UNL A   1      40.851  32.616  30.399  1.00  0.00    -0.248 NA
ATOM     56  C   UNL A   1      39.240  34.245  30.846  1.00  0.00     0.031 C 
ATOM     57  C   UNL A   1      45.193  33.099  31.207  1.00  0.00     0.029 A 
ATOM     58  C   UNL A   1      43.833  32.966  30.977  1.00  0.00     0.049 A 
ATOM     59  H   UNL A   1      42.767  31.298  30.241  1.00  0.00     0.167 HD
ATOM     60  C   UNL A   1      41.475  33.740  30.921  1.00  0.00     0.074 A 
ATOM     61  C   UNL A   1      40.439  34.726  31.147  1.00  0.00     0.031 C 
ATOM     62  C   UNL A   1      42.789  33.936  31.191  1.00  0.00     0.037 A 
BRANCH  49  63
ATOM     63  C   UNL A   1      46.404  29.083  29.955  1.00  0.00     0.064 A 
ATOM     64  C   UNL A   1      46.925  28.414  31.074  1.00  0.00     0.173 A 
ATOM     65  C   UNL A   1      47.196  29.141  28.799  1.00  0.00     0.173 A 
ATOM     66  F   UNL A   1      46.214  28.342  32.210  1.00  0.00    -0.203 F 
ATOM     67  C   UNL A   1      48.192  27.838  31.040  1.00  0.00     0.198 A 
ATOM     68  C   UNL A   1      48.450  28.537  28.757  1.00  0.00     0.198 A 
ATOM     69  F   UNL A   1      46.746  29.765  27.701  1.00  0.00    -0.203 F 
ATOM     70  F   UNL A   1      48.683  27.239  32.133  1.00  0.00    -0.200 F 
ATOM     71  C   UNL A   1      48.949  27.890  29.879  1.00  0.00     0.200 A 
ATOM     72  F   UNL A   1      49.174  28.575  27.630  1.00  0.00    -0.200 F 
ATOM     73  F   UNL A   1      50.161  27.321  29.842  1.00  0.00    -0.200 F 
ENDBRANCH  49  63
BRANCH  50  74
ATOM     74  C   UNL A   1      37.045  32.604  29.790  1.00  0.00     0.064 A 
ATOM     75  C   UNL A   1      36.573  33.281  28.657  1.00  0.00     0.173 A 
ATOM     76  C   UNL A   1      36.157  32.432  30.863  1.00  0.00     0.173 A 
ATOM     77  F   UNL A   1      37.390  33.488  27.614  1.00  0.00    -0.203 F 
ATOM     78  C   UNL A   1      35.272  33.776  28.603  1.00  0.00     0.198 A 
ATOM     79  C   UNL A   1      34.847  32.902  30.796  1.00  0.00     0.198 A 
ATOM     80  F   UNL A   1      36.556  31.787  31.969  1.00  0.00    -0.203 F 
ATOM     81  F   UNL A   1      34.860  34.453  27.522  1.00  0.00    -0.200 F 
ATOM     82  C   UNL A   1      34.408  33.579  29.668  1.00  0.00     0.200 A 
ATOM     83  F   UNL A   1      34.010  32.694  31.821  1.00  0.00    -0.200 F 
ATOM     84  F   UNL A   1      33.152  34.045  29.611  1.00  0.00    -0.200 F 
ENDBRANCH  50  74
BRANCH  62  85
ATOM     85  C   UNL A   1      43.195  35.271  31.748  1.00  0.00     0.064 A 
ATOM     86  C   UNL A   1      43.226  35.509  33.129  1.00  0.00     0.173 A 
ATOM     87  C   UNL A   1      43.639  36.293  30.894  1.00  0.00     0.173 A 
ATOM     88  F   UNL A   1      42.800  34.569  33.985  1.00  0.00    -0.203 F 
ATOM     89  C   UNL A   1      43.674  36.726  33.635  1.00  0.00     0.198 A 
ATOM     90  C   UNL A   1      44.118  37.495  31.405  1.00  0.00     0.198 A 
ATOM     91  F   UNL A   1      43.640  36.111  29.565  1.00  0.00    -0.203 F 
ATOM     92  F   UNL A   1      43.661  36.944  34.956  1.00  0.00    -0.200 F 
ATOM     93  C   UNL A   1      44.131  37.713  32.773  1.00  0.00     0.200 A 
ATOM     94  F   UNL A   1      44.577  38.440  30.572  1.00  0.00    -0.200 F 
ATOM     95  F   UNL A   1      44.583  38.876  33.265  1.00  0.00    -0.200 F 
ENDBRANCH  62  85
ENDBRANCH  36  37
ENDBRANCH  28  31
ENDBRANCH  26  27
ENDBRANCH  25  26
ENDBRANCH   1  25
TORSDOF 14
ENDMDL
