MODEL 1
REMARK VINA RESULT:     -12.0      0.000      0.000
REMARK SMILES CC1(C)CCC[C@H]1NS(=O)(=O)c1cccc(C(=O)NCCCCCCNC(=O)c2ccc(-c3c4nc(c(-c5c(F)c(F)c(F)c(F)c5F)c5ccc([nH]5)c(-c5c(F)c(F)c(F)c(F)c5F)c5nc(c(-c6c(F)c(F)c(F)c(F)c6F)c6ccc3[nH]6)C=C5)C=C4)cc2)c1
REMARK SMILES IDX 22 1 21 2 20 3 19 4 17 5 18 6 16 8 12 9 13 10 92 11 14 12
REMARK SMILES IDX 15 13 9 14 10 15 11 16 8 17 7 19 1 20 2 21 3 22 4 23 5 24
REMARK SMILES IDX 6 25 23 26 24 27 25 28 26 29 27 30 28 32 29 33 30 34 91 35
REMARK SMILES IDX 31 36 90 37 32 38 33 39 34 40 84 41 35 42 89 43 83 44 85 45
REMARK SMILES IDX 36 46 88 47 82 48 81 49 37 51 69 52 49 53 68 54 50 55 53 56
REMARK SMILES IDX 67 57 86 58 51 59 52 60 66 62 87 63 54 64 38 65 39 66 47 67
REMARK SMILES IDX 40 68 41 69 45 70 48 71 42 72 43 73 46 74 44 75 70 76 71 77
REMARK SMILES IDX 79 78 72 79 73 80 77 81 80 82 74 83 75 84 78 85 76 86 55 87
REMARK SMILES IDX 56 88 64 89 57 90 58 91 62 92 65 93 59 94 60 95 63 96 61 97
REMARK H PARENT 19 7 8 18 26 31 85 50 53 61
REMARK Flexibility Score: inf
ROOT
ATOM      1  C   UNL A   1      34.416  32.355  29.141  1.00  0.00     0.002 C 
ENDROOT
BRANCH   1   2
ATOM      2  C   UNL A   1      34.950  31.369  28.105  1.00  0.00     0.021 C 
BRANCH   2   3
ATOM      3  C   UNL A   1      33.926  30.714  27.188  1.00  0.00     0.116 C 
BRANCH   3   4
ATOM      4  N   UNL A   1      32.968  29.843  27.854  1.00  0.00    -0.352 N 
ATOM      5  C   UNL A   1      32.353  28.693  27.394  1.00  0.00     0.251 C 
ATOM      6  O   UNL A   1      31.550  28.101  28.109  1.00  0.00    -0.269 OA
ATOM      7  H   UNL A   1      32.721  30.112  28.767  1.00  0.00     0.163 HD
BRANCH   5   8
ATOM      8  C   UNL A   1      32.605  28.204  26.014  1.00  0.00     0.041 A 
ATOM      9  C   UNL A   1      31.775  27.708  23.808  1.00  0.00     0.083 A 
ATOM     10  C   UNL A   1      32.864  26.877  23.555  1.00  0.00     0.022 A 
ATOM     11  C   UNL A   1      31.697  28.446  24.991  1.00  0.00     0.035 A 
ATOM     12  C   UNL A   1      33.872  26.773  24.519  1.00  0.00     0.002 A 
ATOM     13  C   UNL A   1      33.731  27.414  25.757  1.00  0.00     0.014 A 
BRANCH   9  14
ATOM     14  S   UNL A   1      30.346  27.787  22.773  1.00  0.00     0.240 S 
ATOM     15  O   UNL A   1      29.245  27.233  23.527  1.00  0.00    -0.207 OA
ATOM     16  O   UNL A   1      30.740  27.212  21.505  1.00  0.00    -0.207 OA
BRANCH  14  17
ATOM     17  N   UNL A   1      30.047  29.399  22.463  1.00  0.00    -0.208 NA
ATOM     18  H   UNL A   1      30.585  29.922  23.152  1.00  0.00     0.141 HD
BRANCH  17  19
ATOM     19  C   UNL A   1      28.699  29.975  22.479  1.00  0.00     0.075 C 
ATOM     20  C   UNL A   1      29.713  31.406  24.426  1.00  0.00     0.013 C 
ATOM     21  C   UNL A   1      28.675  31.299  23.298  1.00  0.00    -0.019 C 
ATOM     22  C   UNL A   1      27.281  31.491  23.928  1.00  0.00     0.013 C 
ATOM     23  C   UNL A   1      28.940  32.365  22.222  1.00  0.00     0.008 C 
ATOM     24  C   UNL A   1      28.147  31.891  21.018  1.00  0.00     0.002 C 
ATOM     25  C   UNL A   1      28.229  30.369  21.067  1.00  0.00     0.020 C 
ENDBRANCH  17  19
ENDBRANCH  14  17
ENDBRANCH   9  14
ENDBRANCH   5   8
ENDBRANCH   3   4
ENDBRANCH   2   3
ENDBRANCH   1   2
BRANCH   1  26
ATOM     26  C   UNL A   1      34.448  33.839  28.766  1.00  0.00     0.002 C 
BRANCH  26  27
ATOM     27  C   UNL A   1      33.138  34.620  28.897  1.00  0.00     0.021 C 
BRANCH  27  28
ATOM     28  C   UNL A   1      33.233  36.028  29.477  1.00  0.00     0.116 C 
BRANCH  28  29
ATOM     29  N   UNL A   1      32.465  36.200  30.696  1.00  0.00    -0.352 N 
ATOM     30  C   UNL A   1      32.682  35.713  31.961  1.00  0.00     0.251 C 
ATOM     31  H   UNL A   1      31.658  36.756  30.600  1.00  0.00     0.163 HD
ATOM     32  O   UNL A   1      31.839  35.906  32.833  1.00  0.00    -0.269 OA
BRANCH  30  33
ATOM     33  C   UNL A   1      33.900  34.936  32.291  1.00  0.00     0.039 A 
ATOM     34  C   UNL A   1      35.139  35.581  32.197  1.00  0.00     0.014 A 
ATOM     35  C   UNL A   1      33.851  33.583  32.638  1.00  0.00     0.014 A 
ATOM     36  C   UNL A   1      36.316  34.889  32.493  1.00  0.00     0.010 A 
ATOM     37  C   UNL A   1      35.022  32.909  32.996  1.00  0.00     0.010 A 
ATOM     38  C   UNL A   1      36.266  33.553  32.918  1.00  0.00    -0.014 A 
BRANCH  38  39
ATOM     39  C   UNL A   1      37.512  32.823  33.272  1.00  0.00     0.031 A 
ATOM     40  C   UNL A   1      38.230  33.117  34.560  1.00  0.00     0.074 A 
ATOM     41  C   UNL A   1      38.020  31.917  32.415  1.00  0.00     0.049 A 
ATOM     42  N   UNL A   1      39.331  32.590  35.034  1.00  0.00    -0.248 NA
ATOM     43  C   UNL A   1      37.645  34.157  35.419  1.00  0.00     0.031 C 
ATOM     44  C   UNL A   1      37.451  31.579  31.110  1.00  0.00     0.029 A 
ATOM     45  N   UNL A   1      39.132  31.118  32.511  1.00  0.00    -0.354 N 
ATOM     46  C   UNL A   1      39.578  33.244  36.234  1.00  0.00     0.074 A 
ATOM     47  C   UNL A   1      38.538  34.237  36.395  1.00  0.00     0.031 C 
ATOM     48  C   UNL A   1      38.205  30.627  30.536  1.00  0.00     0.029 A 
ATOM     49  C   UNL A   1      39.320  30.304  31.421  1.00  0.00     0.049 A 
ATOM     50  H   UNL A   1      39.737  31.128  33.288  1.00  0.00     0.167 HD
ATOM     51  C   UNL A   1      40.570  33.022  37.131  1.00  0.00     0.037 A 
ATOM     52  C   UNL A   1      40.281  29.396  31.167  1.00  0.00     0.037 A 
ATOM     53  C   UNL A   1      41.589  32.015  36.988  1.00  0.00     0.049 A 
ATOM     54  C   UNL A   1      41.350  29.145  32.194  1.00  0.00     0.074 A 
ATOM     55  C   UNL A   1      42.598  31.672  37.872  1.00  0.00     0.029 A 
ATOM     56  N   UNL A   1      41.728  31.187  35.883  1.00  0.00    -0.354 N 
ATOM     57  N   UNL A   1      41.532  29.719  33.358  1.00  0.00    -0.248 NA
ATOM     58  C   UNL A   1      42.342  28.107  31.875  1.00  0.00     0.031 C 
ATOM     59  C   UNL A   1      43.368  30.660  37.287  1.00  0.00     0.029 A 
ATOM     60  C   UNL A   1      42.815  30.344  36.057  1.00  0.00     0.049 A 
ATOM     61  H   UNL A   1      41.142  31.197  35.093  1.00  0.00     0.167 HD
ATOM     62  C   UNL A   1      42.641  29.101  33.920  1.00  0.00     0.074 A 
ATOM     63  C   UNL A   1      43.080  28.094  32.976  1.00  0.00     0.031 C 
ATOM     64  C   UNL A   1      43.241  29.348  35.110  1.00  0.00     0.037 A 
BRANCH  51  65
ATOM     65  C   UNL A   1      40.597  33.888  38.357  1.00  0.00     0.064 A 
ATOM     66  C   UNL A   1      41.350  35.071  38.404  1.00  0.00     0.173 A 
ATOM     67  C   UNL A   1      39.843  33.545  39.489  1.00  0.00     0.173 A 
ATOM     68  F   UNL A   1      42.097  35.437  37.352  1.00  0.00    -0.203 F 
ATOM     69  C   UNL A   1      41.371  35.862  39.549  1.00  0.00     0.198 A 
ATOM     70  C   UNL A   1      39.844  34.353  40.623  1.00  0.00     0.198 A 
ATOM     71  F   UNL A   1      39.100  32.427  39.494  1.00  0.00    -0.203 F 
ATOM     72  F   UNL A   1      42.136  36.961  39.588  1.00  0.00    -0.200 F 
ATOM     73  C   UNL A   1      40.614  35.506  40.656  1.00  0.00     0.200 A 
ATOM     74  F   UNL A   1      39.104  34.013  41.688  1.00  0.00    -0.200 F 
ATOM     75  F   UNL A   1      40.634  36.270  41.756  1.00  0.00    -0.200 F 
ENDBRANCH  51  65
BRANCH  52  76
ATOM     76  C   UNL A   1      40.247  28.623  29.900  1.00  0.00     0.064 A 
ATOM     77  C   UNL A   1      39.574  27.396  29.825  1.00  0.00     0.173 A 
ATOM     78  C   UNL A   1      40.881  29.094  28.742  1.00  0.00     0.173 A 
ATOM     79  F   UNL A   1      38.972  26.895  30.914  1.00  0.00    -0.203 F 
ATOM     80  C   UNL A   1      39.548  26.662  28.642  1.00  0.00     0.198 A 
ATOM     81  C   UNL A   1      40.835  28.370  27.553  1.00  0.00     0.198 A 
ATOM     82  F   UNL A   1      41.536  30.265  28.765  1.00  0.00    -0.203 F 
ATOM     83  F   UNL A   1      38.931  25.473  28.607  1.00  0.00    -0.200 F 
ATOM     84  C   UNL A   1      40.174  27.152  27.505  1.00  0.00     0.200 A 
ATOM     85  F   UNL A   1      41.433  28.851  26.454  1.00  0.00    -0.200 F 
ATOM     86  F   UNL A   1      40.147  26.446  26.366  1.00  0.00    -0.200 F 
ENDBRANCH  52  76
BRANCH  64  87
ATOM     87  C   UNL A   1      44.425  28.497  35.465  1.00  0.00     0.064 A 
ATOM     88  C   UNL A   1      45.728  28.861  35.094  1.00  0.00     0.173 A 
ATOM     89  C   UNL A   1      44.256  27.314  36.200  1.00  0.00     0.173 A 
ATOM     90  F   UNL A   1      45.939  29.975  34.377  1.00  0.00    -0.203 F 
ATOM     91  C   UNL A   1      46.816  28.056  35.422  1.00  0.00     0.198 A 
ATOM     92  C   UNL A   1      45.349  26.526  36.549  1.00  0.00     0.198 A 
ATOM     93  F   UNL A   1      43.031  26.925  36.582  1.00  0.00    -0.203 F 
ATOM     94  F   UNL A   1      48.047  28.398  35.015  1.00  0.00    -0.200 F 
ATOM     95  C   UNL A   1      46.626  26.892  36.152  1.00  0.00     0.200 A 
ATOM     96  F   UNL A   1      45.166  25.406  37.262  1.00  0.00    -0.200 F 
ATOM     97  F   UNL A   1      47.675  26.119  36.466  1.00  0.00    -0.200 F 
ENDBRANCH  64  87
ENDBRANCH  38  39
ENDBRANCH  30  33
ENDBRANCH  28  29
ENDBRANCH  27  28
ENDBRANCH  26  27
ENDBRANCH   1  26
TORSDOF 16
ENDMDL
MODEL 2
REMARK VINA RESULT:     -11.7      6.174     10.747
REMARK SMILES CC1(C)CCC[C@H]1NS(=O)(=O)c1cccc(C(=O)NCCCCCCNC(=O)c2ccc(-c3c4nc(c(-c5c(F)c(F)c(F)c(F)c5F)c5ccc([nH]5)c(-c5c(F)c(F)c(F)c(F)c5F)c5nc(c(-c6c(F)c(F)c(F)c(F)c6F)c6ccc3[nH]6)C=C5)C=C4)cc2)c1
REMARK SMILES IDX 22 1 21 2 20 3 19 4 17 5 18 6 16 8 12 9 13 10 92 11 14 12
REMARK SMILES IDX 15 13 9 14 10 15 11 16 8 17 7 19 1 20 2 21 3 22 4 23 5 24
REMARK SMILES IDX 6 25 23 26 24 27 25 28 26 29 27 30 28 32 29 33 30 34 91 35
REMARK SMILES IDX 31 36 90 37 32 38 33 39 34 40 84 41 35 42 89 43 83 44 85 45
REMARK SMILES IDX 36 46 88 47 82 48 81 49 37 51 69 52 49 53 68 54 50 55 53 56
REMARK SMILES IDX 67 57 86 58 51 59 52 60 66 62 87 63 54 64 38 65 39 66 47 67
REMARK SMILES IDX 40 68 41 69 45 70 48 71 42 72 43 73 46 74 44 75 70 76 71 77
REMARK SMILES IDX 79 78 72 79 73 80 77 81 80 82 74 83 75 84 78 85 76 86 55 87
REMARK SMILES IDX 56 88 64 89 57 90 58 91 62 92 65 93 59 94 60 95 63 96 61 97
REMARK H PARENT 19 7 8 18 26 31 85 50 53 61
REMARK Flexibility Score: inf
ROOT
ATOM      1  C   UNL A   1      37.025  21.778  24.347  1.00  0.00     0.002 C 
ENDROOT
BRANCH   1   2
ATOM      2  C   UNL A   1      37.406  22.894  25.316  1.00  0.00     0.021 C 
BRANCH   2   3
ATOM      3  C   UNL A   1      36.271  23.552  26.088  1.00  0.00     0.116 C 
BRANCH   3   4
ATOM      4  N   UNL A   1      35.451  22.642  26.876  1.00  0.00    -0.352 N 
ATOM      5  C   UNL A   1      34.130  22.271  26.705  1.00  0.00     0.251 C 
ATOM      6  O   UNL A   1      33.604  21.495  27.497  1.00  0.00    -0.269 OA
ATOM      7  H   UNL A   1      35.904  22.231  27.647  1.00  0.00     0.163 HD
BRANCH   5   8
ATOM      8  C   UNL A   1      33.320  22.855  25.605  1.00  0.00     0.041 A 
ATOM      9  C   UNL A   1      31.570  24.346  24.888  1.00  0.00     0.083 A 
ATOM     10  C   UNL A   1      31.444  23.663  23.680  1.00  0.00     0.022 A 
ATOM     11  C   UNL A   1      32.570  24.007  25.801  1.00  0.00     0.035 A 
ATOM     12  C   UNL A   1      32.322  22.610  23.407  1.00  0.00     0.002 A 
ATOM     13  C   UNL A   1      33.242  22.189  24.377  1.00  0.00     0.014 A 
BRANCH   9  14
ATOM     14  S   UNL A   1      30.415  25.560  25.448  1.00  0.00     0.240 S 
ATOM     15  O   UNL A   1      29.792  25.035  26.641  1.00  0.00    -0.207 OA
ATOM     16  O   UNL A   1      29.622  25.918  24.292  1.00  0.00    -0.207 OA
BRANCH  14  17
ATOM     17  N   UNL A   1      31.286  26.930  25.836  1.00  0.00    -0.208 NA
ATOM     18  H   UNL A   1      30.637  27.710  25.747  1.00  0.00     0.141 HD
BRANCH  17  19
ATOM     19  C   UNL A   1      32.502  27.329  25.120  1.00  0.00     0.075 C 
ATOM     20  C   UNL A   1      30.935  29.238  24.242  1.00  0.00     0.013 C 
ATOM     21  C   UNL A   1      32.365  28.779  24.568  1.00  0.00    -0.019 C 
ATOM     22  C   UNL A   1      33.206  28.924  23.284  1.00  0.00     0.013 C 
ATOM     23  C   UNL A   1      32.955  29.628  25.707  1.00  0.00     0.008 C 
ATOM     24  C   UNL A   1      34.147  28.826  26.197  1.00  0.00     0.002 C 
ATOM     25  C   UNL A   1      33.727  27.367  26.050  1.00  0.00     0.020 C 
ENDBRANCH  17  19
ENDBRANCH  14  17
ENDBRANCH   9  14
ENDBRANCH   5   8
ENDBRANCH   3   4
ENDBRANCH   2   3
ENDBRANCH   1   2
BRANCH   1  26
ATOM     26  C   UNL A   1      37.022  20.351  24.899  1.00  0.00     0.002 C 
BRANCH  26  27
ATOM     27  C   UNL A   1      38.337  19.571  24.826  1.00  0.00     0.021 C 
BRANCH  27  28
ATOM     28  C   UNL A   1      39.299  19.734  25.999  1.00  0.00     0.116 C 
BRANCH  28  29
ATOM     29  N   UNL A   1      40.460  18.868  25.913  1.00  0.00    -0.352 N 
ATOM     30  C   UNL A   1      41.798  19.160  26.016  1.00  0.00     0.251 C 
ATOM     31  H   UNL A   1      40.256  17.918  25.757  1.00  0.00     0.163 HD
ATOM     32  O   UNL A   1      42.625  18.276  25.813  1.00  0.00    -0.269 OA
BRANCH  30  33
ATOM     33  C   UNL A   1      42.267  20.528  26.343  1.00  0.00     0.039 A 
ATOM     34  C   UNL A   1      42.605  21.379  25.284  1.00  0.00     0.014 A 
ATOM     35  C   UNL A   1      42.428  20.968  27.660  1.00  0.00     0.014 A 
ATOM     36  C   UNL A   1      43.057  22.676  25.541  1.00  0.00     0.010 A 
ATOM     37  C   UNL A   1      42.818  22.285  27.916  1.00  0.00     0.010 A 
ATOM     38  C   UNL A   1      43.145  23.149  26.860  1.00  0.00    -0.014 A 
BRANCH  38  39
ATOM     39  C   UNL A   1      43.587  24.540  27.138  1.00  0.00     0.031 A 
ATOM     40  C   UNL A   1      42.616  25.560  27.665  1.00  0.00     0.074 A 
ATOM     41  C   UNL A   1      44.860  24.898  26.882  1.00  0.00     0.049 A 
ATOM     42  N   UNL A   1      42.816  26.821  27.958  1.00  0.00    -0.248 NA
ATOM     43  C   UNL A   1      41.231  25.109  27.868  1.00  0.00     0.031 C 
ATOM     44  C   UNL A   1      45.887  24.021  26.319  1.00  0.00     0.029 A 
ATOM     45  N   UNL A   1      45.505  26.097  27.057  1.00  0.00    -0.354 N 
ATOM     46  C   UNL A   1      41.583  27.315  28.363  1.00  0.00     0.074 A 
ATOM     47  C   UNL A   1      40.631  26.232  28.236  1.00  0.00     0.031 C 
ATOM     48  C   UNL A   1      47.039  24.703  26.216  1.00  0.00     0.029 A 
ATOM     49  C   UNL A   1      46.827  26.070  26.684  1.00  0.00     0.049 A 
ATOM     50  H   UNL A   1      45.063  26.899  27.418  1.00  0.00     0.167 HD
ATOM     51  C   UNL A   1      41.276  28.554  28.821  1.00  0.00     0.037 A 
ATOM     52  C   UNL A   1      47.763  27.037  26.719  1.00  0.00     0.037 A 
ATOM     53  C   UNL A   1      42.226  29.625  28.976  1.00  0.00     0.049 A 
ATOM     54  C   UNL A   1      47.404  28.393  27.262  1.00  0.00     0.074 A 
ATOM     55  C   UNL A   1      42.023  30.894  29.490  1.00  0.00     0.029 A 
ATOM     56  N   UNL A   1      43.563  29.549  28.616  1.00  0.00    -0.354 N 
ATOM     57  N   UNL A   1      46.252  28.827  27.710  1.00  0.00    -0.248 NA
ATOM     58  C   UNL A   1      48.484  29.389  27.316  1.00  0.00     0.031 C 
ATOM     59  C   UNL A   1      43.230  31.598  29.409  1.00  0.00     0.029 A 
ATOM     60  C   UNL A   1      44.194  30.755  28.883  1.00  0.00     0.049 A 
ATOM     61  H   UNL A   1      44.000  28.757  28.227  1.00  0.00     0.167 HD
ATOM     62  C   UNL A   1      46.470  30.135  28.119  1.00  0.00     0.074 A 
ATOM     63  C   UNL A   1      47.870  30.419  27.883  1.00  0.00     0.031 C 
ATOM     64  C   UNL A   1      45.588  31.022  28.642  1.00  0.00     0.037 A 
BRANCH  51  65
ATOM     65  C   UNL A   1      39.845  28.816  29.191  1.00  0.00     0.064 A 
ATOM     66  C   UNL A   1      39.368  28.581  30.491  1.00  0.00     0.173 A 
ATOM     67  C   UNL A   1      38.946  29.330  28.246  1.00  0.00     0.173 A 
ATOM     68  F   UNL A   1      40.185  28.079  31.428  1.00  0.00    -0.203 F 
ATOM     69  C   UNL A   1      38.037  28.822  30.819  1.00  0.00     0.198 A 
ATOM     70  C   UNL A   1      37.622  29.596  28.586  1.00  0.00     0.198 A 
ATOM     71  F   UNL A   1      39.352  29.578  26.991  1.00  0.00    -0.203 F 
ATOM     72  F   UNL A   1      37.592  28.543  32.052  1.00  0.00    -0.200 F 
ATOM     73  C   UNL A   1      37.166  29.334  29.869  1.00  0.00     0.200 A 
ATOM     74  F   UNL A   1      36.784  30.101  27.669  1.00  0.00    -0.200 F 
ATOM     75  F   UNL A   1      35.886  29.567  30.188  1.00  0.00    -0.200 F 
ENDBRANCH  51  65
BRANCH  52  76
ATOM     76  C   UNL A   1      49.144  26.741  26.264  1.00  0.00     0.064 A 
ATOM     77  C   UNL A   1      50.098  26.227  27.153  1.00  0.00     0.173 A 
ATOM     78  C   UNL A   1      49.538  26.962  24.937  1.00  0.00     0.173 A 
ATOM     79  F   UNL A   1      49.773  26.021  28.438  1.00  0.00    -0.203 F 
ATOM     80  C   UNL A   1      51.399  25.958  26.735  1.00  0.00     0.198 A 
ATOM     81  C   UNL A   1      50.833  26.671  24.514  1.00  0.00     0.198 A 
ATOM     82  F   UNL A   1      48.660  27.451  24.049  1.00  0.00    -0.203 F 
ATOM     83  F   UNL A   1      52.303  25.504  27.614  1.00  0.00    -0.200 F 
ATOM     84  C   UNL A   1      51.764  26.175  25.415  1.00  0.00     0.200 A 
ATOM     85  F   UNL A   1      51.180  26.872  23.236  1.00  0.00    -0.200 F 
ATOM     86  F   UNL A   1      53.015  25.913  25.012  1.00  0.00    -0.200 F 
ENDBRANCH  52  76
BRANCH  64  87
ATOM     87  C   UNL A   1      46.121  32.375  29.014  1.00  0.00     0.064 A 
ATOM     88  C   UNL A   1      46.112  33.442  28.104  1.00  0.00     0.173 A 
ATOM     89  C   UNL A   1      46.629  32.610  30.300  1.00  0.00     0.173 A 
ATOM     90  F   UNL A   1      45.650  33.263  26.858  1.00  0.00    -0.203 F 
ATOM     91  C   UNL A   1      46.619  34.689  28.460  1.00  0.00     0.198 A 
ATOM     92  C   UNL A   1      47.111  33.865  30.661  1.00  0.00     0.198 A 
ATOM     93  F   UNL A   1      46.656  31.623  31.207  1.00  0.00    -0.203 F 
ATOM     94  F   UNL A   1      46.645  35.682  27.559  1.00  0.00    -0.200 F 
ATOM     95  C   UNL A   1      47.114  34.901  29.738  1.00  0.00     0.200 A 
ATOM     96  F   UNL A   1      47.581  34.071  31.898  1.00  0.00    -0.200 F 
ATOM     97  F   UNL A   1      47.602  36.101  30.078  1.00  0.00    -0.200 F 
ENDBRANCH  64  87
ENDBRANCH  38  39
ENDBRANCH  30  33
ENDBRANCH  28  29
ENDBRANCH  27  28
ENDBRANCH  26  27
ENDBRANCH   1  26
TORSDOF 16
ENDMDL
MODEL 3
REMARK VINA RESULT:     -11.6      6.010     11.465
REMARK SMILES CC1(C)CCC[C@H]1NS(=O)(=O)c1cccc(C(=O)NCCCCCCNC(=O)c2ccc(-c3c4nc(c(-c5c(F)c(F)c(F)c(F)c5F)c5ccc([nH]5)c(-c5c(F)c(F)c(F)c(F)c5F)c5nc(c(-c6c(F)c(F)c(F)c(F)c6F)c6ccc3[nH]6)C=C5)C=C4)cc2)c1
REMARK SMILES IDX 22 1 21 2 20 3 19 4 17 5 18 6 16 8 12 9 13 10 92 11 14 12
REMARK SMILES IDX 15 13 9 14 10 15 11 16 8 17 7 19 1 20 2 21 3 22 4 23 5 24
REMARK SMILES IDX 6 25 23 26 24 27 25 28 26 29 27 30 28 32 29 33 30 34 91 35
REMARK SMILES IDX 31 36 90 37 32 38 33 39 34 40 84 41 35 42 89 43 83 44 85 45
REMARK SMILES IDX 36 46 88 47 82 48 81 49 37 51 69 52 49 53 68 54 50 55 53 56
REMARK SMILES IDX 67 57 86 58 51 59 52 60 66 62 87 63 54 64 38 65 39 66 47 67
REMARK SMILES IDX 40 68 41 69 45 70 48 71 42 72 43 73 46 74 44 75 70 76 71 77
REMARK SMILES IDX 79 78 72 79 73 80 77 81 80 82 74 83 75 84 78 85 76 86 55 87
REMARK SMILES IDX 56 88 64 89 57 90 58 91 62 92 65 93 59 94 60 95 63 96 61 97
REMARK H PARENT 19 7 8 18 26 31 85 50 53 61
REMARK Flexibility Score: inf
ROOT
ATOM      1  C   UNL A   1      37.024  21.856  24.338  1.00  0.00     0.002 C 
ENDROOT
BRANCH   1   2
ATOM      2  C   UNL A   1      37.348  22.944  25.358  1.00  0.00     0.021 C 
BRANCH   2   3
ATOM      3  C   UNL A   1      36.167  23.659  25.999  1.00  0.00     0.116 C 
BRANCH   3   4
ATOM      4  N   UNL A   1      35.347  22.833  26.876  1.00  0.00    -0.352 N 
ATOM      5  C   UNL A   1      34.016  22.479  26.765  1.00  0.00     0.251 C 
ATOM      6  O   UNL A   1      33.494  21.780  27.628  1.00  0.00    -0.269 OA
ATOM      7  H   UNL A   1      35.811  22.473  27.666  1.00  0.00     0.163 HD
BRANCH   5   8
ATOM      8  C   UNL A   1      33.191  22.993  25.641  1.00  0.00     0.041 A 
ATOM      9  C   UNL A   1      31.437  24.443  24.853  1.00  0.00     0.083 A 
ATOM     10  C   UNL A   1      31.288  23.682  23.696  1.00  0.00     0.022 A 
ATOM     11  C   UNL A   1      32.450  24.160  25.771  1.00  0.00     0.035 A 
ATOM     12  C   UNL A   1      32.158  22.608  23.480  1.00  0.00     0.002 A 
ATOM     13  C   UNL A   1      33.090  22.247  24.461  1.00  0.00     0.014 A 
BRANCH   9  14
ATOM     14  S   UNL A   1      30.298  25.699  25.348  1.00  0.00     0.240 S 
ATOM     15  O   UNL A   1      29.587  25.196  26.502  1.00  0.00    -0.207 OA
ATOM     16  O   UNL A   1      29.586  26.086  24.149  1.00  0.00    -0.207 OA
BRANCH  14  17
ATOM     17  N   UNL A   1      31.194  27.035  25.790  1.00  0.00    -0.208 NA
ATOM     18  H   UNL A   1      30.574  27.837  25.687  1.00  0.00     0.141 HD
BRANCH  17  19
ATOM     19  C   UNL A   1      32.449  27.405  25.128  1.00  0.00     0.075 C 
ATOM     20  C   UNL A   1      30.954  29.314  24.135  1.00  0.00     0.013 C 
ATOM     21  C   UNL A   1      32.360  28.844  24.542  1.00  0.00    -0.019 C 
ATOM     22  C   UNL A   1      33.265  28.953  23.299  1.00  0.00     0.013 C 
ATOM     23  C   UNL A   1      32.902  29.710  25.691  1.00  0.00     0.008 C 
ATOM     24  C   UNL A   1      34.057  28.904  26.257  1.00  0.00     0.002 C 
ATOM     25  C   UNL A   1      33.627  27.448  26.118  1.00  0.00     0.020 C 
ENDBRANCH  17  19
ENDBRANCH  14  17
ENDBRANCH   9  14
ENDBRANCH   5   8
ENDBRANCH   3   4
ENDBRANCH   2   3
ENDBRANCH   1   2
BRANCH   1  26
ATOM     26  C   UNL A   1      36.889  20.427  24.870  1.00  0.00     0.002 C 
BRANCH  26  27
ATOM     27  C   UNL A   1      38.156  19.569  24.896  1.00  0.00     0.021 C 
BRANCH  27  28
ATOM     28  C   UNL A   1      39.160  19.858  26.007  1.00  0.00     0.116 C 
BRANCH  28  29
ATOM     29  N   UNL A   1      40.350  19.030  25.937  1.00  0.00    -0.352 N 
ATOM     30  C   UNL A   1      41.675  19.363  26.068  1.00  0.00     0.251 C 
ATOM     31  H   UNL A   1      40.179  18.076  25.768  1.00  0.00     0.163 HD
ATOM     32  O   UNL A   1      42.533  18.506  25.873  1.00  0.00    -0.269 OA
BRANCH  30  33
ATOM     33  C   UNL A   1      42.095  20.742  26.415  1.00  0.00     0.039 A 
ATOM     34  C   UNL A   1      42.234  21.669  25.376  1.00  0.00     0.014 A 
ATOM     35  C   UNL A   1      42.401  21.121  27.725  1.00  0.00     0.014 A 
ATOM     36  C   UNL A   1      42.632  22.980  25.653  1.00  0.00     0.010 A 
ATOM     37  C   UNL A   1      42.737  22.448  28.009  1.00  0.00     0.010 A 
ATOM     38  C   UNL A   1      42.864  23.388  26.975  1.00  0.00    -0.014 A 
BRANCH  38  39
ATOM     39  C   UNL A   1      43.249  24.791  27.279  1.00  0.00     0.031 A 
ATOM     40  C   UNL A   1      44.643  25.278  26.998  1.00  0.00     0.074 A 
ATOM     41  C   UNL A   1      42.351  25.620  27.845  1.00  0.00     0.049 A 
ATOM     42  N   UNL A   1      45.164  26.462  27.204  1.00  0.00    -0.248 NA
ATOM     43  C   UNL A   1      45.583  24.299  26.431  1.00  0.00     0.031 C 
ATOM     44  C   UNL A   1      40.984  25.257  28.218  1.00  0.00     0.029 A 
ATOM     45  N   UNL A   1      42.457  26.940  28.208  1.00  0.00    -0.354 N 
ATOM     46  C   UNL A   1      46.492  26.365  26.808  1.00  0.00     0.074 A 
ATOM     47  C   UNL A   1      46.710  24.996  26.393  1.00  0.00     0.031 C 
ATOM     48  C   UNL A   1      40.370  26.332  28.737  1.00  0.00     0.029 A 
ATOM     49  C   UNL A   1      41.305  27.453  28.754  1.00  0.00     0.049 A 
ATOM     50  H   UNL A   1      43.278  27.468  28.088  1.00  0.00     0.167 HD
ATOM     51  C   UNL A   1      47.439  27.335  26.774  1.00  0.00     0.037 A 
ATOM     52  C   UNL A   1      41.034  28.690  29.211  1.00  0.00     0.037 A 
ATOM     53  C   UNL A   1      47.217  28.705  27.160  1.00  0.00     0.049 A 
ATOM     54  C   UNL A   1      42.091  29.756  29.130  1.00  0.00     0.074 A 
ATOM     55  C   UNL A   1      48.096  29.772  27.100  1.00  0.00     0.029 A 
ATOM     56  N   UNL A   1      46.028  29.194  27.678  1.00  0.00    -0.354 N 
ATOM     57  N   UNL A   1      43.321  29.671  28.686  1.00  0.00    -0.248 NA
ATOM     58  C   UNL A   1      41.714  31.097  29.604  1.00  0.00     0.031 C 
ATOM     59  C   UNL A   1      47.448  30.902  27.615  1.00  0.00     0.029 A 
ATOM     60  C   UNL A   1      46.154  30.546  27.957  1.00  0.00     0.049 A 
ATOM     61  H   UNL A   1      45.214  28.661  27.827  1.00  0.00     0.167 HD
ATOM     62  C   UNL A   1      43.859  30.945  28.805  1.00  0.00     0.074 A 
ATOM     63  C   UNL A   1      42.815  31.790  29.347  1.00  0.00     0.031 C 
ATOM     64  C   UNL A   1      45.107  31.374  28.496  1.00  0.00     0.037 A 
BRANCH  51  65
ATOM     65  C   UNL A   1      48.807  26.945  26.297  1.00  0.00     0.064 A 
ATOM     66  C   UNL A   1      49.777  26.440  27.178  1.00  0.00     0.173 A 
ATOM     67  C   UNL A   1      49.147  27.054  24.940  1.00  0.00     0.173 A 
ATOM     68  F   UNL A   1      49.505  26.328  28.486  1.00  0.00    -0.203 F 
ATOM     69  C   UNL A   1      51.044  26.089  26.722  1.00  0.00     0.198 A 
ATOM     70  C   UNL A   1      50.407  26.674  24.484  1.00  0.00     0.198 A 
ATOM     71  F   UNL A   1      48.255  27.524  24.055  1.00  0.00    -0.203 F 
ATOM     72  F   UNL A   1      51.969  25.656  27.590  1.00  0.00    -0.200 F 
ATOM     73  C   UNL A   1      51.357  26.200  25.376  1.00  0.00     0.200 A 
ATOM     74  F   UNL A   1      50.705  26.773  23.181  1.00  0.00    -0.200 F 
ATOM     75  F   UNL A   1      52.578  25.859  24.940  1.00  0.00    -0.200 F 
ENDBRANCH  51  65
BRANCH  52  76
ATOM     76  C   UNL A   1      39.683  28.997  29.746  1.00  0.00     0.064 A 
ATOM     77  C   UNL A   1      38.672  29.484  28.907  1.00  0.00     0.173 A 
ATOM     78  C   UNL A   1      39.376  28.807  31.100  1.00  0.00     0.173 A 
ATOM     79  F   UNL A   1      38.928  29.702  27.608  1.00  0.00    -0.203 F 
ATOM     80  C   UNL A   1      37.406  29.784  29.405  1.00  0.00     0.198 A 
ATOM     81  C   UNL A   1      38.103  29.086  31.593  1.00  0.00     0.198 A 
ATOM     82  F   UNL A   1      40.310  28.341  31.942  1.00  0.00    -0.203 F 
ATOM     83  F   UNL A   1      36.469  30.286  28.589  1.00  0.00    -0.200 F 
ATOM     84  C   UNL A   1      37.121  29.580  30.747  1.00  0.00     0.200 A 
ATOM     85  F   UNL A   1      37.828  28.878  32.888  1.00  0.00    -0.200 F 
ATOM     86  F   UNL A   1      35.903  29.865  31.225  1.00  0.00    -0.200 F 
ENDBRANCH  52  76
BRANCH  64  87
ATOM     87  C   UNL A   1      45.400  32.830  28.714  1.00  0.00     0.064 A 
ATOM     88  C   UNL A   1      45.954  33.294  29.916  1.00  0.00     0.173 A 
ATOM     89  C   UNL A   1      45.142  33.767  27.703  1.00  0.00     0.173 A 
ATOM     90  F   UNL A   1      46.205  32.438  30.918  1.00  0.00    -0.203 F 
ATOM     91  C   UNL A   1      46.212  34.649  30.109  1.00  0.00     0.198 A 
ATOM     92  C   UNL A   1      45.425  35.117  27.889  1.00  0.00     0.198 A 
ATOM     93  F   UNL A   1      44.617  33.373  26.534  1.00  0.00    -0.203 F 
ATOM     94  F   UNL A   1      46.696  35.076  31.284  1.00  0.00    -0.200 F 
ATOM     95  C   UNL A   1      45.951  35.558  29.094  1.00  0.00     0.200 A 
ATOM     96  F   UNL A   1      45.181  35.994  26.906  1.00  0.00    -0.200 F 
ATOM     97  F   UNL A   1      46.199  36.861  29.282  1.00  0.00    -0.200 F 
ENDBRANCH  64  87
ENDBRANCH  38  39
ENDBRANCH  30  33
ENDBRANCH  28  29
ENDBRANCH  27  28
ENDBRANCH  26  27
ENDBRANCH   1  26
TORSDOF 16
ENDMDL
