MODEL 1
REMARK VINA RESULT:     -11.5      0.000      0.000
REMARK SMILES O=C(COc1nc(NCc2cccc(Cl)c2)nc2c1CCC2)NCCCCCCNC(=O)c1ccc(-c2c3nc(c(-c4c(F)c(F)c(F)c(F)c4F)c4ccc([nH]4)c(-c4c(F)c(F)c(F)c(F)c4F)c4nc(c(-c5c(F)c(F)c(F)c(F)c5F)c5ccc2[nH]5)C=C4)C=C3)cc1
REMARK SMILES IDX 25 1 24 2 23 3 1 4 2 5 3 7 4 8 5 9 6 10 19 11 7 12 18 13
REMARK SMILES IDX 20 14 17 15 22 16 21 17 8 18 9 20 10 21 11 22 16 23 12 24
REMARK SMILES IDX 14 25 13 26 15 27 26 28 27 29 28 30 29 31 30 32 31 33 32 35
REMARK SMILES IDX 33 36 34 37 95 38 35 39 94 40 36 41 37 42 38 43 88 44 39 45
REMARK SMILES IDX 93 46 87 47 89 48 40 49 92 50 86 51 85 52 41 54 73 55 53 56
REMARK SMILES IDX 72 57 54 58 57 59 71 60 90 61 55 62 56 63 70 65 91 66 58 67
REMARK SMILES IDX 42 68 43 69 51 70 44 71 45 72 49 73 52 74 46 75 47 76 50 77
REMARK SMILES IDX 48 78 74 79 75 80 83 81 76 82 77 83 81 84 84 85 78 86 79 87
REMARK SMILES IDX 82 88 80 89 59 90 60 91 68 92 61 93 62 94 66 95 69 96 63 97
REMARK SMILES IDX 64 98 67 99 65 100
REMARK H PARENT 23 6 8 19 30 34 89 53 57 64
REMARK Flexibility Score: inf
ROOT
ATOM      1  C   UNL A   1      41.183  22.125  26.492  1.00  0.00     0.021 C 
ENDROOT
BRANCH   1   2
ATOM      2  C   UNL A   1      39.732  22.455  26.830  1.00  0.00     0.116 C 
BRANCH   2   3
ATOM      3  N   UNL A   1      38.803  21.828  25.918  1.00  0.00    -0.353 N 
ATOM      4  O   UNL A   1      37.113  23.358  26.205  1.00  0.00    -0.271 OA
ATOM      5  C   UNL A   1      37.566  22.365  25.638  1.00  0.00     0.258 C 
ATOM      6  H   UNL A   1      39.064  20.986  25.480  1.00  0.00     0.163 HD
BRANCH   5   7
ATOM      7  C   UNL A   1      36.736  21.559  24.628  1.00  0.00     0.331 C 
BRANCH   7   8
ATOM      8  O   UNL A   1      36.298  20.256  24.996  1.00  0.00    -0.467 OA
BRANCH   8   9
ATOM      9  C   UNL A   1      34.926  20.184  25.033  1.00  0.00     0.222 A 
ATOM     10  N   UNL A   1      34.244  21.289  25.378  1.00  0.00    -0.177 NA
ATOM     11  C   UNL A   1      34.310  19.045  24.621  1.00  0.00     0.036 A 
ATOM     12  C   UNL A   1      32.900  21.229  25.337  1.00  0.00     0.226 A 
ATOM     13  C   UNL A   1      32.938  19.078  24.622  1.00  0.00     0.053 A 
ATOM     14  C   UNL A   1      34.837  17.710  24.241  1.00  0.00     0.043 C 
ATOM     15  N   UNL A   1      32.206  20.142  24.966  1.00  0.00    -0.218 NA
ATOM     16  C   UNL A   1      32.368  17.740  24.249  1.00  0.00     0.057 C 
ATOM     17  C   UNL A   1      33.591  17.075  23.599  1.00  0.00     0.011 C 
BRANCH  12  18
ATOM     18  N   UNL A   1      32.254  22.370  25.708  1.00  0.00    -0.350 N 
ATOM     19  H   UNL A   1      31.379  22.565  25.298  1.00  0.00     0.164 HD
BRANCH  18  20
ATOM     20  C   UNL A   1      32.780  23.300  26.662  1.00  0.00     0.152 C 
BRANCH  20  21
ATOM     21  C   UNL A   1      32.932  24.656  26.016  1.00  0.00    -0.027 A 
ATOM     22  C   UNL A   1      33.826  24.853  24.953  1.00  0.00     0.005 A 
ATOM     23  C   UNL A   1      32.196  25.749  26.498  1.00  0.00     0.026 A 
ATOM     24  C   UNL A   1      33.964  26.113  24.367  1.00  0.00     0.002 A 
ATOM     25  C   UNL A   1      32.335  27.004  25.907  1.00  0.00     0.041 A 
ATOM     26  C   UNL A   1      33.214  27.190  24.841  1.00  0.00     0.020 A 
ATOM     27  Cl  UNL A   1      31.411  28.333  26.493  1.00  0.00    -0.084 Cl
ENDBRANCH  20  21
ENDBRANCH  18  20
ENDBRANCH  12  18
ENDBRANCH   8   9
ENDBRANCH   7   8
ENDBRANCH   5   7
ENDBRANCH   2   3
ENDBRANCH   1   2
BRANCH   1  28
ATOM     28  C   UNL A   1      41.930  21.345  27.581  1.00  0.00     0.002 C 
BRANCH  28  29
ATOM     29  C   UNL A   1      41.644  19.841  27.629  1.00  0.00     0.002 C 
BRANCH  29  30
ATOM     30  C   UNL A   1      42.622  18.964  26.844  1.00  0.00     0.021 C 
BRANCH  30  31
ATOM     31  C   UNL A   1      42.564  19.137  25.331  1.00  0.00     0.116 C 
BRANCH  31  32
ATOM     32  N   UNL A   1      43.812  18.769  24.680  1.00  0.00    -0.352 N 
ATOM     33  C   UNL A   1      44.884  19.558  24.345  1.00  0.00     0.251 C 
ATOM     34  H   UNL A   1      43.900  17.817  24.446  1.00  0.00     0.163 HD
ATOM     35  O   UNL A   1      45.788  19.112  23.644  1.00  0.00    -0.269 OA
BRANCH  33  36
ATOM     36  C   UNL A   1      44.942  20.959  24.809  1.00  0.00     0.039 A 
ATOM     37  C   UNL A   1      45.328  21.219  26.127  1.00  0.00     0.014 A 
ATOM     38  C   UNL A   1      44.613  22.012  23.951  1.00  0.00     0.014 A 
ATOM     39  C   UNL A   1      45.441  22.540  26.566  1.00  0.00     0.010 A 
ATOM     40  C   UNL A   1      44.801  23.327  24.366  1.00  0.00     0.010 A 
ATOM     41  C   UNL A   1      45.206  23.604  25.680  1.00  0.00    -0.014 A 
BRANCH  41  42
ATOM     42  C   UNL A   1      45.355  25.012  26.121  1.00  0.00     0.031 A 
ATOM     43  C   UNL A   1      46.693  25.689  26.033  1.00  0.00     0.074 A 
ATOM     44  C   UNL A   1      44.300  25.669  26.637  1.00  0.00     0.049 A 
ATOM     45  N   UNL A   1      47.033  26.902  26.391  1.00  0.00    -0.248 NA
ATOM     46  C   UNL A   1      47.804  24.889  25.496  1.00  0.00     0.031 C 
ATOM     47  C   UNL A   1      42.961  25.107  26.808  1.00  0.00     0.029 A 
ATOM     48  N   UNL A   1      44.187  26.952  27.112  1.00  0.00    -0.354 N 
ATOM     49  C   UNL A   1      48.392  27.006  26.124  1.00  0.00     0.074 A 
ATOM     50  C   UNL A   1      48.829  25.714  25.642  1.00  0.00     0.031 C 
ATOM     51  C   UNL A   1      42.151  26.049  27.317  1.00  0.00     0.029 A 
ATOM     52  C   UNL A   1      42.922  27.269  27.544  1.00  0.00     0.049 A 
ATOM     53  H   UNL A   1      44.941  27.584  27.141  1.00  0.00     0.167 HD
ATOM     54  C   UNL A   1      49.195  28.090  26.242  1.00  0.00     0.037 A 
ATOM     55  C   UNL A   1      42.439  28.414  28.062  1.00  0.00     0.037 A 
ATOM     56  C   UNL A   1      48.749  29.376  26.708  1.00  0.00     0.049 A 
ATOM     57  C   UNL A   1      43.355  29.597  28.217  1.00  0.00     0.074 A 
ATOM     58  C   UNL A   1      49.471  30.551  26.811  1.00  0.00     0.029 A 
ATOM     59  N   UNL A   1      47.466  29.653  27.158  1.00  0.00    -0.354 N 
ATOM     60  N   UNL A   1      44.622  29.706  27.898  1.00  0.00    -0.248 NA
ATOM     61  C   UNL A   1      42.777  30.814  28.802  1.00  0.00     0.031 C 
ATOM     62  C   UNL A   1      48.641  31.524  27.377  1.00  0.00     0.029 A 
ATOM     63  C   UNL A   1      47.385  30.973  27.574  1.00  0.00     0.049 A 
ATOM     64  H   UNL A   1      46.723  29.007  27.178  1.00  0.00     0.167 HD
ATOM     65  C   UNL A   1      44.990  31.004  28.227  1.00  0.00     0.074 A 
ATOM     66  C   UNL A   1      43.806  31.651  28.754  1.00  0.00     0.031 C 
ATOM     67  C   UNL A   1      46.202  31.602  28.106  1.00  0.00     0.037 A 
BRANCH  54  68
ATOM     68  C   UNL A   1      50.636  27.928  25.855  1.00  0.00     0.064 A 
ATOM     69  C   UNL A   1      51.633  27.687  26.814  1.00  0.00     0.173 A 
ATOM     70  C   UNL A   1      51.025  27.988  24.508  1.00  0.00     0.173 A 
ATOM     71  F   UNL A   1      51.319  27.631  28.116  1.00  0.00    -0.203 F 
ATOM     72  C   UNL A   1      52.968  27.548  26.442  1.00  0.00     0.198 A 
ATOM     73  C   UNL A   1      52.356  27.813  24.137  1.00  0.00     0.198 A 
ATOM     74  F   UNL A   1      50.114  28.209  23.549  1.00  0.00    -0.203 F 
ATOM     75  F   UNL A   1      53.909  27.376  27.381  1.00  0.00    -0.200 F 
ATOM     76  C   UNL A   1      53.328  27.604  25.104  1.00  0.00     0.200 A 
ATOM     77  F   UNL A   1      52.700  27.853  22.842  1.00  0.00    -0.200 F 
ATOM     78  F   UNL A   1      54.612  27.463  24.748  1.00  0.00    -0.200 F 
ENDBRANCH  54  68
BRANCH  55  79
ATOM     79  C   UNL A   1      41.001  28.497  28.425  1.00  0.00     0.064 A 
ATOM     80  C   UNL A   1      40.566  28.151  29.711  1.00  0.00     0.173 A 
ATOM     81  C   UNL A   1      40.043  28.980  27.520  1.00  0.00     0.173 A 
ATOM     82  F   UNL A   1      41.440  27.665  30.605  1.00  0.00    -0.203 F 
ATOM     83  C   UNL A   1      39.230  28.288  30.081  1.00  0.00     0.198 A 
ATOM     84  C   UNL A   1      38.712  29.141  27.899  1.00  0.00     0.198 A 
ATOM     85  F   UNL A   1      40.409  29.329  26.278  1.00  0.00    -0.203 F 
ATOM     86  F   UNL A   1      38.838  27.933  31.312  1.00  0.00    -0.200 F 
ATOM     87  C   UNL A   1      38.306  28.795  29.179  1.00  0.00     0.200 A 
ATOM     88  F   UNL A   1      37.826  29.647  27.029  1.00  0.00    -0.200 F 
ATOM     89  F   UNL A   1      37.026  28.951  29.543  1.00  0.00    -0.200 F 
ENDBRANCH  55  79
BRANCH  67  90
ATOM     90  C   UNL A   1      46.321  33.031  28.553  1.00  0.00     0.064 A 
ATOM     91  C   UNL A   1      46.731  33.357  29.854  1.00  0.00     0.173 A 
ATOM     92  C   UNL A   1      46.111  34.081  27.647  1.00  0.00     0.173 A 
ATOM     93  F   UNL A   1      46.934  32.390  30.761  1.00  0.00    -0.203 F 
ATOM     94  C   UNL A   1      46.914  34.684  30.235  1.00  0.00     0.198 A 
ATOM     95  C   UNL A   1      46.324  35.405  28.022  1.00  0.00     0.198 A 
ATOM     96  F   UNL A   1      45.726  33.824  26.388  1.00  0.00    -0.203 F 
ATOM     97  F   UNL A   1      47.274  34.974  31.493  1.00  0.00    -0.200 F 
ATOM     98  C   UNL A   1      46.722  35.706  29.316  1.00  0.00     0.200 A 
ATOM     99  F   UNL A   1      46.158  36.390  27.128  1.00  0.00    -0.200 F 
ATOM    100  F   UNL A   1      46.921  36.980  29.678  1.00  0.00    -0.200 F 
ENDBRANCH  67  90
ENDBRANCH  41  42
ENDBRANCH  33  36
ENDBRANCH  31  32
ENDBRANCH  30  31
ENDBRANCH  29  30
ENDBRANCH  28  29
ENDBRANCH   1  28
TORSDOF 18
ENDMDL
MODEL 2
REMARK VINA RESULT:     -11.5      2.855      8.604
REMARK SMILES O=C(COc1nc(NCc2cccc(Cl)c2)nc2c1CCC2)NCCCCCCNC(=O)c1ccc(-c2c3nc(c(-c4c(F)c(F)c(F)c(F)c4F)c4ccc([nH]4)c(-c4c(F)c(F)c(F)c(F)c4F)c4nc(c(-c5c(F)c(F)c(F)c(F)c5F)c5ccc2[nH]5)C=C4)C=C3)cc1
REMARK SMILES IDX 25 1 24 2 23 3 1 4 2 5 3 7 4 8 5 9 6 10 19 11 7 12 18 13
REMARK SMILES IDX 20 14 17 15 22 16 21 17 8 18 9 20 10 21 11 22 16 23 12 24
REMARK SMILES IDX 14 25 13 26 15 27 26 28 27 29 28 30 29 31 30 32 31 33 32 35
REMARK SMILES IDX 33 36 34 37 95 38 35 39 94 40 36 41 37 42 38 43 88 44 39 45
REMARK SMILES IDX 93 46 87 47 89 48 40 49 92 50 86 51 85 52 41 54 73 55 53 56
REMARK SMILES IDX 72 57 54 58 57 59 71 60 90 61 55 62 56 63 70 65 91 66 58 67
REMARK SMILES IDX 42 68 43 69 51 70 44 71 45 72 49 73 52 74 46 75 47 76 50 77
REMARK SMILES IDX 48 78 74 79 75 80 83 81 76 82 77 83 81 84 84 85 78 86 79 87
REMARK SMILES IDX 82 88 80 89 59 90 60 91 68 92 61 93 62 94 66 95 69 96 63 97
REMARK SMILES IDX 64 98 67 99 65 100
REMARK H PARENT 23 6 8 19 30 34 89 53 57 64
REMARK Flexibility Score: inf
ROOT
ATOM      1  C   UNL A   1      36.544  22.704  23.637  1.00  0.00     0.021 C 
ENDROOT
BRANCH   1   2
ATOM      2  C   UNL A   1      35.031  22.798  23.815  1.00  0.00     0.116 C 
BRANCH   2   3
ATOM      3  N   UNL A   1      34.611  24.117  24.232  1.00  0.00    -0.353 N 
ATOM      4  O   UNL A   1      34.476  23.629  26.473  1.00  0.00    -0.271 OA
ATOM      5  C   UNL A   1      34.411  24.445  25.555  1.00  0.00     0.258 C 
ATOM      6  H   UNL A   1      34.464  24.807  23.545  1.00  0.00     0.163 HD
BRANCH   5   7
ATOM      7  C   UNL A   1      33.987  25.901  25.792  1.00  0.00     0.331 C 
BRANCH   7   8
ATOM      8  O   UNL A   1      32.654  26.160  26.217  1.00  0.00    -0.467 OA
BRANCH   8   9
ATOM      9  C   UNL A   1      32.362  27.501  26.150  1.00  0.00     0.222 A 
ATOM     10  N   UNL A   1      32.979  28.326  27.012  1.00  0.00    -0.177 NA
ATOM     11  C   UNL A   1      31.551  27.955  25.158  1.00  0.00     0.036 A 
ATOM     12  C   UNL A   1      32.743  29.646  26.887  1.00  0.00     0.226 A 
ATOM     13  C   UNL A   1      31.365  29.314  25.118  1.00  0.00     0.053 A 
ATOM     14  C   UNL A   1      30.739  27.249  24.136  1.00  0.00     0.043 C 
ATOM     15  N   UNL A   1      31.942  30.183  25.955  1.00  0.00    -0.218 NA
ATOM     16  C   UNL A   1      30.377  29.689  24.052  1.00  0.00     0.057 C 
ATOM     17  C   UNL A   1      30.371  28.412  23.198  1.00  0.00     0.011 C 
BRANCH  12  18
ATOM     18  N   UNL A   1      33.382  30.441  27.791  1.00  0.00    -0.350 N 
ATOM     19  H   UNL A   1      33.268  30.242  28.749  1.00  0.00     0.164 HD
BRANCH  18  20
ATOM     20  C   UNL A   1      34.209  31.551  27.420  1.00  0.00     0.152 C 
BRANCH  20  21
ATOM     21  C   UNL A   1      34.233  32.561  28.541  1.00  0.00    -0.027 A 
ATOM     22  C   UNL A   1      34.784  32.239  29.791  1.00  0.00     0.005 A 
ATOM     23  C   UNL A   1      33.670  33.833  28.353  1.00  0.00     0.026 A 
ATOM     24  C   UNL A   1      34.796  33.179  30.824  1.00  0.00     0.002 A 
ATOM     25  C   UNL A   1      33.687  34.767  29.386  1.00  0.00     0.041 A 
ATOM     26  C   UNL A   1      34.250  34.446  30.621  1.00  0.00     0.020 A 
ATOM     27  Cl  UNL A   1      33.012  36.331  29.137  1.00  0.00    -0.084 Cl
ENDBRANCH  20  21
ENDBRANCH  18  20
ENDBRANCH  12  18
ENDBRANCH   8   9
ENDBRANCH   7   8
ENDBRANCH   5   7
ENDBRANCH   2   3
ENDBRANCH   1   2
BRANCH   1  28
ATOM     28  C   UNL A   1      37.273  21.963  24.764  1.00  0.00     0.002 C 
BRANCH  28  29
ATOM     29  C   UNL A   1      36.908  20.484  24.925  1.00  0.00     0.002 C 
BRANCH  29  30
ATOM     30  C   UNL A   1      38.094  19.519  24.976  1.00  0.00     0.021 C 
BRANCH  30  31
ATOM     31  C   UNL A   1      39.303  20.032  25.751  1.00  0.00     0.116 C 
BRANCH  31  32
ATOM     32  N   UNL A   1      40.343  19.024  25.890  1.00  0.00    -0.352 N 
ATOM     33  C   UNL A   1      41.691  19.186  26.089  1.00  0.00     0.251 C 
ATOM     34  H   UNL A   1      40.036  18.091  25.833  1.00  0.00     0.163 HD
ATOM     35  O   UNL A   1      42.451  18.224  26.013  1.00  0.00    -0.269 OA
BRANCH  33  36
ATOM     36  C   UNL A   1      42.238  20.529  26.372  1.00  0.00     0.039 A 
ATOM     37  C   UNL A   1      42.693  21.313  25.309  1.00  0.00     0.014 A 
ATOM     38  C   UNL A   1      42.305  21.013  27.682  1.00  0.00     0.014 A 
ATOM     39  C   UNL A   1      43.161  22.606  25.554  1.00  0.00     0.010 A 
ATOM     40  C   UNL A   1      42.698  22.328  27.915  1.00  0.00     0.010 A 
ATOM     41  C   UNL A   1      43.140  23.133  26.855  1.00  0.00    -0.014 A 
BRANCH  41  42
ATOM     42  C   UNL A   1      43.601  24.516  27.126  1.00  0.00     0.031 A 
ATOM     43  C   UNL A   1      42.645  25.530  27.688  1.00  0.00     0.074 A 
ATOM     44  C   UNL A   1      44.865  24.872  26.831  1.00  0.00     0.049 A 
ATOM     45  N   UNL A   1      42.848  26.793  27.969  1.00  0.00    -0.248 NA
ATOM     46  C   UNL A   1      41.272  25.072  27.945  1.00  0.00     0.031 C 
ATOM     47  C   UNL A   1      45.873  23.988  26.247  1.00  0.00     0.029 A 
ATOM     48  N   UNL A   1      45.517  26.071  26.980  1.00  0.00    -0.354 N 
ATOM     49  C   UNL A   1      41.631  27.275  28.431  1.00  0.00     0.074 A 
ATOM     50  C   UNL A   1      40.678  26.192  28.327  1.00  0.00     0.031 C 
ATOM     51  C   UNL A   1      47.027  24.663  26.121  1.00  0.00     0.029 A 
ATOM     52  C   UNL A   1      46.830  26.036  26.577  1.00  0.00     0.049 A 
ATOM     53  H   UNL A   1      45.085  26.877  27.342  1.00  0.00     0.167 HD
ATOM     54  C   UNL A   1      41.342  28.502  28.926  1.00  0.00     0.037 A 
ATOM     55  C   UNL A   1      47.768  27.002  26.577  1.00  0.00     0.037 A 
ATOM     56  C   UNL A   1      42.299  29.571  29.041  1.00  0.00     0.049 A 
ATOM     57  C   UNL A   1      47.418  28.369  27.099  1.00  0.00     0.074 A 
ATOM     58  C   UNL A   1      42.120  30.831  29.580  1.00  0.00     0.029 A 
ATOM     59  N   UNL A   1      43.613  29.505  28.601  1.00  0.00    -0.354 N 
ATOM     60  N   UNL A   1      46.283  28.795  27.597  1.00  0.00    -0.248 NA
ATOM     61  C   UNL A   1      48.477  29.387  27.060  1.00  0.00     0.031 C 
ATOM     62  C   UNL A   1      43.309  31.549  29.413  1.00  0.00     0.029 A 
ATOM     63  C   UNL A   1      44.247  30.718  28.824  1.00  0.00     0.049 A 
ATOM     64  H   UNL A   1      44.034  28.715  28.191  1.00  0.00     0.167 HD
ATOM     65  C   UNL A   1      46.492  30.123  27.946  1.00  0.00     0.074 A 
ATOM     66  C   UNL A   1      47.870  30.426  27.619  1.00  0.00     0.031 C 
ATOM     67  C   UNL A   1      45.618  31.010  28.484  1.00  0.00     0.037 A 
BRANCH  54  68
ATOM     68  C   UNL A   1      39.934  28.749  29.384  1.00  0.00     0.064 A 
ATOM     69  C   UNL A   1      38.949  29.233  28.508  1.00  0.00     0.173 A 
ATOM     70  C   UNL A   1      39.555  28.476  30.707  1.00  0.00     0.173 A 
ATOM     71  F   UNL A   1      39.259  29.521  27.236  1.00  0.00    -0.203 F 
ATOM     72  C   UNL A   1      37.649  29.467  28.949  1.00  0.00     0.198 A 
ATOM     73  C   UNL A   1      38.245  28.677  31.134  1.00  0.00     0.198 A 
ATOM     74  F   UNL A   1      40.453  28.006  31.585  1.00  0.00    -0.203 F 
ATOM     75  F   UNL A   1      36.741  29.983  28.108  1.00  0.00    -0.200 F 
ATOM     76  C   UNL A   1      37.296  29.182  30.259  1.00  0.00     0.200 A 
ATOM     77  F   UNL A   1      37.901  28.387  32.398  1.00  0.00    -0.200 F 
ATOM     78  F   UNL A   1      36.042  29.401  30.678  1.00  0.00    -0.200 F 
ENDBRANCH  54  68
BRANCH  55  79
ATOM     79  C   UNL A   1      49.140  26.682  26.104  1.00  0.00     0.064 A 
ATOM     80  C   UNL A   1      49.535  26.987  24.795  1.00  0.00     0.173 A 
ATOM     81  C   UNL A   1      50.099  26.125  26.963  1.00  0.00     0.173 A 
ATOM     82  F   UNL A   1      48.648  27.502  23.931  1.00  0.00    -0.203 F 
ATOM     83  C   UNL A   1      50.838  26.752  24.364  1.00  0.00     0.198 A 
ATOM     84  C   UNL A   1      51.409  25.914  26.538  1.00  0.00     0.198 A 
ATOM     85  F   UNL A   1      49.772  25.819  28.227  1.00  0.00    -0.203 F 
ATOM     86  F   UNL A   1      51.186  27.036  23.101  1.00  0.00    -0.200 F 
ATOM     87  C   UNL A   1      51.778  26.227  25.239  1.00  0.00     0.200 A 
ATOM     88  F   UNL A   1      52.318  25.422  27.392  1.00  0.00    -0.200 F 
ATOM     89  F   UNL A   1      53.038  26.024  24.830  1.00  0.00    -0.200 F 
ENDBRANCH  55  79
BRANCH  67  90
ATOM     90  C   UNL A   1      46.115  32.401  28.755  1.00  0.00     0.064 A 
ATOM     91  C   UNL A   1      45.971  33.426  27.809  1.00  0.00     0.173 A 
ATOM     92  C   UNL A   1      46.659  32.733  30.005  1.00  0.00     0.173 A 
ATOM     93  F   UNL A   1      45.468  33.158  26.594  1.00  0.00    -0.203 F 
ATOM     94  C   UNL A   1      46.365  34.730  28.100  1.00  0.00     0.198 A 
ATOM     95  C   UNL A   1      47.023  34.043  30.304  1.00  0.00     0.198 A 
ATOM     96  F   UNL A   1      46.811  31.792  30.950  1.00  0.00    -0.203 F 
ATOM     97  F   UNL A   1      46.248  35.686  27.169  1.00  0.00    -0.200 F 
ATOM     98  C   UNL A   1      46.878  35.039  29.351  1.00  0.00     0.200 A 
ATOM     99  F   UNL A   1      47.501  34.345  31.520  1.00  0.00    -0.200 F 
ATOM    100  F   UNL A   1      47.235  36.299  29.636  1.00  0.00    -0.200 F 
ENDBRANCH  67  90
ENDBRANCH  41  42
ENDBRANCH  33  36
ENDBRANCH  31  32
ENDBRANCH  30  31
ENDBRANCH  29  30
ENDBRANCH  28  29
ENDBRANCH   1  28
TORSDOF 18
ENDMDL
MODEL 3
REMARK VINA RESULT:     -11.4      1.519      3.246
REMARK SMILES O=C(COc1nc(NCc2cccc(Cl)c2)nc2c1CCC2)NCCCCCCNC(=O)c1ccc(-c2c3nc(c(-c4c(F)c(F)c(F)c(F)c4F)c4ccc([nH]4)c(-c4c(F)c(F)c(F)c(F)c4F)c4nc(c(-c5c(F)c(F)c(F)c(F)c5F)c5ccc2[nH]5)C=C4)C=C3)cc1
REMARK SMILES IDX 25 1 24 2 23 3 1 4 2 5 3 7 4 8 5 9 6 10 19 11 7 12 18 13
REMARK SMILES IDX 20 14 17 15 22 16 21 17 8 18 9 20 10 21 11 22 16 23 12 24
REMARK SMILES IDX 14 25 13 26 15 27 26 28 27 29 28 30 29 31 30 32 31 33 32 35
REMARK SMILES IDX 33 36 34 37 95 38 35 39 94 40 36 41 37 42 38 43 88 44 39 45
REMARK SMILES IDX 93 46 87 47 89 48 40 49 92 50 86 51 85 52 41 54 73 55 53 56
REMARK SMILES IDX 72 57 54 58 57 59 71 60 90 61 55 62 56 63 70 65 91 66 58 67
REMARK SMILES IDX 42 68 43 69 51 70 44 71 45 72 49 73 52 74 46 75 47 76 50 77
REMARK SMILES IDX 48 78 74 79 75 80 83 81 76 82 77 83 81 84 84 85 78 86 79 87
REMARK SMILES IDX 82 88 80 89 59 90 60 91 68 92 61 93 62 94 66 95 69 96 63 97
REMARK SMILES IDX 64 98 67 99 65 100
REMARK H PARENT 23 6 8 19 30 34 89 53 57 64
REMARK Flexibility Score: inf
ROOT
ATOM      1  C   UNL A   1      40.890  22.072  26.125  1.00  0.00     0.021 C 
ENDROOT
BRANCH   1   2
ATOM      2  C   UNL A   1      39.506  21.571  26.530  1.00  0.00     0.116 C 
BRANCH   2   3
ATOM      3  N   UNL A   1      38.516  21.817  25.506  1.00  0.00    -0.353 N 
ATOM      4  O   UNL A   1      37.588  23.664  26.508  1.00  0.00    -0.271 OA
ATOM      5  C   UNL A   1      37.654  22.890  25.555  1.00  0.00     0.258 C 
ATOM      6  H   UNL A   1      38.456  21.195  24.745  1.00  0.00     0.163 HD
BRANCH   5   7
ATOM      7  C   UNL A   1      36.691  22.987  24.363  1.00  0.00     0.331 C 
BRANCH   7   8
ATOM      8  O   UNL A   1      35.816  24.106  24.286  1.00  0.00    -0.467 OA
BRANCH   8   9
ATOM      9  C   UNL A   1      34.618  23.844  24.908  1.00  0.00     0.222 A 
ATOM     10  N   UNL A   1      34.288  22.561  25.129  1.00  0.00    -0.177 NA
ATOM     11  C   UNL A   1      33.868  24.880  25.366  1.00  0.00     0.036 A 
ATOM     12  C   UNL A   1      33.150  22.319  25.805  1.00  0.00     0.226 A 
ATOM     13  C   UNL A   1      32.722  24.532  26.036  1.00  0.00     0.053 A 
ATOM     14  C   UNL A   1      34.000  26.350  25.211  1.00  0.00     0.043 C 
ATOM     15  N   UNL A   1      32.335  23.275  26.276  1.00  0.00    -0.218 NA
ATOM     16  C   UNL A   1      31.925  25.750  26.406  1.00  0.00     0.057 C 
ATOM     17  C   UNL A   1      32.989  26.848  26.258  1.00  0.00     0.011 C 
BRANCH  12  18
ATOM     18  N   UNL A   1      32.852  21.002  25.994  1.00  0.00    -0.350 N 
ATOM     19  H   UNL A   1      33.012  20.610  26.883  1.00  0.00     0.164 HD
BRANCH  18  20
ATOM     20  C   UNL A   1      32.318  20.159  24.965  1.00  0.00     0.152 C 
BRANCH  20  21
ATOM     21  C   UNL A   1      33.093  18.864  24.920  1.00  0.00    -0.027 A 
ATOM     22  C   UNL A   1      34.443  18.844  24.539  1.00  0.00     0.005 A 
ATOM     23  C   UNL A   1      32.455  17.653  25.230  1.00  0.00     0.026 A 
ATOM     24  C   UNL A   1      35.149  17.640  24.494  1.00  0.00     0.002 A 
ATOM     25  C   UNL A   1      33.165  16.455  25.187  1.00  0.00     0.041 A 
ATOM     26  C   UNL A   1      34.511  16.444  24.823  1.00  0.00     0.020 A 
ATOM     27  Cl  UNL A   1      32.377  14.979  25.589  1.00  0.00    -0.084 Cl
ENDBRANCH  20  21
ENDBRANCH  18  20
ENDBRANCH  12  18
ENDBRANCH   8   9
ENDBRANCH   7   8
ENDBRANCH   5   7
ENDBRANCH   2   3
ENDBRANCH   1   2
BRANCH   1  28
ATOM     28  C   UNL A   1      42.041  21.521  26.977  1.00  0.00     0.002 C 
BRANCH  28  29
ATOM     29  C   UNL A   1      41.862  20.084  27.477  1.00  0.00     0.002 C 
BRANCH  29  30
ATOM     30  C   UNL A   1      42.660  19.023  26.717  1.00  0.00     0.021 C 
BRANCH  30  31
ATOM     31  C   UNL A   1      42.646  19.176  25.200  1.00  0.00     0.116 C 
BRANCH  31  32
ATOM     32  N   UNL A   1      43.916  18.810  24.592  1.00  0.00    -0.352 N 
ATOM     33  C   UNL A   1      45.005  19.596  24.308  1.00  0.00     0.251 C 
ATOM     34  H   UNL A   1      44.008  17.861  24.347  1.00  0.00     0.163 HD
ATOM     35  O   UNL A   1      45.932  19.154  23.635  1.00  0.00    -0.269 OA
BRANCH  33  36
ATOM     36  C   UNL A   1      45.053  20.990  24.795  1.00  0.00     0.039 A 
ATOM     37  C   UNL A   1      45.504  21.238  26.094  1.00  0.00     0.014 A 
ATOM     38  C   UNL A   1      44.651  22.049  23.975  1.00  0.00     0.014 A 
ATOM     39  C   UNL A   1      45.607  22.554  26.550  1.00  0.00     0.010 A 
ATOM     40  C   UNL A   1      44.828  23.361  24.403  1.00  0.00     0.010 A 
ATOM     41  C   UNL A   1      45.298  23.626  25.698  1.00  0.00    -0.014 A 
BRANCH  41  42
ATOM     42  C   UNL A   1      45.436  25.030  26.156  1.00  0.00     0.031 A 
ATOM     43  C   UNL A   1      46.771  25.714  26.089  1.00  0.00     0.074 A 
ATOM     44  C   UNL A   1      44.372  25.676  26.669  1.00  0.00     0.049 A 
ATOM     45  N   UNL A   1      47.102  26.925  26.463  1.00  0.00    -0.248 NA
ATOM     46  C   UNL A   1      47.892  24.926  25.553  1.00  0.00     0.031 C 
ATOM     47  C   UNL A   1      43.035  25.105  26.821  1.00  0.00     0.029 A 
ATOM     48  N   UNL A   1      44.249  26.953  27.158  1.00  0.00    -0.354 N 
ATOM     49  C   UNL A   1      48.462  27.039  26.210  1.00  0.00     0.074 A 
ATOM     50  C   UNL A   1      48.911  25.755  25.718  1.00  0.00     0.031 C 
ATOM     51  C   UNL A   1      42.216  26.038  27.333  1.00  0.00     0.029 A 
ATOM     52  C   UNL A   1      42.978  27.259  27.581  1.00  0.00     0.049 A 
ATOM     53  H   UNL A   1      44.999  27.588  27.201  1.00  0.00     0.167 HD
ATOM     54  C   UNL A   1      49.258  28.125  26.348  1.00  0.00     0.037 A 
ATOM     55  C   UNL A   1      42.484  28.396  28.107  1.00  0.00     0.037 A 
ATOM     56  C   UNL A   1      48.802  29.404  26.824  1.00  0.00     0.049 A 
ATOM     57  C   UNL A   1      43.393  29.582  28.283  1.00  0.00     0.074 A 
ATOM     58  C   UNL A   1      49.517  30.582  26.946  1.00  0.00     0.029 A 
ATOM     59  N   UNL A   1      47.513  29.669  27.264  1.00  0.00    -0.354 N 
ATOM     60  N   UNL A   1      44.662  29.700  27.978  1.00  0.00    -0.248 NA
ATOM     61  C   UNL A   1      42.803  30.789  28.876  1.00  0.00     0.031 C 
ATOM     62  C   UNL A   1      48.677  31.544  27.516  1.00  0.00     0.029 A 
ATOM     63  C   UNL A   1      47.422  30.984  27.694  1.00  0.00     0.049 A 
ATOM     64  H   UNL A   1      46.773  29.020  27.271  1.00  0.00     0.167 HD
ATOM     65  C   UNL A   1      45.021  30.996  28.325  1.00  0.00     0.074 A 
ATOM     66  C   UNL A   1      43.828  31.631  28.848  1.00  0.00     0.031 C 
ATOM     67  C   UNL A   1      46.230  31.601  28.222  1.00  0.00     0.037 A 
BRANCH  54  68
ATOM     68  C   UNL A   1      50.705  27.975  25.972  1.00  0.00     0.064 A 
ATOM     69  C   UNL A   1      51.694  27.734  26.939  1.00  0.00     0.173 A 
ATOM     70  C   UNL A   1      51.105  28.046  24.630  1.00  0.00     0.173 A 
ATOM     71  F   UNL A   1      51.369  27.668  28.238  1.00  0.00    -0.203 F 
ATOM     72  C   UNL A   1      53.033  27.606  26.578  1.00  0.00     0.198 A 
ATOM     73  C   UNL A   1      52.440  27.882  24.270  1.00  0.00     0.198 A 
ATOM     74  F   UNL A   1      50.201  28.268  23.664  1.00  0.00    -0.203 F 
ATOM     75  F   UNL A   1      53.967  27.434  27.525  1.00  0.00    -0.200 F 
ATOM     76  C   UNL A   1      53.405  27.673  25.244  1.00  0.00     0.200 A 
ATOM     77  F   UNL A   1      52.795  27.932  22.978  1.00  0.00    -0.200 F 
ATOM     78  F   UNL A   1      54.693  27.542  24.898  1.00  0.00    -0.200 F 
ENDBRANCH  54  68
BRANCH  55  79
ATOM     79  C   UNL A   1      41.042  28.467  28.457  1.00  0.00     0.064 A 
ATOM     80  C   UNL A   1      40.597  28.100  29.734  1.00  0.00     0.173 A 
ATOM     81  C   UNL A   1      40.092  28.960  27.551  1.00  0.00     0.173 A 
ATOM     82  F   UNL A   1      41.464  27.604  30.628  1.00  0.00    -0.203 F 
ATOM     83  C   UNL A   1      39.257  28.226  30.093  1.00  0.00     0.198 A 
ATOM     84  C   UNL A   1      38.756  29.111  27.919  1.00  0.00     0.198 A 
ATOM     85  F   UNL A   1      40.468  29.330  26.317  1.00  0.00    -0.203 F 
ATOM     86  F   UNL A   1      38.854  27.851  31.314  1.00  0.00    -0.200 F 
ATOM     87  C   UNL A   1      38.340  28.743  29.189  1.00  0.00     0.200 A 
ATOM     88  F   UNL A   1      37.877  29.626  27.049  1.00  0.00    -0.200 F 
ATOM     89  F   UNL A   1      37.056  28.888  29.544  1.00  0.00    -0.200 F 
ENDBRANCH  55  79
BRANCH  67  90
ATOM     90  C   UNL A   1      46.338  33.026  28.686  1.00  0.00     0.064 A 
ATOM     91  C   UNL A   1      46.748  33.340  29.990  1.00  0.00     0.173 A 
ATOM     92  C   UNL A   1      46.116  34.086  27.794  1.00  0.00     0.173 A 
ATOM     93  F   UNL A   1      46.962  32.364  30.885  1.00  0.00    -0.203 F 
ATOM     94  C   UNL A   1      46.920  34.664  30.387  1.00  0.00     0.198 A 
ATOM     95  C   UNL A   1      46.319  35.407  28.184  1.00  0.00     0.198 A 
ATOM     96  F   UNL A   1      45.731  33.840  26.533  1.00  0.00    -0.203 F 
ATOM     97  F   UNL A   1      47.281  34.942  31.647  1.00  0.00    -0.200 F 
ATOM     98  C   UNL A   1      46.717  35.695  29.480  1.00  0.00     0.200 A 
ATOM     99  F   UNL A   1      46.141  36.400  27.302  1.00  0.00    -0.200 F 
ATOM    100  F   UNL A   1      46.906  36.966  29.858  1.00  0.00    -0.200 F 
ENDBRANCH  67  90
ENDBRANCH  41  42
ENDBRANCH  33  36
ENDBRANCH  31  32
ENDBRANCH  30  31
ENDBRANCH  29  30
ENDBRANCH  28  29
ENDBRANCH   1  28
TORSDOF 18
ENDMDL
