MODEL 1
REMARK VINA RESULT:     -13.4      0.000      0.000
REMARK SMILES O=C(Cn1nc(C(=O)NCCCCCCNC(=O)c2ccc(-c3c4nc(c(-c5c(F)c(F)c(F)c(F)c5F)c5ccc([nH]5)c(-c5c(F)c(F)c(F)c(F)c5F)c5nc(c(-c6c(F)c(F)c(F)c(F)c6F)c6ccc3[nH]6)C=C5)C=C4)cc2)c2ccccc2c1=O)Nc1ccc2c(c1)C(=O)c1ccccc1C2=O
REMARK SMILES IDX 12 1 11 2 10 3 9 4 7 5 8 6 6 8 4 9 5 10 88 11 87 12 89 13
REMARK SMILES IDX 82 14 86 15 83 16 85 17 84 18 3 19 2 20 1 21 90 22 91 24
REMARK SMILES IDX 92 25 96 26 93 27 95 28 94 29 97 30 105 31 98 32 99 33
REMARK SMILES IDX 104 34 106 35 100 36 103 37 101 38 102 39 13 40 14 41 15 42
REMARK SMILES IDX 16 43 17 44 18 46 19 47 20 48 81 49 21 50 80 51 22 52 23 53
REMARK SMILES IDX 24 54 74 55 25 56 79 57 73 58 75 59 26 60 78 61 72 62 71 63
REMARK SMILES IDX 27 65 59 66 39 67 58 68 40 69 43 70 57 71 76 72 41 73 42 74
REMARK SMILES IDX 56 76 77 77 44 78 28 79 29 80 37 81 30 82 31 83 35 84 38 85
REMARK SMILES IDX 32 86 33 87 36 88 34 89 60 90 61 91 69 92 62 93 63 94 67 95
REMARK SMILES IDX 70 96 64 97 65 98 68 99 66 100 45 101 46 102 54 103 47 104
REMARK SMILES IDX 48 105 52 106 55 107 49 108 50 109 53 110 51 111
REMARK H PARENT 9 7 90 23 16 45 75 64 43 75
REMARK Flexibility Score: inf
ROOT
ATOM      1  C   UNL A   1      34.851  29.951  28.263  1.00  0.00     0.002 C 
ENDROOT
BRANCH   1   2
ATOM      2  C   UNL A   1      35.479  29.337  27.009  1.00  0.00     0.021 C 
BRANCH   2   3
ATOM      3  C   UNL A   1      34.584  28.504  26.096  1.00  0.00     0.116 C 
BRANCH   3   4
ATOM      4  N   UNL A   1      33.553  27.765  26.796  1.00  0.00    -0.351 N 
ATOM      5  C   UNL A   1      32.353  27.293  26.314  1.00  0.00     0.272 C 
ATOM      6  O   UNL A   1      31.750  26.430  26.945  1.00  0.00    -0.267 OA
ATOM      7  H   UNL A   1      33.736  27.574  27.745  1.00  0.00     0.163 HD
BRANCH   5   8
ATOM      8  C   UNL A   1      31.753  27.823  25.003  1.00  0.00     0.156 A 
ATOM      9  N   UNL A   1      31.162  27.438  22.793  1.00  0.00    -0.219 N 
ATOM     10  N   UNL A   1      31.721  27.019  23.979  1.00  0.00    -0.163 NA
ATOM     11  C   UNL A   1      30.470  28.633  22.647  1.00  0.00     0.275 A 
ATOM     12  C   UNL A   1      30.511  29.557  23.796  1.00  0.00     0.051 A 
ATOM     13  O   UNL A   1      29.871  28.954  21.626  1.00  0.00    -0.267 OA
ATOM     14  C   UNL A   1      31.197  29.196  24.953  1.00  0.00     0.020 A 
ATOM     15  C   UNL A   1      29.905  30.818  23.691  1.00  0.00     0.014 A 
ATOM     16  C   UNL A   1      31.314  30.127  25.995  1.00  0.00     0.011 A 
ATOM     17  C   UNL A   1      30.003  31.729  24.741  1.00  0.00     0.001 A 
ATOM     18  C   UNL A   1      30.716  31.387  25.888  1.00  0.00     0.001 A 
BRANCH   9  19
ATOM     19  C   UNL A   1      31.399  26.582  21.618  1.00  0.00     0.248 C 
BRANCH  19  20
ATOM     20  C   UNL A   1      32.195  25.312  21.919  1.00  0.00     0.246 C 
ATOM     21  O   UNL A   1      33.394  25.239  21.657  1.00  0.00    -0.273 OA
ATOM     22  N   UNL A   1      31.414  24.279  22.397  1.00  0.00    -0.324 N 
ATOM     23  H   UNL A   1      30.459  24.299  22.160  1.00  0.00     0.169 HD
BRANCH  22  24
ATOM     24  C   UNL A   1      31.844  23.199  23.186  1.00  0.00     0.042 A 
ATOM     25  C   UNL A   1      31.776  21.860  22.782  1.00  0.00     0.027 A 
ATOM     26  C   UNL A   1      32.568  23.539  24.330  1.00  0.00     0.039 A 
ATOM     27  C   UNL A   1      32.563  20.891  23.412  1.00  0.00     0.015 A 
ATOM     28  C   UNL A   1      33.396  22.586  24.915  1.00  0.00     0.036 A 
ATOM     29  C   UNL A   1      33.439  21.283  24.424  1.00  0.00     0.034 A 
ATOM     30  C   UNL A   1      34.410  23.037  25.881  1.00  0.00     0.194 C 
ATOM     31  C   UNL A   1      34.570  20.409  24.802  1.00  0.00     0.194 C 
ATOM     32  O   UNL A   1      34.207  23.988  26.622  1.00  0.00    -0.289 OA
ATOM     33  C   UNL A   1      35.722  22.377  25.791  1.00  0.00     0.034 A 
ATOM     34  C   UNL A   1      35.804  21.094  25.248  1.00  0.00     0.034 A 
ATOM     35  O   UNL A   1      34.532  19.200  24.626  1.00  0.00    -0.289 OA
ATOM     36  C   UNL A   1      36.876  23.099  26.102  1.00  0.00     0.013 A 
ATOM     37  C   UNL A   1      37.054  20.522  25.001  1.00  0.00     0.013 A 
ATOM     38  C   UNL A   1      38.121  22.541  25.821  1.00  0.00     0.001 A 
ATOM     39  C   UNL A   1      38.211  21.259  25.271  1.00  0.00     0.001 A 
ENDBRANCH  22  24
ENDBRANCH  19  20
ENDBRANCH   9  19
ENDBRANCH   5   8
ENDBRANCH   3   4
ENDBRANCH   2   3
ENDBRANCH   1   2
BRANCH   1  40
ATOM     40  C   UNL A   1      34.780  31.477  28.358  1.00  0.00     0.002 C 
BRANCH  40  41
ATOM     41  C   UNL A   1      33.439  32.137  28.039  1.00  0.00     0.021 C 
BRANCH  41  42
ATOM     42  C   UNL A   1      33.488  33.469  27.302  1.00  0.00     0.116 C 
BRANCH  42  43
ATOM     43  N   UNL A   1      32.837  34.563  28.002  1.00  0.00    -0.352 N 
ATOM     44  C   UNL A   1      33.197  35.157  29.191  1.00  0.00     0.251 C 
ATOM     45  H   UNL A   1      32.032  34.928  27.568  1.00  0.00     0.163 HD
ATOM     46  O   UNL A   1      32.502  36.041  29.682  1.00  0.00    -0.269 OA
BRANCH  44  47
ATOM     47  C   UNL A   1      34.404  34.686  29.911  1.00  0.00     0.039 A 
ATOM     48  C   UNL A   1      35.682  34.872  29.379  1.00  0.00     0.014 A 
ATOM     49  C   UNL A   1      34.241  34.001  31.121  1.00  0.00     0.014 A 
ATOM     50  C   UNL A   1      36.773  34.234  29.964  1.00  0.00     0.010 A 
ATOM     51  C   UNL A   1      35.348  33.413  31.741  1.00  0.00     0.010 A 
ATOM     52  C   UNL A   1      36.613  33.477  31.137  1.00  0.00    -0.014 A 
BRANCH  52  53
ATOM     53  C   UNL A   1      37.770  32.724  31.687  1.00  0.00     0.031 A 
ATOM     54  C   UNL A   1      38.286  33.025  33.069  1.00  0.00     0.074 A 
ATOM     55  C   UNL A   1      38.314  31.722  30.974  1.00  0.00     0.049 A 
ATOM     56  N   UNL A   1      39.263  32.455  33.729  1.00  0.00    -0.248 NA
ATOM     57  C   UNL A   1      37.616  34.105  33.810  1.00  0.00     0.031 C 
ATOM     58  C   UNL A   1      37.892  31.317  29.633  1.00  0.00     0.029 A 
ATOM     59  N   UNL A   1      39.317  30.840  31.289  1.00  0.00    -0.354 N 
ATOM     60  C   UNL A   1      39.336  33.115  34.948  1.00  0.00     0.074 A 
ATOM     61  C   UNL A   1      38.318  34.144  34.934  1.00  0.00     0.031 C 
ATOM     62  C   UNL A   1      38.594  30.236  29.261  1.00  0.00     0.029 A 
ATOM     63  C   UNL A   1      39.542  29.896  30.319  1.00  0.00     0.049 A 
ATOM     64  H   UNL A   1      39.827  30.880  32.131  1.00  0.00     0.167 HD
ATOM     65  C   UNL A   1      40.169  32.879  35.991  1.00  0.00     0.037 A 
ATOM     66  C   UNL A   1      40.414  28.872  30.284  1.00  0.00     0.037 A 
ATOM     67  C   UNL A   1      41.163  31.840  36.025  1.00  0.00     0.049 A 
ATOM     68  C   UNL A   1      41.342  28.648  31.443  1.00  0.00     0.074 A 
ATOM     69  C   UNL A   1      42.044  31.520  37.044  1.00  0.00     0.029 A 
ATOM     70  N   UNL A   1      41.401  30.944  34.995  1.00  0.00    -0.354 N 
ATOM     71  N   UNL A   1      41.415  29.294  32.579  1.00  0.00    -0.248 NA
ATOM     72  C   UNL A   1      42.322  27.560  31.306  1.00  0.00     0.031 C 
ATOM     73  C   UNL A   1      42.832  30.444  36.621  1.00  0.00     0.029 A 
ATOM     74  C   UNL A   1      42.424  30.078  35.349  1.00  0.00     0.049 A 
ATOM     75  H   UNL A   1      40.916  30.925  34.138  1.00  0.00     0.167 HD
ATOM     76  C   UNL A   1      42.445  28.698  33.292  1.00  0.00     0.074 A 
ATOM     77  C   UNL A   1      42.955  27.620  32.469  1.00  0.00     0.031 C 
ATOM     78  C   UNL A   1      42.929  29.021  34.515  1.00  0.00     0.037 A 
BRANCH  65  79
ATOM     79  C   UNL A   1      40.045  33.767  37.192  1.00  0.00     0.064 A 
ATOM     80  C   UNL A   1      40.780  34.955  37.301  1.00  0.00     0.173 A 
ATOM     81  C   UNL A   1      39.136  33.456  38.213  1.00  0.00     0.173 A 
ATOM     82  F   UNL A   1      41.670  35.286  36.353  1.00  0.00    -0.203 F 
ATOM     83  C   UNL A   1      40.618  35.798  38.397  1.00  0.00     0.198 A 
ATOM     84  C   UNL A   1      38.963  34.309  39.299  1.00  0.00     0.198 A 
ATOM     85  F   UNL A   1      38.406  32.332  38.150  1.00  0.00    -0.203 F 
ATOM     86  F   UNL A   1      41.346  36.918  38.493  1.00  0.00    -0.200 F 
ATOM     87  C   UNL A   1      39.704  35.478  39.392  1.00  0.00     0.200 A 
ATOM     88  F   UNL A   1      38.075  34.004  40.256  1.00  0.00    -0.200 F 
ATOM     89  F   UNL A   1      39.540  36.296  40.441  1.00  0.00    -0.200 F 
ENDBRANCH  65  79
BRANCH  66  90
ATOM     90  C   UNL A   1      40.434  27.970  29.108  1.00  0.00     0.064 A 
ATOM     91  C   UNL A   1      39.664  26.799  29.093  1.00  0.00     0.173 A 
ATOM     92  C   UNL A   1      41.196  28.272  27.971  1.00  0.00     0.173 A 
ATOM     93  F   UNL A   1      38.938  26.461  30.168  1.00  0.00    -0.203 F 
ATOM     94  C   UNL A   1      39.657  25.961  27.980  1.00  0.00     0.198 A 
ATOM     95  C   UNL A   1      41.172  27.444  26.852  1.00  0.00     0.198 A 
ATOM     96  F   UNL A   1      41.946  29.382  27.943  1.00  0.00    -0.203 F 
ATOM     97  F   UNL A   1      38.930  24.836  27.996  1.00  0.00    -0.200 F 
ATOM     98  C   UNL A   1      40.405  26.288  26.858  1.00  0.00     0.200 A 
ATOM     99  F   UNL A   1      41.889  27.767  25.767  1.00  0.00    -0.200 F 
ATOM    100  F   UNL A   1      40.389  25.488  25.784  1.00  0.00    -0.200 F 
ENDBRANCH  66  90
BRANCH  78 101
ATOM    101  C   UNL A   1      44.074  28.209  35.033  1.00  0.00     0.064 A 
ATOM    102  C   UNL A   1      45.399  28.616  34.825  1.00  0.00     0.173 A 
ATOM    103  C   UNL A   1      43.847  27.048  35.786  1.00  0.00     0.173 A 
ATOM    104  F   UNL A   1      45.663  29.713  34.100  1.00  0.00    -0.203 F 
ATOM    105  C   UNL A   1      46.460  27.879  35.344  1.00  0.00     0.198 A 
ATOM    106  C   UNL A   1      44.910  26.323  36.316  1.00  0.00     0.198 A 
ATOM    107  F   UNL A   1      42.595  26.624  36.012  1.00  0.00    -0.203 F 
ATOM    108  F   UNL A   1      47.722  28.268  35.112  1.00  0.00    -0.200 F 
ATOM    109  C   UNL A   1      46.214  26.737  36.094  1.00  0.00     0.200 A 
ATOM    110  F   UNL A   1      44.672  25.223  37.044  1.00  0.00    -0.200 F 
ATOM    111  F   UNL A   1      47.238  26.032  36.596  1.00  0.00    -0.200 F 
ENDBRANCH  78 101
ENDBRANCH  52  53
ENDBRANCH  44  47
ENDBRANCH  42  43
ENDBRANCH  41  42
ENDBRANCH  40  41
ENDBRANCH   1  40
TORSDOF 16
ENDMDL
MODEL 2
REMARK VINA RESULT:     -13.3      0.856      6.805
REMARK SMILES O=C(Cn1nc(C(=O)NCCCCCCNC(=O)c2ccc(-c3c4nc(c(-c5c(F)c(F)c(F)c(F)c5F)c5ccc([nH]5)c(-c5c(F)c(F)c(F)c(F)c5F)c5nc(c(-c6c(F)c(F)c(F)c(F)c6F)c6ccc3[nH]6)C=C5)C=C4)cc2)c2ccccc2c1=O)Nc1ccc2c(c1)C(=O)c1ccccc1C2=O
REMARK SMILES IDX 12 1 11 2 10 3 9 4 7 5 8 6 6 8 4 9 5 10 88 11 87 12 89 13
REMARK SMILES IDX 82 14 86 15 83 16 85 17 84 18 3 19 2 20 1 21 90 22 91 24
REMARK SMILES IDX 92 25 96 26 93 27 95 28 94 29 97 30 105 31 98 32 99 33
REMARK SMILES IDX 104 34 106 35 100 36 103 37 101 38 102 39 13 40 14 41 15 42
REMARK SMILES IDX 16 43 17 44 18 46 19 47 20 48 81 49 21 50 80 51 22 52 23 53
REMARK SMILES IDX 24 54 74 55 25 56 79 57 73 58 75 59 26 60 78 61 72 62 71 63
REMARK SMILES IDX 27 65 59 66 39 67 58 68 40 69 43 70 57 71 76 72 41 73 42 74
REMARK SMILES IDX 56 76 77 77 44 78 28 79 29 80 37 81 30 82 31 83 35 84 38 85
REMARK SMILES IDX 32 86 33 87 36 88 34 89 60 90 61 91 69 92 62 93 63 94 67 95
REMARK SMILES IDX 70 96 64 97 65 98 68 99 66 100 45 101 46 102 54 103 47 104
REMARK SMILES IDX 48 105 52 106 55 107 49 108 50 109 53 110 51 111
REMARK H PARENT 9 7 90 23 16 45 75 64 43 75
REMARK Flexibility Score: inf
ROOT
ATOM      1  C   UNL A   1      34.432  30.706  28.070  1.00  0.00     0.002 C 
ENDROOT
BRANCH   1   2
ATOM      2  C   UNL A   1      35.254  29.711  27.247  1.00  0.00     0.021 C 
BRANCH   2   3
ATOM      3  C   UNL A   1      34.510  28.800  26.275  1.00  0.00     0.116 C 
BRANCH   3   4
ATOM      4  N   UNL A   1      33.540  27.930  26.908  1.00  0.00    -0.351 N 
ATOM      5  C   UNL A   1      32.404  27.368  26.368  1.00  0.00     0.272 C 
ATOM      6  O   UNL A   1      31.873  26.421  26.939  1.00  0.00    -0.267 OA
ATOM      7  H   UNL A   1      33.716  27.710  27.851  1.00  0.00     0.163 HD
BRANCH   5   8
ATOM      8  C   UNL A   1      31.789  27.902  25.065  1.00  0.00     0.156 A 
ATOM      9  N   UNL A   1      31.167  27.522  22.862  1.00  0.00    -0.219 N 
ATOM     10  N   UNL A   1      31.741  27.101  24.041  1.00  0.00    -0.163 NA
ATOM     11  C   UNL A   1      30.477  28.720  22.728  1.00  0.00     0.275 A 
ATOM     12  C   UNL A   1      30.535  29.642  23.878  1.00  0.00     0.051 A 
ATOM     13  O   UNL A   1      29.866  29.044  21.715  1.00  0.00    -0.267 OA
ATOM     14  C   UNL A   1      31.236  29.277  25.025  1.00  0.00     0.020 A 
ATOM     15  C   UNL A   1      29.932  30.905  23.784  1.00  0.00     0.014 A 
ATOM     16  C   UNL A   1      31.369  30.206  26.067  1.00  0.00     0.011 A 
ATOM     17  C   UNL A   1      30.046  31.813  24.833  1.00  0.00     0.001 A 
ATOM     18  C   UNL A   1      30.772  31.467  25.970  1.00  0.00     0.001 A 
BRANCH   9  19
ATOM     19  C   UNL A   1      31.388  26.668  21.683  1.00  0.00     0.248 C 
BRANCH  19  20
ATOM     20  C   UNL A   1      32.185  25.396  21.972  1.00  0.00     0.246 C 
ATOM     21  O   UNL A   1      33.371  25.309  21.661  1.00  0.00    -0.273 OA
ATOM     22  N   UNL A   1      31.416  24.377  22.498  1.00  0.00    -0.324 N 
ATOM     23  H   UNL A   1      30.452  24.403  22.300  1.00  0.00     0.169 HD
BRANCH  22  24
ATOM     24  C   UNL A   1      31.869  23.306  23.286  1.00  0.00     0.042 A 
ATOM     25  C   UNL A   1      31.814  21.965  22.887  1.00  0.00     0.027 A 
ATOM     26  C   UNL A   1      32.603  23.660  24.419  1.00  0.00     0.039 A 
ATOM     27  C   UNL A   1      32.621  21.008  23.511  1.00  0.00     0.015 A 
ATOM     28  C   UNL A   1      33.450  22.720  24.998  1.00  0.00     0.036 A 
ATOM     29  C   UNL A   1      33.504  21.416  24.511  1.00  0.00     0.034 A 
ATOM     30  C   UNL A   1      34.469  23.188  25.949  1.00  0.00     0.194 C 
ATOM     31  C   UNL A   1      34.650  20.558  24.878  1.00  0.00     0.194 C 
ATOM     32  O   UNL A   1      34.264  24.139  26.690  1.00  0.00    -0.289 OA
ATOM     33  C   UNL A   1      35.789  22.545  25.846  1.00  0.00     0.034 A 
ATOM     34  C   UNL A   1      35.882  21.260  25.307  1.00  0.00     0.034 A 
ATOM     35  O   UNL A   1      34.627  19.348  24.707  1.00  0.00    -0.289 OA
ATOM     36  C   UNL A   1      36.937  23.282  26.140  1.00  0.00     0.013 A 
ATOM     37  C   UNL A   1      37.135  20.704  25.047  1.00  0.00     0.013 A 
ATOM     38  C   UNL A   1      38.186  22.740  25.846  1.00  0.00     0.001 A 
ATOM     39  C   UNL A   1      38.285  21.457  25.299  1.00  0.00     0.001 A 
ENDBRANCH  22  24
ENDBRANCH  19  20
ENDBRANCH   9  19
ENDBRANCH   5   8
ENDBRANCH   3   4
ENDBRANCH   2   3
ENDBRANCH   1   2
BRANCH   1  40
ATOM     40  C   UNL A   1      34.827  32.183  28.013  1.00  0.00     0.002 C 
BRANCH  40  41
ATOM     41  C   UNL A   1      33.696  33.211  28.010  1.00  0.00     0.021 C 
BRANCH  41  42
ATOM     42  C   UNL A   1      34.062  34.636  28.406  1.00  0.00     0.116 C 
BRANCH  42  43
ATOM     43  N   UNL A   1      33.096  35.279  29.279  1.00  0.00    -0.352 N 
ATOM     44  C   UNL A   1      33.076  35.319  30.656  1.00  0.00     0.251 C 
ATOM     45  H   UNL A   1      32.358  35.748  28.827  1.00  0.00     0.163 HD
ATOM     46  O   UNL A   1      32.150  35.862  31.250  1.00  0.00    -0.269 OA
BRANCH  44  47
ATOM     47  C   UNL A   1      34.154  34.655  31.426  1.00  0.00     0.039 A 
ATOM     48  C   UNL A   1      35.302  35.351  31.812  1.00  0.00     0.014 A 
ATOM     49  C   UNL A   1      34.027  33.293  31.722  1.00  0.00     0.014 A 
ATOM     50  C   UNL A   1      36.386  34.655  32.339  1.00  0.00     0.010 A 
ATOM     51  C   UNL A   1      35.095  32.607  32.310  1.00  0.00     0.010 A 
ATOM     52  C   UNL A   1      36.304  33.272  32.571  1.00  0.00    -0.014 A 
BRANCH  52  53
ATOM     53  C   UNL A   1      37.504  32.533  33.040  1.00  0.00     0.031 A 
ATOM     54  C   UNL A   1      38.162  31.510  32.153  1.00  0.00     0.074 A 
ATOM     55  C   UNL A   1      38.046  32.829  34.235  1.00  0.00     0.049 A 
ATOM     56  N   UNL A   1      39.232  30.787  32.376  1.00  0.00    -0.248 NA
ATOM     57  C   UNL A   1      37.541  31.266  30.841  1.00  0.00     0.031 C 
ATOM     58  C   UNL A   1      37.516  33.815  35.178  1.00  0.00     0.029 A 
ATOM     59  N   UNL A   1      39.179  32.354  34.847  1.00  0.00    -0.354 N 
ATOM     60  C   UNL A   1      39.401  29.996  31.248  1.00  0.00     0.074 A 
ATOM     61  C   UNL A   1      38.314  30.309  30.345  1.00  0.00     0.031 C 
ATOM     62  C   UNL A   1      38.351  33.909  36.225  1.00  0.00     0.029 A 
ATOM     63  C   UNL A   1      39.449  32.964  36.046  1.00  0.00     0.049 A 
ATOM     64  H   UNL A   1      39.744  31.645  34.463  1.00  0.00     0.167 HD
ATOM     65  C   UNL A   1      40.379  29.097  30.982  1.00  0.00     0.037 A 
ATOM     66  C   UNL A   1      40.468  32.782  36.906  1.00  0.00     0.037 A 
ATOM     67  C   UNL A   1      41.479  28.801  31.861  1.00  0.00     0.049 A 
ATOM     68  C   UNL A   1      41.526  31.761  36.599  1.00  0.00     0.074 A 
ATOM     69  C   UNL A   1      42.523  27.913  31.669  1.00  0.00     0.029 A 
ATOM     70  N   UNL A   1      41.682  29.396  33.096  1.00  0.00    -0.354 N 
ATOM     71  N   UNL A   1      41.660  31.005  35.539  1.00  0.00    -0.248 NA
ATOM     72  C   UNL A   1      42.566  31.558  37.619  1.00  0.00     0.031 C 
ATOM     73  C   UNL A   1      43.347  27.953  32.799  1.00  0.00     0.029 A 
ATOM     74  C   UNL A   1      42.829  28.885  33.683  1.00  0.00     0.049 A 
ATOM     75  H   UNL A   1      41.099  30.080  33.497  1.00  0.00     0.167 HD
ATOM     76  C   UNL A   1      42.793  30.236  35.760  1.00  0.00     0.074 A 
ATOM     77  C   UNL A   1      43.325  30.633  37.047  1.00  0.00     0.031 C 
ATOM     78  C   UNL A   1      43.337  29.280  34.969  1.00  0.00     0.037 A 
BRANCH  65  79
ATOM     79  C   UNL A   1      40.306  28.357  29.681  1.00  0.00     0.064 A 
ATOM     80  C   UNL A   1      40.990  28.810  28.544  1.00  0.00     0.173 A 
ATOM     81  C   UNL A   1      39.596  27.152  29.588  1.00  0.00     0.173 A 
ATOM     82  F   UNL A   1      41.673  29.964  28.583  1.00  0.00    -0.203 F 
ATOM     83  C   UNL A   1      40.957  28.086  27.355  1.00  0.00     0.198 A 
ATOM     84  C   UNL A   1      39.579  26.422  28.403  1.00  0.00     0.198 A 
ATOM     85  F   UNL A   1      38.930  26.676  30.652  1.00  0.00    -0.203 F 
ATOM     86  F   UNL A   1      41.600  28.547  26.274  1.00  0.00    -0.200 F 
ATOM     87  C   UNL A   1      40.257  26.889  27.288  1.00  0.00     0.200 A 
ATOM     88  F   UNL A   1      38.910  25.262  28.341  1.00  0.00    -0.200 F 
ATOM     89  F   UNL A   1      40.237  26.187  26.146  1.00  0.00    -0.200 F 
ENDBRANCH  65  79
BRANCH  66  90
ATOM     90  C   UNL A   1      40.539  33.603  38.139  1.00  0.00     0.064 A 
ATOM     91  C   UNL A   1      41.336  34.755  38.184  1.00  0.00     0.173 A 
ATOM     92  C   UNL A   1      39.794  33.272  39.278  1.00  0.00     0.173 A 
ATOM     93  F   UNL A   1      42.081  35.096  37.122  1.00  0.00    -0.203 F 
ATOM     94  C   UNL A   1      41.386  35.547  39.329  1.00  0.00     0.198 A 
ATOM     95  C   UNL A   1      39.830  34.076  40.416  1.00  0.00     0.198 A 
ATOM     96  F   UNL A   1      39.018  32.180  39.278  1.00  0.00    -0.203 F 
ATOM     97  F   UNL A   1      42.171  36.632  39.357  1.00  0.00    -0.200 F 
ATOM     98  C   UNL A   1      40.627  35.211  40.441  1.00  0.00     0.200 A 
ATOM     99  F   UNL A   1      39.089  33.753  41.484  1.00  0.00    -0.200 F 
ATOM    100  F   UNL A   1      40.666  35.979  41.538  1.00  0.00    -0.200 F 
ENDBRANCH  66  90
BRANCH  78 101
ATOM    101  C   UNL A   1      44.563  28.590  35.477  1.00  0.00     0.064 A 
ATOM    102  C   UNL A   1      44.467  27.444  36.280  1.00  0.00     0.173 A 
ATOM    103  C   UNL A   1      45.841  29.042  35.119  1.00  0.00     0.173 A 
ATOM    104  F   UNL A   1      43.265  26.984  36.658  1.00  0.00    -0.203 F 
ATOM    105  C   UNL A   1      45.610  26.782  36.717  1.00  0.00     0.198 A 
ATOM    106  C   UNL A   1      46.982  28.368  35.545  1.00  0.00     0.198 A 
ATOM    107  F   UNL A   1      45.981  30.132  34.351  1.00  0.00    -0.203 F 
ATOM    108  F   UNL A   1      45.498  25.704  37.506  1.00  0.00    -0.200 F 
ATOM    109  C   UNL A   1      46.866  27.241  36.344  1.00  0.00     0.200 A 
ATOM    110  F   UNL A   1      48.194  28.808  35.181  1.00  0.00    -0.200 F 
ATOM    111  F   UNL A   1      47.965  26.598  36.763  1.00  0.00    -0.200 F 
ENDBRANCH  78 101
ENDBRANCH  52  53
ENDBRANCH  44  47
ENDBRANCH  42  43
ENDBRANCH  41  42
ENDBRANCH  40  41
ENDBRANCH   1  40
TORSDOF 16
ENDMDL
MODEL 3
REMARK VINA RESULT:     -13.2      4.257      9.785
REMARK SMILES O=C(Cn1nc(C(=O)NCCCCCCNC(=O)c2ccc(-c3c4nc(c(-c5c(F)c(F)c(F)c(F)c5F)c5ccc([nH]5)c(-c5c(F)c(F)c(F)c(F)c5F)c5nc(c(-c6c(F)c(F)c(F)c(F)c6F)c6ccc3[nH]6)C=C5)C=C4)cc2)c2ccccc2c1=O)Nc1ccc2c(c1)C(=O)c1ccccc1C2=O
REMARK SMILES IDX 12 1 11 2 10 3 9 4 7 5 8 6 6 8 4 9 5 10 88 11 87 12 89 13
REMARK SMILES IDX 82 14 86 15 83 16 85 17 84 18 3 19 2 20 1 21 90 22 91 24
REMARK SMILES IDX 92 25 96 26 93 27 95 28 94 29 97 30 105 31 98 32 99 33
REMARK SMILES IDX 104 34 106 35 100 36 103 37 101 38 102 39 13 40 14 41 15 42
REMARK SMILES IDX 16 43 17 44 18 46 19 47 20 48 81 49 21 50 80 51 22 52 23 53
REMARK SMILES IDX 24 54 74 55 25 56 79 57 73 58 75 59 26 60 78 61 72 62 71 63
REMARK SMILES IDX 27 65 59 66 39 67 58 68 40 69 43 70 57 71 76 72 41 73 42 74
REMARK SMILES IDX 56 76 77 77 44 78 28 79 29 80 37 81 30 82 31 83 35 84 38 85
REMARK SMILES IDX 32 86 33 87 36 88 34 89 60 90 61 91 69 92 62 93 63 94 67 95
REMARK SMILES IDX 70 96 64 97 65 98 68 99 66 100 45 101 46 102 54 103 47 104
REMARK SMILES IDX 48 105 52 106 55 107 49 108 50 109 53 110 51 111
REMARK H PARENT 9 7 90 23 16 45 75 64 43 75
REMARK Flexibility Score: inf
ROOT
ATOM      1  C   UNL A   1      46.009  25.397  30.270  1.00  0.00     0.002 C 
ENDROOT
BRANCH   1   2
ATOM      2  C   UNL A   1      44.879  24.981  29.325  1.00  0.00     0.021 C 
BRANCH   2   3
ATOM      3  C   UNL A   1      45.206  23.988  28.214  1.00  0.00     0.116 C 
BRANCH   3   4
ATOM      4  N   UNL A   1      45.018  24.516  26.878  1.00  0.00    -0.351 N 
ATOM      5  C   UNL A   1      44.148  24.093  25.898  1.00  0.00     0.272 C 
ATOM      6  O   UNL A   1      43.901  24.836  24.954  1.00  0.00    -0.267 OA
ATOM      7  H   UNL A   1      45.590  25.281  26.638  1.00  0.00     0.163 HD
BRANCH   5   8
ATOM      8  C   UNL A   1      43.480  22.711  25.964  1.00  0.00     0.156 A 
ATOM      9  N   UNL A   1      41.569  21.446  26.325  1.00  0.00    -0.219 N 
ATOM     10  N   UNL A   1      42.220  22.659  26.287  1.00  0.00    -0.163 NA
ATOM     11  C   UNL A   1      42.131  20.257  25.881  1.00  0.00     0.275 A 
ATOM     12  C   UNL A   1      43.561  20.301  25.525  1.00  0.00     0.051 A 
ATOM     13  O   UNL A   1      41.515  19.199  25.805  1.00  0.00    -0.267 OA
ATOM     14  C   UNL A   1      44.263  21.501  25.620  1.00  0.00     0.020 A 
ATOM     15  C   UNL A   1      44.218  19.120  25.148  1.00  0.00     0.014 A 
ATOM     16  C   UNL A   1      45.644  21.504  25.377  1.00  0.00     0.011 A 
ATOM     17  C   UNL A   1      45.585  19.136  24.883  1.00  0.00     0.001 A 
ATOM     18  C   UNL A   1      46.300  20.325  25.008  1.00  0.00     0.001 A 
BRANCH   9  19
ATOM     19  C   UNL A   1      40.235  21.437  26.951  1.00  0.00     0.248 C 
BRANCH  19  20
ATOM     20  C   UNL A   1      39.077  21.392  25.954  1.00  0.00     0.246 C 
ATOM     21  O   UNL A   1      38.786  20.351  25.368  1.00  0.00    -0.273 OA
ATOM     22  N   UNL A   1      38.501  22.626  25.729  1.00  0.00    -0.324 N 
ATOM     23  H   UNL A   1      39.065  23.415  25.899  1.00  0.00     0.169 HD
BRANCH  22  24
ATOM     24  C   UNL A   1      37.192  22.872  25.282  1.00  0.00     0.042 A 
ATOM     25  C   UNL A   1      36.887  23.466  24.051  1.00  0.00     0.027 A 
ATOM     26  C   UNL A   1      36.177  22.279  26.035  1.00  0.00     0.039 A 
ATOM     27  C   UNL A   1      35.611  23.321  23.494  1.00  0.00     0.015 A 
ATOM     28  C   UNL A   1      34.928  22.085  25.451  1.00  0.00     0.036 A 
ATOM     29  C   UNL A   1      34.663  22.550  24.166  1.00  0.00     0.034 A 
ATOM     30  C   UNL A   1      33.989  21.158  26.102  1.00  0.00     0.194 C 
ATOM     31  C   UNL A   1      33.493  22.018  23.435  1.00  0.00     0.194 C 
ATOM     32  O   UNL A   1      33.954  21.033  27.318  1.00  0.00    -0.289 OA
ATOM     33  C   UNL A   1      33.214  20.290  25.201  1.00  0.00     0.034 A 
ATOM     34  C   UNL A   1      32.981  20.704  23.888  1.00  0.00     0.034 A 
ATOM     35  O   UNL A   1      33.059  22.566  22.432  1.00  0.00    -0.289 OA
ATOM     36  C   UNL A   1      32.858  19.007  25.622  1.00  0.00     0.013 A 
ATOM     37  C   UNL A   1      32.396  19.825  22.976  1.00  0.00     0.013 A 
ATOM     38  C   UNL A   1      32.308  18.119  24.700  1.00  0.00     0.001 A 
ATOM     39  C   UNL A   1      32.080  18.525  23.381  1.00  0.00     0.001 A 
ENDBRANCH  22  24
ENDBRANCH  19  20
ENDBRANCH   9  19
ENDBRANCH   5   8
ENDBRANCH   3   4
ENDBRANCH   2   3
ENDBRANCH   1   2
BRANCH   1  40
ATOM     40  C   UNL A   1      47.415  25.549  29.684  1.00  0.00     0.002 C 
BRANCH  40  41
ATOM     41  C   UNL A   1      48.516  26.040  30.623  1.00  0.00     0.021 C 
BRANCH  41  42
ATOM     42  C   UNL A   1      48.505  25.489  32.042  1.00  0.00     0.116 C 
BRANCH  42  43
ATOM     43  N   UNL A   1      49.476  26.105  32.930  1.00  0.00    -0.352 N 
ATOM     44  C   UNL A   1      49.349  27.258  33.673  1.00  0.00     0.251 C 
ATOM     45  H   UNL A   1      50.338  25.637  33.011  1.00  0.00     0.163 HD
ATOM     46  O   UNL A   1      50.292  27.679  34.335  1.00  0.00    -0.269 OA
BRANCH  44  47
ATOM     47  C   UNL A   1      48.081  28.025  33.629  1.00  0.00     0.039 A 
ATOM     48  C   UNL A   1      46.999  27.680  34.443  1.00  0.00     0.014 A 
ATOM     49  C   UNL A   1      47.964  29.079  32.717  1.00  0.00     0.014 A 
ATOM     50  C   UNL A   1      45.758  28.274  34.228  1.00  0.00     0.010 A 
ATOM     51  C   UNL A   1      46.732  29.717  32.546  1.00  0.00     0.010 A 
ATOM     52  C   UNL A   1      45.605  29.281  33.261  1.00  0.00    -0.014 A 
BRANCH  52  53
ATOM     53  C   UNL A   1      44.254  29.829  32.979  1.00  0.00     0.031 A 
ATOM     54  C   UNL A   1      43.778  31.076  33.676  1.00  0.00     0.074 A 
ATOM     55  C   UNL A   1      43.479  29.248  32.045  1.00  0.00     0.049 A 
ATOM     56  N   UNL A   1      42.644  31.718  33.539  1.00  0.00    -0.248 NA
ATOM     57  C   UNL A   1      44.694  31.683  34.654  1.00  0.00     0.031 C 
ATOM     58  C   UNL A   1      43.833  28.049  31.285  1.00  0.00     0.029 A 
ATOM     59  N   UNL A   1      42.247  29.604  31.555  1.00  0.00    -0.354 N 
ATOM     60  C   UNL A   1      42.704  32.789  34.421  1.00  0.00     0.074 A 
ATOM     61  C   UNL A   1      43.977  32.704  35.105  1.00  0.00     0.031 C 
ATOM     62  C   UNL A   1      42.866  27.800  30.388  1.00  0.00     0.029 A 
ATOM     63  C   UNL A   1      41.808  28.795  30.538  1.00  0.00     0.049 A 
ATOM     64  H   UNL A   1      41.729  30.368  31.899  1.00  0.00     0.167 HD
ATOM     65  C   UNL A   1      41.787  33.764  34.634  1.00  0.00     0.037 A 
ATOM     66  C   UNL A   1      40.679  28.848  29.808  1.00  0.00     0.037 A 
ATOM     67  C   UNL A   1      40.533  33.873  33.937  1.00  0.00     0.049 A 
ATOM     68  C   UNL A   1      39.667  29.923  30.081  1.00  0.00     0.074 A 
ATOM     69  C   UNL A   1      39.547  34.834  34.079  1.00  0.00     0.029 A 
ATOM     70  N   UNL A   1      40.098  32.996  32.957  1.00  0.00    -0.354 N 
ATOM     71  N   UNL A   1      39.728  30.916  30.933  1.00  0.00    -0.248 NA
ATOM     72  C   UNL A   1      38.422  29.875  29.301  1.00  0.00     0.031 C 
ATOM     73  C   UNL A   1      38.503  34.524  33.201  1.00  0.00     0.029 A 
ATOM     74  C   UNL A   1      38.851  33.385  32.494  1.00  0.00     0.049 A 
ATOM     75  H   UNL A   1      40.599  32.211  32.637  1.00  0.00     0.167 HD
ATOM     76  C   UNL A   1      38.534  31.609  30.796  1.00  0.00     0.074 A 
ATOM     77  C   UNL A   1      37.775  30.938  29.761  1.00  0.00     0.031 C 
ATOM     78  C   UNL A   1      38.104  32.699  31.474  1.00  0.00     0.037 A 
BRANCH  65  79
ATOM     79  C   UNL A   1      42.102  34.798  35.671  1.00  0.00     0.064 A 
ATOM     80  C   UNL A   1      42.829  35.954  35.353  1.00  0.00     0.173 A 
ATOM     81  C   UNL A   1      41.620  34.660  36.980  1.00  0.00     0.173 A 
ATOM     82  F   UNL A   1      43.319  36.123  34.116  1.00  0.00    -0.203 F 
ATOM     83  C   UNL A   1      43.070  36.933  36.313  1.00  0.00     0.198 A 
ATOM     84  C   UNL A   1      41.848  35.648  37.933  1.00  0.00     0.198 A 
ATOM     85  F   UNL A   1      40.915  33.573  37.330  1.00  0.00    -0.203 F 
ATOM     86  F   UNL A   1      43.785  38.020  35.995  1.00  0.00    -0.200 F 
ATOM     87  C   UNL A   1      42.574  36.782  37.601  1.00  0.00     0.200 A 
ATOM     88  F   UNL A   1      41.362  35.507  39.175  1.00  0.00    -0.200 F 
ATOM     89  F   UNL A   1      42.796  37.731  38.521  1.00  0.00    -0.200 F 
ENDBRANCH  65  79
BRANCH  66  90
ATOM     90  C   UNL A   1      40.457  27.850  28.733  1.00  0.00     0.064 A 
ATOM     91  C   UNL A   1      41.055  28.011  27.476  1.00  0.00     0.173 A 
ATOM     92  C   UNL A   1      39.672  26.710  28.949  1.00  0.00     0.173 A 
ATOM     93  F   UNL A   1      41.796  29.099  27.221  1.00  0.00    -0.203 F 
ATOM     94  C   UNL A   1      40.873  27.064  26.470  1.00  0.00     0.198 A 
ATOM     95  C   UNL A   1      39.508  25.754  27.949  1.00  0.00     0.198 A 
ATOM     96  F   UNL A   1      39.082  26.516  30.137  1.00  0.00    -0.203 F 
ATOM     97  F   UNL A   1      41.437  27.249  25.270  1.00  0.00    -0.200 F 
ATOM     98  C   UNL A   1      40.106  25.933  26.710  1.00  0.00     0.200 A 
ATOM     99  F   UNL A   1      38.774  24.659  28.186  1.00  0.00    -0.200 F 
ATOM    100  F   UNL A   1      39.942  25.017  25.747  1.00  0.00    -0.200 F 
ENDBRANCH  66  90
BRANCH  78 101
ATOM    101  C   UNL A   1      36.747  33.228  31.128  1.00  0.00     0.064 A 
ATOM    102  C   UNL A   1      35.675  33.107  32.024  1.00  0.00     0.173 A 
ATOM    103  C   UNL A   1      36.528  33.904  29.919  1.00  0.00     0.173 A 
ATOM    104  F   UNL A   1      35.836  32.457  33.186  1.00  0.00    -0.203 F 
ATOM    105  C   UNL A   1      34.426  33.636  31.715  1.00  0.00     0.198 A 
ATOM    106  C   UNL A   1      35.281  34.445  29.622  1.00  0.00     0.198 A 
ATOM    107  F   UNL A   1      37.525  34.045  29.034  1.00  0.00    -0.203 F 
ATOM    108  F   UNL A   1      33.406  33.488  32.572  1.00  0.00    -0.200 F 
ATOM    109  C   UNL A   1      34.231  34.309  30.517  1.00  0.00     0.200 A 
ATOM    110  F   UNL A   1      35.094  35.099  28.467  1.00  0.00    -0.200 F 
ATOM    111  F   UNL A   1      33.028  34.822  30.224  1.00  0.00    -0.200 F 
ENDBRANCH  78 101
ENDBRANCH  52  53
ENDBRANCH  44  47
ENDBRANCH  42  43
ENDBRANCH  41  42
ENDBRANCH  40  41
ENDBRANCH   1  40
TORSDOF 16
ENDMDL
