MODEL 1
REMARK VINA RESULT:     -12.0      0.000      0.000
REMARK SMILES COc1cc(OC(F)(F)F)cc2c1O[C@@H](C(F)(F)F)C(C(=O)NCCCCCCNC(=O)c1ccc(-c3c4nc(c(-c5c(F)c(F)c(F)c(F)c5F)c5ccc([nH]5)c(-c5c(F)c(F)c(F)c(F)c5F)c5nc(c(-c6c(F)c(F)c(F)c(F)c6F)c6ccc3[nH]6)C=C5)C=C4)cc1)=C2
REMARK SMILES IDX 26 1 25 2 24 3 23 4 21 5 22 6 20 8 3 9 4 10 13 11 5 12 12 13
REMARK SMILES IDX 14 14 11 15 96 16 15 17 2 18 1 19 6 20 7 21 8 22 9 23 10 24
REMARK SMILES IDX 16 25 17 26 18 27 19 28 27 29 28 30 29 31 30 32 31 33 32 35
REMARK SMILES IDX 33 36 34 37 95 38 35 39 94 40 36 41 37 42 38 43 88 44 39 45
REMARK SMILES IDX 93 46 87 47 89 48 40 49 92 50 86 51 85 52 41 54 73 55 53 56
REMARK SMILES IDX 72 57 54 58 57 59 71 60 90 61 55 62 56 63 70 65 91 66 58 67
REMARK SMILES IDX 42 68 43 69 51 70 44 71 45 72 49 73 52 74 46 75 47 76 50 77
REMARK SMILES IDX 48 78 74 79 75 80 83 81 76 82 77 83 81 84 84 85 78 86 79 87
REMARK SMILES IDX 82 88 80 89 59 90 60 91 68 92 61 93 62 94 66 95 69 96 63 97
REMARK SMILES IDX 64 98 67 99 65 100
REMARK H PARENT 23 7 30 34 89 53 57 64
REMARK Flexibility Score: inf
ROOT
ATOM      1  C   UNL A   1      39.669  21.661  26.181  1.00  0.00     0.002 C 
ENDROOT
BRANCH   1   2
ATOM      2  C   UNL A   1      39.557  23.145  26.558  1.00  0.00     0.021 C 
BRANCH   2   3
ATOM      3  C   UNL A   1      38.162  23.727  26.300  1.00  0.00     0.116 C 
BRANCH   3   4
ATOM      4  N   UNL A   1      37.777  23.457  24.926  1.00  0.00    -0.352 N 
ATOM      5  C   UNL A   1      36.571  23.332  24.316  1.00  0.00     0.251 C 
ATOM      6  O   UNL A   1      36.542  22.847  23.188  1.00  0.00    -0.270 OA
ATOM      7  H   UNL A   1      38.542  23.342  24.317  1.00  0.00     0.163 HD
BRANCH   5   8
ATOM      8  C   UNL A   1      35.311  23.840  24.917  1.00  0.00     0.067 C 
ATOM      9  C   UNL A   1      31.524  24.826  26.460  1.00  0.00     0.165 A 
ATOM     10  C   UNL A   1      30.916  26.025  26.066  1.00  0.00     0.097 A 
ATOM     11  C   UNL A   1      32.801  24.497  25.986  1.00  0.00     0.170 A 
ATOM     12  C   UNL A   1      31.586  26.919  25.234  1.00  0.00     0.134 A 
ATOM     13  C   UNL A   1      33.486  25.397  25.168  1.00  0.00     0.025 A 
ATOM     14  O   UNL A   1      33.292  23.250  26.241  1.00  0.00    -0.471 OA
ATOM     15  C   UNL A   1      32.878  26.604  24.801  1.00  0.00     0.059 A 
ATOM     16  C   UNL A   1      34.778  25.029  24.602  1.00  0.00     0.026 C 
ATOM     17  C   UNL A   1      34.711  23.005  26.042  1.00  0.00     0.314 C 
BRANCH   9  18
ATOM     18  O   UNL A   1      30.740  24.026  27.252  1.00  0.00    -0.493 OA
ATOM     19  C   UNL A   1      30.090  22.958  26.566  1.00  0.00     0.278 C 
ENDBRANCH   9  18
BRANCH  12  20
ATOM     20  O   UNL A   1      31.104  28.102  24.753  1.00  0.00    -0.406 OA
BRANCH  20  21
ATOM     21  C   UNL A   1      31.572  29.301  25.350  1.00  0.00     0.573 C 
ATOM     22  F   UNL A   1      32.848  29.559  24.996  1.00  0.00    -0.132 F 
ATOM     23  F   UNL A   1      30.785  30.345  25.014  1.00  0.00    -0.132 F 
ATOM     24  F   UNL A   1      31.530  29.157  26.694  1.00  0.00    -0.132 F 
ENDBRANCH  20  21
ENDBRANCH  12  20
BRANCH  17  25
ATOM     25  C   UNL A   1      34.891  21.470  25.959  1.00  0.00     0.429 C 
ATOM     26  F   UNL A   1      34.129  20.803  26.854  1.00  0.00    -0.167 F 
ATOM     27  F   UNL A   1      34.498  21.008  24.740  1.00  0.00    -0.167 F 
ATOM     28  F   UNL A   1      36.178  21.090  26.124  1.00  0.00    -0.167 F 
ENDBRANCH  17  25
ENDBRANCH   5   8
ENDBRANCH   3   4
ENDBRANCH   2   3
ENDBRANCH   1   2
BRANCH   1  29
ATOM     29  C   UNL A   1      40.904  20.947  26.745  1.00  0.00     0.002 C 
BRANCH  29  30
ATOM     30  C   UNL A   1      41.203  19.585  26.115  1.00  0.00     0.021 C 
BRANCH  30  31
ATOM     31  C   UNL A   1      42.533  18.974  26.546  1.00  0.00     0.116 C 
BRANCH  31  32
ATOM     32  N   UNL A   1      43.386  18.689  25.404  1.00  0.00    -0.352 N 
ATOM     33  C   UNL A   1      44.099  19.556  24.615  1.00  0.00     0.251 C 
ATOM     34  H   UNL A   1      43.464  17.738  25.163  1.00  0.00     0.163 HD
ATOM     35  O   UNL A   1      44.585  19.173  23.557  1.00  0.00    -0.269 OA
BRANCH  33  36
ATOM     36  C   UNL A   1      44.274  20.961  25.039  1.00  0.00     0.039 A 
ATOM     37  C   UNL A   1      45.105  21.241  26.127  1.00  0.00     0.014 A 
ATOM     38  C   UNL A   1      43.598  21.996  24.387  1.00  0.00     0.014 A 
ATOM     39  C   UNL A   1      45.290  22.562  26.536  1.00  0.00     0.010 A 
ATOM     40  C   UNL A   1      43.836  23.318  24.752  1.00  0.00     0.010 A 
ATOM     41  C   UNL A   1      44.674  23.614  25.838  1.00  0.00    -0.014 A 
BRANCH  41  42
ATOM     42  C   UNL A   1      44.876  25.027  26.245  1.00  0.00     0.031 A 
ATOM     43  C   UNL A   1      46.234  25.660  26.115  1.00  0.00     0.074 A 
ATOM     44  C   UNL A   1      43.854  25.719  26.782  1.00  0.00     0.049 A 
ATOM     45  N   UNL A   1      46.628  26.858  26.469  1.00  0.00    -0.248 NA
ATOM     46  C   UNL A   1      47.300  24.828  25.534  1.00  0.00     0.031 C 
ATOM     47  C   UNL A   1      42.502  25.201  26.999  1.00  0.00     0.029 A 
ATOM     48  N   UNL A   1      43.795  27.006  27.253  1.00  0.00    -0.354 N 
ATOM     49  C   UNL A   1      47.984  26.912  26.177  1.00  0.00     0.074 A 
ATOM     50  C   UNL A   1      48.358  25.615  25.657  1.00  0.00     0.031 C 
ATOM     51  C   UNL A   1      41.741  26.168  27.537  1.00  0.00     0.029 A 
ATOM     52  C   UNL A   1      42.558  27.361  27.735  1.00  0.00     0.049 A 
ATOM     53  H   UNL A   1      44.565  27.619  27.247  1.00  0.00     0.167 HD
ATOM     54  C   UNL A   1      48.835  27.957  26.310  1.00  0.00     0.037 A 
ATOM     55  C   UNL A   1      42.134  28.519  28.277  1.00  0.00     0.037 A 
ATOM     56  C   UNL A   1      48.448  29.259  26.786  1.00  0.00     0.049 A 
ATOM     57  C   UNL A   1      43.102  29.666  28.404  1.00  0.00     0.074 A 
ATOM     58  C   UNL A   1      49.216  30.406  26.884  1.00  0.00     0.029 A 
ATOM     59  N   UNL A   1      47.180  29.587  27.244  1.00  0.00    -0.354 N 
ATOM     60  N   UNL A   1      44.362  29.730  28.052  1.00  0.00    -0.248 NA
ATOM     61  C   UNL A   1      42.582  30.905  28.999  1.00  0.00     0.031 C 
ATOM     62  C   UNL A   1      48.427  31.415  27.444  1.00  0.00     0.029 A 
ATOM     63  C   UNL A   1      47.152  30.912  27.647  1.00  0.00     0.049 A 
ATOM     64  H   UNL A   1      46.414  28.969  27.277  1.00  0.00     0.167 HD
ATOM     65  C   UNL A   1      44.775  31.023  28.344  1.00  0.00     0.074 A 
ATOM     66  C   UNL A   1      43.627  31.713  28.894  1.00  0.00     0.031 C 
ATOM     67  C   UNL A   1      45.994  31.589  28.172  1.00  0.00     0.037 A 
BRANCH  54  68
ATOM     68  C   UNL A   1      50.272  27.742  25.934  1.00  0.00     0.064 A 
ATOM     69  C   UNL A   1      51.254  27.466  26.897  1.00  0.00     0.173 A 
ATOM     70  C   UNL A   1      50.662  27.760  24.586  1.00  0.00     0.173 A 
ATOM     71  F   UNL A   1      50.935  27.448  28.200  1.00  0.00    -0.203 F 
ATOM     72  C   UNL A   1      52.577  27.242  26.527  1.00  0.00     0.198 A 
ATOM     73  C   UNL A   1      51.980  27.506  24.218  1.00  0.00     0.198 A 
ATOM     74  F   UNL A   1      49.762  28.014  23.624  1.00  0.00    -0.203 F 
ATOM     75  F   UNL A   1      53.507  27.025  27.468  1.00  0.00    -0.200 F 
ATOM     76  C   UNL A   1      52.939  27.254  25.189  1.00  0.00     0.200 A 
ATOM     77  F   UNL A   1      52.325  27.505  22.922  1.00  0.00    -0.200 F 
ATOM     78  F   UNL A   1      54.211  27.026  24.834  1.00  0.00    -0.200 F 
ENDBRANCH  54  68
BRANCH  55  79
ATOM     79  C   UNL A   1      40.721  28.670  28.711  1.00  0.00     0.064 A 
ATOM     80  C   UNL A   1      40.346  28.403  30.035  1.00  0.00     0.173 A 
ATOM     81  C   UNL A   1      39.715  29.057  27.814  1.00  0.00     0.173 A 
ATOM     82  F   UNL A   1      41.269  28.011  30.926  1.00  0.00    -0.203 F 
ATOM     83  C   UNL A   1      39.016  28.490  30.439  1.00  0.00     0.198 A 
ATOM     84  C   UNL A   1      38.389  29.171  28.226  1.00  0.00     0.198 A 
ATOM     85  F   UNL A   1      40.021  29.329  26.537  1.00  0.00    -0.203 F 
ATOM     86  F   UNL A   1      38.678  28.175  31.697  1.00  0.00    -0.200 F 
ATOM     87  C   UNL A   1      38.038  28.877  29.536  1.00  0.00     0.200 A 
ATOM     88  F   UNL A   1      37.449  29.559  27.353  1.00  0.00    -0.200 F 
ATOM     89  F   UNL A   1      36.758  28.956  29.923  1.00  0.00    -0.200 F 
ENDBRANCH  55  79
BRANCH  67  90
ATOM     90  C   UNL A   1      46.136  33.039  28.530  1.00  0.00     0.064 A 
ATOM     91  C   UNL A   1      45.887  34.058  27.599  1.00  0.00     0.173 A 
ATOM     92  C   UNL A   1      46.493  33.414  29.835  1.00  0.00     0.173 A 
ATOM     93  F   UNL A   1      45.558  33.752  26.335  1.00  0.00    -0.203 F 
ATOM     94  C   UNL A   1      46.019  35.398  27.954  1.00  0.00     0.198 A 
ATOM     95  C   UNL A   1      46.593  34.754  30.194  1.00  0.00     0.198 A 
ATOM     96  F   UNL A   1      46.733  32.477  30.764  1.00  0.00    -0.203 F 
ATOM     97  F   UNL A   1      45.828  36.354  27.034  1.00  0.00    -0.200 F 
ATOM     98  C   UNL A   1      46.364  35.745  29.252  1.00  0.00     0.200 A 
ATOM     99  F   UNL A   1      46.912  35.087  31.452  1.00  0.00    -0.200 F 
ATOM    100  F   UNL A   1      46.485  37.036  29.592  1.00  0.00    -0.200 F 
ENDBRANCH  67  90
ENDBRANCH  41  42
ENDBRANCH  33  36
ENDBRANCH  31  32
ENDBRANCH  30  31
ENDBRANCH  29  30
ENDBRANCH   1  29
TORSDOF 17
ENDMDL
MODEL 2
REMARK VINA RESULT:     -11.6      4.894      7.301
REMARK SMILES COc1cc(OC(F)(F)F)cc2c1O[C@@H](C(F)(F)F)C(C(=O)NCCCCCCNC(=O)c1ccc(-c3c4nc(c(-c5c(F)c(F)c(F)c(F)c5F)c5ccc([nH]5)c(-c5c(F)c(F)c(F)c(F)c5F)c5nc(c(-c6c(F)c(F)c(F)c(F)c6F)c6ccc3[nH]6)C=C5)C=C4)cc1)=C2
REMARK SMILES IDX 26 1 25 2 24 3 23 4 21 5 22 6 20 8 3 9 4 10 13 11 5 12 12 13
REMARK SMILES IDX 14 14 11 15 96 16 15 17 2 18 1 19 6 20 7 21 8 22 9 23 10 24
REMARK SMILES IDX 16 25 17 26 18 27 19 28 27 29 28 30 29 31 30 32 31 33 32 35
REMARK SMILES IDX 33 36 34 37 95 38 35 39 94 40 36 41 37 42 38 43 88 44 39 45
REMARK SMILES IDX 93 46 87 47 89 48 40 49 92 50 86 51 85 52 41 54 73 55 53 56
REMARK SMILES IDX 72 57 54 58 57 59 71 60 90 61 55 62 56 63 70 65 91 66 58 67
REMARK SMILES IDX 42 68 43 69 51 70 44 71 45 72 49 73 52 74 46 75 47 76 50 77
REMARK SMILES IDX 48 78 74 79 75 80 83 81 76 82 77 83 81 84 84 85 78 86 79 87
REMARK SMILES IDX 82 88 80 89 59 90 60 91 68 92 61 93 62 94 66 95 69 96 63 97
REMARK SMILES IDX 64 98 67 99 65 100
REMARK H PARENT 23 7 30 34 89 53 57 64
REMARK Flexibility Score: inf
ROOT
ATOM      1  C   UNL A   1      39.742  22.112  26.641  1.00  0.00     0.002 C 
ENDROOT
BRANCH   1   2
ATOM      2  C   UNL A   1      39.567  23.630  26.796  1.00  0.00     0.021 C 
BRANCH   2   3
ATOM      3  C   UNL A   1      38.151  24.109  26.454  1.00  0.00     0.116 C 
BRANCH   3   4
ATOM      4  N   UNL A   1      37.815  23.687  25.105  1.00  0.00    -0.352 N 
ATOM      5  C   UNL A   1      36.634  23.432  24.489  1.00  0.00     0.251 C 
ATOM      6  O   UNL A   1      36.660  22.841  23.412  1.00  0.00    -0.270 OA
ATOM      7  H   UNL A   1      38.600  23.561  24.524  1.00  0.00     0.163 HD
BRANCH   5   8
ATOM      8  C   UNL A   1      35.332  23.917  25.015  1.00  0.00     0.067 C 
ATOM      9  C   UNL A   1      31.458  24.814  26.386  1.00  0.00     0.165 A 
ATOM     10  C   UNL A   1      30.791  25.933  25.869  1.00  0.00     0.097 A 
ATOM     11  C   UNL A   1      32.763  24.519  25.969  1.00  0.00     0.170 A 
ATOM     12  C   UNL A   1      31.428  26.783  24.969  1.00  0.00     0.134 A 
ATOM     13  C   UNL A   1      33.415  25.378  25.083  1.00  0.00     0.025 A 
ATOM     14  O   UNL A   1      33.319  23.334  26.351  1.00  0.00    -0.471 OA
ATOM     15  C   UNL A   1      32.746  26.507  24.592  1.00  0.00     0.059 A 
ATOM     16  C   UNL A   1      34.738  25.038  24.579  1.00  0.00     0.026 C 
ATOM     17  C   UNL A   1      34.754  23.156  26.202  1.00  0.00     0.314 C 
BRANCH   9  18
ATOM     18  O   UNL A   1      30.702  24.046  27.235  1.00  0.00    -0.493 OA
ATOM     19  C   UNL A   1      30.052  22.936  26.619  1.00  0.00     0.278 C 
ENDBRANCH   9  18
BRANCH  12  20
ATOM     20  O   UNL A   1      30.891  27.885  24.369  1.00  0.00    -0.406 OA
BRANCH  20  21
ATOM     21  C   UNL A   1      30.026  27.684  23.262  1.00  0.00     0.573 C 
ATOM     22  F   UNL A   1      28.826  27.208  23.660  1.00  0.00    -0.132 F 
ATOM     23  F   UNL A   1      29.856  28.828  22.569  1.00  0.00    -0.132 F 
ATOM     24  F   UNL A   1      30.587  26.770  22.438  1.00  0.00    -0.132 F 
ENDBRANCH  20  21
ENDBRANCH  12  20
BRANCH  17  25
ATOM     25  C   UNL A   1      35.025  21.634  26.269  1.00  0.00     0.429 C 
ATOM     26  F   UNL A   1      36.328  21.341  26.471  1.00  0.00    -0.167 F 
ATOM     27  F   UNL A   1      34.365  21.077  27.322  1.00  0.00    -0.167 F 
ATOM     28  F   UNL A   1      34.606  20.985  25.160  1.00  0.00    -0.167 F 
ENDBRANCH  17  25
ENDBRANCH   5   8
ENDBRANCH   3   4
ENDBRANCH   2   3
ENDBRANCH   1   2
BRANCH   1  29
ATOM     29  C   UNL A   1      41.108  21.576  27.085  1.00  0.00     0.002 C 
BRANCH  29  30
ATOM     30  C   UNL A   1      42.186  21.584  26.000  1.00  0.00     0.021 C 
BRANCH  30  31
ATOM     31  C   UNL A   1      42.197  22.841  25.135  1.00  0.00     0.116 C 
BRANCH  31  32
ATOM     32  N   UNL A   1      43.551  23.247  24.797  1.00  0.00    -0.352 N 
ATOM     33  C   UNL A   1      44.263  24.338  25.227  1.00  0.00     0.251 C 
ATOM     34  H   UNL A   1      44.025  22.654  24.171  1.00  0.00     0.163 HD
ATOM     35  O   UNL A   1      45.308  24.655  24.670  1.00  0.00    -0.269 OA
BRANCH  33  36
ATOM     36  C   UNL A   1      43.762  25.142  26.363  1.00  0.00     0.039 A 
ATOM     37  C   UNL A   1      43.937  26.527  26.340  1.00  0.00     0.014 A 
ATOM     38  C   UNL A   1      43.152  24.528  27.460  1.00  0.00     0.014 A 
ATOM     39  C   UNL A   1      43.462  27.303  27.399  1.00  0.00     0.010 A 
ATOM     40  C   UNL A   1      42.620  25.308  28.484  1.00  0.00     0.010 A 
ATOM     41  C   UNL A   1      42.781  26.701  28.470  1.00  0.00    -0.014 A 
BRANCH  41  42
ATOM     42  C   UNL A   1      42.251  27.512  29.594  1.00  0.00     0.031 A 
ATOM     43  C   UNL A   1      42.917  27.455  30.942  1.00  0.00     0.074 A 
ATOM     44  C   UNL A   1      41.140  28.252  29.418  1.00  0.00     0.049 A 
ATOM     45  N   UNL A   1      42.572  28.038  32.063  1.00  0.00    -0.248 NA
ATOM     46  C   UNL A   1      44.115  26.607  31.053  1.00  0.00     0.031 C 
ATOM     47  C   UNL A   1      40.381  28.354  28.171  1.00  0.00     0.029 A 
ATOM     48  N   UNL A   1      40.450  29.052  30.293  1.00  0.00    -0.354 N 
ATOM     49  C   UNL A   1      43.493  27.611  33.010  1.00  0.00     0.074 A 
ATOM     50  C   UNL A   1      44.385  26.685  32.347  1.00  0.00     0.031 C 
ATOM     51  C   UNL A   1      39.346  29.190  28.353  1.00  0.00     0.029 A 
ATOM     52  C   UNL A   1      39.347  29.654  29.738  1.00  0.00     0.049 A 
ATOM     53  H   UNL A   1      40.719  29.184  31.231  1.00  0.00     0.167 HD
ATOM     54  C   UNL A   1      43.597  27.976  34.310  1.00  0.00     0.037 A 
ATOM     55  C   UNL A   1      38.440  30.484  30.286  1.00  0.00     0.037 A 
ATOM     56  C   UNL A   1      42.734  28.932  34.953  1.00  0.00     0.049 A 
ATOM     57  C   UNL A   1      38.587  30.878  31.732  1.00  0.00     0.074 A 
ATOM     58  C   UNL A   1      42.805  29.427  36.243  1.00  0.00     0.029 A 
ATOM     59  N   UNL A   1      41.640  29.537  34.352  1.00  0.00    -0.354 N 
ATOM     60  N   UNL A   1      39.507  30.529  32.597  1.00  0.00    -0.248 NA
ATOM     61  C   UNL A   1      37.570  31.790  32.275  1.00  0.00     0.031 C 
ATOM     62  C   UNL A   1      41.727  30.297  36.438  1.00  0.00     0.029 A 
ATOM     63  C   UNL A   1      41.015  30.383  35.252  1.00  0.00     0.049 A 
ATOM     64  H   UNL A   1      41.352  29.387  33.422  1.00  0.00     0.167 HD
ATOM     65  C   UNL A   1      39.204  31.206  33.771  1.00  0.00     0.074 A 
ATOM     66  C   UNL A   1      38.020  31.995  33.504  1.00  0.00     0.031 C 
ATOM     67  C   UNL A   1      39.849  31.179  34.962  1.00  0.00     0.037 A 
BRANCH  54  68
ATOM     68  C   UNL A   1      44.685  27.344  35.130  1.00  0.00     0.064 A 
ATOM     69  C   UNL A   1      45.947  27.941  35.267  1.00  0.00     0.173 A 
ATOM     70  C   UNL A   1      44.444  26.152  35.828  1.00  0.00     0.173 A 
ATOM     71  F   UNL A   1      46.231  29.076  34.611  1.00  0.00    -0.203 F 
ATOM     72  C   UNL A   1      46.934  27.354  36.054  1.00  0.00     0.198 A 
ATOM     73  C   UNL A   1      45.424  25.584  36.637  1.00  0.00     0.198 A 
ATOM     74  F   UNL A   1      43.252  25.542  35.736  1.00  0.00    -0.203 F 
ATOM     75  F   UNL A   1      48.147  27.919  36.135  1.00  0.00    -0.200 F 
ATOM     76  C   UNL A   1      46.671  26.182  36.745  1.00  0.00     0.200 A 
ATOM     77  F   UNL A   1      45.162  24.457  37.316  1.00  0.00    -0.200 F 
ATOM     78  F   UNL A   1      47.619  25.625  37.511  1.00  0.00    -0.200 F 
ENDBRANCH  54  68
BRANCH  55  79
ATOM     79  C   UNL A   1      37.329  31.030  29.463  1.00  0.00     0.064 A 
ATOM     80  C   UNL A   1      37.339  32.366  29.042  1.00  0.00     0.173 A 
ATOM     81  C   UNL A   1      36.226  30.241  29.104  1.00  0.00     0.173 A 
ATOM     82  F   UNL A   1      38.362  33.167  29.378  1.00  0.00    -0.203 F 
ATOM     83  C   UNL A   1      36.276  32.901  28.317  1.00  0.00     0.198 A 
ATOM     84  C   UNL A   1      35.178  30.769  28.354  1.00  0.00     0.198 A 
ATOM     85  F   UNL A   1      36.171  28.954  29.478  1.00  0.00    -0.203 F 
ATOM     86  F   UNL A   1      36.287  34.197  27.974  1.00  0.00    -0.200 F 
ATOM     87  C   UNL A   1      35.198  32.102  27.970  1.00  0.00     0.200 A 
ATOM     88  F   UNL A   1      34.144  29.989  28.009  1.00  0.00    -0.200 F 
ATOM     89  F   UNL A   1      34.175  32.617  27.276  1.00  0.00    -0.200 F 
ENDBRANCH  55  79
BRANCH  67  90
ATOM     90  C   UNL A   1      39.322  32.066  36.051  1.00  0.00     0.064 A 
ATOM     91  C   UNL A   1      39.811  33.367  36.245  1.00  0.00     0.173 A 
ATOM     92  C   UNL A   1      38.288  31.621  36.889  1.00  0.00     0.173 A 
ATOM     93  F   UNL A   1      40.809  33.834  35.481  1.00  0.00    -0.203 F 
ATOM     94  C   UNL A   1      39.303  34.176  37.258  1.00  0.00     0.198 A 
ATOM     95  C   UNL A   1      37.762  32.444  37.879  1.00  0.00     0.198 A 
ATOM     96  F   UNL A   1      37.780  30.388  36.737  1.00  0.00    -0.203 F 
ATOM     97  F   UNL A   1      39.821  35.396  37.459  1.00  0.00    -0.200 F 
ATOM     98  C   UNL A   1      38.275  33.718  38.068  1.00  0.00     0.200 A 
ATOM     99  F   UNL A   1      36.759  32.005  38.651  1.00  0.00    -0.200 F 
ATOM    100  F   UNL A   1      37.785  34.502  39.038  1.00  0.00    -0.200 F 
ENDBRANCH  67  90
ENDBRANCH  41  42
ENDBRANCH  33  36
ENDBRANCH  31  32
ENDBRANCH  30  31
ENDBRANCH  29  30
ENDBRANCH   1  29
TORSDOF 17
ENDMDL
MODEL 3
REMARK VINA RESULT:     -11.5      1.617      7.530
REMARK SMILES COc1cc(OC(F)(F)F)cc2c1O[C@@H](C(F)(F)F)C(C(=O)NCCCCCCNC(=O)c1ccc(-c3c4nc(c(-c5c(F)c(F)c(F)c(F)c5F)c5ccc([nH]5)c(-c5c(F)c(F)c(F)c(F)c5F)c5nc(c(-c6c(F)c(F)c(F)c(F)c6F)c6ccc3[nH]6)C=C5)C=C4)cc1)=C2
REMARK SMILES IDX 26 1 25 2 24 3 23 4 21 5 22 6 20 8 3 9 4 10 13 11 5 12 12 13
REMARK SMILES IDX 14 14 11 15 96 16 15 17 2 18 1 19 6 20 7 21 8 22 9 23 10 24
REMARK SMILES IDX 16 25 17 26 18 27 19 28 27 29 28 30 29 31 30 32 31 33 32 35
REMARK SMILES IDX 33 36 34 37 95 38 35 39 94 40 36 41 37 42 38 43 88 44 39 45
REMARK SMILES IDX 93 46 87 47 89 48 40 49 92 50 86 51 85 52 41 54 73 55 53 56
REMARK SMILES IDX 72 57 54 58 57 59 71 60 90 61 55 62 56 63 70 65 91 66 58 67
REMARK SMILES IDX 42 68 43 69 51 70 44 71 45 72 49 73 52 74 46 75 47 76 50 77
REMARK SMILES IDX 48 78 74 79 75 80 83 81 76 82 77 83 81 84 84 85 78 86 79 87
REMARK SMILES IDX 82 88 80 89 59 90 60 91 68 92 61 93 62 94 66 95 69 96 63 97
REMARK SMILES IDX 64 98 67 99 65 100
REMARK H PARENT 23 7 30 34 89 53 57 64
REMARK Flexibility Score: inf
ROOT
ATOM      1  C   UNL A   1      37.387  21.687  24.496  1.00  0.00     0.002 C 
ENDROOT
BRANCH   1   2
ATOM      2  C   UNL A   1      37.589  22.701  25.632  1.00  0.00     0.021 C 
BRANCH   2   3
ATOM      3  C   UNL A   1      36.303  23.448  26.006  1.00  0.00     0.116 C 
BRANCH   3   4
ATOM      4  N   UNL A   1      35.231  22.488  26.200  1.00  0.00    -0.352 N 
ATOM      5  C   UNL A   1      33.882  22.617  26.268  1.00  0.00     0.251 C 
ATOM      6  O   UNL A   1      33.231  21.667  26.697  1.00  0.00    -0.270 OA
ATOM      7  H   UNL A   1      35.545  21.560  26.302  1.00  0.00     0.163 HD
BRANCH   5   8
ATOM      8  C   UNL A   1      33.163  23.814  25.763  1.00  0.00     0.067 C 
ATOM      9  C   UNL A   1      31.454  27.187  23.920  1.00  0.00     0.165 A 
ATOM     10  C   UNL A   1      31.365  28.388  24.637  1.00  0.00     0.097 A 
ATOM     11  C   UNL A   1      31.987  26.042  24.528  1.00  0.00     0.170 A 
ATOM     12  C   UNL A   1      31.765  28.447  25.970  1.00  0.00     0.134 A 
ATOM     13  C   UNL A   1      32.371  26.090  25.869  1.00  0.00     0.025 A 
ATOM     14  O   UNL A   1      32.225  24.943  23.757  1.00  0.00    -0.471 OA
ATOM     15  C   UNL A   1      32.254  27.289  26.583  1.00  0.00     0.059 A 
ATOM     16  C   UNL A   1      33.002  24.931  26.487  1.00  0.00     0.026 C 
ATOM     17  C   UNL A   1      32.468  23.669  24.414  1.00  0.00     0.314 C 
BRANCH   9  18
ATOM     18  O   UNL A   1      31.057  27.279  22.609  1.00  0.00    -0.493 OA
ATOM     19  C   UNL A   1      30.173  28.361  22.327  1.00  0.00     0.278 C 
ENDBRANCH   9  18
BRANCH  12  20
ATOM     20  O   UNL A   1      31.759  29.549  26.774  1.00  0.00    -0.406 OA
BRANCH  20  21
ATOM     21  C   UNL A   1      32.993  30.210  27.005  1.00  0.00     0.573 C 
ATOM     22  F   UNL A   1      33.711  29.586  27.962  1.00  0.00    -0.132 F 
ATOM     23  F   UNL A   1      33.718  30.288  25.869  1.00  0.00    -0.132 F 
ATOM     24  F   UNL A   1      32.735  31.469  27.428  1.00  0.00    -0.132 F 
ENDBRANCH  20  21
ENDBRANCH  12  20
BRANCH  17  25
ATOM     25  C   UNL A   1      33.138  22.748  23.366  1.00  0.00     0.429 C 
ATOM     26  F   UNL A   1      34.445  23.032  23.177  1.00  0.00    -0.167 F 
ATOM     27  F   UNL A   1      33.111  21.452  23.783  1.00  0.00    -0.167 F 
ATOM     28  F   UNL A   1      32.512  22.786  22.169  1.00  0.00    -0.167 F 
ENDBRANCH  17  25
ENDBRANCH   5   8
ENDBRANCH   3   4
ENDBRANCH   2   3
ENDBRANCH   1   2
BRANCH   1  29
ATOM     29  C   UNL A   1      37.187  20.239  24.957  1.00  0.00     0.002 C 
BRANCH  29  30
ATOM     30  C   UNL A   1      38.452  19.380  24.947  1.00  0.00     0.021 C 
BRANCH  30  31
ATOM     31  C   UNL A   1      39.510  19.809  25.960  1.00  0.00     0.116 C 
BRANCH  31  32
ATOM     32  N   UNL A   1      40.627  18.880  25.994  1.00  0.00    -0.352 N 
ATOM     33  C   UNL A   1      41.973  19.143  26.040  1.00  0.00     0.251 C 
ATOM     34  H   UNL A   1      40.384  17.927  25.984  1.00  0.00     0.163 HD
ATOM     35  O   UNL A   1      42.786  18.249  25.835  1.00  0.00    -0.269 OA
BRANCH  33  36
ATOM     36  C   UNL A   1      42.445  20.514  26.330  1.00  0.00     0.039 A 
ATOM     37  C   UNL A   1      42.947  21.292  25.284  1.00  0.00     0.014 A 
ATOM     38  C   UNL A   1      42.422  21.018  27.633  1.00  0.00     0.014 A 
ATOM     39  C   UNL A   1      43.389  22.591  25.538  1.00  0.00     0.010 A 
ATOM     40  C   UNL A   1      42.800  22.337  27.873  1.00  0.00     0.010 A 
ATOM     41  C   UNL A   1      43.298  23.132  26.831  1.00  0.00    -0.014 A 
BRANCH  41  42
ATOM     42  C   UNL A   1      43.743  24.519  27.115  1.00  0.00     0.031 A 
ATOM     43  C   UNL A   1      42.755  25.539  27.610  1.00  0.00     0.074 A 
ATOM     44  C   UNL A   1      45.019  24.873  26.873  1.00  0.00     0.049 A 
ATOM     45  N   UNL A   1      42.932  26.813  27.859  1.00  0.00    -0.248 NA
ATOM     46  C   UNL A   1      41.376  25.073  27.831  1.00  0.00     0.031 C 
ATOM     47  C   UNL A   1      46.060  23.986  26.352  1.00  0.00     0.029 A 
ATOM     48  N   UNL A   1      45.658  26.078  27.026  1.00  0.00    -0.354 N 
ATOM     49  C   UNL A   1      41.689  27.300  28.240  1.00  0.00     0.074 A 
ATOM     50  C   UNL A   1      40.756  26.199  28.148  1.00  0.00     0.031 C 
ATOM     51  C   UNL A   1      47.212  24.668  26.252  1.00  0.00     0.029 A 
ATOM     52  C   UNL A   1      46.984  26.049  26.668  1.00  0.00     0.049 A 
ATOM     53  H   UNL A   1      45.209  26.888  27.360  1.00  0.00     0.167 HD
ATOM     54  C   UNL A   1      41.361  28.549  28.649  1.00  0.00     0.037 A 
ATOM     55  C   UNL A   1      47.908  27.028  26.673  1.00  0.00     0.037 A 
ATOM     56  C   UNL A   1      42.303  29.630  28.781  1.00  0.00     0.049 A 
ATOM     57  C   UNL A   1      47.516  28.404  27.142  1.00  0.00     0.074 A 
ATOM     58  C   UNL A   1      42.086  30.909  29.261  1.00  0.00     0.029 A 
ATOM     59  N   UNL A   1      43.643  29.556  28.429  1.00  0.00    -0.354 N 
ATOM     60  N   UNL A   1      46.356  28.833  27.573  1.00  0.00    -0.248 NA
ATOM     61  C   UNL A   1      48.568  29.431  27.130  1.00  0.00     0.031 C 
ATOM     62  C   UNL A   1      43.284  31.624  29.157  1.00  0.00     0.029 A 
ATOM     63  C   UNL A   1      44.259  30.774  28.661  1.00  0.00     0.049 A 
ATOM     64  H   UNL A   1      44.089  28.755  28.069  1.00  0.00     0.167 HD
ATOM     65  C   UNL A   1      46.546  30.164  27.921  1.00  0.00     0.074 A 
ATOM     66  C   UNL A   1      47.937  30.469  27.659  1.00  0.00     0.031 C 
ATOM     67  C   UNL A   1      45.651  31.054  28.415  1.00  0.00     0.037 A 
BRANCH  54  68
ATOM     68  C   UNL A   1      39.925  28.819  28.990  1.00  0.00     0.064 A 
ATOM     69  C   UNL A   1      39.011  29.275  28.028  1.00  0.00     0.173 A 
ATOM     70  C   UNL A   1      39.444  28.570  30.284  1.00  0.00     0.173 A 
ATOM     71  F   UNL A   1      39.422  29.540  26.779  1.00  0.00    -0.203 F 
ATOM     72  C   UNL A   1      37.676  29.494  28.356  1.00  0.00     0.198 A 
ATOM     73  C   UNL A   1      38.102  28.762  30.600  1.00  0.00     0.198 A 
ATOM     74  F   UNL A   1      40.275  28.128  31.241  1.00  0.00    -0.203 F 
ATOM     75  F   UNL A   1      36.830  29.972  27.432  1.00  0.00    -0.200 F 
ATOM     76  C   UNL A   1      37.220  29.230  29.638  1.00  0.00     0.200 A 
ATOM     77  F   UNL A   1      37.661  28.493  31.838  1.00  0.00    -0.200 F 
ATOM     78  F   UNL A   1      35.932  29.431  29.948  1.00  0.00    -0.200 F 
ENDBRANCH  54  68
BRANCH  55  79
ATOM     79  C   UNL A   1      49.305  26.742  26.253  1.00  0.00     0.064 A 
ATOM     80  C   UNL A   1      49.714  26.958  24.930  1.00  0.00     0.173 A 
ATOM     81  C   UNL A   1      50.250  26.225  27.151  1.00  0.00     0.173 A 
ATOM     82  F   UNL A   1      48.841  27.432  24.028  1.00  0.00    -0.203 F 
ATOM     83  C   UNL A   1      51.006  26.642  24.514  1.00  0.00     0.198 A 
ATOM     84  C   UNL A   1      51.550  25.937  26.741  1.00  0.00     0.198 A 
ATOM     85  F   UNL A   1      49.911  26.005  28.430  1.00  0.00    -0.203 F 
ATOM     86  F   UNL A   1      51.353  26.807  23.230  1.00  0.00    -0.200 F 
ATOM     87  C   UNL A   1      51.924  26.135  25.420  1.00  0.00     0.200 A 
ATOM     88  F   UNL A   1      52.439  25.460  27.623  1.00  0.00    -0.200 F 
ATOM     89  F   UNL A   1      53.164  25.827  25.019  1.00  0.00    -0.200 F 
ENDBRANCH  55  79
BRANCH  67  90
ATOM     90  C   UNL A   1      46.159  32.424  28.754  1.00  0.00     0.064 A 
ATOM     91  C   UNL A   1      46.691  32.722  30.017  1.00  0.00     0.173 A 
ATOM     92  C   UNL A   1      46.143  33.443  27.790  1.00  0.00     0.173 A 
ATOM     93  F   UNL A   1      46.715  31.787  30.978  1.00  0.00    -0.203 F 
ATOM     94  C   UNL A   1      47.162  33.999  30.310  1.00  0.00     0.198 A 
ATOM     95  C   UNL A   1      46.644  34.709  28.076  1.00  0.00     0.198 A 
ATOM     96  F   UNL A   1      45.652  33.206  26.565  1.00  0.00    -0.203 F 
ATOM     97  F   UNL A   1      47.619  34.276  31.539  1.00  0.00    -0.200 F 
ATOM     98  C   UNL A   1      47.145  34.989  29.338  1.00  0.00     0.200 A 
ATOM     99  F   UNL A   1      46.639  35.660  27.132  1.00  0.00    -0.200 F 
ATOM    100  F   UNL A   1      47.605  36.216  29.621  1.00  0.00    -0.200 F 
ENDBRANCH  67  90
ENDBRANCH  41  42
ENDBRANCH  33  36
ENDBRANCH  31  32
ENDBRANCH  30  31
ENDBRANCH  29  30
ENDBRANCH   1  29
TORSDOF 17
ENDMDL
