MODEL 1
REMARK VINA RESULT:     -12.0      0.000      0.000
REMARK SMILES O=C(CNc1nc(-c2ccccc2)c(-c2ccccc2)s1)NCCCCCCNC(=O)c1ccc(-c2c3nc(c(-c4c(F)c(F)c(F)c(F)c4F)c4ccc([nH]4)c(-c4c(F)c(F)c(F)c(F)c4F)c4nc(c(-c5c(F)c(F)c(F)c(F)c5F)c5ccc2[nH]5)C=C4)C=C3)cc1
REMARK SMILES IDX 25 1 24 2 23 3 22 4 1 5 2 6 3 8 4 9 5 11 6 12 21 13 7 14
REMARK SMILES IDX 14 15 8 16 9 17 13 18 10 19 12 20 11 21 15 22 16 23 20 24
REMARK SMILES IDX 17 25 19 26 18 27 26 28 27 29 28 30 29 31 30 32 31 34 32 35
REMARK SMILES IDX 33 36 94 37 34 38 93 39 35 40 36 41 37 42 87 43 38 44 92 45
REMARK SMILES IDX 86 46 88 47 39 48 91 49 85 50 84 51 40 53 72 54 52 55 71 56
REMARK SMILES IDX 53 57 56 58 70 59 89 60 54 61 55 62 69 64 90 65 57 66 41 67
REMARK SMILES IDX 42 68 50 69 43 70 44 71 48 72 51 73 45 74 46 75 49 76 47 77
REMARK SMILES IDX 73 78 74 79 82 80 75 81 76 82 80 83 83 84 77 85 78 86 81 87
REMARK SMILES IDX 79 88 58 89 59 90 67 91 60 92 61 93 65 94 68 95 62 96 63 97
REMARK SMILES IDX 66 98 64 99
REMARK H PARENT 22 7 4 10 29 33 88 52 56 63
REMARK Flexibility Score: inf
ROOT
ATOM      1  C   UNL A   1      30.457  29.873  24.261  1.00  0.00     0.002 C 
ENDROOT
BRANCH   1   2
ATOM      2  C   UNL A   1      31.045  29.192  23.016  1.00  0.00     0.021 C 
BRANCH   2   3
ATOM      3  C   UNL A   1      30.654  27.725  22.842  1.00  0.00     0.116 C 
BRANCH   3   4
ATOM      4  N   UNL A   1      30.784  26.982  24.075  1.00  0.00    -0.355 N 
ATOM      5  O   UNL A   1      28.599  26.272  24.243  1.00  0.00    -0.273 OA
ATOM      6  C   UNL A   1      29.745  26.297  24.680  1.00  0.00     0.239 C 
ATOM      7  H   UNL A   1      31.666  26.962  24.512  1.00  0.00     0.163 HD
BRANCH   6   8
ATOM      8  C   UNL A   1      30.162  25.599  25.986  1.00  0.00     0.215 C 
BRANCH   8   9
ATOM      9  N   UNL A   1      30.010  24.156  25.835  1.00  0.00    -0.352 N 
ATOM     10  H   UNL A   1      29.131  23.747  26.011  1.00  0.00     0.163 HD
BRANCH   9  11
ATOM     11  C   UNL A   1      31.033  23.368  25.463  1.00  0.00     0.184 A 
ATOM     12  N   UNL A   1      30.949  22.097  25.152  1.00  0.00    -0.220 NA
ATOM     13  S   UNL A   1      32.619  24.032  25.411  1.00  0.00    -0.096 S 
ATOM     14  C   UNL A   1      32.210  21.593  24.868  1.00  0.00     0.091 A 
ATOM     15  C   UNL A   1      33.257  22.490  25.011  1.00  0.00     0.064 A 
BRANCH  14  16
ATOM     16  C   UNL A   1      32.387  20.218  24.426  1.00  0.00     0.002 A 
ATOM     17  C   UNL A   1      32.808  19.220  25.313  1.00  0.00     0.010 A 
ATOM     18  C   UNL A   1      32.199  19.902  23.074  1.00  0.00     0.010 A 
ATOM     19  C   UNL A   1      33.070  17.931  24.848  1.00  0.00     0.001 A 
ATOM     20  C   UNL A   1      32.468  18.612  22.610  1.00  0.00     0.001 A 
ATOM     21  C   UNL A   1      32.909  17.630  23.496  1.00  0.00     0.000 A 
ENDBRANCH  14  16
BRANCH  15  22
ATOM     22  C   UNL A   1      34.700  22.326  24.838  1.00  0.00    -0.006 A 
ATOM     23  C   UNL A   1      35.466  21.693  25.828  1.00  0.00     0.009 A 
ATOM     24  C   UNL A   1      35.330  22.751  23.661  1.00  0.00     0.009 A 
ATOM     25  C   UNL A   1      36.834  21.489  25.643  1.00  0.00     0.001 A 
ATOM     26  C   UNL A   1      36.698  22.546  23.477  1.00  0.00     0.001 A 
ATOM     27  C   UNL A   1      37.449  21.914  24.468  1.00  0.00     0.000 A 
ENDBRANCH  15  22
ENDBRANCH   9  11
ENDBRANCH   8   9
ENDBRANCH   6   8
ENDBRANCH   3   4
ENDBRANCH   2   3
ENDBRANCH   1   2
BRANCH   1  28
ATOM     28  C   UNL A   1      31.455  30.200  25.376  1.00  0.00     0.002 C 
BRANCH  28  29
ATOM     29  C   UNL A   1      31.228  31.531  26.097  1.00  0.00     0.021 C 
BRANCH  29  30
ATOM     30  C   UNL A   1      32.429  32.068  26.870  1.00  0.00     0.116 C 
BRANCH  30  31
ATOM     31  N   UNL A   1      32.274  33.463  27.255  1.00  0.00    -0.352 N 
ATOM     32  C   UNL A   1      32.986  34.203  28.164  1.00  0.00     0.251 C 
ATOM     33  H   UNL A   1      31.550  33.946  26.795  1.00  0.00     0.163 HD
ATOM     34  O   UNL A   1      32.610  35.337  28.461  1.00  0.00    -0.269 OA
BRANCH  32  35
ATOM     35  C   UNL A   1      34.194  33.644  28.812  1.00  0.00     0.039 A 
ATOM     36  C   UNL A   1      35.439  34.209  28.516  1.00  0.00     0.014 A 
ATOM     37  C   UNL A   1      34.115  32.551  29.680  1.00  0.00     0.014 A 
ATOM     38  C   UNL A   1      36.594  33.713  29.129  1.00  0.00     0.010 A 
ATOM     39  C   UNL A   1      35.257  32.101  30.340  1.00  0.00     0.010 A 
ATOM     40  C   UNL A   1      36.510  32.672  30.066  1.00  0.00    -0.014 A 
BRANCH  40  41
ATOM     41  C   UNL A   1      37.722  32.146  30.746  1.00  0.00     0.031 A 
ATOM     42  C   UNL A   1      38.545  31.070  30.092  1.00  0.00     0.074 A 
ATOM     43  C   UNL A   1      38.055  32.594  31.973  1.00  0.00     0.049 A 
ATOM     44  N   UNL A   1      39.578  30.413  30.559  1.00  0.00    -0.248 NA
ATOM     45  C   UNL A   1      38.137  30.659  28.739  1.00  0.00     0.031 C 
ATOM     46  C   UNL A   1      37.321  33.608  32.731  1.00  0.00     0.029 A 
ATOM     47  N   UNL A   1      39.090  32.243  32.805  1.00  0.00    -0.354 N 
ATOM     48  C   UNL A   1      39.934  29.511  29.565  1.00  0.00     0.074 A 
ATOM     49  C   UNL A   1      38.976  29.664  28.492  1.00  0.00     0.031 C 
ATOM     50  C   UNL A   1      37.934  33.803  33.911  1.00  0.00     0.029 A 
ATOM     51  C   UNL A   1      39.081  32.907  34.008  1.00  0.00     0.049 A 
ATOM     52  H   UNL A   1      39.774  31.577  32.561  1.00  0.00     0.167 HD
ATOM     53  C   UNL A   1      40.981  28.652  29.538  1.00  0.00     0.037 A 
ATOM     54  C   UNL A   1      39.901  32.796  35.071  1.00  0.00     0.037 A 
ATOM     55  C   UNL A   1      41.947  28.515  30.595  1.00  0.00     0.049 A 
ATOM     56  C   UNL A   1      41.056  31.832  35.012  1.00  0.00     0.074 A 
ATOM     57  C   UNL A   1      43.052  27.681  30.654  1.00  0.00     0.029 A 
ATOM     58  N   UNL A   1      41.931  29.240  31.777  1.00  0.00    -0.354 N 
ATOM     59  N   UNL A   1      41.405  31.012  34.050  1.00  0.00    -0.248 NA
ATOM     60  C   UNL A   1      41.942  31.786  36.185  1.00  0.00     0.031 C 
ATOM     61  C   UNL A   1      43.688  27.883  31.883  1.00  0.00     0.029 A 
ATOM     62  C   UNL A   1      43.005  28.873  32.571  1.00  0.00     0.049 A 
ATOM     63  H   UNL A   1      41.255  29.914  32.017  1.00  0.00     0.167 HD
ATOM     64  C   UNL A   1      42.566  30.387  34.482  1.00  0.00     0.074 A 
ATOM     65  C   UNL A   1      42.871  30.927  35.790  1.00  0.00     0.031 C 
ATOM     66  C   UNL A   1      43.312  29.445  33.855  1.00  0.00     0.037 A 
BRANCH  53  67
ATOM     67  C   UNL A   1      41.151  27.803  28.312  1.00  0.00     0.064 A 
ATOM     68  C   UNL A   1      41.966  28.216  27.247  1.00  0.00     0.173 A 
ATOM     69  C   UNL A   1      40.541  26.543  28.221  1.00  0.00     0.173 A 
ATOM     70  F   UNL A   1      42.561  29.418  27.280  1.00  0.00    -0.203 F 
ATOM     71  C   UNL A   1      42.146  27.409  26.127  1.00  0.00     0.198 A 
ATOM     72  C   UNL A   1      40.747  25.726  27.113  1.00  0.00     0.198 A 
ATOM     73  F   UNL A   1      39.757  26.098  29.214  1.00  0.00    -0.203 F 
ATOM     74  F   UNL A   1      42.896  27.842  25.105  1.00  0.00    -0.200 F 
ATOM     75  C   UNL A   1      41.544  26.161  26.065  1.00  0.00     0.200 A 
ATOM     76  F   UNL A   1      40.175  24.514  27.059  1.00  0.00    -0.200 F 
ATOM     77  F   UNL A   1      41.729  25.380  24.992  1.00  0.00    -0.200 F 
ENDBRANCH  53  67
BRANCH  54  78
ATOM     78  C   UNL A   1      39.674  33.627  36.282  1.00  0.00     0.064 A 
ATOM     79  C   UNL A   1      38.845  33.177  37.321  1.00  0.00     0.173 A 
ATOM     80  C   UNL A   1      40.248  34.899  36.412  1.00  0.00     0.173 A 
ATOM     81  F   UNL A   1      38.256  31.975  37.234  1.00  0.00    -0.203 F 
ATOM     82  C   UNL A   1      38.571  33.982  38.424  1.00  0.00     0.198 A 
ATOM     83  C   UNL A   1      39.997  35.692  37.531  1.00  0.00     0.198 A 
ATOM     84  F   UNL A   1      41.051  35.375  35.450  1.00  0.00    -0.203 F 
ATOM     85  F   UNL A   1      37.726  33.552  39.371  1.00  0.00    -0.200 F 
ATOM     86  C   UNL A   1      39.149  35.238  38.530  1.00  0.00     0.200 A 
ATOM     87  F   UNL A   1      40.569  36.899  37.636  1.00  0.00    -0.200 F 
ATOM     88  F   UNL A   1      38.880  36.015  39.588  1.00  0.00    -0.200 F 
ENDBRANCH  54  78
BRANCH  66  89
ATOM     89  C   UNL A   1      44.565  28.987  34.542  1.00  0.00     0.064 A 
ATOM     90  C   UNL A   1      45.792  29.638  34.352  1.00  0.00     0.173 A 
ATOM     91  C   UNL A   1      44.526  27.903  35.432  1.00  0.00     0.173 A 
ATOM     92  F   UNL A   1      45.884  30.670  33.500  1.00  0.00    -0.203 F 
ATOM     93  C   UNL A   1      46.941  29.202  35.008  1.00  0.00     0.198 A 
ATOM     94  C   UNL A   1      45.670  27.489  36.108  1.00  0.00     0.198 A 
ATOM     95  F   UNL A   1      43.374  27.252  35.655  1.00  0.00    -0.203 F 
ATOM     96  F   UNL A   1      48.113  29.808  34.774  1.00  0.00    -0.200 F 
ATOM     97  C   UNL A   1      46.878  28.134  35.889  1.00  0.00     0.200 A 
ATOM     98  F   UNL A   1      45.604  26.464  36.969  1.00  0.00    -0.200 F 
ATOM     99  F   UNL A   1      47.983  27.720  36.523  1.00  0.00    -0.200 F 
ENDBRANCH  66  89
ENDBRANCH  40  41
ENDBRANCH  32  35
ENDBRANCH  30  31
ENDBRANCH  29  30
ENDBRANCH  28  29
ENDBRANCH   1  28
TORSDOF 17
ENDMDL
MODEL 2
REMARK VINA RESULT:     -11.8      0.961      7.191
REMARK SMILES O=C(CNc1nc(-c2ccccc2)c(-c2ccccc2)s1)NCCCCCCNC(=O)c1ccc(-c2c3nc(c(-c4c(F)c(F)c(F)c(F)c4F)c4ccc([nH]4)c(-c4c(F)c(F)c(F)c(F)c4F)c4nc(c(-c5c(F)c(F)c(F)c(F)c5F)c5ccc2[nH]5)C=C4)C=C3)cc1
REMARK SMILES IDX 25 1 24 2 23 3 22 4 1 5 2 6 3 8 4 9 5 11 6 12 21 13 7 14
REMARK SMILES IDX 14 15 8 16 9 17 13 18 10 19 12 20 11 21 15 22 16 23 20 24
REMARK SMILES IDX 17 25 19 26 18 27 26 28 27 29 28 30 29 31 30 32 31 34 32 35
REMARK SMILES IDX 33 36 94 37 34 38 93 39 35 40 36 41 37 42 87 43 38 44 92 45
REMARK SMILES IDX 86 46 88 47 39 48 91 49 85 50 84 51 40 53 72 54 52 55 71 56
REMARK SMILES IDX 53 57 56 58 70 59 89 60 54 61 55 62 69 64 90 65 57 66 41 67
REMARK SMILES IDX 42 68 50 69 43 70 44 71 48 72 51 73 45 74 46 75 49 76 47 77
REMARK SMILES IDX 73 78 74 79 82 80 75 81 76 82 80 83 83 84 77 85 78 86 81 87
REMARK SMILES IDX 79 88 58 89 59 90 67 91 60 92 61 93 65 94 68 95 62 96 63 97
REMARK SMILES IDX 66 98 64 99
REMARK H PARENT 22 7 4 10 29 33 88 52 56 63
REMARK Flexibility Score: inf
ROOT
ATOM      1  C   UNL A   1      30.574  29.820  24.247  1.00  0.00     0.002 C 
ENDROOT
BRANCH   1   2
ATOM      2  C   UNL A   1      31.207  29.161  23.013  1.00  0.00     0.021 C 
BRANCH   2   3
ATOM      3  C   UNL A   1      30.968  27.656  22.894  1.00  0.00     0.116 C 
BRANCH   3   4
ATOM      4  N   UNL A   1      30.947  27.010  24.187  1.00  0.00    -0.355 N 
ATOM      5  O   UNL A   1      28.991  25.826  23.911  1.00  0.00    -0.273 OA
ATOM      6  C   UNL A   1      29.962  26.129  24.596  1.00  0.00     0.239 C 
ATOM      7  H   UNL A   1      31.679  27.208  24.815  1.00  0.00     0.163 HD
BRANCH   6   8
ATOM      8  C   UNL A   1      30.184  25.594  26.022  1.00  0.00     0.215 C 
BRANCH   8   9
ATOM      9  N   UNL A   1      30.069  24.140  26.018  1.00  0.00    -0.352 N 
ATOM     10  H   UNL A   1      29.233  23.726  26.333  1.00  0.00     0.163 HD
BRANCH   9  11
ATOM     11  C   UNL A   1      31.070  23.347  25.597  1.00  0.00     0.184 A 
ATOM     12  N   UNL A   1      30.961  22.083  25.268  1.00  0.00    -0.220 NA
ATOM     13  S   UNL A   1      32.660  23.995  25.500  1.00  0.00    -0.096 S 
ATOM     14  C   UNL A   1      32.206  21.571  24.932  1.00  0.00     0.091 A 
ATOM     15  C   UNL A   1      33.267  22.455  25.052  1.00  0.00     0.064 A 
BRANCH  14  16
ATOM     16  C   UNL A   1      32.352  20.202  24.460  1.00  0.00     0.002 A 
ATOM     17  C   UNL A   1      32.710  19.169  25.335  1.00  0.00     0.010 A 
ATOM     18  C   UNL A   1      32.199  19.925  23.096  1.00  0.00     0.010 A 
ATOM     19  C   UNL A   1      32.946  17.883  24.846  1.00  0.00     0.001 A 
ATOM     20  C   UNL A   1      32.440  18.639  22.608  1.00  0.00     0.001 A 
ATOM     21  C   UNL A   1      32.820  17.621  23.482  1.00  0.00     0.000 A 
ENDBRANCH  14  16
BRANCH  15  22
ATOM     22  C   UNL A   1      34.701  22.278  24.826  1.00  0.00    -0.006 A 
ATOM     23  C   UNL A   1      35.304  22.786  23.666  1.00  0.00     0.009 A 
ATOM     24  C   UNL A   1      35.501  21.646  25.787  1.00  0.00     0.009 A 
ATOM     25  C   UNL A   1      36.681  22.664  23.471  1.00  0.00     0.001 A 
ATOM     26  C   UNL A   1      36.878  21.525  25.591  1.00  0.00     0.001 A 
ATOM     27  C   UNL A   1      37.467  22.035  24.435  1.00  0.00     0.000 A 
ENDBRANCH  15  22
ENDBRANCH   9  11
ENDBRANCH   8   9
ENDBRANCH   6   8
ENDBRANCH   3   4
ENDBRANCH   2   3
ENDBRANCH   1   2
BRANCH   1  28
ATOM     28  C   UNL A   1      31.532  30.137  25.400  1.00  0.00     0.002 C 
BRANCH  28  29
ATOM     29  C   UNL A   1      31.296  31.472  26.107  1.00  0.00     0.021 C 
BRANCH  29  30
ATOM     30  C   UNL A   1      32.321  31.834  27.179  1.00  0.00     0.116 C 
BRANCH  30  31
ATOM     31  N   UNL A   1      32.551  33.267  27.279  1.00  0.00    -0.352 N 
ATOM     32  C   UNL A   1      33.538  33.950  27.942  1.00  0.00     0.251 C 
ATOM     33  H   UNL A   1      31.901  33.830  26.799  1.00  0.00     0.163 HD
ATOM     34  O   UNL A   1      33.482  35.177  28.031  1.00  0.00    -0.269 OA
BRANCH  32  35
ATOM     35  C   UNL A   1      34.663  33.226  28.575  1.00  0.00     0.039 A 
ATOM     36  C   UNL A   1      35.971  33.637  28.296  1.00  0.00     0.014 A 
ATOM     37  C   UNL A   1      34.443  32.129  29.412  1.00  0.00     0.014 A 
ATOM     38  C   UNL A   1      37.051  32.983  28.894  1.00  0.00     0.010 A 
ATOM     39  C   UNL A   1      35.517  31.520  30.060  1.00  0.00     0.010 A 
ATOM     40  C   UNL A   1      36.833  31.935  29.802  1.00  0.00    -0.014 A 
BRANCH  40  41
ATOM     41  C   UNL A   1      37.966  31.241  30.468  1.00  0.00     0.031 A 
ATOM     42  C   UNL A   1      38.339  31.596  31.881  1.00  0.00     0.074 A 
ATOM     43  C   UNL A   1      38.694  30.332  29.789  1.00  0.00     0.049 A 
ATOM     44  N   UNL A   1      39.348  31.177  32.605  1.00  0.00    -0.248 NA
ATOM     45  C   UNL A   1      37.476  32.571  32.567  1.00  0.00     0.031 C 
ATOM     46  C   UNL A   1      38.458  29.925  28.403  1.00  0.00     0.029 A 
ATOM     47  N   UNL A   1      39.788  29.596  30.169  1.00  0.00    -0.354 N 
ATOM     48  C   UNL A   1      39.244  31.842  33.820  1.00  0.00     0.074 A 
ATOM     49  C   UNL A   1      38.109  32.732  33.719  1.00  0.00     0.031 C 
ATOM     50  C   UNL A   1      39.375  29.007  28.052  1.00  0.00     0.029 A 
ATOM     51  C   UNL A   1      40.281  28.785  29.175  1.00  0.00     0.049 A 
ATOM     52  H   UNL A   1      40.184  29.645  31.070  1.00  0.00     0.167 HD
ATOM     53  C   UNL A   1      40.010  31.703  34.929  1.00  0.00     0.037 A 
ATOM     54  C   UNL A   1      41.349  27.965  29.168  1.00  0.00     0.037 A 
ATOM     55  C   UNL A   1      41.126  30.801  35.038  1.00  0.00     0.049 A 
ATOM     56  C   UNL A   1      42.183  27.831  30.415  1.00  0.00     0.074 A 
ATOM     57  C   UNL A   1      41.956  30.579  36.124  1.00  0.00     0.029 A 
ATOM     58  N   UNL A   1      41.564  29.962  34.024  1.00  0.00    -0.354 N 
ATOM     59  N   UNL A   1      42.050  28.436  31.570  1.00  0.00    -0.248 NA
ATOM     60  C   UNL A   1      43.309  26.888  30.361  1.00  0.00     0.031 C 
ATOM     61  C   UNL A   1      42.911  29.625  35.759  1.00  0.00     0.029 A 
ATOM     62  C   UNL A   1      42.650  29.221  34.460  1.00  0.00     0.049 A 
ATOM     63  H   UNL A   1      41.162  29.903  33.127  1.00  0.00     0.167 HD
ATOM     64  C   UNL A   1      43.046  27.920  32.389  1.00  0.00     0.074 A 
ATOM     65  C   UNL A   1      43.770  26.944  31.602  1.00  0.00     0.031 C 
ATOM     66  C   UNL A   1      43.338  28.231  33.675  1.00  0.00     0.037 A 
BRANCH  53  67
ATOM     67  C   UNL A   1      39.655  32.533  36.128  1.00  0.00     0.064 A 
ATOM     68  C   UNL A   1      38.666  32.118  37.033  1.00  0.00     0.173 A 
ATOM     69  C   UNL A   1      40.341  33.724  36.405  1.00  0.00     0.173 A 
ATOM     70  F   UNL A   1      37.972  30.993  36.806  1.00  0.00    -0.203 F 
ATOM     71  C   UNL A   1      38.364  32.876  38.161  1.00  0.00     0.198 A 
ATOM     72  C   UNL A   1      40.057  34.464  37.550  1.00  0.00     0.198 A 
ATOM     73  F   UNL A   1      41.299  34.162  35.575  1.00  0.00    -0.203 F 
ATOM     74  F   UNL A   1      37.388  32.481  38.990  1.00  0.00    -0.200 F 
ATOM     75  C   UNL A   1      39.065  34.043  38.423  1.00  0.00     0.200 A 
ATOM     76  F   UNL A   1      40.744  35.586  37.809  1.00  0.00    -0.200 F 
ATOM     77  F   UNL A   1      38.782  34.764  39.516  1.00  0.00    -0.200 F 
ENDBRANCH  53  67
BRANCH  54  78
ATOM     78  C   UNL A   1      41.692  27.190  27.946  1.00  0.00     0.064 A 
ATOM     79  C   UNL A   1      41.261  25.864  27.788  1.00  0.00     0.173 A 
ATOM     80  C   UNL A   1      42.485  27.743  26.931  1.00  0.00     0.173 A 
ATOM     81  F   UNL A   1      40.518  25.284  28.742  1.00  0.00    -0.203 F 
ATOM     82  C   UNL A   1      41.641  25.111  26.679  1.00  0.00     0.198 A 
ATOM     83  C   UNL A   1      42.839  26.998  25.807  1.00  0.00     0.198 A 
ATOM     84  F   UNL A   1      42.919  29.007  27.030  1.00  0.00    -0.203 F 
ATOM     85  F   UNL A   1      41.267  23.828  26.585  1.00  0.00    -0.200 F 
ATOM     86  C   UNL A   1      42.427  25.679  25.688  1.00  0.00     0.200 A 
ATOM     87  F   UNL A   1      43.587  27.554  24.845  1.00  0.00    -0.200 F 
ATOM     88  F   UNL A   1      42.797  24.952  24.625  1.00  0.00    -0.200 F 
ENDBRANCH  54  78
BRANCH  66  89
ATOM     89  C   UNL A   1      44.444  27.461  34.336  1.00  0.00     0.064 A 
ATOM     90  C   UNL A   1      45.767  27.923  34.339  1.00  0.00     0.173 A 
ATOM     91  C   UNL A   1      44.164  26.261  35.009  1.00  0.00     0.173 A 
ATOM     92  F   UNL A   1      46.087  29.057  33.698  1.00  0.00    -0.203 F 
ATOM     93  C   UNL A   1      46.777  27.198  34.967  1.00  0.00     0.198 A 
ATOM     94  C   UNL A   1      45.170  25.554  35.660  1.00  0.00     0.198 A 
ATOM     95  F   UNL A   1      42.913  25.780  35.042  1.00  0.00    -0.203 F 
ATOM     96  F   UNL A   1      48.043  27.633  34.916  1.00  0.00    -0.200 F 
ATOM     97  C   UNL A   1      46.476  26.019  35.632  1.00  0.00     0.200 A 
ATOM     98  F   UNL A   1      44.876  24.422  36.314  1.00  0.00    -0.200 F 
ATOM     99  F   UNL A   1      47.448  25.326  36.241  1.00  0.00    -0.200 F 
ENDBRANCH  66  89
ENDBRANCH  40  41
ENDBRANCH  32  35
ENDBRANCH  30  31
ENDBRANCH  29  30
ENDBRANCH  28  29
ENDBRANCH   1  28
TORSDOF 17
ENDMDL
MODEL 3
REMARK VINA RESULT:     -11.7      2.969      8.062
REMARK SMILES O=C(CNc1nc(-c2ccccc2)c(-c2ccccc2)s1)NCCCCCCNC(=O)c1ccc(-c2c3nc(c(-c4c(F)c(F)c(F)c(F)c4F)c4ccc([nH]4)c(-c4c(F)c(F)c(F)c(F)c4F)c4nc(c(-c5c(F)c(F)c(F)c(F)c5F)c5ccc2[nH]5)C=C4)C=C3)cc1
REMARK SMILES IDX 25 1 24 2 23 3 22 4 1 5 2 6 3 8 4 9 5 11 6 12 21 13 7 14
REMARK SMILES IDX 14 15 8 16 9 17 13 18 10 19 12 20 11 21 15 22 16 23 20 24
REMARK SMILES IDX 17 25 19 26 18 27 26 28 27 29 28 30 29 31 30 32 31 34 32 35
REMARK SMILES IDX 33 36 94 37 34 38 93 39 35 40 36 41 37 42 87 43 38 44 92 45
REMARK SMILES IDX 86 46 88 47 39 48 91 49 85 50 84 51 40 53 72 54 52 55 71 56
REMARK SMILES IDX 53 57 56 58 70 59 89 60 54 61 55 62 69 64 90 65 57 66 41 67
REMARK SMILES IDX 42 68 50 69 43 70 44 71 48 72 51 73 45 74 46 75 49 76 47 77
REMARK SMILES IDX 73 78 74 79 82 80 75 81 76 82 80 83 83 84 77 85 78 86 81 87
REMARK SMILES IDX 79 88 58 89 59 90 67 91 60 92 61 93 65 94 68 95 62 96 63 97
REMARK SMILES IDX 66 98 64 99
REMARK H PARENT 22 7 4 10 29 33 88 52 56 63
REMARK Flexibility Score: inf
ROOT
ATOM      1  C   UNL A   1      30.930  27.355  24.897  1.00  0.00     0.002 C 
ENDROOT
BRANCH   1   2
ATOM      2  C   UNL A   1      31.074  28.799  24.393  1.00  0.00     0.021 C 
BRANCH   2   3
ATOM      3  C   UNL A   1      31.300  28.935  22.888  1.00  0.00     0.116 C 
BRANCH   3   4
ATOM      4  N   UNL A   1      31.381  27.647  22.237  1.00  0.00    -0.355 N 
ATOM      5  O   UNL A   1      33.661  27.608  21.911  1.00  0.00    -0.273 OA
ATOM      6  C   UNL A   1      32.563  27.071  21.806  1.00  0.00     0.239 C 
ATOM      7  H   UNL A   1      30.545  27.148  22.091  1.00  0.00     0.163 HD
BRANCH   6   8
ATOM      8  C   UNL A   1      32.359  25.698  21.141  1.00  0.00     0.215 C 
BRANCH   8   9
ATOM      9  N   UNL A   1      31.783  24.771  22.108  1.00  0.00    -0.352 N 
ATOM     10  H   UNL A   1      30.816  24.809  22.289  1.00  0.00     0.163 HD
BRANCH   9  11
ATOM     11  C   UNL A   1      32.533  23.865  22.759  1.00  0.00     0.184 A 
ATOM     12  N   UNL A   1      32.119  22.705  23.207  1.00  0.00    -0.220 NA
ATOM     13  S   UNL A   1      34.181  24.232  23.090  1.00  0.00    -0.096 S 
ATOM     14  C   UNL A   1      33.149  22.056  23.873  1.00  0.00     0.091 A 
ATOM     15  C   UNL A   1      34.339  22.762  23.959  1.00  0.00     0.064 A 
BRANCH  14  16
ATOM     16  C   UNL A   1      32.971  20.715  24.407  1.00  0.00     0.002 A 
ATOM     17  C   UNL A   1      33.097  20.459  25.778  1.00  0.00     0.010 A 
ATOM     18  C   UNL A   1      32.737  19.650  23.528  1.00  0.00     0.010 A 
ATOM     19  C   UNL A   1      33.024  19.151  26.259  1.00  0.00     0.001 A 
ATOM     20  C   UNL A   1      32.670  18.341  24.011  1.00  0.00     0.001 A 
ATOM     21  C   UNL A   1      32.820  18.093  25.375  1.00  0.00     0.000 A 
ENDBRANCH  14  16
BRANCH  15  22
ATOM     22  C   UNL A   1      35.613  22.431  24.598  1.00  0.00    -0.006 A 
ATOM     23  C   UNL A   1      36.200  21.172  24.401  1.00  0.00     0.009 A 
ATOM     24  C   UNL A   1      36.290  23.382  25.373  1.00  0.00     0.009 A 
ATOM     25  C   UNL A   1      37.439  20.872  24.968  1.00  0.00     0.001 A 
ATOM     26  C   UNL A   1      37.530  23.081  25.938  1.00  0.00     0.001 A 
ATOM     27  C   UNL A   1      38.104  21.827  25.735  1.00  0.00     0.000 A 
ENDBRANCH  15  22
ENDBRANCH   9  11
ENDBRANCH   8   9
ENDBRANCH   6   8
ENDBRANCH   3   4
ENDBRANCH   2   3
ENDBRANCH   1   2
BRANCH   1  28
ATOM     28  C   UNL A   1      32.188  26.737  25.516  1.00  0.00     0.002 C 
BRANCH  28  29
ATOM     29  C   UNL A   1      32.735  27.452  26.754  1.00  0.00     0.021 C 
BRANCH  29  30
ATOM     30  C   UNL A   1      33.928  28.371  26.504  1.00  0.00     0.116 C 
BRANCH  30  31
ATOM     31  N   UNL A   1      33.676  29.744  26.911  1.00  0.00    -0.352 N 
ATOM     32  C   UNL A   1      34.434  30.576  27.696  1.00  0.00     0.251 C 
ATOM     33  H   UNL A   1      32.838  30.134  26.574  1.00  0.00     0.163 HD
ATOM     34  O   UNL A   1      33.982  31.664  28.050  1.00  0.00    -0.269 OA
BRANCH  32  35
ATOM     35  C   UNL A   1      35.786  30.169  28.142  1.00  0.00     0.039 A 
ATOM     36  C   UNL A   1      35.940  29.645  29.430  1.00  0.00     0.014 A 
ATOM     37  C   UNL A   1      36.903  30.329  27.317  1.00  0.00     0.014 A 
ATOM     38  C   UNL A   1      37.202  29.235  29.869  1.00  0.00     0.010 A 
ATOM     39  C   UNL A   1      38.148  29.859  27.731  1.00  0.00     0.010 A 
ATOM     40  C   UNL A   1      38.313  29.314  29.015  1.00  0.00    -0.014 A 
BRANCH  40  41
ATOM     41  C   UNL A   1      39.659  28.862  29.454  1.00  0.00     0.031 A 
ATOM     42  C   UNL A   1      40.472  29.715  30.388  1.00  0.00     0.074 A 
ATOM     43  C   UNL A   1      40.174  27.712  28.974  1.00  0.00     0.049 A 
ATOM     44  N   UNL A   1      41.700  29.546  30.812  1.00  0.00    -0.248 NA
ATOM     45  C   UNL A   1      39.827  30.938  30.895  1.00  0.00     0.031 C 
ATOM     46  C   UNL A   1      39.503  26.812  28.035  1.00  0.00     0.029 A 
ATOM     47  N   UNL A   1      41.388  27.112  29.199  1.00  0.00    -0.354 N 
ATOM     48  C   UNL A   1      41.974  30.640  31.624  1.00  0.00     0.074 A 
ATOM     49  C   UNL A   1      40.807  31.494  31.591  1.00  0.00     0.031 C 
ATOM     50  C   UNL A   1      40.310  25.770  27.772  1.00  0.00     0.029 A 
ATOM     51  C   UNL A   1      41.566  25.945  28.495  1.00  0.00     0.049 A 
ATOM     52  H   UNL A   1      42.068  27.483  29.808  1.00  0.00     0.167 HD
ATOM     53  C   UNL A   1      43.087  30.895  32.352  1.00  0.00     0.037 A 
ATOM     54  C   UNL A   1      42.627  25.117  28.434  1.00  0.00     0.037 A 
ATOM     55  C   UNL A   1      44.239  30.035  32.404  1.00  0.00     0.049 A 
ATOM     56  C   UNL A   1      43.851  25.427  29.254  1.00  0.00     0.074 A 
ATOM     57  C   UNL A   1      45.411  30.201  33.124  1.00  0.00     0.029 A 
ATOM     58  N   UNL A   1      44.361  28.838  31.714  1.00  0.00    -0.354 N 
ATOM     59  N   UNL A   1      44.082  26.444  30.049  1.00  0.00    -0.248 NA
ATOM     60  C   UNL A   1      44.960  24.464  29.180  1.00  0.00     0.031 C 
ATOM     61  C   UNL A   1      46.252  29.118  32.848  1.00  0.00     0.029 A 
ATOM     62  C   UNL A   1      45.587  28.256  31.992  1.00  0.00     0.049 A 
ATOM     63  H   UNL A   1      43.678  28.460  31.114  1.00  0.00     0.167 HD
ATOM     64  C   UNL A   1      45.339  26.224  30.596  1.00  0.00     0.074 A 
ATOM     65  C   UNL A   1      45.819  24.971  30.052  1.00  0.00     0.031 C 
ATOM     66  C   UNL A   1      46.035  26.993  31.468  1.00  0.00     0.037 A 
BRANCH  53  67
ATOM     67  C   UNL A   1      43.107  32.150  33.175  1.00  0.00     0.064 A 
ATOM     68  C   UNL A   1      42.618  32.168  34.490  1.00  0.00     0.173 A 
ATOM     69  C   UNL A   1      43.665  33.333  32.667  1.00  0.00     0.173 A 
ATOM     70  F   UNL A   1      42.062  31.066  35.017  1.00  0.00    -0.203 F 
ATOM     71  C   UNL A   1      42.669  33.326  35.259  1.00  0.00     0.198 A 
ATOM     72  C   UNL A   1      43.742  34.482  33.449  1.00  0.00     0.198 A 
ATOM     73  F   UNL A   1      44.152  33.369  31.418  1.00  0.00    -0.203 F 
ATOM     74  F   UNL A   1      42.160  33.330  36.498  1.00  0.00    -0.200 F 
ATOM     75  C   UNL A   1      43.239  34.480  34.741  1.00  0.00     0.200 A 
ATOM     76  F   UNL A   1      44.305  35.593  32.952  1.00  0.00    -0.200 F 
ATOM     77  F   UNL A   1      43.300  35.591  35.487  1.00  0.00    -0.200 F 
ENDBRANCH  53  67
BRANCH  54  78
ATOM     78  C   UNL A   1      42.582  23.904  27.575  1.00  0.00     0.064 A 
ATOM     79  C   UNL A   1      42.241  22.653  28.110  1.00  0.00     0.173 A 
ATOM     80  C   UNL A   1      42.916  23.962  26.214  1.00  0.00     0.173 A 
ATOM     81  F   UNL A   1      41.935  22.543  29.411  1.00  0.00    -0.203 F 
ATOM     82  C   UNL A   1      42.270  21.502  27.326  1.00  0.00     0.198 A 
ATOM     83  C   UNL A   1      42.914  22.814  25.423  1.00  0.00     0.198 A 
ATOM     84  F   UNL A   1      43.245  25.133  25.652  1.00  0.00    -0.203 F 
ATOM     85  F   UNL A   1      41.999  20.312  27.878  1.00  0.00    -0.200 F 
ATOM     86  C   UNL A   1      42.603  21.583  25.983  1.00  0.00     0.200 A 
ATOM     87  F   UNL A   1      43.223  22.899  24.123  1.00  0.00    -0.200 F 
ATOM     88  F   UNL A   1      42.636  20.476  25.230  1.00  0.00    -0.200 F 
ENDBRANCH  54  78
BRANCH  66  89
ATOM     89  C   UNL A   1      47.360  26.471  31.941  1.00  0.00     0.064 A 
ATOM     90  C   UNL A   1      47.467  25.619  33.049  1.00  0.00     0.173 A 
ATOM     91  C   UNL A   1      48.536  26.802  31.250  1.00  0.00     0.173 A 
ATOM     92  F   UNL A   1      46.373  25.285  33.751  1.00  0.00    -0.203 F 
ATOM     93  C   UNL A   1      48.706  25.138  33.465  1.00  0.00     0.198 A 
ATOM     94  C   UNL A   1      49.769  26.296  31.651  1.00  0.00     0.198 A 
ATOM     95  F   UNL A   1      48.487  27.608  30.179  1.00  0.00    -0.203 F 
ATOM     96  F   UNL A   1      48.789  24.364  34.555  1.00  0.00    -0.200 F 
ATOM     97  C   UNL A   1      49.854  25.471  32.762  1.00  0.00     0.200 A 
ATOM     98  F   UNL A   1      50.876  26.609  30.963  1.00  0.00    -0.200 F 
ATOM     99  F   UNL A   1      51.044  25.004  33.161  1.00  0.00    -0.200 F 
ENDBRANCH  66  89
ENDBRANCH  40  41
ENDBRANCH  32  35
ENDBRANCH  30  31
ENDBRANCH  29  30
ENDBRANCH  28  29
ENDBRANCH   1  28
TORSDOF 17
ENDMDL
