MODEL 1
REMARK VINA RESULT:     -14.4      0.000      0.000
REMARK SMILES Cc1c(C[N@H+]2CC[C@@H](C(=O)NCCCCCCNC(=O)c3ccc(-c4c5nc(c(-c6c(F)c(F)c(F)c(F)c6F)c6ccc([nH]6)c(-c6c(F)c(F)c(F)c(F)c6F)c6nc(c(-c7c(F)c(F)c(F)c(F)c7F)c7ccc4[nH]7)C=C6)C=C5)cc3)[C@@H]2C)cccc1[N+](=O)[O-]
REMARK SMILES IDX 14 1 13 2 12 3 11 4 9 5 10 6 8 8 5 9 6 10 84 11 7 13 85 14
REMARK SMILES IDX 4 15 3 16 1 17 2 18 89 19 86 20 88 21 87 22 90 23 91 24
REMARK SMILES IDX 92 25 15 26 16 27 17 28 18 29 19 30 20 32 21 33 22 34 83 35
REMARK SMILES IDX 23 36 82 37 24 38 25 39 26 40 76 41 27 42 81 43 75 44 77 45
REMARK SMILES IDX 28 46 80 47 74 48 73 49 29 51 61 52 41 53 60 54 42 55 45 56
REMARK SMILES IDX 59 57 78 58 43 59 44 60 58 62 79 63 46 64 30 65 31 66 39 67
REMARK SMILES IDX 32 68 33 69 37 70 40 71 34 72 35 73 38 74 36 75 62 76 63 77
REMARK SMILES IDX 71 78 64 79 65 80 69 81 72 82 66 83 67 84 70 85 68 86 47 87
REMARK SMILES IDX 48 88 56 89 49 90 50 91 54 92 57 93 51 94 52 95 55 96 53 97
REMARK H PARENT 11 7 5 12 18 31 77 50 45 61
REMARK Flexibility Score: inf
ROOT
ATOM      1  C   UNL A   1      33.379  28.610  25.141  1.00  0.00     0.002 C 
ENDROOT
BRANCH   1   2
ATOM      2  C   UNL A   1      33.755  27.219  26.130  1.00  0.00     0.021 C 
BRANCH   2   3
ATOM      3  C   UNL A   1      34.261  25.111  25.736  1.00  0.00     0.116 C 
BRANCH   3   4
ATOM      4  N   UNL A   1      35.421  24.441  24.869  1.00  0.00    -0.356 N 
ATOM      5  C   UNL A   1      36.017  23.225  24.819  1.00  0.00     0.229 C 
ATOM      6  O   UNL A   1      36.982  23.127  24.050  1.00  0.00    -0.275 OA
ATOM      7  H   UNL A   1      35.797  25.065  24.208  1.00  0.00     0.163 HD
BRANCH   5   8
ATOM      8  C   UNL A   1      35.587  22.015  25.632  1.00  0.00     0.142 C 
ATOM      9  N   UNL A   1      33.536  20.793  25.303  1.00  0.00    -0.328 N 
ATOM     10  C   UNL A   1      34.630  19.908  24.907  1.00  0.00     0.263 C 
ATOM     11  C   UNL A   1      34.101  21.966  25.978  1.00  0.00     0.193 C 
ATOM     12  H   UNL A   1      32.958  20.276  25.964  1.00  0.00     0.348 HD
ATOM     13  C   UNL A   1      35.938  20.680  25.003  1.00  0.00     0.081 C 
ATOM     14  C   UNL A   1      33.866  21.822  27.483  1.00  0.00     0.076 C 
BRANCH   9  15
ATOM     15  C   UNL A   1      32.517  21.086  24.286  1.00  0.00     0.299 C 
BRANCH  15  16
ATOM     16  C   UNL A   1      32.430  22.539  23.868  1.00  0.00     0.016 A 
ATOM     17  C   UNL A   1      30.652  23.206  25.989  1.00  0.00     0.052 C 
ATOM     18  C   UNL A   1      31.229  23.638  24.670  1.00  0.00     0.036 A 
ATOM     19  C   UNL A   1      30.851  25.234  23.920  1.00  0.00     0.272 A 
ATOM     20  C   UNL A   1      33.296  23.079  22.366  1.00  0.00     0.010 A 
ATOM     21  C   UNL A   1      31.665  25.745  22.389  1.00  0.00     0.086 A 
ATOM     22  C   UNL A   1      32.904  24.680  21.620  1.00  0.00     0.008 A 
BRANCH  19  23
ATOM     23  N   UNL A   1      29.876  26.154  24.487  1.00  0.00     0.062 N 
ATOM     24  O   UNL A   1      30.197  26.719  25.537  1.00  0.00    -0.258 OA
ATOM     25  O   UNL A   1      28.800  26.296  23.902  1.00  0.00    -0.258 OA
ENDBRANCH  19  23
ENDBRANCH  15  16
ENDBRANCH   9  15
ENDBRANCH   5   8
ENDBRANCH   3   4
ENDBRANCH   2   3
ENDBRANCH   1   2
BRANCH   1  26
ATOM     26  C   UNL A   1      32.195  29.523  25.514  1.00  0.00     0.002 C 
BRANCH  26  27
ATOM     27  C   UNL A   1      32.576  30.811  26.227  1.00  0.00     0.021 C 
BRANCH  27  28
ATOM     28  C   UNL A   1      33.105  30.560  27.618  1.00  0.00     0.116 C 
BRANCH  28  29
ATOM     29  N   UNL A   1      34.230  31.443  27.869  1.00  0.00    -0.352 N 
ATOM     30  C   UNL A   1      35.315  31.212  28.686  1.00  0.00     0.251 C 
ATOM     31  H   UNL A   1      34.214  32.310  27.403  1.00  0.00     0.163 HD
ATOM     32  O   UNL A   1      35.875  32.123  29.280  1.00  0.00    -0.269 OA
BRANCH  30  33
ATOM     33  C   UNL A   1      35.981  29.898  28.527  1.00  0.00     0.039 A 
ATOM     34  C   UNL A   1      36.337  29.365  29.775  1.00  0.00     0.014 A 
ATOM     35  C   UNL A   1      36.774  29.694  27.403  1.00  0.00     0.014 A 
ATOM     36  C   UNL A   1      37.641  28.955  29.974  1.00  0.00     0.010 A 
ATOM     37  C   UNL A   1      38.102  29.433  27.626  1.00  0.00     0.010 A 
ATOM     38  C   UNL A   1      38.534  29.128  28.923  1.00  0.00    -0.014 A 
BRANCH  38  39
ATOM     39  C   UNL A   1      39.933  28.790  29.011  1.00  0.00     0.031 A 
ATOM     40  C   UNL A   1      40.245  27.403  28.647  1.00  0.00     0.074 A 
ATOM     41  C   UNL A   1      40.855  29.731  29.295  1.00  0.00     0.049 A 
ATOM     42  N   UNL A   1      41.345  26.813  28.925  1.00  0.00    -0.248 NA
ATOM     43  C   UNL A   1      39.277  26.531  27.982  1.00  0.00     0.031 C 
ATOM     44  C   UNL A   1      42.307  29.636  29.183  1.00  0.00     0.029 A 
ATOM     45  N   UNL A   1      40.643  30.940  29.977  1.00  0.00    -0.354 N 
ATOM     46  C   UNL A   1      41.353  25.612  28.253  1.00  0.00     0.074 A 
ATOM     47  C   UNL A   1      40.009  25.438  27.774  1.00  0.00     0.031 C 
ATOM     48  C   UNL A   1      42.862  30.524  30.027  1.00  0.00     0.029 A 
ATOM     49  C   UNL A   1      41.781  31.091  30.812  1.00  0.00     0.049 A 
ATOM     50  H   UNL A   1      39.875  31.550  29.892  1.00  0.00     0.167 HD
ATOM     51  C   UNL A   1      42.557  24.999  28.095  1.00  0.00     0.037 A 
ATOM     52  C   UNL A   1      41.642  30.967  32.168  1.00  0.00     0.037 A 
ATOM     53  C   UNL A   1      43.560  25.687  28.917  1.00  0.00     0.049 A 
ATOM     54  C   UNL A   1      42.379  29.767  32.747  1.00  0.00     0.074 A 
ATOM     55  C   UNL A   1      44.518  26.657  28.673  1.00  0.00     0.029 A 
ATOM     56  N   UNL A   1      43.366  25.690  30.287  1.00  0.00    -0.354 N 
ATOM     57  N   UNL A   1      42.926  28.818  32.034  1.00  0.00    -0.248 NA
ATOM     58  C   UNL A   1      42.484  29.509  34.180  1.00  0.00     0.031 C 
ATOM     59  C   UNL A   1      44.882  27.244  29.926  1.00  0.00     0.029 A 
ATOM     60  C   UNL A   1      44.170  26.608  30.928  1.00  0.00     0.049 A 
ATOM     61  H   UNL A   1      42.726  25.103  30.751  1.00  0.00     0.167 HD
ATOM     62  C   UNL A   1      43.432  27.843  32.857  1.00  0.00     0.074 A 
ATOM     63  C   UNL A   1      43.091  28.308  34.193  1.00  0.00     0.031 C 
ATOM     64  C   UNL A   1      44.064  26.723  32.378  1.00  0.00     0.037 A 
BRANCH  51  65
ATOM     65  C   UNL A   1      42.888  23.940  27.067  1.00  0.00     0.064 A 
ATOM     66  C   UNL A   1      42.569  22.592  27.338  1.00  0.00     0.173 A 
ATOM     67  C   UNL A   1      43.576  24.138  25.851  1.00  0.00     0.173 A 
ATOM     68  F   UNL A   1      41.866  22.245  28.424  1.00  0.00    -0.203 F 
ATOM     69  C   UNL A   1      42.971  21.539  26.509  1.00  0.00     0.198 A 
ATOM     70  C   UNL A   1      43.993  23.085  25.032  1.00  0.00     0.198 A 
ATOM     71  F   UNL A   1      43.856  25.349  25.373  1.00  0.00    -0.203 F 
ATOM     72  F   UNL A   1      42.657  20.279  26.841  1.00  0.00    -0.200 F 
ATOM     73  C   UNL A   1      43.700  21.783  25.366  1.00  0.00     0.200 A 
ATOM     74  F   UNL A   1      44.686  23.352  23.915  1.00  0.00    -0.200 F 
ATOM     75  F   UNL A   1      44.105  20.775  24.582  1.00  0.00    -0.200 F 
ENDBRANCH  51  65
BRANCH  52  76
ATOM     76  C   UNL A   1      40.315  31.488  32.630  1.00  0.00     0.064 A 
ATOM     77  C   UNL A   1      40.031  32.855  32.396  1.00  0.00     0.173 A 
ATOM     78  C   UNL A   1      39.225  30.634  32.828  1.00  0.00     0.173 A 
ATOM     79  F   UNL A   1      41.037  33.728  32.227  1.00  0.00    -0.203 F 
ATOM     80  C   UNL A   1      38.730  33.293  32.158  1.00  0.00     0.198 A 
ATOM     81  C   UNL A   1      37.918  31.091  32.637  1.00  0.00     0.198 A 
ATOM     82  F   UNL A   1      39.417  29.331  33.076  1.00  0.00    -0.203 F 
ATOM     83  F   UNL A   1      38.512  34.551  31.748  1.00  0.00    -0.200 F 
ATOM     84  C   UNL A   1      37.678  32.401  32.243  1.00  0.00     0.200 A 
ATOM     85  F   UNL A   1      36.894  30.230  32.731  1.00  0.00    -0.200 F 
ATOM     86  F   UNL A   1      36.440  32.790  31.902  1.00  0.00    -0.200 F 
ENDBRANCH  52  76
BRANCH  64  87
ATOM     87  C   UNL A   1      44.597  25.592  33.238  1.00  0.00     0.064 A 
ATOM     88  C   UNL A   1      43.783  24.811  34.070  1.00  0.00     0.173 A 
ATOM     89  C   UNL A   1      45.983  25.293  33.313  1.00  0.00     0.173 A 
ATOM     90  F   UNL A   1      42.487  25.105  34.241  1.00  0.00    -0.203 F 
ATOM     91  C   UNL A   1      44.288  23.723  34.791  1.00  0.00     0.198 A 
ATOM     92  C   UNL A   1      46.493  24.246  34.076  1.00  0.00     0.198 A 
ATOM     93  F   UNL A   1      46.909  25.985  32.638  1.00  0.00    -0.203 F 
ATOM     94  F   UNL A   1      43.450  22.953  35.499  1.00  0.00    -0.200 F 
ATOM     95  C   UNL A   1      45.640  23.436  34.788  1.00  0.00     0.200 A 
ATOM     96  F   UNL A   1      47.815  24.028  34.100  1.00  0.00    -0.200 F 
ATOM     97  F   UNL A   1      46.121  22.393  35.476  1.00  0.00    -0.200 F 
ENDBRANCH  64  87
ENDBRANCH  38  39
ENDBRANCH  30  33
ENDBRANCH  28  29
ENDBRANCH  27  28
ENDBRANCH  26  27
ENDBRANCH   1  26
TORSDOF 16
ENDMDL
MODEL 2
REMARK VINA RESULT:     -14.1      3.237      5.395
REMARK SMILES Cc1c(C[N@H+]2CC[C@@H](C(=O)NCCCCCCNC(=O)c3ccc(-c4c5nc(c(-c6c(F)c(F)c(F)c(F)c6F)c6ccc([nH]6)c(-c6c(F)c(F)c(F)c(F)c6F)c6nc(c(-c7c(F)c(F)c(F)c(F)c7F)c7ccc4[nH]7)C=C6)C=C5)cc3)[C@@H]2C)cccc1[N+](=O)[O-]
REMARK SMILES IDX 14 1 13 2 12 3 11 4 9 5 10 6 8 8 5 9 6 10 84 11 7 13 85 14
REMARK SMILES IDX 4 15 3 16 1 17 2 18 89 19 86 20 88 21 87 22 90 23 91 24
REMARK SMILES IDX 92 25 15 26 16 27 17 28 18 29 19 30 20 32 21 33 22 34 83 35
REMARK SMILES IDX 23 36 82 37 24 38 25 39 26 40 76 41 27 42 81 43 75 44 77 45
REMARK SMILES IDX 28 46 80 47 74 48 73 49 29 51 61 52 41 53 60 54 42 55 45 56
REMARK SMILES IDX 59 57 78 58 43 59 44 60 58 62 79 63 46 64 30 65 31 66 39 67
REMARK SMILES IDX 32 68 33 69 37 70 40 71 34 72 35 73 38 74 36 75 62 76 63 77
REMARK SMILES IDX 71 78 64 79 65 80 69 81 72 82 66 83 67 84 70 85 68 86 47 87
REMARK SMILES IDX 48 88 56 89 49 90 50 91 54 92 57 93 51 94 52 95 55 96 53 97
REMARK H PARENT 11 7 5 12 18 31 77 50 45 61
REMARK Flexibility Score: inf
ROOT
ATOM      1  C   UNL A   1      32.926  35.031  29.623  1.00  0.00     0.002 C 
ENDROOT
BRANCH   1   2
ATOM      2  C   UNL A   1      33.681  34.053  28.386  1.00  0.00     0.021 C 
BRANCH   2   3
ATOM      3  C   UNL A   1      33.364  32.025  27.586  1.00  0.00     0.116 C 
BRANCH   3   4
ATOM      4  N   UNL A   1      34.249  30.700  27.668  1.00  0.00    -0.356 N 
ATOM      5  C   UNL A   1      34.264  29.501  27.037  1.00  0.00     0.229 C 
ATOM      6  O   UNL A   1      35.072  28.671  27.472  1.00  0.00    -0.275 OA
ATOM      7  H   UNL A   1      34.960  30.772  28.345  1.00  0.00     0.163 HD
BRANCH   5   8
ATOM      8  C   UNL A   1      33.368  29.126  25.868  1.00  0.00     0.142 C 
ATOM      9  N   UNL A   1      32.537  26.908  25.426  1.00  0.00    -0.328 N 
ATOM     10  C   UNL A   1      31.388  27.728  25.807  1.00  0.00     0.263 C 
ATOM     11  C   UNL A   1      33.691  27.787  25.211  1.00  0.00     0.193 C 
ATOM     12  H   UNL A   1      32.299  26.451  24.546  1.00  0.00     0.348 HD
ATOM     13  C   UNL A   1      31.886  29.112  26.194  1.00  0.00     0.081 C 
ATOM     14  C   UNL A   1      33.924  27.927  23.705  1.00  0.00     0.076 C 
BRANCH   9  15
ATOM     15  C   UNL A   1      32.801  25.715  26.241  1.00  0.00     0.299 C 
BRANCH  15  16
ATOM     16  C   UNL A   1      33.427  24.556  25.494  1.00  0.00     0.016 A 
ATOM     17  C   UNL A   1      30.915  23.320  24.986  1.00  0.00     0.052 C 
ATOM     18  C   UNL A   1      32.406  23.137  25.010  1.00  0.00     0.036 A 
ATOM     19  C   UNL A   1      33.206  21.609  24.483  1.00  0.00     0.272 A 
ATOM     20  C   UNL A   1      35.237  24.457  25.375  1.00  0.00     0.010 A 
ATOM     21  C   UNL A   1      35.008  21.488  24.426  1.00  0.00     0.086 A 
ATOM     22  C   UNL A   1      36.028  22.917  24.850  1.00  0.00     0.008 A 
BRANCH  19  23
ATOM     23  N   UNL A   1      32.454  20.419  24.113  1.00  0.00     0.062 N 
ATOM     24  O   UNL A   1      32.153  20.307  22.920  1.00  0.00    -0.258 OA
ATOM     25  O   UNL A   1      32.153  19.619  25.001  1.00  0.00    -0.258 OA
ENDBRANCH  19  23
ENDBRANCH  15  16
ENDBRANCH   9  15
ENDBRANCH   5   8
ENDBRANCH   3   4
ENDBRANCH   2   3
ENDBRANCH   1   2
BRANCH   1  26
ATOM     26  C   UNL A   1      33.304  36.517  29.767  1.00  0.00     0.002 C 
BRANCH  26  27
ATOM     27  C   UNL A   1      33.075  37.108  31.150  1.00  0.00     0.021 C 
BRANCH  27  28
ATOM     28  C   UNL A   1      32.860  36.043  32.199  1.00  0.00     0.116 C 
BRANCH  28  29
ATOM     29  N   UNL A   1      33.976  36.054  33.128  1.00  0.00    -0.352 N 
ATOM     30  C   UNL A   1      34.662  34.970  33.632  1.00  0.00     0.251 C 
ATOM     31  H   UNL A   1      34.277  36.940  33.435  1.00  0.00     0.163 HD
ATOM     32  O   UNL A   1      35.146  34.986  34.755  1.00  0.00    -0.269 OA
BRANCH  30  33
ATOM     33  C   UNL A   1      35.090  33.953  32.643  1.00  0.00     0.039 A 
ATOM     34  C   UNL A   1      35.269  32.705  33.257  1.00  0.00     0.014 A 
ATOM     35  C   UNL A   1      35.899  34.361  31.588  1.00  0.00     0.014 A 
ATOM     36  C   UNL A   1      36.463  32.038  33.069  1.00  0.00     0.010 A 
ATOM     37  C   UNL A   1      37.143  33.789  31.511  1.00  0.00     0.010 A 
ATOM     38  C   UNL A   1      37.434  32.669  32.301  1.00  0.00    -0.014 A 
BRANCH  38  39
ATOM     39  C   UNL A   1      38.743  32.109  32.065  1.00  0.00     0.031 A 
ATOM     40  C   UNL A   1      38.737  30.860  31.295  1.00  0.00     0.074 A 
ATOM     41  C   UNL A   1      39.855  32.772  32.438  1.00  0.00     0.049 A 
ATOM     42  N   UNL A   1      39.726  30.053  31.222  1.00  0.00    -0.248 NA
ATOM     43  C   UNL A   1      37.550  30.381  30.588  1.00  0.00     0.031 C 
ATOM     44  C   UNL A   1      41.239  32.492  32.070  1.00  0.00     0.029 A 
ATOM     45  N   UNL A   1      39.960  33.745  33.445  1.00  0.00    -0.354 N 
ATOM     46  C   UNL A   1      39.426  29.116  30.260  1.00  0.00     0.074 A 
ATOM     47  C   UNL A   1      38.029  29.299  29.977  1.00  0.00     0.031 C 
ATOM     48  C   UNL A   1      42.048  32.997  33.019  1.00  0.00     0.029 A 
ATOM     49  C   UNL A   1      41.192  33.468  34.094  1.00  0.00     0.049 A 
ATOM     50  H   UNL A   1      39.319  34.464  33.654  1.00  0.00     0.167 HD
ATOM     51  C   UNL A   1      40.463  28.399  29.748  1.00  0.00     0.037 A 
ATOM     52  C   UNL A   1      41.185  32.973  35.370  1.00  0.00     0.037 A 
ATOM     53  C   UNL A   1      41.666  28.652  30.550  1.00  0.00     0.049 A 
ATOM     54  C   UNL A   1      41.735  31.558  35.476  1.00  0.00     0.074 A 
ATOM     55  C   UNL A   1      42.761  29.492  30.423  1.00  0.00     0.029 A 
ATOM     56  N   UNL A   1      41.631  28.282  31.883  1.00  0.00    -0.354 N 
ATOM     57  N   UNL A   1      42.005  30.787  34.455  1.00  0.00    -0.248 NA
ATOM     58  C   UNL A   1      41.949  30.877  36.750  1.00  0.00     0.031 C 
ATOM     59  C   UNL A   1      43.369  29.622  31.711  1.00  0.00     0.029 A 
ATOM     60  C   UNL A   1      42.665  28.836  32.608  1.00  0.00     0.049 A 
ATOM     61  H   UNL A   1      40.946  27.691  32.270  1.00  0.00     0.167 HD
ATOM     62  C   UNL A   1      42.401  29.548  34.892  1.00  0.00     0.074 A 
ATOM     63  C   UNL A   1      42.310  29.647  36.341  1.00  0.00     0.031 C 
ATOM     64  C   UNL A   1      42.747  28.536  34.032  1.00  0.00     0.037 A 
BRANCH  51  65
ATOM     65  C   UNL A   1      40.465  27.651  28.434  1.00  0.00     0.064 A 
ATOM     66  C   UNL A   1      39.826  26.395  28.354  1.00  0.00     0.173 A 
ATOM     67  C   UNL A   1      41.123  28.041  27.248  1.00  0.00     0.173 A 
ATOM     68  F   UNL A   1      39.110  25.909  29.376  1.00  0.00    -0.203 F 
ATOM     69  C   UNL A   1      39.908  25.576  27.222  1.00  0.00     0.198 A 
ATOM     70  C   UNL A   1      41.220  27.216  26.123  1.00  0.00     0.198 A 
ATOM     71  F   UNL A   1      41.680  29.242  27.097  1.00  0.00    -0.203 F 
ATOM     72  F   UNL A   1      39.299  24.382  27.224  1.00  0.00    -0.200 F 
ATOM     73  C   UNL A   1      40.621  25.978  26.113  1.00  0.00     0.200 A 
ATOM     74  F   UNL A   1      41.905  27.639  25.051  1.00  0.00    -0.200 F 
ATOM     75  F   UNL A   1      40.719  25.187  25.037  1.00  0.00    -0.200 F 
ENDBRANCH  51  65
BRANCH  52  76
ATOM     76  C   UNL A   1      40.044  33.533  36.165  1.00  0.00     0.064 A 
ATOM     77  C   UNL A   1      38.937  32.686  36.406  1.00  0.00     0.173 A 
ATOM     78  C   UNL A   1      40.223  34.615  37.033  1.00  0.00     0.173 A 
ATOM     79  F   UNL A   1      38.697  31.647  35.589  1.00  0.00    -0.203 F 
ATOM     80  C   UNL A   1      38.186  32.792  37.575  1.00  0.00     0.198 A 
ATOM     81  C   UNL A   1      39.433  34.746  38.179  1.00  0.00     0.198 A 
ATOM     82  F   UNL A   1      41.237  35.472  36.854  1.00  0.00    -0.203 F 
ATOM     83  F   UNL A   1      37.270  31.858  37.869  1.00  0.00    -0.200 F 
ATOM     84  C   UNL A   1      38.460  33.801  38.479  1.00  0.00     0.200 A 
ATOM     85  F   UNL A   1      39.689  35.731  39.051  1.00  0.00    -0.200 F 
ATOM     86  F   UNL A   1      37.819  33.838  39.656  1.00  0.00    -0.200 F 
ENDBRANCH  52  76
BRANCH  64  87
ATOM     87  C   UNL A   1      43.144  27.134  34.458  1.00  0.00     0.064 A 
ATOM     88  C   UNL A   1      44.473  26.688  34.486  1.00  0.00     0.173 A 
ATOM     89  C   UNL A   1      42.180  26.148  34.792  1.00  0.00     0.173 A 
ATOM     90  F   UNL A   1      45.469  27.452  34.015  1.00  0.00    -0.203 F 
ATOM     91  C   UNL A   1      44.818  25.417  34.959  1.00  0.00     0.198 A 
ATOM     92  C   UNL A   1      42.521  24.864  35.209  1.00  0.00     0.198 A 
ATOM     93  F   UNL A   1      40.863  26.383  34.752  1.00  0.00    -0.203 F 
ATOM     94  F   UNL A   1      46.110  25.074  35.050  1.00  0.00    -0.200 F 
ATOM     95  C   UNL A   1      43.843  24.509  35.328  1.00  0.00     0.200 A 
ATOM     96  F   UNL A   1      41.553  23.986  35.503  1.00  0.00    -0.200 F 
ATOM     97  F   UNL A   1      44.175  23.294  35.784  1.00  0.00    -0.200 F 
ENDBRANCH  64  87
ENDBRANCH  38  39
ENDBRANCH  30  33
ENDBRANCH  28  29
ENDBRANCH  27  28
ENDBRANCH  26  27
ENDBRANCH   1  26
TORSDOF 16
ENDMDL
MODEL 3
REMARK VINA RESULT:     -14.0      1.612      3.494
REMARK SMILES Cc1c(C[N@H+]2CC[C@@H](C(=O)NCCCCCCNC(=O)c3ccc(-c4c5nc(c(-c6c(F)c(F)c(F)c(F)c6F)c6ccc([nH]6)c(-c6c(F)c(F)c(F)c(F)c6F)c6nc(c(-c7c(F)c(F)c(F)c(F)c7F)c7ccc4[nH]7)C=C6)C=C5)cc3)[C@@H]2C)cccc1[N+](=O)[O-]
REMARK SMILES IDX 14 1 13 2 12 3 11 4 9 5 10 6 8 8 5 9 6 10 84 11 7 13 85 14
REMARK SMILES IDX 4 15 3 16 1 17 2 18 89 19 86 20 88 21 87 22 90 23 91 24
REMARK SMILES IDX 92 25 15 26 16 27 17 28 18 29 19 30 20 32 21 33 22 34 83 35
REMARK SMILES IDX 23 36 82 37 24 38 25 39 26 40 76 41 27 42 81 43 75 44 77 45
REMARK SMILES IDX 28 46 80 47 74 48 73 49 29 51 61 52 41 53 60 54 42 55 45 56
REMARK SMILES IDX 59 57 78 58 43 59 44 60 58 62 79 63 46 64 30 65 31 66 39 67
REMARK SMILES IDX 32 68 33 69 37 70 40 71 34 72 35 73 38 74 36 75 62 76 63 77
REMARK SMILES IDX 71 78 64 79 65 80 69 81 72 82 66 83 67 84 70 85 68 86 47 87
REMARK SMILES IDX 48 88 56 89 49 90 50 91 54 92 57 93 51 94 52 95 55 96 53 97
REMARK H PARENT 11 7 5 12 18 31 77 50 45 61
REMARK Flexibility Score: inf
ROOT
ATOM      1  C   UNL A   1      31.387  31.502  26.151  1.00  0.00     0.002 C 
ENDROOT
BRANCH   1   2
ATOM      2  C   UNL A   1      30.187  31.294  24.897  1.00  0.00     0.021 C 
BRANCH   2   3
ATOM      3  C   UNL A   1      29.749  29.745  23.392  1.00  0.00     0.116 C 
BRANCH   3   4
ATOM      4  N   UNL A   1      29.648  28.157  23.502  1.00  0.00    -0.356 N 
ATOM      5  C   UNL A   1      30.446  27.108  23.183  1.00  0.00     0.229 C 
ATOM      6  O   UNL A   1      29.950  25.985  23.334  1.00  0.00    -0.275 OA
ATOM      7  H   UNL A   1      28.796  27.866  23.899  1.00  0.00     0.163 HD
BRANCH   5   8
ATOM      8  C   UNL A   1      31.868  27.230  22.659  1.00  0.00     0.142 C 
ATOM      9  N   UNL A   1      33.796  26.182  23.653  1.00  0.00    -0.328 N 
ATOM     10  C   UNL A   1      33.572  25.530  22.364  1.00  0.00     0.263 C 
ATOM     11  C   UNL A   1      32.942  27.371  23.734  1.00  0.00     0.193 C 
ATOM     12  H   UNL A   1      34.773  26.473  23.675  1.00  0.00     0.348 HD
ATOM     13  C   UNL A   1      32.299  26.094  21.749  1.00  0.00     0.081 C 
ATOM     14  C   UNL A   1      33.811  28.612  23.519  1.00  0.00     0.076 C 
BRANCH   9  15
ATOM     15  C   UNL A   1      33.786  25.321  24.843  1.00  0.00     0.299 C 
BRANCH  15  16
ATOM     16  C   UNL A   1      34.249  23.899  24.608  1.00  0.00     0.016 A 
ATOM     17  C   UNL A   1      31.612  22.957  24.098  1.00  0.00     0.052 C 
ATOM     18  C   UNL A   1      33.027  22.570  24.425  1.00  0.00     0.036 A 
ATOM     19  C   UNL A   1      33.562  20.852  24.539  1.00  0.00     0.272 A 
ATOM     20  C   UNL A   1      36.006  23.495  24.827  1.00  0.00     0.010 A 
ATOM     21  C   UNL A   1      35.301  20.449  24.823  1.00  0.00     0.086 A 
ATOM     22  C   UNL A   1      36.530  21.767  24.946  1.00  0.00     0.008 A 
BRANCH  19  23
ATOM     23  N   UNL A   1      32.636  19.735  24.436  1.00  0.00     0.062 N 
ATOM     24  O   UNL A   1      32.474  19.255  23.309  1.00  0.00    -0.258 OA
ATOM     25  O   UNL A   1      32.065  19.354  25.460  1.00  0.00    -0.258 OA
ENDBRANCH  19  23
ENDBRANCH  15  16
ENDBRANCH   9  15
ENDBRANCH   5   8
ENDBRANCH   3   4
ENDBRANCH   2   3
ENDBRANCH   1   2
BRANCH   1  26
ATOM     26  C   UNL A   1      32.177  30.286  26.670  1.00  0.00     0.002 C 
BRANCH  26  27
ATOM     27  C   UNL A   1      33.677  30.501  26.798  1.00  0.00     0.021 C 
BRANCH  27  28
ATOM     28  C   UNL A   1      34.079  30.919  28.192  1.00  0.00     0.116 C 
BRANCH  28  29
ATOM     29  N   UNL A   1      35.320  31.669  28.127  1.00  0.00    -0.352 N 
ATOM     30  C   UNL A   1      36.528  31.348  28.708  1.00  0.00     0.251 C 
ATOM     31  H   UNL A   1      35.296  32.507  27.610  1.00  0.00     0.163 HD
ATOM     32  O   UNL A   1      37.302  32.213  29.096  1.00  0.00    -0.269 OA
BRANCH  30  33
ATOM     33  C   UNL A   1      36.996  29.956  28.512  1.00  0.00     0.039 A 
ATOM     34  C   UNL A   1      37.329  29.364  29.738  1.00  0.00     0.014 A 
ATOM     35  C   UNL A   1      37.700  29.656  27.351  1.00  0.00     0.014 A 
ATOM     36  C   UNL A   1      38.569  28.773  29.875  1.00  0.00     0.010 A 
ATOM     37  C   UNL A   1      38.987  29.210  27.511  1.00  0.00     0.010 A 
ATOM     38  C   UNL A   1      39.430  28.832  28.785  1.00  0.00    -0.014 A 
BRANCH  38  39
ATOM     39  C   UNL A   1      40.770  28.301  28.807  1.00  0.00     0.031 A 
ATOM     40  C   UNL A   1      40.851  26.852  28.588  1.00  0.00     0.074 A 
ATOM     41  C   UNL A   1      41.837  29.119  28.906  1.00  0.00     0.049 A 
ATOM     42  N   UNL A   1      41.879  26.138  28.850  1.00  0.00    -0.248 NA
ATOM     43  C   UNL A   1      39.714  26.068  28.107  1.00  0.00     0.031 C 
ATOM     44  C   UNL A   1      43.245  28.797  28.697  1.00  0.00     0.029 A 
ATOM     45  N   UNL A   1      41.859  30.412  29.453  1.00  0.00    -0.354 N 
ATOM     46  C   UNL A   1      41.657  24.884  28.328  1.00  0.00     0.074 A 
ATOM     47  C   UNL A   1      40.264  24.862  27.976  1.00  0.00     0.031 C 
ATOM     48  C   UNL A   1      43.994  29.677  29.385  1.00  0.00     0.029 A 
ATOM     49  C   UNL A   1      43.079  30.480  30.176  1.00  0.00     0.049 A 
ATOM     50  H   UNL A   1      41.179  31.117  29.355  1.00  0.00     0.167 HD
ATOM     51  C   UNL A   1      42.744  24.085  28.153  1.00  0.00     0.037 A 
ATOM     52  C   UNL A   1      43.050  30.524  31.544  1.00  0.00     0.037 A 
ATOM     53  C   UNL A   1      43.905  24.699  28.809  1.00  0.00     0.049 A 
ATOM     54  C   UNL A   1      43.662  29.296  32.204  1.00  0.00     0.074 A 
ATOM     55  C   UNL A   1      44.963  25.484  28.379  1.00  0.00     0.029 A 
ATOM     56  N   UNL A   1      43.840  24.878  30.180  1.00  0.00    -0.354 N 
ATOM     57  N   UNL A   1      44.004  28.205  31.570  1.00  0.00    -0.248 NA
ATOM     58  C   UNL A   1      43.862  29.180  33.645  1.00  0.00     0.031 C 
ATOM     59  C   UNL A   1      45.518  26.141  29.523  1.00  0.00     0.029 A 
ATOM     60  C   UNL A   1      44.820  25.729  30.645  1.00  0.00     0.049 A 
ATOM     61  H   UNL A   1      43.170  24.446  30.758  1.00  0.00     0.167 HD
ATOM     62  C   UNL A   1      44.442  27.260  32.463  1.00  0.00     0.074 A 
ATOM     63  C   UNL A   1      44.294  27.911  33.756  1.00  0.00     0.031 C 
ATOM     64  C   UNL A   1      44.865  26.013  32.074  1.00  0.00     0.037 A 
BRANCH  51  65
ATOM     65  C   UNL A   1      42.828  22.885  27.237  1.00  0.00     0.064 A 
ATOM     66  C   UNL A   1      42.065  21.735  27.534  1.00  0.00     0.173 A 
ATOM     67  C   UNL A   1      43.673  22.744  26.116  1.00  0.00     0.173 A 
ATOM     68  F   UNL A   1      41.173  21.728  28.533  1.00  0.00    -0.203 F 
ATOM     69  C   UNL A   1      42.196  20.537  26.824  1.00  0.00     0.198 A 
ATOM     70  C   UNL A   1      43.818  21.541  25.417  1.00  0.00     0.198 A 
ATOM     71  F   UNL A   1      44.379  23.757  25.615  1.00  0.00    -0.203 F 
ATOM     72  F   UNL A   1      41.459  19.475  27.177  1.00  0.00    -0.200 F 
ATOM     73  C   UNL A   1      43.087  20.434  25.777  1.00  0.00     0.200 A 
ATOM     74  F   UNL A   1      44.678  21.473  24.391  1.00  0.00    -0.200 F 
ATOM     75  F   UNL A   1      43.230  19.281  25.110  1.00  0.00    -0.200 F 
ENDBRANCH  51  65
BRANCH  52  76
ATOM     76  C   UNL A   1      41.856  31.284  32.039  1.00  0.00     0.064 A 
ATOM     77  C   UNL A   1      40.793  30.538  32.601  1.00  0.00     0.173 A 
ATOM     78  C   UNL A   1      41.947  32.634  32.393  1.00  0.00     0.173 A 
ATOM     79  F   UNL A   1      40.638  29.244  32.277  1.00  0.00    -0.203 F 
ATOM     80  C   UNL A   1      40.005  31.060  33.624  1.00  0.00     0.198 A 
ATOM     81  C   UNL A   1      41.119  33.167  33.385  1.00  0.00     0.198 A 
ATOM     82  F   UNL A   1      42.915  33.407  31.883  1.00  0.00    -0.203 F 
ATOM     83  F   UNL A   1      39.136  30.269  34.271  1.00  0.00    -0.200 F 
ATOM     84  C   UNL A   1      40.194  32.365  34.040  1.00  0.00     0.200 A 
ATOM     85  F   UNL A   1      41.292  34.436  33.781  1.00  0.00    -0.200 F 
ATOM     86  F   UNL A   1      39.519  32.836  35.099  1.00  0.00    -0.200 F 
ENDBRANCH  52  76
BRANCH  64  87
ATOM     87  C   UNL A   1      45.312  24.914  33.020  1.00  0.00     0.064 A 
ATOM     88  C   UNL A   1      44.438  23.956  33.551  1.00  0.00     0.173 A 
ATOM     89  C   UNL A   1      46.648  24.826  33.492  1.00  0.00     0.173 A 
ATOM     90  F   UNL A   1      43.117  24.034  33.341  1.00  0.00    -0.203 F 
ATOM     91  C   UNL A   1      44.891  22.906  34.358  1.00  0.00     0.198 A 
ATOM     92  C   UNL A   1      47.087  23.813  34.341  1.00  0.00     0.198 A 
ATOM     93  F   UNL A   1      47.598  25.701  33.141  1.00  0.00    -0.203 F 
ATOM     94  F   UNL A   1      44.028  21.964  34.764  1.00  0.00    -0.200 F 
ATOM     95  C   UNL A   1      46.216  22.830  34.745  1.00  0.00     0.200 A 
ATOM     96  F   UNL A   1      48.364  23.799  34.748  1.00  0.00    -0.200 F 
ATOM     97  F   UNL A   1      46.649  21.822  35.514  1.00  0.00    -0.200 F 
ENDBRANCH  64  87
ENDBRANCH  38  39
ENDBRANCH  30  33
ENDBRANCH  28  29
ENDBRANCH  27  28
ENDBRANCH  26  27
ENDBRANCH   1  26
TORSDOF 16
ENDMDL
