MODEL 1
REMARK VINA RESULT:     -11.1      0.000      0.000
REMARK SMILES Cc1ccccc1-n1c(S[C@@H](C)C(=O)NCCCCCCNC(=O)c2ccc(-c3c4nc(c(-c5c(F)c(F)c(F)c(F)c5F)c5ccc([nH]5)c(-c5c(F)c(F)c(F)c(F)c5F)c5nc(c(-c6c(F)c(F)c(F)c(F)c6F)c6ccc3[nH]6)C=C5)C=C4)cc2)nc2sc3c(c2c1=O)C[C@@H](C(C)C)OC3
REMARK SMILES IDX 18 1 17 2 16 3 15 4 13 5 14 6 11 8 12 9 10 10 9 11 8 12
REMARK SMILES IDX 94 13 88 14 93 15 95 16 89 17 92 18 90 19 91 20 96 21 102 22
REMARK SMILES IDX 97 23 101 24 7 25 1 26 2 27 3 28 4 29 6 30 5 31 98 32 99 33
REMARK SMILES IDX 100 34 19 35 20 36 21 37 22 38 23 39 24 41 25 42 26 43 87 44
REMARK SMILES IDX 27 45 86 46 28 47 29 48 30 49 80 50 31 51 85 52 79 53 81 54
REMARK SMILES IDX 32 55 84 56 78 57 77 58 33 60 65 61 45 62 64 63 46 64 49 65
REMARK SMILES IDX 63 66 82 67 47 68 48 69 62 71 83 72 50 73 34 74 35 75 43 76
REMARK SMILES IDX 36 77 37 78 41 79 44 80 38 81 39 82 42 83 40 84 66 85 67 86
REMARK SMILES IDX 75 87 68 88 69 89 73 90 76 91 70 92 71 93 74 94 72 95 51 96
REMARK SMILES IDX 52 97 60 98 53 99 54 100 58 101 61 102 55 103 56 104 59 105
REMARK SMILES IDX 57 106
REMARK H PARENT 15 7 22 40 81 59 49 70
REMARK Flexibility Score: inf
ROOT
ATOM      1  C   UNL A   1      40.605  28.509  33.084  1.00  0.00     0.002 C 
ENDROOT
BRANCH   1   2
ATOM      2  C   UNL A   1      40.921  29.976  32.794  1.00  0.00     0.021 C 
BRANCH   2   3
ATOM      3  C   UNL A   1      42.221  30.598  33.290  1.00  0.00     0.116 C 
BRANCH   3   4
ATOM      4  N   UNL A   1      42.717  30.116  34.547  1.00  0.00    -0.355 N 
ATOM      5  C   UNL A   1      42.158  30.064  35.783  1.00  0.00     0.233 C 
ATOM      6  O   UNL A   1      42.790  29.318  36.551  1.00  0.00    -0.274 OA
ATOM      7  H   UNL A   1      43.634  29.758  34.507  1.00  0.00     0.163 HD
BRANCH   5   8
ATOM      8  C   UNL A   1      41.050  30.958  36.358  1.00  0.00     0.140 C 
ATOM      9  C   UNL A   1      39.661  30.301  36.158  1.00  0.00     0.030 C 
BRANCH   8  10
ATOM     10  S   UNL A   1      40.732  32.692  36.076  1.00  0.00    -0.074 SA
BRANCH  10  11
ATOM     11  C   UNL A   1      39.190  33.092  35.397  1.00  0.00     0.177 A 
ATOM     12  N   UNL A   1      38.069  33.437  36.172  1.00  0.00    -0.255 N 
ATOM     13  C   UNL A   1      36.852  33.759  35.550  1.00  0.00     0.267 A 
ATOM     14  N   UNL A   1      39.214  33.097  34.096  1.00  0.00    -0.212 NA
ATOM     15  C   UNL A   1      36.870  33.721  34.101  1.00  0.00     0.081 A 
ATOM     16  O   UNL A   1      35.802  34.025  36.156  1.00  0.00    -0.268 OA
ATOM     17  C   UNL A   1      38.054  33.404  33.482  1.00  0.00     0.132 A 
ATOM     18  C   UNL A   1      35.810  33.894  33.157  1.00  0.00    -0.014 A 
ATOM     19  S   UNL A   1      37.911  33.383  31.780  1.00  0.00    -0.117 S 
ATOM     20  C   UNL A   1      36.244  33.709  31.860  1.00  0.00     0.037 A 
ATOM     21  C   UNL A   1      34.364  34.160  33.422  1.00  0.00     0.070 C 
ATOM     22  C   UNL A   1      35.383  33.806  30.641  1.00  0.00     0.207 C 
ATOM     23  C   UNL A   1      33.673  34.696  32.153  1.00  0.00     0.125 C 
ATOM     24  O   UNL A   1      33.996  33.843  31.029  1.00  0.00    -0.372 OA
BRANCH  12  25
ATOM     25  C   UNL A   1      38.061  33.346  37.596  1.00  0.00     0.054 A 
ATOM     26  C   UNL A   1      39.238  35.595  37.898  1.00  0.00     0.046 C 
ATOM     27  C   UNL A   1      38.667  34.306  38.420  1.00  0.00    -0.027 A 
ATOM     28  C   UNL A   1      38.748  34.051  39.800  1.00  0.00     0.005 A 
ATOM     29  C   UNL A   1      38.211  32.887  40.354  1.00  0.00     0.000 A 
ATOM     30  C   UNL A   1      37.431  32.232  38.181  1.00  0.00     0.027 A 
ATOM     31  C   UNL A   1      37.528  31.988  39.548  1.00  0.00     0.002 A 
ENDBRANCH  12  25
BRANCH  23  32
ATOM     32  C   UNL A   1      33.934  36.194  31.865  1.00  0.00     0.012 C 
ATOM     33  C   UNL A   1      32.962  36.702  30.795  1.00  0.00     0.010 C 
ATOM     34  C   UNL A   1      33.803  37.051  33.128  1.00  0.00     0.010 C 
ENDBRANCH  23  32
ENDBRANCH  10  11
ENDBRANCH   8  10
ENDBRANCH   5   8
ENDBRANCH   3   4
ENDBRANCH   2   3
ENDBRANCH   1   2
BRANCH   1  35
ATOM     35  C   UNL A   1      39.518  27.812  32.271  1.00  0.00     0.002 C 
BRANCH  35  36
ATOM     36  C   UNL A   1      38.093  28.342  32.423  1.00  0.00     0.021 C 
BRANCH  36  37
ATOM     37  C   UNL A   1      37.661  29.510  31.519  1.00  0.00     0.116 C 
BRANCH  37  38
ATOM     38  N   UNL A   1      37.248  29.077  30.201  1.00  0.00    -0.352 N 
ATOM     39  C   UNL A   1      37.951  28.869  29.037  1.00  0.00     0.251 C 
ATOM     40  H   UNL A   1      36.284  28.896  30.124  1.00  0.00     0.163 HD
ATOM     41  O   UNL A   1      37.268  28.853  28.008  1.00  0.00    -0.269 OA
BRANCH  39  42
ATOM     42  C   UNL A   1      39.432  28.600  28.923  1.00  0.00     0.039 A 
ATOM     43  C   UNL A   1      40.262  29.737  28.898  1.00  0.00     0.014 A 
ATOM     44  C   UNL A   1      40.069  27.360  28.811  1.00  0.00     0.014 A 
ATOM     45  C   UNL A   1      41.661  29.642  28.744  1.00  0.00     0.010 A 
ATOM     46  C   UNL A   1      41.481  27.263  28.654  1.00  0.00     0.010 A 
ATOM     47  C   UNL A   1      42.305  28.399  28.617  1.00  0.00    -0.014 A 
BRANCH  47  48
ATOM     48  C   UNL A   1      43.783  28.385  28.915  1.00  0.00     0.031 A 
ATOM     49  C   UNL A   1      43.935  27.798  30.331  1.00  0.00     0.074 A 
ATOM     50  C   UNL A   1      44.903  28.161  28.138  1.00  0.00     0.049 A 
ATOM     51  N   UNL A   1      43.659  26.543  30.546  1.00  0.00    -0.248 NA
ATOM     52  C   UNL A   1      44.174  28.503  31.594  1.00  0.00     0.031 C 
ATOM     53  C   UNL A   1      46.229  28.668  28.541  1.00  0.00     0.029 A 
ATOM     54  N   UNL A   1      45.220  27.491  26.920  1.00  0.00    -0.354 N 
ATOM     55  C   UNL A   1      44.109  26.209  31.816  1.00  0.00     0.074 A 
ATOM     56  C   UNL A   1      44.217  27.488  32.491  1.00  0.00     0.031 C 
ATOM     57  C   UNL A   1      47.202  28.168  27.749  1.00  0.00     0.029 A 
ATOM     58  C   UNL A   1      46.631  27.188  26.825  1.00  0.00     0.049 A 
ATOM     59  H   UNL A   1      44.558  27.261  26.228  1.00  0.00     0.167 HD
ATOM     60  C   UNL A   1      44.642  24.951  32.028  1.00  0.00     0.037 A 
ATOM     61  C   UNL A   1      47.359  26.103  26.355  1.00  0.00     0.037 A 
ATOM     62  C   UNL A   1      44.959  24.403  30.735  1.00  0.00     0.049 A 
ATOM     63  C   UNL A   1      46.592  24.873  25.938  1.00  0.00     0.074 A 
ATOM     64  C   UNL A   1      45.924  25.012  29.978  1.00  0.00     0.029 A 
ATOM     65  N   UNL A   1      44.240  23.526  29.925  1.00  0.00    -0.354 N 
ATOM     66  N   UNL A   1      46.409  23.872  26.757  1.00  0.00    -0.248 NA
ATOM     67  C   UNL A   1      45.991  24.603  24.636  1.00  0.00     0.031 C 
ATOM     68  C   UNL A   1      45.317  24.962  28.759  1.00  0.00     0.029 A 
ATOM     69  C   UNL A   1      44.552  23.836  28.602  1.00  0.00     0.049 A 
ATOM     70  H   UNL A   1      43.626  22.820  30.230  1.00  0.00     0.167 HD
ATOM     71  C   UNL A   1      45.187  23.356  26.385  1.00  0.00     0.074 A 
ATOM     72  C   UNL A   1      45.256  23.518  24.950  1.00  0.00     0.031 C 
ATOM     73  C   UNL A   1      44.132  23.306  27.293  1.00  0.00     0.037 A 
BRANCH  60  74
ATOM     74  C   UNL A   1      45.427  24.370  33.174  1.00  0.00     0.064 A 
ATOM     75  C   UNL A   1      44.837  23.375  34.014  1.00  0.00     0.173 A 
ATOM     76  C   UNL A   1      46.663  24.859  33.589  1.00  0.00     0.173 A 
ATOM     77  F   UNL A   1      43.681  22.770  33.709  1.00  0.00    -0.203 F 
ATOM     78  C   UNL A   1      45.397  22.971  35.217  1.00  0.00     0.198 A 
ATOM     79  C   UNL A   1      47.235  24.433  34.799  1.00  0.00     0.198 A 
ATOM     80  F   UNL A   1      47.308  25.780  32.859  1.00  0.00    -0.203 F 
ATOM     81  F   UNL A   1      44.753  22.082  35.987  1.00  0.00    -0.200 F 
ATOM     82  C   UNL A   1      46.592  23.514  35.620  1.00  0.00     0.200 A 
ATOM     83  F   UNL A   1      48.409  24.945  35.194  1.00  0.00    -0.200 F 
ATOM     84  F   UNL A   1      47.120  23.158  36.798  1.00  0.00    -0.200 F 
ENDBRANCH  60  74
BRANCH  61  85
ATOM     85  C   UNL A   1      48.772  25.740  26.798  1.00  0.00     0.064 A 
ATOM     86  C   UNL A   1      49.102  25.562  28.142  1.00  0.00     0.173 A 
ATOM     87  C   UNL A   1      49.876  25.803  25.909  1.00  0.00     0.173 A 
ATOM     88  F   UNL A   1      48.132  25.507  29.064  1.00  0.00    -0.203 F 
ATOM     89  C   UNL A   1      50.443  25.489  28.565  1.00  0.00     0.198 A 
ATOM     90  C   UNL A   1      51.205  25.765  26.327  1.00  0.00     0.198 A 
ATOM     91  F   UNL A   1      49.702  25.942  24.599  1.00  0.00    -0.203 F 
ATOM     92  F   UNL A   1      50.723  25.331  29.866  1.00  0.00    -0.200 F 
ATOM     93  C   UNL A   1      51.491  25.613  27.662  1.00  0.00     0.200 A 
ATOM     94  F   UNL A   1      52.196  25.904  25.434  1.00  0.00    -0.200 F 
ATOM     95  F   UNL A   1      52.765  25.595  28.079  1.00  0.00    -0.200 F 
ENDBRANCH  61  85
BRANCH  73  96
ATOM     96  C   UNL A   1      42.678  23.088  26.930  1.00  0.00     0.064 A 
ATOM     97  C   UNL A   1      42.040  21.832  26.872  1.00  0.00     0.173 A 
ATOM     98  C   UNL A   1      41.827  24.174  26.629  1.00  0.00     0.173 A 
ATOM     99  F   UNL A   1      42.700  20.677  26.871  1.00  0.00    -0.203 F 
ATOM    100  C   UNL A   1      40.663  21.688  26.766  1.00  0.00     0.198 A 
ATOM    101  C   UNL A   1      40.448  24.027  26.493  1.00  0.00     0.198 A 
ATOM    102  F   UNL A   1      42.292  25.418  26.453  1.00  0.00    -0.203 F 
ATOM    103  F   UNL A   1      40.122  20.463  26.776  1.00  0.00    -0.200 F 
ATOM    104  C   UNL A   1      39.865  22.794  26.661  1.00  0.00     0.200 A 
ATOM    105  F   UNL A   1      39.692  25.093  26.205  1.00  0.00    -0.200 F 
ATOM    106  F   UNL A   1      38.541  22.661  26.741  1.00  0.00    -0.200 F 
ENDBRANCH  73  96
ENDBRANCH  47  48
ENDBRANCH  39  42
ENDBRANCH  37  38
ENDBRANCH  36  37
ENDBRANCH  35  36
ENDBRANCH   1  35
TORSDOF 17
ENDMDL
MODEL 2
REMARK VINA RESULT:     -11.0      1.656      2.577
REMARK SMILES Cc1ccccc1-n1c(S[C@@H](C)C(=O)NCCCCCCNC(=O)c2ccc(-c3c4nc(c(-c5c(F)c(F)c(F)c(F)c5F)c5ccc([nH]5)c(-c5c(F)c(F)c(F)c(F)c5F)c5nc(c(-c6c(F)c(F)c(F)c(F)c6F)c6ccc3[nH]6)C=C5)C=C4)cc2)nc2sc3c(c2c1=O)C[C@@H](C(C)C)OC3
REMARK SMILES IDX 18 1 17 2 16 3 15 4 13 5 14 6 11 8 12 9 10 10 9 11 8 12
REMARK SMILES IDX 94 13 88 14 93 15 95 16 89 17 92 18 90 19 91 20 96 21 102 22
REMARK SMILES IDX 97 23 101 24 7 25 1 26 2 27 3 28 4 29 6 30 5 31 98 32 99 33
REMARK SMILES IDX 100 34 19 35 20 36 21 37 22 38 23 39 24 41 25 42 26 43 87 44
REMARK SMILES IDX 27 45 86 46 28 47 29 48 30 49 80 50 31 51 85 52 79 53 81 54
REMARK SMILES IDX 32 55 84 56 78 57 77 58 33 60 65 61 45 62 64 63 46 64 49 65
REMARK SMILES IDX 63 66 82 67 47 68 48 69 62 71 83 72 50 73 34 74 35 75 43 76
REMARK SMILES IDX 36 77 37 78 41 79 44 80 38 81 39 82 42 83 40 84 66 85 67 86
REMARK SMILES IDX 75 87 68 88 69 89 73 90 76 91 70 92 71 93 74 94 72 95 51 96
REMARK SMILES IDX 52 97 60 98 53 99 54 100 58 101 61 102 55 103 56 104 59 105
REMARK SMILES IDX 57 106
REMARK H PARENT 15 7 22 40 81 59 49 70
REMARK Flexibility Score: inf
ROOT
ATOM      1  C   UNL A   1      40.371  29.869  31.796  1.00  0.00     0.002 C 
ENDROOT
BRANCH   1   2
ATOM      2  C   UNL A   1      41.432  30.736  31.119  1.00  0.00     0.021 C 
BRANCH   2   3
ATOM      3  C   UNL A   1      41.846  32.068  31.734  1.00  0.00     0.116 C 
BRANCH   3   4
ATOM      4  N   UNL A   1      43.223  32.440  31.577  1.00  0.00    -0.355 N 
ATOM      5  C   UNL A   1      43.948  33.468  32.088  1.00  0.00     0.233 C 
ATOM      6  O   UNL A   1      45.171  33.290  31.953  1.00  0.00    -0.274 OA
ATOM      7  H   UNL A   1      43.738  31.841  30.989  1.00  0.00     0.163 HD
BRANCH   5   8
ATOM      8  C   UNL A   1      43.443  34.839  32.559  1.00  0.00     0.140 C 
ATOM      9  C   UNL A   1      44.630  35.744  32.977  1.00  0.00     0.030 C 
BRANCH   8  10
ATOM     10  S   UNL A   1      42.181  35.232  33.761  1.00  0.00    -0.074 SA
BRANCH  10  11
ATOM     11  C   UNL A   1      40.550  34.862  33.314  1.00  0.00     0.177 A 
ATOM     12  N   UNL A   1      39.516  34.672  34.248  1.00  0.00    -0.255 N 
ATOM     13  C   UNL A   1      38.213  34.383  33.811  1.00  0.00     0.267 A 
ATOM     14  N   UNL A   1      40.386  34.845  32.024  1.00  0.00    -0.212 NA
ATOM     15  C   UNL A   1      38.044  34.322  32.373  1.00  0.00     0.081 A 
ATOM     16  O   UNL A   1      37.254  34.151  34.564  1.00  0.00    -0.268 OA
ATOM     17  C   UNL A   1      39.142  34.569  31.586  1.00  0.00     0.132 A 
ATOM     18  C   UNL A   1      36.902  33.965  31.588  1.00  0.00    -0.014 A 
ATOM     19  S   UNL A   1      38.788  34.443  29.920  1.00  0.00    -0.117 S 
ATOM     20  C   UNL A   1      37.187  33.969  30.238  1.00  0.00     0.037 A 
ATOM     21  C   UNL A   1      35.549  33.543  32.058  1.00  0.00     0.070 C 
ATOM     22  C   UNL A   1      36.217  33.629  29.153  1.00  0.00     0.207 C 
ATOM     23  C   UNL A   1      34.519  33.670  30.918  1.00  0.00     0.125 C 
ATOM     24  O   UNL A   1      35.036  33.034  29.726  1.00  0.00    -0.372 OA
BRANCH  12  25
ATOM     25  C   UNL A   1      39.749  34.622  35.655  1.00  0.00     0.054 A 
ATOM     26  C   UNL A   1      40.288  32.123  35.630  1.00  0.00     0.046 C 
ATOM     27  C   UNL A   1      40.038  33.428  36.333  1.00  0.00    -0.027 A 
ATOM     28  C   UNL A   1      40.095  33.451  37.738  1.00  0.00     0.005 A 
ATOM     29  C   UNL A   1      39.902  34.636  38.451  1.00  0.00     0.000 A 
ATOM     30  C   UNL A   1      39.665  35.825  36.380  1.00  0.00     0.027 A 
ATOM     31  C   UNL A   1      39.713  35.830  37.771  1.00  0.00     0.002 A 
ENDBRANCH  12  25
BRANCH  23  32
ATOM     32  C   UNL A   1      34.021  35.114  30.661  1.00  0.00     0.012 C 
ATOM     33  C   UNL A   1      32.978  35.120  29.540  1.00  0.00     0.010 C 
ATOM     34  C   UNL A   1      33.425  35.746  31.923  1.00  0.00     0.010 C 
ENDBRANCH  23  32
ENDBRANCH  10  11
ENDBRANCH   8  10
ENDBRANCH   5   8
ENDBRANCH   3   4
ENDBRANCH   2   3
ENDBRANCH   1   2
BRANCH   1  35
ATOM     35  C   UNL A   1      39.030  30.497  32.167  1.00  0.00     0.002 C 
BRANCH  35  36
ATOM     36  C   UNL A   1      38.018  30.685  31.039  1.00  0.00     0.021 C 
BRANCH  36  37
ATOM     37  C   UNL A   1      36.815  29.726  30.985  1.00  0.00     0.116 C 
BRANCH  37  38
ATOM     38  N   UNL A   1      36.500  29.297  29.640  1.00  0.00    -0.352 N 
ATOM     39  C   UNL A   1      37.296  28.991  28.560  1.00  0.00     0.251 C 
ATOM     40  H   UNL A   1      35.536  29.205  29.465  1.00  0.00     0.163 HD
ATOM     41  O   UNL A   1      36.724  29.010  27.465  1.00  0.00    -0.269 OA
BRANCH  39  42
ATOM     42  C   UNL A   1      38.747  28.581  28.607  1.00  0.00     0.039 A 
ATOM     43  C   UNL A   1      39.623  29.327  27.794  1.00  0.00     0.014 A 
ATOM     44  C   UNL A   1      39.316  27.533  29.337  1.00  0.00     0.014 A 
ATOM     45  C   UNL A   1      40.997  29.026  27.697  1.00  0.00     0.010 A 
ATOM     46  C   UNL A   1      40.704  27.227  29.238  1.00  0.00     0.010 A 
ATOM     47  C   UNL A   1      41.572  27.966  28.418  1.00  0.00    -0.014 A 
BRANCH  47  48
ATOM     48  C   UNL A   1      43.068  28.019  28.597  1.00  0.00     0.031 A 
ATOM     49  C   UNL A   1      43.350  27.552  30.038  1.00  0.00     0.074 A 
ATOM     50  C   UNL A   1      44.132  27.769  27.753  1.00  0.00     0.049 A 
ATOM     51  N   UNL A   1      43.136  26.311  30.370  1.00  0.00    -0.248 NA
ATOM     52  C   UNL A   1      43.659  28.363  31.219  1.00  0.00     0.031 C 
ATOM     53  C   UNL A   1      45.466  28.346  28.009  1.00  0.00     0.029 A 
ATOM     54  N   UNL A   1      44.377  27.012  26.569  1.00  0.00    -0.354 N 
ATOM     55  C   UNL A   1      43.695  26.094  31.623  1.00  0.00     0.074 A 
ATOM     56  C   UNL A   1      43.808  27.424  32.186  1.00  0.00     0.031 C 
ATOM     57  C   UNL A   1      46.392  27.813  27.182  1.00  0.00     0.029 A 
ATOM     58  C   UNL A   1      45.787  26.746  26.386  1.00  0.00     0.049 A 
ATOM     59  H   UNL A   1      43.673  26.709  25.952  1.00  0.00     0.167 HD
ATOM     60  C   UNL A   1      44.287  24.873  31.888  1.00  0.00     0.037 A 
ATOM     61  C   UNL A   1      46.516  25.649  25.944  1.00  0.00     0.037 A 
ATOM     62  C   UNL A   1      44.524  24.233  30.620  1.00  0.00     0.049 A 
ATOM     63  C   UNL A   1      45.764  24.368  25.686  1.00  0.00     0.074 A 
ATOM     64  C   UNL A   1      45.404  24.808  29.744  1.00  0.00     0.029 A 
ATOM     65  N   UNL A   1      43.777  23.273  29.940  1.00  0.00    -0.354 N 
ATOM     66  N   UNL A   1      45.681  23.430  26.591  1.00  0.00    -0.248 NA
ATOM     67  C   UNL A   1      45.074  23.976  24.461  1.00  0.00     0.031 C 
ATOM     68  C   UNL A   1      44.707  24.643  28.585  1.00  0.00     0.029 A 
ATOM     69  C   UNL A   1      43.974  23.485  28.576  1.00  0.00     0.049 A 
ATOM     70  H   UNL A   1      43.213  22.575  30.346  1.00  0.00     0.167 HD
ATOM     71  C   UNL A   1      44.453  22.849  26.359  1.00  0.00     0.074 A 
ATOM     72  C   UNL A   1      44.405  22.898  24.915  1.00  0.00     0.031 C 
ATOM     73  C   UNL A   1      43.473  22.841  27.350  1.00  0.00     0.037 A 
BRANCH  60  74
ATOM     74  C   UNL A   1      45.179  24.409  33.009  1.00  0.00     0.064 A 
ATOM     75  C   UNL A   1      46.465  25.008  33.195  1.00  0.00     0.173 A 
ATOM     76  C   UNL A   1      44.908  23.298  33.802  1.00  0.00     0.173 A 
ATOM     77  F   UNL A   1      46.840  26.119  32.547  1.00  0.00    -0.203 F 
ATOM     78  C   UNL A   1      47.430  24.481  34.040  1.00  0.00     0.198 A 
ATOM     79  C   UNL A   1      45.883  22.779  34.670  1.00  0.00     0.198 A 
ATOM     80  F   UNL A   1      43.723  22.678  33.718  1.00  0.00    -0.203 F 
ATOM     81  F   UNL A   1      48.639  25.058  34.113  1.00  0.00    -0.200 F 
ATOM     82  C   UNL A   1      47.144  23.353  34.769  1.00  0.00     0.200 A 
ATOM     83  F   UNL A   1      45.608  21.688  35.398  1.00  0.00    -0.200 F 
ATOM     84  F   UNL A   1      48.084  22.816  35.557  1.00  0.00    -0.200 F 
ENDBRANCH  60  74
BRANCH  61  85
ATOM     85  C   UNL A   1      47.970  25.365  26.300  1.00  0.00     0.064 A 
ATOM     86  C   UNL A   1      48.370  25.077  27.606  1.00  0.00     0.173 A 
ATOM     87  C   UNL A   1      49.028  25.615  25.387  1.00  0.00     0.173 A 
ATOM     88  F   UNL A   1      47.447  24.843  28.548  1.00  0.00    -0.203 F 
ATOM     89  C   UNL A   1      49.729  25.076  27.974  1.00  0.00     0.198 A 
ATOM     90  C   UNL A   1      50.371  25.648  25.756  1.00  0.00     0.198 A 
ATOM     91  F   UNL A   1      48.789  25.875  24.106  1.00  0.00    -0.203 F 
ATOM     92  F   UNL A   1      50.074  24.808  29.242  1.00  0.00    -0.200 F 
ATOM     93  C   UNL A   1      50.724  25.383  27.057  1.00  0.00     0.200 A 
ATOM     94  F   UNL A   1      51.310  25.965  24.852  1.00  0.00    -0.200 F 
ATOM     95  F   UNL A   1      52.012  25.432  27.428  1.00  0.00    -0.200 F 
ENDBRANCH  61  85
BRANCH  73  96
ATOM     96  C   UNL A   1      42.005  22.550  27.122  1.00  0.00     0.064 A 
ATOM     97  C   UNL A   1      40.959  23.472  27.322  1.00  0.00     0.173 A 
ATOM     98  C   UNL A   1      41.572  21.287  26.661  1.00  0.00     0.173 A 
ATOM     99  F   UNL A   1      41.110  24.618  27.982  1.00  0.00    -0.203 F 
ATOM    100  C   UNL A   1      39.660  23.249  26.884  1.00  0.00     0.198 A 
ATOM    101  C   UNL A   1      40.262  21.052  26.249  1.00  0.00     0.198 A 
ATOM    102  F   UNL A   1      42.393  20.232  26.591  1.00  0.00    -0.203 F 
ATOM    103  F   UNL A   1      38.729  24.197  27.056  1.00  0.00    -0.200 F 
ATOM    104  C   UNL A   1      39.337  22.069  26.272  1.00  0.00     0.200 A 
ATOM    105  F   UNL A   1      39.908  19.834  25.822  1.00  0.00    -0.200 F 
ATOM    106  F   UNL A   1      38.143  21.931  25.695  1.00  0.00    -0.200 F 
ENDBRANCH  73  96
ENDBRANCH  47  48
ENDBRANCH  39  42
ENDBRANCH  37  38
ENDBRANCH  36  37
ENDBRANCH  35  36
ENDBRANCH   1  35
TORSDOF 17
ENDMDL
MODEL 3
REMARK VINA RESULT:     -11.0      2.117      3.721
REMARK SMILES Cc1ccccc1-n1c(S[C@@H](C)C(=O)NCCCCCCNC(=O)c2ccc(-c3c4nc(c(-c5c(F)c(F)c(F)c(F)c5F)c5ccc([nH]5)c(-c5c(F)c(F)c(F)c(F)c5F)c5nc(c(-c6c(F)c(F)c(F)c(F)c6F)c6ccc3[nH]6)C=C5)C=C4)cc2)nc2sc3c(c2c1=O)C[C@@H](C(C)C)OC3
REMARK SMILES IDX 18 1 17 2 16 3 15 4 13 5 14 6 11 8 12 9 10 10 9 11 8 12
REMARK SMILES IDX 94 13 88 14 93 15 95 16 89 17 92 18 90 19 91 20 96 21 102 22
REMARK SMILES IDX 97 23 101 24 7 25 1 26 2 27 3 28 4 29 6 30 5 31 98 32 99 33
REMARK SMILES IDX 100 34 19 35 20 36 21 37 22 38 23 39 24 41 25 42 26 43 87 44
REMARK SMILES IDX 27 45 86 46 28 47 29 48 30 49 80 50 31 51 85 52 79 53 81 54
REMARK SMILES IDX 32 55 84 56 78 57 77 58 33 60 65 61 45 62 64 63 46 64 49 65
REMARK SMILES IDX 63 66 82 67 47 68 48 69 62 71 83 72 50 73 34 74 35 75 43 76
REMARK SMILES IDX 36 77 37 78 41 79 44 80 38 81 39 82 42 83 40 84 66 85 67 86
REMARK SMILES IDX 75 87 68 88 69 89 73 90 76 91 70 92 71 93 74 94 72 95 51 96
REMARK SMILES IDX 52 97 60 98 53 99 54 100 58 101 61 102 55 103 56 104 59 105
REMARK SMILES IDX 57 106
REMARK H PARENT 15 7 22 40 81 59 49 70
REMARK Flexibility Score: inf
ROOT
ATOM      1  C   UNL A   1      40.606  28.187  33.711  1.00  0.00     0.002 C 
ENDROOT
BRANCH   1   2
ATOM      2  C   UNL A   1      40.847  29.552  34.357  1.00  0.00     0.021 C 
BRANCH   2   3
ATOM      3  C   UNL A   1      39.675  30.471  34.676  1.00  0.00     0.116 C 
BRANCH   3   4
ATOM      4  N   UNL A   1      38.933  30.167  35.866  1.00  0.00    -0.355 N 
ATOM      5  C   UNL A   1      38.192  30.945  36.696  1.00  0.00     0.233 C 
ATOM      6  O   UNL A   1      37.472  30.269  37.452  1.00  0.00    -0.274 OA
ATOM      7  H   UNL A   1      38.967  29.219  36.130  1.00  0.00     0.163 HD
BRANCH   5   8
ATOM      8  C   UNL A   1      38.326  32.453  36.949  1.00  0.00     0.140 C 
ATOM      9  C   UNL A   1      37.748  32.828  38.337  1.00  0.00     0.030 C 
BRANCH   8  10
ATOM     10  S   UNL A   1      37.838  33.824  35.914  1.00  0.00    -0.074 SA
BRANCH  10  11
ATOM     11  C   UNL A   1      38.665  33.980  34.401  1.00  0.00     0.177 A 
ATOM     12  N   UNL A   1      38.006  34.196  33.177  1.00  0.00    -0.255 N 
ATOM     13  C   UNL A   1      38.744  34.322  31.990  1.00  0.00     0.267 A 
ATOM     14  N   UNL A   1      39.957  33.939  34.542  1.00  0.00    -0.212 NA
ATOM     15  C   UNL A   1      40.182  34.232  32.145  1.00  0.00     0.081 A 
ATOM     16  O   UNL A   1      38.244  34.463  30.863  1.00  0.00    -0.268 OA
ATOM     17  C   UNL A   1      40.682  34.057  33.412  1.00  0.00     0.132 A 
ATOM     18  C   UNL A   1      41.221  34.219  31.162  1.00  0.00    -0.014 A 
ATOM     19  S   UNL A   1      42.387  33.951  33.428  1.00  0.00    -0.117 S 
ATOM     20  C   UNL A   1      42.465  34.046  31.733  1.00  0.00     0.037 A 
ATOM     21  C   UNL A   1      41.093  34.292  29.675  1.00  0.00     0.070 C 
ATOM     22  C   UNL A   1      43.756  33.975  30.981  1.00  0.00     0.207 C 
ATOM     23  C   UNL A   1      42.442  34.678  29.037  1.00  0.00     0.125 C 
ATOM     24  O   UNL A   1      43.489  33.836  29.572  1.00  0.00    -0.372 OA
BRANCH  12  25
ATOM     25  C   UNL A   1      36.585  34.160  33.052  1.00  0.00     0.054 A 
ATOM     26  C   UNL A   1      36.505  31.606  32.982  1.00  0.00     0.046 C 
ATOM     27  C   UNL A   1      35.870  32.964  32.884  1.00  0.00    -0.027 A 
ATOM     28  C   UNL A   1      34.493  33.039  32.609  1.00  0.00     0.005 A 
ATOM     29  C   UNL A   1      33.835  34.268  32.536  1.00  0.00     0.000 A 
ATOM     30  C   UNL A   1      35.889  35.382  33.082  1.00  0.00     0.027 A 
ATOM     31  C   UNL A   1      34.528  35.441  32.798  1.00  0.00     0.002 A 
ENDBRANCH  12  25
BRANCH  23  32
ATOM     32  C   UNL A   1      42.782  36.186  29.118  1.00  0.00     0.012 C 
ATOM     33  C   UNL A   1      44.238  36.421  28.703  1.00  0.00     0.010 C 
ATOM     34  C   UNL A   1      41.853  37.030  28.241  1.00  0.00     0.010 C 
ENDBRANCH  23  32
ENDBRANCH  10  11
ENDBRANCH   8  10
ENDBRANCH   5   8
ENDBRANCH   3   4
ENDBRANCH   2   3
ENDBRANCH   1   2
BRANCH   1  35
ATOM     35  C   UNL A   1      40.073  28.130  32.282  1.00  0.00     0.002 C 
BRANCH  35  36
ATOM     36  C   UNL A   1      38.587  27.824  32.108  1.00  0.00     0.021 C 
BRANCH  36  37
ATOM     37  C   UNL A   1      37.663  28.972  31.663  1.00  0.00     0.116 C 
BRANCH  37  38
ATOM     38  N   UNL A   1      37.319  28.902  30.260  1.00  0.00    -0.352 N 
ATOM     39  C   UNL A   1      38.071  29.055  29.118  1.00  0.00     0.251 C 
ATOM     40  H   UNL A   1      36.370  28.709  30.090  1.00  0.00     0.163 HD
ATOM     41  O   UNL A   1      37.424  29.295  28.092  1.00  0.00    -0.269 OA
BRANCH  39  42
ATOM     42  C   UNL A   1      39.567  28.891  29.004  1.00  0.00     0.039 A 
ATOM     43  C   UNL A   1      40.336  30.020  29.349  1.00  0.00     0.014 A 
ATOM     44  C   UNL A   1      40.272  27.765  28.570  1.00  0.00     0.014 A 
ATOM     45  C   UNL A   1      41.742  30.031  29.243  1.00  0.00     0.010 A 
ATOM     46  C   UNL A   1      41.692  27.775  28.461  1.00  0.00     0.010 A 
ATOM     47  C   UNL A   1      42.456  28.906  28.795  1.00  0.00    -0.014 A 
BRANCH  47  48
ATOM     48  C   UNL A   1      43.921  28.866  29.148  1.00  0.00     0.031 A 
ATOM     49  C   UNL A   1      44.007  28.305  30.580  1.00  0.00     0.074 A 
ATOM     50  C   UNL A   1      45.063  28.603  28.419  1.00  0.00     0.049 A 
ATOM     51  N   UNL A   1      43.695  27.061  30.808  1.00  0.00    -0.248 NA
ATOM     52  C   UNL A   1      44.214  29.030  31.837  1.00  0.00     0.031 C 
ATOM     53  C   UNL A   1      46.385  29.090  28.861  1.00  0.00     0.029 A 
ATOM     54  N   UNL A   1      45.410  27.901  27.226  1.00  0.00    -0.354 N 
ATOM     55  C   UNL A   1      44.091  26.743  32.102  1.00  0.00     0.074 A 
ATOM     56  C   UNL A   1      44.201  28.032  32.754  1.00  0.00     0.031 C 
ATOM     57  C   UNL A   1      47.375  28.553  28.116  1.00  0.00     0.029 A 
ATOM     58  C   UNL A   1      46.817  27.567  27.191  1.00  0.00     0.049 A 
ATOM     59  H   UNL A   1      44.770  27.672  26.514  1.00  0.00     0.167 HD
ATOM     60  C   UNL A   1      44.587  25.479  32.357  1.00  0.00     0.037 A 
ATOM     61  C   UNL A   1      47.538  26.457  26.769  1.00  0.00     0.037 A 
ATOM     62  C   UNL A   1      44.940  24.898  31.088  1.00  0.00     0.049 A 
ATOM     63  C   UNL A   1      46.760  25.236  26.348  1.00  0.00     0.074 A 
ATOM     64  C   UNL A   1      45.945  25.470  30.356  1.00  0.00     0.029 A 
ATOM     65  N   UNL A   1      44.232  24.020  30.269  1.00  0.00    -0.354 N 
ATOM     66  N   UNL A   1      46.524  24.255  27.178  1.00  0.00    -0.248 NA
ATOM     67  C   UNL A   1      46.202  24.952  25.030  1.00  0.00     0.031 C 
ATOM     68  C   UNL A   1      45.383  25.409  29.117  1.00  0.00     0.029 A 
ATOM     69  C   UNL A   1      44.600  24.296  28.952  1.00  0.00     0.049 A 
ATOM     70  H   UNL A   1      43.591  23.333  30.564  1.00  0.00     0.167 HD
ATOM     71  C   UNL A   1      45.306  23.758  26.771  1.00  0.00     0.074 A 
ATOM     72  C   UNL A   1      45.432  23.890  25.336  1.00  0.00     0.031 C 
ATOM     73  C   UNL A   1      44.217  23.750  27.639  1.00  0.00     0.037 A 
BRANCH  60  74
ATOM     74  C   UNL A   1      45.316  24.904  33.543  1.00  0.00     0.064 A 
ATOM     75  C   UNL A   1      46.645  25.339  33.845  1.00  0.00     0.173 A 
ATOM     76  C   UNL A   1      44.843  23.833  34.295  1.00  0.00     0.173 A 
ATOM     77  F   UNL A   1      47.209  26.397  33.246  1.00  0.00    -0.203 F 
ATOM     78  C   UNL A   1      47.462  24.694  34.761  1.00  0.00     0.198 A 
ATOM     79  C   UNL A   1      45.669  23.194  35.235  1.00  0.00     0.198 A 
ATOM     80  F   UNL A   1      43.602  23.365  34.103  1.00  0.00    -0.203 F 
ATOM     81  F   UNL A   1      48.722  25.116  34.943  1.00  0.00    -0.200 F 
ATOM     82  C   UNL A   1      46.978  23.607  35.447  1.00  0.00     0.200 A 
ATOM     83  F   UNL A   1      45.201  22.143  35.922  1.00  0.00    -0.200 F 
ATOM     84  F   UNL A   1      47.775  22.955  36.305  1.00  0.00    -0.200 F 
ENDBRANCH  60  74
BRANCH  61  85
ATOM     85  C   UNL A   1      48.925  26.073  27.272  1.00  0.00     0.064 A 
ATOM     86  C   UNL A   1      49.243  26.066  28.631  1.00  0.00     0.173 A 
ATOM     87  C   UNL A   1      50.031  25.942  26.393  1.00  0.00     0.173 A 
ATOM     88  F   UNL A   1      48.271  26.201  29.543  1.00  0.00    -0.203 F 
ATOM     89  C   UNL A   1      50.576  25.969  29.072  1.00  0.00     0.198 A 
ATOM     90  C   UNL A   1      51.355  25.880  26.825  1.00  0.00     0.198 A 
ATOM     91  F   UNL A   1      49.867  25.906  25.075  1.00  0.00    -0.203 F 
ATOM     92  F   UNL A   1      50.845  25.979  30.385  1.00  0.00    -0.200 F 
ATOM     93  C   UNL A   1      51.630  25.900  28.171  1.00  0.00     0.200 A 
ATOM     94  F   UNL A   1      52.354  25.831  25.931  1.00  0.00    -0.200 F 
ATOM     95  F   UNL A   1      52.901  25.862  28.598  1.00  0.00    -0.200 F 
ENDBRANCH  61  85
BRANCH  73  96
ATOM     96  C   UNL A   1      42.773  23.555  27.226  1.00  0.00     0.064 A 
ATOM     97  C   UNL A   1      42.056  22.347  27.342  1.00  0.00     0.173 A 
ATOM     98  C   UNL A   1      42.015  24.619  26.689  1.00  0.00     0.173 A 
ATOM     99  F   UNL A   1      42.635  21.174  27.582  1.00  0.00    -0.203 F 
ATOM    100  C   UNL A   1      40.680  22.266  27.174  1.00  0.00     0.198 A 
ATOM    101  C   UNL A   1      40.639  24.530  26.492  1.00  0.00     0.198 A 
ATOM    102  F   UNL A   1      42.572  25.784  26.334  1.00  0.00    -0.203 F 
ATOM    103  F   UNL A   1      40.057  21.095  27.359  1.00  0.00    -0.200 F 
ATOM    104  C   UNL A   1      39.965  23.381  26.831  1.00  0.00     0.200 A 
ATOM    105  F   UNL A   1      39.973  25.571  25.978  1.00  0.00    -0.200 F 
ATOM    106  F   UNL A   1      38.632  23.340  26.847  1.00  0.00    -0.200 F 
ENDBRANCH  73  96
ENDBRANCH  47  48
ENDBRANCH  39  42
ENDBRANCH  37  38
ENDBRANCH  36  37
ENDBRANCH  35  36
ENDBRANCH   1  35
TORSDOF 17
ENDMDL
