MODEL 1
REMARK VINA RESULT:     -12.6      0.000      0.000
REMARK SMILES CN1C(=O)/C(=C\c2ccc(-c3ccccc3C(=O)NCCCCCCNC(=O)c3ccc(-c4c5nc(c(-c6c(F)c(F)c(F)c(F)c6F)c6ccc([nH]6)c(-c6c(F)c(F)c(F)c(F)c6F)c6nc(c(-c7c(F)c(F)c(F)c(F)c7F)c7ccc4[nH]7)C=C6)C=C5)cc3)o2)C(=O)[NH+]=C1S
REMARK SMILES IDX 22 1 21 2 20 3 19 4 17 5 18 6 16 8 11 9 12 10 13 11 15 12
REMARK SMILES IDX 14 13 10 14 7 15 8 16 92 17 9 18 6 19 1 20 2 21 3 22 96 23
REMARK SMILES IDX 4 24 5 25 95 26 93 27 94 29 97 30 23 32 24 33 25 34 26 35
REMARK SMILES IDX 27 36 28 38 29 39 30 40 91 41 31 42 90 43 32 44 33 45 34 46
REMARK SMILES IDX 84 47 35 48 89 49 83 50 85 51 36 52 88 53 82 54 81 55 37 57
REMARK SMILES IDX 69 58 49 59 68 60 50 61 53 62 67 63 86 64 51 65 52 66 66 68
REMARK SMILES IDX 87 69 54 70 38 71 39 72 47 73 40 74 41 75 45 76 48 77 42 78
REMARK SMILES IDX 43 79 46 80 44 81 70 82 71 83 79 84 72 85 73 86 77 87 80 88
REMARK SMILES IDX 74 89 75 90 78 91 76 92 55 93 56 94 64 95 57 96 58 97 62 98
REMARK SMILES IDX 65 99 59 100 60 101 63 102 61 103
REMARK H PARENT 19 7 95 28 97 31 26 37 85 56 53 67
REMARK Flexibility Score: inf
ROOT
ATOM      1  C   UNL A   1      36.644  21.772  24.459  1.00  0.00     0.002 C 
ENDROOT
BRANCH   1   2
ATOM      2  C   UNL A   1      36.551  22.790  25.596  1.00  0.00     0.021 C 
BRANCH   2   3
ATOM      3  C   UNL A   1      35.740  24.061  25.372  1.00  0.00     0.116 C 
BRANCH   3   4
ATOM      4  N   UNL A   1      34.478  24.207  26.041  1.00  0.00    -0.352 N 
ATOM      5  C   UNL A   1      33.316  23.461  25.989  1.00  0.00     0.252 C 
ATOM      6  O   UNL A   1      32.476  23.812  26.830  1.00  0.00    -0.269 OA
ATOM      7  H   UNL A   1      34.432  24.980  26.648  1.00  0.00     0.163 HD
BRANCH   5   8
ATOM      8  C   UNL A   1      32.918  22.340  25.031  1.00  0.00     0.050 A 
ATOM      9  C   UNL A   1      32.547  22.337  23.667  1.00  0.00     0.030 A 
ATOM     10  C   UNL A   1      32.203  21.122  23.018  1.00  0.00     0.013 A 
ATOM     11  C   UNL A   1      32.272  19.895  23.664  1.00  0.00     0.001 A 
ATOM     12  C   UNL A   1      32.977  21.059  25.650  1.00  0.00     0.014 A 
ATOM     13  C   UNL A   1      32.676  19.863  24.984  1.00  0.00     0.001 A 
BRANCH   9  14
ATOM     14  C   UNL A   1      32.570  23.466  22.770  1.00  0.00     0.135 A 
ATOM     15  C   UNL A   1      31.912  25.505  22.169  1.00  0.00     0.128 A 
ATOM     16  C   UNL A   1      32.904  25.072  21.286  1.00  0.00     0.051 A 
ATOM     17  O   UNL A   1      31.699  24.476  23.060  1.00  0.00    -0.457 OA
ATOM     18  C   UNL A   1      33.274  23.755  21.630  1.00  0.00     0.051 A 
BRANCH  15  19
ATOM     19  C   UNL A   1      31.263  26.769  22.294  1.00  0.00     0.071 C 
ATOM     20  C   UNL A   1      32.714  27.453  26.755  1.00  0.00     0.301 C 
ATOM     21  N   UNL A   1      32.151  28.036  25.548  1.00  0.00    -0.189 N 
ATOM     22  C   UNL A   1      32.465  27.416  24.372  1.00  0.00     0.349 C 
ATOM     23  C   UNL A   1      31.647  29.295  25.422  1.00  0.00     0.318 C 
ATOM     24  O   UNL A   1      33.508  26.793  24.213  1.00  0.00    -0.240 OA
ATOM     25  C   UNL A   1      31.459  27.624  23.314  1.00  0.00     0.157 C 
ATOM     26  N   UNL A   1      30.930  29.696  24.428  1.00  0.00    -0.200 N 
ATOM     27  C   UNL A   1      30.560  28.791  23.472  1.00  0.00     0.347 C 
ATOM     28  H   UNL A   1      30.653  30.638  24.360  1.00  0.00     0.316 HD
ATOM     29  O   UNL A   1      29.527  28.905  22.815  1.00  0.00    -0.241 OA
BRANCH  23  30
ATOM     30  S   UNL A   1      32.097  30.458  26.629  1.00  0.00    -0.055 SA
ATOM     31  H   UNL A   1      32.915  31.392  26.076  1.00  0.00     0.116 HD
ENDBRANCH  23  30
ENDBRANCH  15  19
ENDBRANCH   9  14
ENDBRANCH   5   8
ENDBRANCH   3   4
ENDBRANCH   2   3
ENDBRANCH   1   2
BRANCH   1  32
ATOM     32  C   UNL A   1      36.653  20.281  24.821  1.00  0.00     0.002 C 
BRANCH  32  33
ATOM     33  C   UNL A   1      38.003  19.557  24.839  1.00  0.00     0.021 C 
BRANCH  33  34
ATOM     34  C   UNL A   1      39.015  19.995  25.897  1.00  0.00     0.116 C 
BRANCH  34  35
ATOM     35  N   UNL A   1      40.178  19.129  25.942  1.00  0.00    -0.352 N 
ATOM     36  C   UNL A   1      41.514  19.406  26.075  1.00  0.00     0.251 C 
ATOM     37  H   UNL A   1      39.971  18.169  25.863  1.00  0.00     0.163 HD
ATOM     38  O   UNL A   1      42.329  18.507  25.874  1.00  0.00    -0.269 OA
BRANCH  36  39
ATOM     39  C   UNL A   1      42.012  20.756  26.442  1.00  0.00     0.039 A 
ATOM     40  C   UNL A   1      42.013  21.115  27.796  1.00  0.00     0.014 A 
ATOM     41  C   UNL A   1      42.372  21.708  25.490  1.00  0.00     0.014 A 
ATOM     42  C   UNL A   1      42.394  22.403  28.190  1.00  0.00     0.010 A 
ATOM     43  C   UNL A   1      42.831  22.968  25.893  1.00  0.00     0.010 A 
ATOM     44  C   UNL A   1      42.833  23.343  27.246  1.00  0.00    -0.014 A 
BRANCH  44  45
ATOM     45  C   UNL A   1      43.272  24.709  27.667  1.00  0.00     0.031 A 
ATOM     46  C   UNL A   1      42.260  25.789  27.975  1.00  0.00     0.074 A 
ATOM     47  C   UNL A   1      44.587  25.012  27.713  1.00  0.00     0.049 A 
ATOM     48  N   UNL A   1      42.460  27.041  28.314  1.00  0.00    -0.248 NA
ATOM     49  C   UNL A   1      40.839  25.427  27.863  1.00  0.00     0.031 C 
ATOM     50  C   UNL A   1      45.681  24.103  27.365  1.00  0.00     0.029 A 
ATOM     51  N   UNL A   1      45.229  26.189  28.024  1.00  0.00    -0.354 N 
ATOM     52  C   UNL A   1      41.197  27.604  28.459  1.00  0.00     0.074 A 
ATOM     53  C   UNL A   1      40.239  26.589  28.082  1.00  0.00     0.031 C 
ATOM     54  C   UNL A   1      46.851  24.754  27.465  1.00  0.00     0.029 A 
ATOM     55  C   UNL A   1      46.595  26.131  27.874  1.00  0.00     0.049 A 
ATOM     56  H   UNL A   1      44.756  26.998  28.326  1.00  0.00     0.167 HD
ATOM     57  C   UNL A   1      40.858  28.837  28.911  1.00  0.00     0.037 A 
ATOM     58  C   UNL A   1      47.540  27.077  28.039  1.00  0.00     0.037 A 
ATOM     59  C   UNL A   1      41.804  29.843  29.316  1.00  0.00     0.049 A 
ATOM     60  C   UNL A   1      47.141  28.445  28.523  1.00  0.00     0.074 A 
ATOM     61  C   UNL A   1      41.557  31.083  29.881  1.00  0.00     0.029 A 
ATOM     62  N   UNL A   1      43.180  29.731  29.192  1.00  0.00    -0.354 N 
ATOM     63  N   UNL A   1      45.945  28.917  28.778  1.00  0.00    -0.248 NA
ATOM     64  C   UNL A   1      48.228  29.403  28.771  1.00  0.00     0.031 C 
ATOM     65  C   UNL A   1      42.777  31.746  30.040  1.00  0.00     0.029 A 
ATOM     66  C   UNL A   1      43.792  30.893  29.637  1.00  0.00     0.049 A 
ATOM     67  H   UNL A   1      43.653  28.942  28.840  1.00  0.00     0.167 HD
ATOM     68  C   UNL A   1      46.139  30.207  29.257  1.00  0.00     0.074 A 
ATOM     69  C   UNL A   1      47.567  30.437  29.270  1.00  0.00     0.031 C 
ATOM     70  C   UNL A   1      45.214  31.116  29.654  1.00  0.00     0.037 A 
BRANCH  57  71
ATOM     71  C   UNL A   1      39.393  29.164  29.024  1.00  0.00     0.064 A 
ATOM     72  C   UNL A   1      38.627  29.505  27.897  1.00  0.00     0.173 A 
ATOM     73  C   UNL A   1      38.731  29.074  30.257  1.00  0.00     0.173 A 
ATOM     74  F   UNL A   1      39.208  29.608  26.691  1.00  0.00    -0.203 F 
ATOM     75  C   UNL A   1      37.265  29.775  28.006  1.00  0.00     0.198 A 
ATOM     76  C   UNL A   1      37.362  29.309  30.358  1.00  0.00     0.198 A 
ATOM     77  F   UNL A   1      39.409  28.739  31.366  1.00  0.00    -0.203 F 
ATOM     78  F   UNL A   1      36.568  30.147  26.924  1.00  0.00    -0.200 F 
ATOM     79  C   UNL A   1      36.632  29.668  29.235  1.00  0.00     0.200 A 
ATOM     80  F   UNL A   1      36.747  29.186  31.543  1.00  0.00    -0.200 F 
ATOM     81  F   UNL A   1      35.318  29.914  29.337  1.00  0.00    -0.200 F 
ENDBRANCH  57  71
BRANCH  58  82
ATOM     82  C   UNL A   1      48.971  26.756  27.786  1.00  0.00     0.064 A 
ATOM     83  C   UNL A   1      49.509  26.827  26.492  1.00  0.00     0.173 A 
ATOM     84  C   UNL A   1      49.822  26.347  28.822  1.00  0.00     0.173 A 
ATOM     85  F   UNL A   1      48.730  27.196  25.465  1.00  0.00    -0.203 F 
ATOM     86  C   UNL A   1      50.831  26.466  26.239  1.00  0.00     0.198 A 
ATOM     87  C   UNL A   1      51.154  26.016  28.574  1.00  0.00     0.198 A 
ATOM     88  F   UNL A   1      49.364  26.274  30.081  1.00  0.00    -0.203 F 
ATOM     89  F   UNL A   1      51.299  26.487  24.984  1.00  0.00    -0.200 F 
ATOM     90  C   UNL A   1      51.653  26.065  27.281  1.00  0.00     0.200 A 
ATOM     91  F   UNL A   1      51.951  25.647  29.585  1.00  0.00    -0.200 F 
ATOM     92  F   UNL A   1      52.923  25.716  27.037  1.00  0.00    -0.200 F 
ENDBRANCH  58  82
BRANCH  70  93
ATOM     93  C   UNL A   1      45.719  32.431  30.178  1.00  0.00     0.064 A 
ATOM     94  C   UNL A   1      46.034  32.618  31.532  1.00  0.00     0.173 A 
ATOM     95  C   UNL A   1      45.909  33.517  29.307  1.00  0.00     0.173 A 
ATOM     96  F   UNL A   1      45.858  31.619  32.411  1.00  0.00    -0.203 F 
ATOM     97  C   UNL A   1      46.481  33.851  32.001  1.00  0.00     0.198 A 
ATOM     98  C   UNL A   1      46.393  34.735  29.772  1.00  0.00     0.198 A 
ATOM     99  F   UNL A   1      45.631  33.392  28.000  1.00  0.00    -0.203 F 
ATOM    100  F   UNL A   1      46.713  34.023  33.310  1.00  0.00    -0.200 F 
ATOM    101  C   UNL A   1      46.667  34.906  31.120  1.00  0.00     0.200 A 
ATOM    102  F   UNL A   1      46.588  35.748  28.915  1.00  0.00    -0.200 F 
ATOM    103  F   UNL A   1      47.102  36.090  31.573  1.00  0.00    -0.200 F 
ENDBRANCH  70  93
ENDBRANCH  44  45
ENDBRANCH  36  39
ENDBRANCH  34  35
ENDBRANCH  33  34
ENDBRANCH  32  33
ENDBRANCH   1  32
TORSDOF 16
ENDMDL
MODEL 2
REMARK VINA RESULT:     -12.6      5.024     10.359
REMARK SMILES CN1C(=O)/C(=C\c2ccc(-c3ccccc3C(=O)NCCCCCCNC(=O)c3ccc(-c4c5nc(c(-c6c(F)c(F)c(F)c(F)c6F)c6ccc([nH]6)c(-c6c(F)c(F)c(F)c(F)c6F)c6nc(c(-c7c(F)c(F)c(F)c(F)c7F)c7ccc4[nH]7)C=C6)C=C5)cc3)o2)C(=O)[NH+]=C1S
REMARK SMILES IDX 22 1 21 2 20 3 19 4 17 5 18 6 16 8 11 9 12 10 13 11 15 12
REMARK SMILES IDX 14 13 10 14 7 15 8 16 92 17 9 18 6 19 1 20 2 21 3 22 96 23
REMARK SMILES IDX 4 24 5 25 95 26 93 27 94 29 97 30 23 32 24 33 25 34 26 35
REMARK SMILES IDX 27 36 28 38 29 39 30 40 91 41 31 42 90 43 32 44 33 45 34 46
REMARK SMILES IDX 84 47 35 48 89 49 83 50 85 51 36 52 88 53 82 54 81 55 37 57
REMARK SMILES IDX 69 58 49 59 68 60 50 61 53 62 67 63 86 64 51 65 52 66 66 68
REMARK SMILES IDX 87 69 54 70 38 71 39 72 47 73 40 74 41 75 45 76 48 77 42 78
REMARK SMILES IDX 43 79 46 80 44 81 70 82 71 83 79 84 72 85 73 86 77 87 80 88
REMARK SMILES IDX 74 89 75 90 78 91 76 92 55 93 56 94 64 95 57 96 58 97 62 98
REMARK SMILES IDX 65 99 59 100 60 101 63 102 61 103
REMARK H PARENT 19 7 95 28 97 31 26 37 85 56 53 67
REMARK Flexibility Score: inf
ROOT
ATOM      1  C   UNL A   1      31.791  29.441  26.787  1.00  0.00     0.002 C 
ENDROOT
BRANCH   1   2
ATOM      2  C   UNL A   1      33.227  28.922  26.714  1.00  0.00     0.021 C 
BRANCH   2   3
ATOM      3  C   UNL A   1      33.455  27.453  26.378  1.00  0.00     0.116 C 
BRANCH   3   4
ATOM      4  N   UNL A   1      33.836  27.096  25.041  1.00  0.00    -0.352 N 
ATOM      5  C   UNL A   1      33.159  27.171  23.839  1.00  0.00     0.252 C 
ATOM      6  O   UNL A   1      33.874  26.907  22.861  1.00  0.00    -0.269 OA
ATOM      7  H   UNL A   1      34.747  26.730  24.966  1.00  0.00     0.163 HD
BRANCH   5   8
ATOM      8  C   UNL A   1      31.686  27.471  23.566  1.00  0.00     0.050 A 
ATOM      9  C   UNL A   1      30.492  26.839  23.977  1.00  0.00     0.030 A 
ATOM     10  C   UNL A   1      29.231  27.334  23.549  1.00  0.00     0.013 A 
ATOM     11  C   UNL A   1      29.113  28.477  22.771  1.00  0.00     0.001 A 
ATOM     12  C   UNL A   1      31.515  28.640  22.771  1.00  0.00     0.014 A 
ATOM     13  C   UNL A   1      30.263  29.143  22.393  1.00  0.00     0.001 A 
BRANCH   9  14
ATOM     14  C   UNL A   1      30.378  25.747  24.913  1.00  0.00     0.135 A 
ATOM     15  C   UNL A   1      30.719  23.629  25.504  1.00  0.00     0.128 A 
ATOM     16  C   UNL A   1      30.161  24.316  26.585  1.00  0.00     0.051 A 
ATOM     17  O   UNL A   1      30.811  24.533  24.468  1.00  0.00    -0.457 OA
ATOM     18  C   UNL A   1      29.887  25.641  26.188  1.00  0.00     0.051 A 
BRANCH  15  19
ATOM     19  C   UNL A   1      31.234  22.302  25.408  1.00  0.00     0.071 C 
ATOM     20  C   UNL A   1      35.614  23.720  24.275  1.00  0.00     0.301 C 
ATOM     21  N   UNL A   1      34.757  22.638  24.733  1.00  0.00    -0.189 N 
ATOM     22  C   UNL A   1      33.619  23.004  25.393  1.00  0.00     0.349 C 
ATOM     23  C   UNL A   1      35.119  21.334  24.882  1.00  0.00     0.318 C 
ATOM     24  O   UNL A   1      33.536  24.043  26.037  1.00  0.00    -0.240 OA
ATOM     25  C   UNL A   1      32.541  22.002  25.301  1.00  0.00     0.157 C 
ATOM     26  N   UNL A   1      34.288  20.361  25.040  1.00  0.00    -0.200 N 
ATOM     27  C   UNL A   1      32.947  20.617  24.964  1.00  0.00     0.347 C 
ATOM     28  H   UNL A   1      34.613  19.448  25.213  1.00  0.00     0.316 HD
ATOM     29  O   UNL A   1      32.130  19.776  24.595  1.00  0.00    -0.241 OA
BRANCH  23  30
ATOM     30  S   UNL A   1      36.817  20.983  24.974  1.00  0.00    -0.055 SA
ATOM     31  H   UNL A   1      37.416  21.329  23.804  1.00  0.00     0.116 HD
ENDBRANCH  23  30
ENDBRANCH  15  19
ENDBRANCH   9  14
ENDBRANCH   5   8
ENDBRANCH   3   4
ENDBRANCH   2   3
ENDBRANCH   1   2
BRANCH   1  32
ATOM     32  C   UNL A   1      31.397  30.609  25.874  1.00  0.00     0.002 C 
BRANCH  32  33
ATOM     33  C   UNL A   1      31.354  32.013  26.486  1.00  0.00     0.021 C 
BRANCH  33  34
ATOM     34  C   UNL A   1      32.659  32.564  27.059  1.00  0.00     0.116 C 
BRANCH  34  35
ATOM     35  N   UNL A   1      32.531  33.937  27.508  1.00  0.00    -0.352 N 
ATOM     36  C   UNL A   1      33.109  34.609  28.555  1.00  0.00     0.251 C 
ATOM     37  H   UNL A   1      31.918  34.485  26.966  1.00  0.00     0.163 HD
ATOM     38  O   UNL A   1      32.676  35.721  28.855  1.00  0.00    -0.269 OA
BRANCH  36  39
ATOM     39  C   UNL A   1      34.231  34.039  29.342  1.00  0.00     0.039 A 
ATOM     40  C   UNL A   1      35.539  34.315  28.925  1.00  0.00     0.014 A 
ATOM     41  C   UNL A   1      34.031  33.159  30.405  1.00  0.00     0.014 A 
ATOM     42  C   UNL A   1      36.631  33.737  29.582  1.00  0.00     0.010 A 
ATOM     43  C   UNL A   1      35.126  32.647  31.110  1.00  0.00     0.010 A 
ATOM     44  C   UNL A   1      36.443  32.912  30.702  1.00  0.00    -0.014 A 
BRANCH  44  45
ATOM     45  C   UNL A   1      37.609  32.319  31.425  1.00  0.00     0.031 A 
ATOM     46  C   UNL A   1      38.345  31.123  30.863  1.00  0.00     0.074 A 
ATOM     47  C   UNL A   1      37.979  32.808  32.628  1.00  0.00     0.049 A 
ATOM     48  N   UNL A   1      39.351  30.453  31.374  1.00  0.00    -0.248 NA
ATOM     49  C   UNL A   1      37.876  30.593  29.574  1.00  0.00     0.031 C 
ATOM     50  C   UNL A   1      37.316  33.904  33.339  1.00  0.00     0.029 A 
ATOM     51  N   UNL A   1      38.973  32.414  33.493  1.00  0.00    -0.354 N 
ATOM     52  C   UNL A   1      39.632  29.436  30.468  1.00  0.00     0.074 A 
ATOM     53  C   UNL A   1      38.636  29.518  29.424  1.00  0.00     0.031 C 
ATOM     54  C   UNL A   1      37.907  34.084  34.531  1.00  0.00     0.029 A 
ATOM     55  C   UNL A   1      38.985  33.111  34.679  1.00  0.00     0.049 A 
ATOM     56  H   UNL A   1      39.617  31.699  33.284  1.00  0.00     0.167 HD
ATOM     57  C   UNL A   1      40.654  28.544  30.475  1.00  0.00     0.037 A 
ATOM     58  C   UNL A   1      39.768  32.983  35.768  1.00  0.00     0.037 A 
ATOM     59  C   UNL A   1      41.667  28.476  31.495  1.00  0.00     0.049 A 
ATOM     60  C   UNL A   1      40.884  31.974  35.763  1.00  0.00     0.074 A 
ATOM     61  C   UNL A   1      42.796  27.675  31.538  1.00  0.00     0.029 A 
ATOM     62  N   UNL A   1      41.670  29.229  32.658  1.00  0.00    -0.354 N 
ATOM     63  N   UNL A   1      41.211  31.106  34.837  1.00  0.00    -0.248 NA
ATOM     64  C   UNL A   1      41.759  31.948  36.944  1.00  0.00     0.031 C 
ATOM     65  C   UNL A   1      43.448  27.898  32.754  1.00  0.00     0.029 A 
ATOM     66  C   UNL A   1      42.762  28.888  33.441  1.00  0.00     0.049 A 
ATOM     67  H   UNL A   1      40.996  29.908  32.894  1.00  0.00     0.167 HD
ATOM     68  C   UNL A   1      42.353  30.465  35.303  1.00  0.00     0.074 A 
ATOM     69  C   UNL A   1      42.668  31.053  36.586  1.00  0.00     0.031 C 
ATOM     70  C   UNL A   1      43.076  29.479  34.716  1.00  0.00     0.037 A 
BRANCH  57  71
ATOM     71  C   UNL A   1      40.751  27.581  29.322  1.00  0.00     0.064 A 
ATOM     72  C   UNL A   1      39.871  26.493  29.198  1.00  0.00     0.173 A 
ATOM     73  C   UNL A   1      41.688  27.781  28.298  1.00  0.00     0.173 A 
ATOM     74  F   UNL A   1      38.956  26.252  30.148  1.00  0.00    -0.203 F 
ATOM     75  C   UNL A   1      39.949  25.625  28.111  1.00  0.00     0.198 A 
ATOM     76  C   UNL A   1      41.740  26.932  27.194  1.00  0.00     0.198 A 
ATOM     77  F   UNL A   1      42.545  28.812  28.356  1.00  0.00    -0.203 F 
ATOM     78  F   UNL A   1      39.130  24.566  28.041  1.00  0.00    -0.200 F 
ATOM     79  C   UNL A   1      40.877  25.851  27.106  1.00  0.00     0.200 A 
ATOM     80  F   UNL A   1      42.624  27.163  26.213  1.00  0.00    -0.200 F 
ATOM     81  F   UNL A   1      40.940  25.023  26.053  1.00  0.00    -0.200 F 
ENDBRANCH  57  71
BRANCH  58  82
ATOM     82  C   UNL A   1      39.555  33.864  36.948  1.00  0.00     0.064 A 
ATOM     83  C   UNL A   1      40.128  35.143  37.008  1.00  0.00     0.173 A 
ATOM     84  C   UNL A   1      38.798  33.439  38.050  1.00  0.00     0.173 A 
ATOM     85  F   UNL A   1      40.875  35.588  35.987  1.00  0.00    -0.203 F 
ATOM     86  C   UNL A   1      39.985  35.947  38.137  1.00  0.00     0.198 A 
ATOM     87  C   UNL A   1      38.628  34.257  39.166  1.00  0.00     0.198 A 
ATOM     88  F   UNL A   1      38.215  32.231  38.040  1.00  0.00    -0.203 F 
ATOM     89  F   UNL A   1      40.594  37.139  38.189  1.00  0.00    -0.200 F 
ATOM     90  C   UNL A   1      39.232  35.504  39.214  1.00  0.00     0.200 A 
ATOM     91  F   UNL A   1      37.884  33.834  40.197  1.00  0.00    -0.200 F 
ATOM     92  F   UNL A   1      39.095  36.276  40.300  1.00  0.00    -0.200 F 
ENDBRANCH  58  82
BRANCH  70  93
ATOM     93  C   UNL A   1      44.306  29.002  35.436  1.00  0.00     0.064 A 
ATOM     94  C   UNL A   1      45.566  29.576  35.211  1.00  0.00     0.173 A 
ATOM     95  C   UNL A   1      44.218  27.966  36.379  1.00  0.00     0.173 A 
ATOM     96  F   UNL A   1      45.709  30.559  34.309  1.00  0.00    -0.203 F 
ATOM     97  C   UNL A   1      46.697  29.105  35.874  1.00  0.00     0.198 A 
ATOM     98  C   UNL A   1      45.343  27.524  37.069  1.00  0.00     0.198 A 
ATOM     99  F   UNL A   1      43.037  27.385  36.640  1.00  0.00    -0.203 F 
ATOM    100  F   UNL A   1      47.900  29.626  35.594  1.00  0.00    -0.200 F 
ATOM    101  C   UNL A   1      46.584  28.086  36.807  1.00  0.00     0.200 A 
ATOM    102  F   UNL A   1      45.228  26.550  37.982  1.00  0.00    -0.200 F 
ATOM    103  F   UNL A   1      47.673  27.637  37.447  1.00  0.00    -0.200 F 
ENDBRANCH  70  93
ENDBRANCH  44  45
ENDBRANCH  36  39
ENDBRANCH  34  35
ENDBRANCH  33  34
ENDBRANCH  32  33
ENDBRANCH   1  32
TORSDOF 16
ENDMDL
MODEL 3
REMARK VINA RESULT:     -12.6      4.845      9.180
REMARK SMILES CN1C(=O)/C(=C\c2ccc(-c3ccccc3C(=O)NCCCCCCNC(=O)c3ccc(-c4c5nc(c(-c6c(F)c(F)c(F)c(F)c6F)c6ccc([nH]6)c(-c6c(F)c(F)c(F)c(F)c6F)c6nc(c(-c7c(F)c(F)c(F)c(F)c7F)c7ccc4[nH]7)C=C6)C=C5)cc3)o2)C(=O)[NH+]=C1S
REMARK SMILES IDX 22 1 21 2 20 3 19 4 17 5 18 6 16 8 11 9 12 10 13 11 15 12
REMARK SMILES IDX 14 13 10 14 7 15 8 16 92 17 9 18 6 19 1 20 2 21 3 22 96 23
REMARK SMILES IDX 4 24 5 25 95 26 93 27 94 29 97 30 23 32 24 33 25 34 26 35
REMARK SMILES IDX 27 36 28 38 29 39 30 40 91 41 31 42 90 43 32 44 33 45 34 46
REMARK SMILES IDX 84 47 35 48 89 49 83 50 85 51 36 52 88 53 82 54 81 55 37 57
REMARK SMILES IDX 69 58 49 59 68 60 50 61 53 62 67 63 86 64 51 65 52 66 66 68
REMARK SMILES IDX 87 69 54 70 38 71 39 72 47 73 40 74 41 75 45 76 48 77 42 78
REMARK SMILES IDX 43 79 46 80 44 81 70 82 71 83 79 84 72 85 73 86 77 87 80 88
REMARK SMILES IDX 74 89 75 90 78 91 76 92 55 93 56 94 64 95 57 96 58 97 62 98
REMARK SMILES IDX 65 99 59 100 60 101 63 102 61 103
REMARK H PARENT 19 7 95 28 97 31 26 37 85 56 53 67
REMARK Flexibility Score: inf
ROOT
ATOM      1  C   UNL A   1      32.016  29.526  26.668  1.00  0.00     0.002 C 
ENDROOT
BRANCH   1   2
ATOM      2  C   UNL A   1      33.406  29.061  26.234  1.00  0.00     0.021 C 
BRANCH   2   3
ATOM      3  C   UNL A   1      33.688  27.564  26.173  1.00  0.00     0.116 C 
BRANCH   3   4
ATOM      4  N   UNL A   1      33.921  26.952  24.895  1.00  0.00    -0.352 N 
ATOM      5  C   UNL A   1      33.142  26.870  23.757  1.00  0.00     0.252 C 
ATOM      6  O   UNL A   1      33.746  26.385  22.789  1.00  0.00    -0.269 OA
ATOM      7  H   UNL A   1      34.797  26.510  24.815  1.00  0.00     0.163 HD
BRANCH   5   8
ATOM      8  C   UNL A   1      31.672  27.230  23.552  1.00  0.00     0.050 A 
ATOM      9  C   UNL A   1      30.474  26.656  24.033  1.00  0.00     0.030 A 
ATOM     10  C   UNL A   1      29.216  27.199  23.660  1.00  0.00     0.013 A 
ATOM     11  C   UNL A   1      29.107  28.335  22.870  1.00  0.00     0.001 A 
ATOM     12  C   UNL A   1      31.511  28.393  22.748  1.00  0.00     0.014 A 
ATOM     13  C   UNL A   1      30.264  28.944  22.425  1.00  0.00     0.001 A 
BRANCH   9  14
ATOM     14  C   UNL A   1      30.361  25.584  24.992  1.00  0.00     0.135 A 
ATOM     15  C   UNL A   1      30.723  23.485  25.636  1.00  0.00     0.128 A 
ATOM     16  C   UNL A   1      30.137  24.187  26.691  1.00  0.00     0.051 A 
ATOM     17  O   UNL A   1      30.819  24.366  24.581  1.00  0.00    -0.457 OA
ATOM     18  C   UNL A   1      29.850  25.499  26.260  1.00  0.00     0.051 A 
BRANCH  15  19
ATOM     19  C   UNL A   1      31.260  22.164  25.578  1.00  0.00     0.071 C 
ATOM     20  C   UNL A   1      35.581  23.610  24.269  1.00  0.00     0.301 C 
ATOM     21  N   UNL A   1      34.756  22.533  24.793  1.00  0.00    -0.189 N 
ATOM     22  C   UNL A   1      33.630  22.905  25.470  1.00  0.00     0.349 C 
ATOM     23  C   UNL A   1      35.147  21.242  24.984  1.00  0.00     0.318 C 
ATOM     24  O   UNL A   1      33.545  23.968  26.074  1.00  0.00    -0.240 OA
ATOM     25  C   UNL A   1      32.569  21.883  25.447  1.00  0.00     0.157 C 
ATOM     26  N   UNL A   1      34.337  20.262  25.204  1.00  0.00    -0.200 N 
ATOM     27  C   UNL A   1      32.990  20.492  25.154  1.00  0.00     0.347 C 
ATOM     28  H   UNL A   1      34.684  19.363  25.404  1.00  0.00     0.316 HD
ATOM     29  O   UNL A   1      32.180  19.623  24.841  1.00  0.00    -0.241 OA
BRANCH  23  30
ATOM     30  S   UNL A   1      36.852  20.925  25.044  1.00  0.00    -0.055 SA
ATOM     31  H   UNL A   1      37.290  21.037  26.325  1.00  0.00     0.116 HD
ENDBRANCH  23  30
ENDBRANCH  15  19
ENDBRANCH   9  14
ENDBRANCH   5   8
ENDBRANCH   3   4
ENDBRANCH   2   3
ENDBRANCH   1   2
BRANCH   1  32
ATOM     32  C   UNL A   1      31.379  30.703  25.918  1.00  0.00     0.002 C 
BRANCH  32  33
ATOM     33  C   UNL A   1      31.359  32.068  26.613  1.00  0.00     0.021 C 
BRANCH  33  34
ATOM     34  C   UNL A   1      32.707  32.741  26.866  1.00  0.00     0.116 C 
BRANCH  34  35
ATOM     35  N   UNL A   1      32.576  33.978  27.612  1.00  0.00    -0.352 N 
ATOM     36  C   UNL A   1      33.227  34.442  28.727  1.00  0.00     0.251 C 
ATOM     37  H   UNL A   1      31.899  34.597  27.254  1.00  0.00     0.163 HD
ATOM     38  O   UNL A   1      32.788  35.440  29.296  1.00  0.00    -0.269 OA
BRANCH  36  39
ATOM     39  C   UNL A   1      34.434  33.775  29.276  1.00  0.00     0.039 A 
ATOM     40  C   UNL A   1      34.255  32.708  30.164  1.00  0.00     0.014 A 
ATOM     41  C   UNL A   1      35.726  34.237  29.026  1.00  0.00     0.014 A 
ATOM     42  C   UNL A   1      35.356  32.097  30.774  1.00  0.00     0.010 A 
ATOM     43  C   UNL A   1      36.830  33.571  29.573  1.00  0.00     0.010 A 
ATOM     44  C   UNL A   1      36.664  32.503  30.469  1.00  0.00    -0.014 A 
BRANCH  44  45
ATOM     45  C   UNL A   1      37.844  31.830  31.094  1.00  0.00     0.031 A 
ATOM     46  C   UNL A   1      38.358  32.264  32.449  1.00  0.00     0.074 A 
ATOM     47  C   UNL A   1      38.508  30.866  30.421  1.00  0.00     0.049 A 
ATOM     48  N   UNL A   1      39.393  31.823  33.124  1.00  0.00    -0.248 NA
ATOM     49  C   UNL A   1      37.633  33.352  33.122  1.00  0.00     0.031 C 
ATOM     50  C   UNL A   1      38.184  30.396  29.072  1.00  0.00     0.029 A 
ATOM     51  N   UNL A   1      39.626  30.139  30.759  1.00  0.00    -0.354 N 
ATOM     52  C   UNL A   1      39.434  32.572  34.294  1.00  0.00     0.074 A 
ATOM     53  C   UNL A   1      38.380  33.558  34.198  1.00  0.00     0.031 C 
ATOM     54  C   UNL A   1      39.086  29.477  28.692  1.00  0.00     0.029 A 
ATOM     55  C   UNL A   1      40.062  29.298  29.763  1.00  0.00     0.049 A 
ATOM     56  H   UNL A   1      40.075  30.215  31.632  1.00  0.00     0.167 HD
ATOM     57  C   UNL A   1      40.241  32.427  35.374  1.00  0.00     0.037 A 
ATOM     58  C   UNL A   1      41.128  28.475  29.708  1.00  0.00     0.037 A 
ATOM     59  C   UNL A   1      41.272  31.429  35.490  1.00  0.00     0.049 A 
ATOM     60  C   UNL A   1      42.022  28.343  30.910  1.00  0.00     0.074 A 
ATOM     61  C   UNL A   1      42.073  31.138  36.582  1.00  0.00     0.029 A 
ATOM     62  N   UNL A   1      41.653  30.564  34.477  1.00  0.00    -0.354 N 
ATOM     63  N   UNL A   1      41.965  28.971  32.059  1.00  0.00    -0.248 NA
ATOM     64  C   UNL A   1      43.113  27.361  30.819  1.00  0.00     0.031 C 
ATOM     65  C   UNL A   1      42.980  30.142  36.210  1.00  0.00     0.029 A 
ATOM     66  C   UNL A   1      42.700  29.763  34.906  1.00  0.00     0.049 A 
ATOM     67  H   UNL A   1      41.241  30.524  33.583  1.00  0.00     0.167 HD
ATOM     68  C   UNL A   1      42.980  28.431  32.840  1.00  0.00     0.074 A 
ATOM     69  C   UNL A   1      43.627  27.415  32.039  1.00  0.00     0.031 C 
ATOM     70  C   UNL A   1      43.339  28.749  34.108  1.00  0.00     0.037 A 
BRANCH  57  71
ATOM     71  C   UNL A   1      40.024  33.351  36.542  1.00  0.00     0.064 A 
ATOM     72  C   UNL A   1      40.738  34.554  36.669  1.00  0.00     0.173 A 
ATOM     73  C   UNL A   1      39.048  33.068  37.509  1.00  0.00     0.173 A 
ATOM     74  F   UNL A   1      41.684  34.876  35.774  1.00  0.00    -0.203 F 
ATOM     75  C   UNL A   1      40.507  35.419  37.737  1.00  0.00     0.198 A 
ATOM     76  C   UNL A   1      38.794  33.952  38.555  1.00  0.00     0.198 A 
ATOM     77  F   UNL A   1      38.324  31.940  37.431  1.00  0.00    -0.203 F 
ATOM     78  F   UNL A   1      41.237  36.535  37.862  1.00  0.00    -0.200 F 
ATOM     79  C   UNL A   1      39.529  35.121  38.673  1.00  0.00     0.200 A 
ATOM     80  F   UNL A   1      37.834  33.674  39.449  1.00  0.00    -0.200 F 
ATOM     81  F   UNL A   1      39.298  35.962  39.692  1.00  0.00    -0.200 F 
ENDBRANCH  57  71
BRANCH  58  82
ATOM     82  C   UNL A   1      41.391  27.674  28.481  1.00  0.00     0.064 A 
ATOM     83  C   UNL A   1      42.312  28.110  27.518  1.00  0.00     0.173 A 
ATOM     84  C   UNL A   1      40.710  26.474  28.233  1.00  0.00     0.173 A 
ATOM     85  F   UNL A   1      42.976  29.261  27.702  1.00  0.00    -0.203 F 
ATOM     86  C   UNL A   1      42.516  27.397  26.338  1.00  0.00     0.198 A 
ATOM     87  C   UNL A   1      40.937  25.744  27.067  1.00  0.00     0.198 A 
ATOM     88  F   UNL A   1      39.827  26.003  29.127  1.00  0.00    -0.203 F 
ATOM     89  F   UNL A   1      43.359  27.870  25.410  1.00  0.00    -0.200 F 
ATOM     90  C   UNL A   1      41.831  26.213  26.116  1.00  0.00     0.200 A 
ATOM     91  F   UNL A   1      40.288  24.590  26.864  1.00  0.00    -0.200 F 
ATOM     92  F   UNL A   1      42.025  25.528  24.981  1.00  0.00    -0.200 F 
ENDBRANCH  58  82
BRANCH  70  93
ATOM     93  C   UNL A   1      44.458  27.959  34.728  1.00  0.00     0.064 A 
ATOM     94  C   UNL A   1      44.228  26.746  35.394  1.00  0.00     0.173 A 
ATOM     95  C   UNL A   1      45.783  28.415  34.637  1.00  0.00     0.173 A 
ATOM     96  F   UNL A   1      42.980  26.271  35.523  1.00  0.00    -0.203 F 
ATOM     97  C   UNL A   1      45.277  26.040  35.978  1.00  0.00     0.198 A 
ATOM     98  C   UNL A   1      46.833  27.687  35.188  1.00  0.00     0.198 A 
ATOM     99  F   UNL A   1      46.061  29.565  34.005  1.00  0.00    -0.203 F 
ATOM    100  F   UNL A   1      45.024  24.917  36.665  1.00  0.00    -0.200 F 
ATOM    101  C   UNL A   1      46.578  26.507  35.869  1.00  0.00     0.200 A 
ATOM    102  F   UNL A   1      48.091  28.132  35.067  1.00  0.00    -0.200 F 
ATOM    103  F   UNL A   1      47.586  25.823  36.429  1.00  0.00    -0.200 F 
ENDBRANCH  70  93
ENDBRANCH  44  45
ENDBRANCH  36  39
ENDBRANCH  34  35
ENDBRANCH  33  34
ENDBRANCH  32  33
ENDBRANCH   1  32
TORSDOF 16
ENDMDL
