MODEL 1
REMARK VINA RESULT:     -12.3      0.000      0.000
REMARK SMILES CO[C@@H]1C[C@@H](C(=O)NCCCCCCNC(=O)c2ccc(-c3c4nc(c(-c5c(F)c(F)c(F)c(F)c5F)c5ccc([nH]5)c(-c5c(F)c(F)c(F)c(F)c5F)c5nc(c(-c6c(F)c(F)c(F)c(F)c6F)c6ccc3[nH]6)C=C5)C=C4)cc2)N(S(=O)(=O)c2ccc(Cl)cc2F)C1
REMARK SMILES IDX 11 1 10 2 9 3 8 4 6 5 7 6 5 8 3 9 4 10 93 11 81 12 2 13 1 14
REMARK SMILES IDX 82 15 83 16 84 17 85 18 86 19 91 20 87 21 90 22 92 23 88 24
REMARK SMILES IDX 89 25 12 26 13 27 14 28 15 29 16 30 17 32 18 33 19 34 80 35
REMARK SMILES IDX 20 36 79 37 21 38 22 39 23 40 73 41 24 42 78 43 72 44 74 45
REMARK SMILES IDX 25 46 77 47 71 48 70 49 26 51 58 52 38 53 57 54 39 55 42 56
REMARK SMILES IDX 56 57 75 58 40 59 41 60 55 62 76 63 43 64 27 65 28 66 36 67
REMARK SMILES IDX 29 68 30 69 34 70 37 71 31 72 32 73 35 74 33 75 59 76 60 77
REMARK SMILES IDX 68 78 61 79 62 80 66 81 69 82 63 83 64 84 67 85 65 86 44 87
REMARK SMILES IDX 45 88 53 89 46 90 47 91 51 92 54 93 48 94 49 95 52 96 50 97
REMARK H PARENT 8 7 15 31 74 50 42 61
REMARK Flexibility Score: inf
ROOT
ATOM      1  C   UNL A   1      32.494  29.879  26.982  1.00  0.00     0.002 C 
ENDROOT
BRANCH   1   2
ATOM      2  C   UNL A   1      31.865  28.532  27.368  1.00  0.00     0.021 C 
BRANCH   2   3
ATOM      3  C   UNL A   1      32.564  27.318  26.740  1.00  0.00     0.116 C 
BRANCH   3   4
ATOM      4  N   UNL A   1      31.605  26.237  26.581  1.00  0.00    -0.355 N 
ATOM      5  C   UNL A   1      31.109  25.785  25.387  1.00  0.00     0.238 C 
ATOM      6  O   UNL A   1      29.896  25.609  25.292  1.00  0.00    -0.273 OA
ATOM      7  H   UNL A   1      31.287  25.793  27.400  1.00  0.00     0.163 HD
BRANCH   5   8
ATOM      8  C   UNL A   1      32.078  25.515  24.261  1.00  0.00     0.165 C 
ATOM      9  C   UNL A   1      32.589  24.578  22.155  1.00  0.00     0.135 C 
ATOM     10  C   UNL A   1      31.409  24.824  23.076  1.00  0.00     0.064 C 
ATOM     11  C   UNL A   1      33.770  24.316  23.114  1.00  0.00     0.135 C 
ATOM     12  N   UNL A   1      33.310  24.695  24.516  1.00  0.00    -0.183 NA
BRANCH   9  13
ATOM     13  O   UNL A   1      32.865  25.749  21.374  1.00  0.00    -0.380 OA
ATOM     14  C   UNL A   1      32.507  25.595  20.003  1.00  0.00     0.195 C 
ENDBRANCH   9  13
BRANCH  12  15
ATOM     15  S   UNL A   1      33.217  23.307  25.534  1.00  0.00     0.246 S 
ATOM     16  O   UNL A   1      33.193  23.753  26.906  1.00  0.00    -0.207 OA
ATOM     17  O   UNL A   1      32.101  22.524  25.030  1.00  0.00    -0.207 OA
BRANCH  15  18
ATOM     18  C   UNL A   1      34.646  22.308  25.238  1.00  0.00     0.118 A 
ATOM     19  C   UNL A   1      34.479  20.938  24.983  1.00  0.00     0.026 A 
ATOM     20  C   UNL A   1      35.925  22.795  25.478  1.00  0.00     0.144 A 
ATOM     21  C   UNL A   1      35.594  20.095  24.908  1.00  0.00     0.022 A 
ATOM     22  C   UNL A   1      37.045  21.972  25.352  1.00  0.00     0.061 A 
ATOM     23  F   UNL A   1      36.140  24.058  25.854  1.00  0.00    -0.205 F 
ATOM     24  C   UNL A   1      36.873  20.621  25.072  1.00  0.00     0.044 A 
ATOM     25  Cl  UNL A   1      38.247  19.592  24.963  1.00  0.00    -0.084 Cl
ENDBRANCH  15  18
ENDBRANCH  12  15
ENDBRANCH   5   8
ENDBRANCH   3   4
ENDBRANCH   2   3
ENDBRANCH   1   2
BRANCH   1  26
ATOM     26  C   UNL A   1      31.620  30.763  26.087  1.00  0.00     0.002 C 
BRANCH  26  27
ATOM     27  C   UNL A   1      31.373  32.174  26.625  1.00  0.00     0.021 C 
BRANCH  27  28
ATOM     28  C   UNL A   1      32.588  32.833  27.268  1.00  0.00     0.116 C 
BRANCH  28  29
ATOM     29  N   UNL A   1      32.348  34.224  27.612  1.00  0.00    -0.352 N 
ATOM     30  C   UNL A   1      32.961  34.994  28.570  1.00  0.00     0.251 C 
ATOM     31  H   UNL A   1      31.650  34.677  27.087  1.00  0.00     0.163 HD
ATOM     32  O   UNL A   1      32.533  36.111  28.839  1.00  0.00    -0.269 OA
BRANCH  30  33
ATOM     33  C   UNL A   1      34.130  34.458  29.300  1.00  0.00     0.039 A 
ATOM     34  C   UNL A   1      33.922  33.808  30.518  1.00  0.00     0.014 A 
ATOM     35  C   UNL A   1      35.422  34.597  28.784  1.00  0.00     0.014 A 
ATOM     36  C   UNL A   1      35.006  33.242  31.193  1.00  0.00     0.010 A 
ATOM     37  C   UNL A   1      36.492  33.980  29.426  1.00  0.00     0.010 A 
ATOM     38  C   UNL A   1      36.295  33.299  30.637  1.00  0.00    -0.014 A 
BRANCH  38  39
ATOM     39  C   UNL A   1      37.448  32.652  31.308  1.00  0.00     0.031 A 
ATOM     40  C   UNL A   1      38.160  31.507  30.645  1.00  0.00     0.074 A 
ATOM     41  C   UNL A   1      37.810  33.047  32.543  1.00  0.00     0.049 A 
ATOM     42  N   UNL A   1      39.137  30.762  31.100  1.00  0.00    -0.248 NA
ATOM     43  C   UNL A   1      37.694  31.130  29.302  1.00  0.00     0.031 C 
ATOM     44  C   UNL A   1      37.165  34.114  33.311  1.00  0.00     0.029 A 
ATOM     45  N   UNL A   1      38.799  32.589  33.375  1.00  0.00    -0.354 N 
ATOM     46  C   UNL A   1      39.387  29.823  30.110  1.00  0.00     0.074 A 
ATOM     47  C   UNL A   1      38.433  30.060  29.049  1.00  0.00     0.031 C 
ATOM     48  C   UNL A   1      37.782  34.236  34.497  1.00  0.00     0.029 A 
ATOM     49  C   UNL A   1      38.846  33.239  34.584  1.00  0.00     0.049 A 
ATOM     50  H   UNL A   1      39.418  31.864  33.129  1.00  0.00     0.167 HD
ATOM     51  C   UNL A   1      40.342  28.863  30.081  1.00  0.00     0.037 A 
ATOM     52  C   UNL A   1      39.651  33.045  35.646  1.00  0.00     0.037 A 
ATOM     53  C   UNL A   1      41.312  28.650  31.123  1.00  0.00     0.049 A 
ATOM     54  C   UNL A   1      40.712  31.983  35.582  1.00  0.00     0.074 A 
ATOM     55  C   UNL A   1      42.361  27.748  31.155  1.00  0.00     0.029 A 
ATOM     56  N   UNL A   1      41.348  29.349  32.321  1.00  0.00    -0.354 N 
ATOM     57  N   UNL A   1      40.985  31.144  34.612  1.00  0.00    -0.248 NA
ATOM     58  C   UNL A   1      41.584  31.845  36.758  1.00  0.00     0.031 C 
ATOM     59  C   UNL A   1      43.010  27.877  32.388  1.00  0.00     0.029 A 
ATOM     60  C   UNL A   1      42.390  28.887  33.106  1.00  0.00     0.049 A 
ATOM     61  H   UNL A   1      40.724  30.069  32.573  1.00  0.00     0.167 HD
ATOM     62  C   UNL A   1      42.071  30.398  35.048  1.00  0.00     0.074 A 
ATOM     63  C   UNL A   1      42.416  30.891  36.365  1.00  0.00     0.031 C 
ATOM     64  C   UNL A   1      42.723  29.393  34.413  1.00  0.00     0.037 A 
BRANCH  51  65
ATOM     65  C   UNL A   1      40.388  27.971  28.875  1.00  0.00     0.064 A 
ATOM     66  C   UNL A   1      39.664  26.769  28.822  1.00  0.00     0.173 A 
ATOM     67  C   UNL A   1      41.142  28.334  27.748  1.00  0.00     0.173 A 
ATOM     68  F   UNL A   1      38.938  26.372  29.877  1.00  0.00    -0.203 F 
ATOM     69  C   UNL A   1      39.717  25.951  27.697  1.00  0.00     0.198 A 
ATOM     70  C   UNL A   1      41.169  27.525  26.615  1.00  0.00     0.198 A 
ATOM     71  F   UNL A   1      41.849  29.474  27.746  1.00  0.00    -0.203 F 
ATOM     72  F   UNL A   1      39.056  24.785  27.688  1.00  0.00    -0.200 F 
ATOM     73  C   UNL A   1      40.465  26.332  26.593  1.00  0.00     0.200 A 
ATOM     74  F   UNL A   1      41.883  27.901  25.544  1.00  0.00    -0.200 F 
ATOM     75  F   UNL A   1      40.511  25.544  25.509  1.00  0.00    -0.200 F 
ENDBRANCH  51  65
BRANCH  52  76
ATOM     76  C   UNL A   1      39.497  33.898  36.853  1.00  0.00     0.064 A 
ATOM     77  C   UNL A   1      40.097  35.162  36.920  1.00  0.00     0.173 A 
ATOM     78  C   UNL A   1      38.746  33.470  37.958  1.00  0.00     0.173 A 
ATOM     79  F   UNL A   1      40.840  35.605  35.897  1.00  0.00    -0.203 F 
ATOM     80  C   UNL A   1      39.964  35.961  38.054  1.00  0.00     0.198 A 
ATOM     81  C   UNL A   1      38.595  34.280  39.080  1.00  0.00     0.198 A 
ATOM     82  F   UNL A   1      38.149  32.269  37.938  1.00  0.00    -0.203 F 
ATOM     83  F   UNL A   1      40.581  37.150  38.108  1.00  0.00    -0.200 F 
ATOM     84  C   UNL A   1      39.210  35.522  39.131  1.00  0.00     0.200 A 
ATOM     85  F   UNL A   1      37.853  33.857  40.114  1.00  0.00    -0.200 F 
ATOM     86  F   UNL A   1      39.078  36.292  40.219  1.00  0.00    -0.200 F 
ENDBRANCH  52  76
BRANCH  64  87
ATOM     87  C   UNL A   1      43.893  28.778  35.123  1.00  0.00     0.064 A 
ATOM     88  C   UNL A   1      43.733  27.693  35.996  1.00  0.00     0.173 A 
ATOM     89  C   UNL A   1      45.191  29.258  34.897  1.00  0.00     0.173 A 
ATOM     90  F   UNL A   1      42.509  27.210  36.255  1.00  0.00    -0.203 F 
ATOM     91  C   UNL A   1      44.832  27.121  36.632  1.00  0.00     0.198 A 
ATOM     92  C   UNL A   1      46.290  28.667  35.515  1.00  0.00     0.198 A 
ATOM     93  F   UNL A   1      45.396  30.292  34.068  1.00  0.00    -0.203 F 
ATOM     94  F   UNL A   1      44.652  26.110  37.494  1.00  0.00    -0.200 F 
ATOM     95  C   UNL A   1      46.109  27.603  36.387  1.00  0.00     0.200 A 
ATOM     96  F   UNL A   1      47.524  29.128  35.269  1.00  0.00    -0.200 F 
ATOM     97  F   UNL A   1      47.164  27.048  36.997  1.00  0.00    -0.200 F 
ENDBRANCH  64  87
ENDBRANCH  38  39
ENDBRANCH  30  33
ENDBRANCH  28  29
ENDBRANCH  27  28
ENDBRANCH  26  27
ENDBRANCH   1  26
TORSDOF 16
ENDMDL
MODEL 2
REMARK VINA RESULT:     -12.2      1.319      2.387
REMARK SMILES CO[C@@H]1C[C@@H](C(=O)NCCCCCCNC(=O)c2ccc(-c3c4nc(c(-c5c(F)c(F)c(F)c(F)c5F)c5ccc([nH]5)c(-c5c(F)c(F)c(F)c(F)c5F)c5nc(c(-c6c(F)c(F)c(F)c(F)c6F)c6ccc3[nH]6)C=C5)C=C4)cc2)N(S(=O)(=O)c2ccc(Cl)cc2F)C1
REMARK SMILES IDX 11 1 10 2 9 3 8 4 6 5 7 6 5 8 3 9 4 10 93 11 81 12 2 13 1 14
REMARK SMILES IDX 82 15 83 16 84 17 85 18 86 19 91 20 87 21 90 22 92 23 88 24
REMARK SMILES IDX 89 25 12 26 13 27 14 28 15 29 16 30 17 32 18 33 19 34 80 35
REMARK SMILES IDX 20 36 79 37 21 38 22 39 23 40 73 41 24 42 78 43 72 44 74 45
REMARK SMILES IDX 25 46 77 47 71 48 70 49 26 51 58 52 38 53 57 54 39 55 42 56
REMARK SMILES IDX 56 57 75 58 40 59 41 60 55 62 76 63 43 64 27 65 28 66 36 67
REMARK SMILES IDX 29 68 30 69 34 70 37 71 31 72 32 73 35 74 33 75 59 76 60 77
REMARK SMILES IDX 68 78 61 79 62 80 66 81 69 82 63 83 64 84 67 85 65 86 44 87
REMARK SMILES IDX 45 88 53 89 46 90 47 91 51 92 54 93 48 94 49 95 52 96 50 97
REMARK H PARENT 8 7 15 31 74 50 42 61
REMARK Flexibility Score: inf
ROOT
ATOM      1  C   UNL A   1      33.039  29.844  26.449  1.00  0.00     0.002 C 
ENDROOT
BRANCH   1   2
ATOM      2  C   UNL A   1      32.976  28.519  27.224  1.00  0.00     0.021 C 
BRANCH   2   3
ATOM      3  C   UNL A   1      31.549  28.006  27.460  1.00  0.00     0.116 C 
BRANCH   3   4
ATOM      4  N   UNL A   1      31.412  26.678  26.888  1.00  0.00    -0.355 N 
ATOM      5  C   UNL A   1      30.637  26.355  25.806  1.00  0.00     0.238 C 
ATOM      6  O   UNL A   1      29.911  25.366  25.886  1.00  0.00    -0.273 OA
ATOM      7  H   UNL A   1      31.919  25.949  27.313  1.00  0.00     0.163 HD
BRANCH   5   8
ATOM      8  C   UNL A   1      30.725  27.221  24.572  1.00  0.00     0.165 C 
ATOM      9  C   UNL A   1      29.752  28.184  22.649  1.00  0.00     0.135 C 
ATOM     10  C   UNL A   1      29.374  27.383  23.882  1.00  0.00     0.064 C 
ATOM     11  C   UNL A   1      31.168  27.683  22.290  1.00  0.00     0.135 C 
ATOM     12  N   UNL A   1      31.663  26.843  23.461  1.00  0.00    -0.183 NA
BRANCH   9  13
ATOM     13  O   UNL A   1      29.812  29.583  22.963  1.00  0.00    -0.380 OA
ATOM     14  C   UNL A   1      29.057  30.384  22.057  1.00  0.00     0.195 C 
ENDBRANCH   9  13
BRANCH  12  15
ATOM     15  S   UNL A   1      31.830  25.188  23.010  1.00  0.00     0.246 S 
ATOM     16  O   UNL A   1      30.588  24.512  23.300  1.00  0.00    -0.207 OA
ATOM     17  O   UNL A   1      32.321  25.200  21.642  1.00  0.00    -0.207 OA
BRANCH  15  18
ATOM     18  C   UNL A   1      33.147  24.487  23.960  1.00  0.00     0.118 A 
ATOM     19  C   UNL A   1      33.949  25.333  24.742  1.00  0.00     0.026 A 
ATOM     20  C   UNL A   1      33.544  23.168  23.774  1.00  0.00     0.144 A 
ATOM     21  C   UNL A   1      35.094  24.832  25.373  1.00  0.00     0.022 A 
ATOM     22  C   UNL A   1      34.653  22.649  24.442  1.00  0.00     0.061 A 
ATOM     23  F   UNL A   1      32.900  22.349  22.940  1.00  0.00    -0.205 F 
ATOM     24  C   UNL A   1      35.428  23.486  25.237  1.00  0.00     0.044 A 
ATOM     25  Cl  UNL A   1      36.823  22.863  26.024  1.00  0.00    -0.084 Cl
ENDBRANCH  15  18
ENDBRANCH  12  15
ENDBRANCH   5   8
ENDBRANCH   3   4
ENDBRANCH   2   3
ENDBRANCH   1   2
BRANCH   1  26
ATOM     26  C   UNL A   1      31.678  30.423  26.053  1.00  0.00     0.002 C 
BRANCH  26  27
ATOM     27  C   UNL A   1      31.439  31.866  26.501  1.00  0.00     0.021 C 
BRANCH  27  28
ATOM     28  C   UNL A   1      32.620  32.515  27.215  1.00  0.00     0.116 C 
BRANCH  28  29
ATOM     29  N   UNL A   1      32.373  33.909  27.543  1.00  0.00    -0.352 N 
ATOM     30  C   UNL A   1      32.977  34.691  28.497  1.00  0.00     0.251 C 
ATOM     31  H   UNL A   1      31.676  34.354  27.009  1.00  0.00     0.163 HD
ATOM     32  O   UNL A   1      32.543  35.809  28.751  1.00  0.00    -0.269 OA
BRANCH  30  33
ATOM     33  C   UNL A   1      34.143  34.167  29.239  1.00  0.00     0.039 A 
ATOM     34  C   UNL A   1      33.922  33.400  30.386  1.00  0.00     0.014 A 
ATOM     35  C   UNL A   1      35.446  34.431  28.806  1.00  0.00     0.014 A 
ATOM     36  C   UNL A   1      35.007  32.846  31.067  1.00  0.00     0.010 A 
ATOM     37  C   UNL A   1      36.523  33.828  29.450  1.00  0.00     0.010 A 
ATOM     38  C   UNL A   1      36.315  33.032  30.587  1.00  0.00    -0.014 A 
BRANCH  38  39
ATOM     39  C   UNL A   1      37.476  32.401  31.260  1.00  0.00     0.031 A 
ATOM     40  C   UNL A   1      38.187  31.248  30.612  1.00  0.00     0.074 A 
ATOM     41  C   UNL A   1      37.845  32.821  32.485  1.00  0.00     0.049 A 
ATOM     42  N   UNL A   1      39.170  30.515  31.073  1.00  0.00    -0.248 NA
ATOM     43  C   UNL A   1      37.713  30.845  29.280  1.00  0.00     0.031 C 
ATOM     44  C   UNL A   1      37.201  33.898  33.238  1.00  0.00     0.029 A 
ATOM     45  N   UNL A   1      38.842  32.381  33.318  1.00  0.00    -0.354 N 
ATOM     46  C   UNL A   1      39.418  29.559  30.099  1.00  0.00     0.074 A 
ATOM     47  C   UNL A   1      38.454  29.773  29.041  1.00  0.00     0.031 C 
ATOM     48  C   UNL A   1      37.827  34.044  34.418  1.00  0.00     0.029 A 
ATOM     49  C   UNL A   1      38.895  33.053  34.515  1.00  0.00     0.049 A 
ATOM     50  H   UNL A   1      39.463  31.654  33.080  1.00  0.00     0.167 HD
ATOM     51  C   UNL A   1      40.376  28.603  30.079  1.00  0.00     0.037 A 
ATOM     52  C   UNL A   1      39.709  32.882  35.574  1.00  0.00     0.037 A 
ATOM     53  C   UNL A   1      41.355  28.412  31.118  1.00  0.00     0.049 A 
ATOM     54  C   UNL A   1      40.774  31.823  35.521  1.00  0.00     0.074 A 
ATOM     55  C   UNL A   1      42.407  27.516  31.159  1.00  0.00     0.029 A 
ATOM     56  N   UNL A   1      41.396  29.134  32.303  1.00  0.00    -0.354 N 
ATOM     57  N   UNL A   1      41.044  30.968  34.564  1.00  0.00    -0.248 NA
ATOM     58  C   UNL A   1      41.655  31.709  36.692  1.00  0.00     0.031 C 
ATOM     59  C   UNL A   1      43.065  27.669  32.384  1.00  0.00     0.029 A 
ATOM     60  C   UNL A   1      42.447  28.690  33.088  1.00  0.00     0.049 A 
ATOM     61  H   UNL A   1      40.772  29.855  32.547  1.00  0.00     0.167 HD
ATOM     62  C   UNL A   1      42.136  30.234  35.005  1.00  0.00     0.074 A 
ATOM     63  C   UNL A   1      42.489  30.752  36.311  1.00  0.00     0.031 C 
ATOM     64  C   UNL A   1      42.787  29.220  34.384  1.00  0.00     0.037 A 
BRANCH  51  65
ATOM     65  C   UNL A   1      40.417  27.689  28.890  1.00  0.00     0.064 A 
ATOM     66  C   UNL A   1      41.233  27.963  27.780  1.00  0.00     0.173 A 
ATOM     67  C   UNL A   1      39.654  26.512  28.869  1.00  0.00     0.173 A 
ATOM     68  F   UNL A   1      41.973  29.082  27.746  1.00  0.00    -0.203 F 
ATOM     69  C   UNL A   1      41.260  27.107  26.683  1.00  0.00     0.198 A 
ATOM     70  C   UNL A   1      39.705  25.645  27.780  1.00  0.00     0.198 A 
ATOM     71  F   UNL A   1      38.861  26.202  29.906  1.00  0.00    -0.203 F 
ATOM     72  F   UNL A   1      42.009  27.414  25.615  1.00  0.00    -0.200 F 
ATOM     73  C   UNL A   1      40.501  25.946  26.686  1.00  0.00     0.200 A 
ATOM     74  F   UNL A   1      38.980  24.518  27.790  1.00  0.00    -0.200 F 
ATOM     75  F   UNL A   1      40.532  25.121  25.630  1.00  0.00    -0.200 F 
ENDBRANCH  51  65
BRANCH  52  76
ATOM     76  C   UNL A   1      39.560  33.755  36.766  1.00  0.00     0.064 A 
ATOM     77  C   UNL A   1      40.225  34.986  36.842  1.00  0.00     0.173 A 
ATOM     78  C   UNL A   1      38.751  33.381  37.849  1.00  0.00     0.173 A 
ATOM     79  F   UNL A   1      41.026  35.377  35.840  1.00  0.00    -0.203 F 
ATOM     80  C   UNL A   1      40.098  35.805  37.963  1.00  0.00     0.198 A 
ATOM     81  C   UNL A   1      38.605  34.211  38.957  1.00  0.00     0.198 A 
ATOM     82  F   UNL A   1      38.090  32.215  37.820  1.00  0.00    -0.203 F 
ATOM     83  F   UNL A   1      40.776  36.959  38.027  1.00  0.00    -0.200 F 
ATOM     84  C   UNL A   1      39.285  35.419  39.017  1.00  0.00     0.200 A 
ATOM     85  F   UNL A   1      37.808  33.841  39.969  1.00  0.00    -0.200 F 
ATOM     86  F   UNL A   1      39.158  36.208  40.092  1.00  0.00    -0.200 F 
ENDBRANCH  52  76
BRANCH  64  87
ATOM     87  C   UNL A   1      43.964  28.623  35.096  1.00  0.00     0.064 A 
ATOM     88  C   UNL A   1      45.256  29.148  34.945  1.00  0.00     0.173 A 
ATOM     89  C   UNL A   1      43.791  27.539  35.968  1.00  0.00     0.173 A 
ATOM     90  F   UNL A   1      45.474  30.174  34.110  1.00  0.00    -0.203 F 
ATOM     91  C   UNL A   1      46.336  28.594  35.628  1.00  0.00     0.198 A 
ATOM     92  C   UNL A   1      44.868  27.004  36.669  1.00  0.00     0.198 A 
ATOM     93  F   UNL A   1      42.574  27.004  36.149  1.00  0.00    -0.203 F 
ATOM     94  F   UNL A   1      47.568  29.085  35.438  1.00  0.00    -0.200 F 
ATOM     95  C   UNL A   1      46.140  27.528  36.494  1.00  0.00     0.200 A 
ATOM     96  F   UNL A   1      44.676  25.981  37.514  1.00  0.00    -0.200 F 
ATOM     97  F   UNL A   1      47.180  27.001  37.154  1.00  0.00    -0.200 F 
ENDBRANCH  64  87
ENDBRANCH  38  39
ENDBRANCH  30  33
ENDBRANCH  28  29
ENDBRANCH  27  28
ENDBRANCH  26  27
ENDBRANCH   1  26
TORSDOF 16
ENDMDL
MODEL 3
REMARK VINA RESULT:     -12.2      5.600     11.226
REMARK SMILES CO[C@@H]1C[C@@H](C(=O)NCCCCCCNC(=O)c2ccc(-c3c4nc(c(-c5c(F)c(F)c(F)c(F)c5F)c5ccc([nH]5)c(-c5c(F)c(F)c(F)c(F)c5F)c5nc(c(-c6c(F)c(F)c(F)c(F)c6F)c6ccc3[nH]6)C=C5)C=C4)cc2)N(S(=O)(=O)c2ccc(Cl)cc2F)C1
REMARK SMILES IDX 11 1 10 2 9 3 8 4 6 5 7 6 5 8 3 9 4 10 93 11 81 12 2 13 1 14
REMARK SMILES IDX 82 15 83 16 84 17 85 18 86 19 91 20 87 21 90 22 92 23 88 24
REMARK SMILES IDX 89 25 12 26 13 27 14 28 15 29 16 30 17 32 18 33 19 34 80 35
REMARK SMILES IDX 20 36 79 37 21 38 22 39 23 40 73 41 24 42 78 43 72 44 74 45
REMARK SMILES IDX 25 46 77 47 71 48 70 49 26 51 58 52 38 53 57 54 39 55 42 56
REMARK SMILES IDX 56 57 75 58 40 59 41 60 55 62 76 63 43 64 27 65 28 66 36 67
REMARK SMILES IDX 29 68 30 69 34 70 37 71 31 72 32 73 35 74 33 75 59 76 60 77
REMARK SMILES IDX 68 78 61 79 62 80 66 81 69 82 63 83 64 84 67 85 65 86 44 87
REMARK SMILES IDX 45 88 53 89 46 90 47 91 51 92 54 93 48 94 49 95 52 96 50 97
REMARK H PARENT 8 7 15 31 74 50 42 61
REMARK Flexibility Score: inf
ROOT
ATOM      1  C   UNL A   1      37.572  21.996  24.959  1.00  0.00     0.002 C 
ENDROOT
BRANCH   1   2
ATOM      2  C   UNL A   1      36.799  23.018  24.113  1.00  0.00     0.021 C 
BRANCH   2   3
ATOM      3  C   UNL A   1      35.463  23.452  24.732  1.00  0.00     0.116 C 
BRANCH   3   4
ATOM      4  N   UNL A   1      34.540  23.829  23.674  1.00  0.00    -0.355 N 
ATOM      5  C   UNL A   1      33.179  23.684  23.719  1.00  0.00     0.238 C 
ATOM      6  O   UNL A   1      32.615  23.193  22.743  1.00  0.00    -0.273 OA
ATOM      7  H   UNL A   1      34.926  24.221  22.858  1.00  0.00     0.163 HD
BRANCH   5   8
ATOM      8  C   UNL A   1      32.446  24.146  24.955  1.00  0.00     0.165 C 
ATOM      9  C   UNL A   1      30.444  24.569  26.134  1.00  0.00     0.135 C 
ATOM     10  C   UNL A   1      30.938  23.941  24.844  1.00  0.00     0.064 C 
ATOM     11  C   UNL A   1      31.425  25.734  26.388  1.00  0.00     0.135 C 
ATOM     12  N   UNL A   1      32.589  25.567  25.421  1.00  0.00    -0.183 NA
BRANCH   9  13
ATOM     13  O   UNL A   1      30.539  23.628  27.214  1.00  0.00    -0.380 OA
ATOM     14  C   UNL A   1      29.438  22.724  27.256  1.00  0.00     0.195 C 
ENDBRANCH   9  13
BRANCH  12  15
ATOM     15  S   UNL A   1      32.623  26.845  24.265  1.00  0.00     0.246 S 
ATOM     16  O   UNL A   1      33.953  26.920  23.709  1.00  0.00    -0.207 OA
ATOM     17  O   UNL A   1      31.502  26.599  23.373  1.00  0.00    -0.207 OA
BRANCH  15  18
ATOM     18  C   UNL A   1      32.220  28.353  25.096  1.00  0.00     0.118 A 
ATOM     19  C   UNL A   1      31.226  29.185  24.558  1.00  0.00     0.026 A 
ATOM     20  C   UNL A   1      33.015  28.839  26.128  1.00  0.00     0.144 A 
ATOM     21  C   UNL A   1      31.001  30.456  25.100  1.00  0.00     0.022 A 
ATOM     22  C   UNL A   1      32.761  30.082  26.708  1.00  0.00     0.061 A 
ATOM     23  F   UNL A   1      34.059  28.153  26.596  1.00  0.00    -0.205 F 
ATOM     24  C   UNL A   1      31.756  30.889  26.187  1.00  0.00     0.044 A 
ATOM     25  Cl  UNL A   1      31.472  32.442  26.867  1.00  0.00    -0.084 Cl
ENDBRANCH  15  18
ENDBRANCH  12  15
ENDBRANCH   5   8
ENDBRANCH   3   4
ENDBRANCH   2   3
ENDBRANCH   1   2
BRANCH   1  26
ATOM     26  C   UNL A   1      37.076  20.552  24.834  1.00  0.00     0.002 C 
BRANCH  26  27
ATOM     27  C   UNL A   1      38.147  19.484  25.065  1.00  0.00     0.021 C 
BRANCH  27  28
ATOM     28  C   UNL A   1      39.415  19.989  25.744  1.00  0.00     0.116 C 
BRANCH  28  29
ATOM     29  N   UNL A   1      40.426  18.954  25.874  1.00  0.00    -0.352 N 
ATOM     30  C   UNL A   1      41.774  19.088  26.099  1.00  0.00     0.251 C 
ATOM     31  H   UNL A   1      40.101  18.029  25.787  1.00  0.00     0.163 HD
ATOM     32  O   UNL A   1      42.517  18.115  26.028  1.00  0.00    -0.269 OA
BRANCH  30  33
ATOM     33  C   UNL A   1      42.335  20.421  26.405  1.00  0.00     0.039 A 
ATOM     34  C   UNL A   1      42.878  21.177  25.363  1.00  0.00     0.014 A 
ATOM     35  C   UNL A   1      42.323  20.922  27.710  1.00  0.00     0.014 A 
ATOM     36  C   UNL A   1      43.358  22.463  25.620  1.00  0.00     0.010 A 
ATOM     37  C   UNL A   1      42.745  22.226  27.953  1.00  0.00     0.010 A 
ATOM     38  C   UNL A   1      43.268  23.008  26.912  1.00  0.00    -0.014 A 
BRANCH  38  39
ATOM     39  C   UNL A   1      43.715  24.394  27.192  1.00  0.00     0.031 A 
ATOM     40  C   UNL A   1      42.736  25.412  27.704  1.00  0.00     0.074 A 
ATOM     41  C   UNL A   1      44.983  24.754  26.919  1.00  0.00     0.049 A 
ATOM     42  N   UNL A   1      42.914  26.689  27.937  1.00  0.00    -0.248 NA
ATOM     43  C   UNL A   1      41.368  24.939  27.965  1.00  0.00     0.031 C 
ATOM     44  C   UNL A   1      46.013  23.869  26.372  1.00  0.00     0.029 A 
ATOM     45  N   UNL A   1      45.618  25.963  27.050  1.00  0.00    -0.354 N 
ATOM     46  C   UNL A   1      41.681  27.172  28.352  1.00  0.00     0.074 A 
ATOM     47  C   UNL A   1      40.751  26.064  28.297  1.00  0.00     0.031 C 
ATOM     48  C   UNL A   1      47.154  24.561  26.225  1.00  0.00     0.029 A 
ATOM     49  C   UNL A   1      46.929  25.943  26.640  1.00  0.00     0.049 A 
ATOM     50  H   UNL A   1      45.177  26.768  27.406  1.00  0.00     0.167 HD
ATOM     51  C   UNL A   1      41.359  28.422  28.761  1.00  0.00     0.037 A 
ATOM     52  C   UNL A   1      47.842  26.931  26.596  1.00  0.00     0.037 A 
ATOM     53  C   UNL A   1      42.292  29.514  28.846  1.00  0.00     0.049 A 
ATOM     54  C   UNL A   1      47.463  28.307  27.070  1.00  0.00     0.074 A 
ATOM     55  C   UNL A   1      42.077  30.799  29.313  1.00  0.00     0.029 A 
ATOM     56  N   UNL A   1      43.620  29.448  28.451  1.00  0.00    -0.354 N 
ATOM     57  N   UNL A   1      46.311  28.736  27.525  1.00  0.00    -0.248 NA
ATOM     58  C   UNL A   1      48.513  29.334  27.032  1.00  0.00     0.031 C 
ATOM     59  C   UNL A   1      43.266  31.521  29.167  1.00  0.00     0.029 A 
ATOM     60  C   UNL A   1      44.232  30.675  28.647  1.00  0.00     0.049 A 
ATOM     61  H   UNL A   1      44.061  28.647  28.086  1.00  0.00     0.167 HD
ATOM     62  C   UNL A   1      46.503  30.071  27.850  1.00  0.00     0.074 A 
ATOM     63  C   UNL A   1      47.886  30.380  27.553  1.00  0.00     0.031 C 
ATOM     64  C   UNL A   1      45.612  30.963  28.350  1.00  0.00     0.037 A 
BRANCH  51  65
ATOM     65  C   UNL A   1      39.933  28.673  29.157  1.00  0.00     0.064 A 
ATOM     66  C   UNL A   1      38.985  29.139  28.232  1.00  0.00     0.173 A 
ATOM     67  C   UNL A   1      39.502  28.420  30.467  1.00  0.00     0.173 A 
ATOM     68  F   UNL A   1      39.350  29.408  26.969  1.00  0.00    -0.203 F 
ATOM     69  C   UNL A   1      37.666  29.369  28.612  1.00  0.00     0.198 A 
ATOM     70  C   UNL A   1      38.174  28.625  30.836  1.00  0.00     0.198 A 
ATOM     71  F   UNL A   1      40.367  27.970  31.389  1.00  0.00    -0.203 F 
ATOM     72  F   UNL A   1      36.790  29.860  27.724  1.00  0.00    -0.200 F 
ATOM     73  C   UNL A   1      37.261  29.107  29.912  1.00  0.00     0.200 A 
ATOM     74  F   UNL A   1      37.782  28.360  32.090  1.00  0.00    -0.200 F 
ATOM     75  F   UNL A   1      35.989  29.325  30.276  1.00  0.00    -0.200 F 
ENDBRANCH  51  65
BRANCH  52  76
ATOM     76  C   UNL A   1      49.214  26.646  26.104  1.00  0.00     0.064 A 
ATOM     77  C   UNL A   1      49.580  26.940  24.784  1.00  0.00     0.173 A 
ATOM     78  C   UNL A   1      50.186  26.078  26.941  1.00  0.00     0.173 A 
ATOM     79  F   UNL A   1      48.679  27.465  23.941  1.00  0.00    -0.203 F 
ATOM     80  C   UNL A   1      50.863  26.664  24.314  1.00  0.00     0.198 A 
ATOM     81  C   UNL A   1      51.474  25.826  26.477  1.00  0.00     0.198 A 
ATOM     82  F   UNL A   1      49.885  25.783  28.214  1.00  0.00    -0.203 F 
ATOM     83  F   UNL A   1      51.174  26.919  23.036  1.00  0.00    -0.200 F 
ATOM     84  C   UNL A   1      51.810  26.111  25.163  1.00  0.00     0.200 A 
ATOM     85  F   UNL A   1      52.391  25.304  27.304  1.00  0.00    -0.200 F 
ATOM     86  F   UNL A   1      53.044  25.851  24.713  1.00  0.00    -0.200 F 
ENDBRANCH  52  76
BRANCH  64  87
ATOM     87  C   UNL A   1      46.113  32.348  28.632  1.00  0.00     0.064 A 
ATOM     88  C   UNL A   1      46.040  33.364  27.670  1.00  0.00     0.173 A 
ATOM     89  C   UNL A   1      46.637  32.670  29.893  1.00  0.00     0.173 A 
ATOM     90  F   UNL A   1      45.562  33.101  26.445  1.00  0.00    -0.203 F 
ATOM     91  C   UNL A   1      46.491  34.651  27.954  1.00  0.00     0.198 A 
ATOM     92  C   UNL A   1      47.063  33.963  30.182  1.00  0.00     0.198 A 
ATOM     93  F   UNL A   1      46.724  31.733  30.849  1.00  0.00    -0.203 F 
ATOM     94  F   UNL A   1      46.450  35.597  27.006  1.00  0.00    -0.200 F 
ATOM     95  C   UNL A   1      46.996  34.951  29.211  1.00  0.00     0.200 A 
ATOM     96  F   UNL A   1      47.541  34.254  31.400  1.00  0.00    -0.200 F 
ATOM     97  F   UNL A   1      47.425  36.191  29.483  1.00  0.00    -0.200 F 
ENDBRANCH  64  87
ENDBRANCH  38  39
ENDBRANCH  30  33
ENDBRANCH  28  29
ENDBRANCH  27  28
ENDBRANCH  26  27
ENDBRANCH   1  26
TORSDOF 16
ENDMDL
