MODEL 1
REMARK VINA RESULT:     -11.1      0.000      0.000
REMARK SMILES O=C(/C=C/c1c(Cl)cccc1Cl)NCC(=O)NCCCCCCNC(=O)c1ccc(-c2c3nc(c(-c4c(F)c(F)c(F)c(F)c4F)c4ccc([nH]4)c(-c4c(F)c(F)c(F)c(F)c4F)c4nc(c(-c5c(F)c(F)c(F)c(F)c5F)c5ccc2[nH]5)C=C4)C=C3)cc1
REMARK SMILES IDX 20 1 19 2 18 3 17 4 15 5 16 6 14 8 13 9 1 10 2 11 3 13 4 14
REMARK SMILES IDX 5 15 6 16 11 17 7 18 8 19 10 20 12 21 9 22 21 23 22 24 23 25
REMARK SMILES IDX 24 26 25 27 26 29 27 30 28 31 89 32 29 33 88 34 30 35 31 36
REMARK SMILES IDX 32 37 82 38 33 39 87 40 81 41 83 42 34 43 86 44 80 45 79 46
REMARK SMILES IDX 35 48 67 49 47 50 66 51 48 52 51 53 65 54 84 55 49 56 50 57
REMARK SMILES IDX 64 59 85 60 52 61 36 62 37 63 45 64 38 65 39 66 43 67 46 68
REMARK SMILES IDX 40 69 41 70 44 71 42 72 68 73 69 74 77 75 70 76 71 77 75 78
REMARK SMILES IDX 78 79 72 80 73 81 76 82 74 83 53 84 54 85 62 86 55 87 56 88
REMARK SMILES IDX 60 89 63 90 57 91 58 92 61 93 59 94
REMARK H PARENT 17 7 13 12 24 28 83 47 51 58
REMARK Flexibility Score: inf
ROOT
ATOM      1  C   UNL A   1      35.377  33.450  28.335  1.00  0.00     0.002 C 
ENDROOT
BRANCH   1   2
ATOM      2  C   UNL A   1      35.758  32.019  27.932  1.00  0.00     0.021 C 
BRANCH   2   3
ATOM      3  C   UNL A   1      34.599  31.024  28.025  1.00  0.00     0.116 C 
BRANCH   3   4
ATOM      4  N   UNL A   1      34.002  30.796  26.724  1.00  0.00    -0.355 N 
ATOM      5  C   UNL A   1      33.323  29.702  26.271  1.00  0.00     0.239 C 
ATOM      6  O   UNL A   1      32.883  29.723  25.120  1.00  0.00    -0.273 OA
ATOM      7  H   UNL A   1      34.100  31.532  26.078  1.00  0.00     0.163 HD
BRANCH   5   8
ATOM      8  C   UNL A   1      33.053  28.519  27.204  1.00  0.00     0.216 C 
BRANCH   8   9
ATOM      9  N   UNL A   1      33.199  27.234  26.539  1.00  0.00    -0.343 N 
ATOM     10  O   UNL A   1      31.036  26.566  26.888  1.00  0.00    -0.270 OA
ATOM     11  C   UNL A   1      32.152  26.363  26.424  1.00  0.00     0.244 C 
ATOM     12  H   UNL A   1      34.075  26.986  26.161  1.00  0.00     0.164 HD
BRANCH  11  13
ATOM     13  C   UNL A   1      32.440  25.061  25.777  1.00  0.00     0.072 C 
ATOM     14  C   UNL A   1      32.062  23.859  26.234  1.00  0.00     0.017 C 
BRANCH  14  15
ATOM     15  C   UNL A   1      32.436  22.605  25.549  1.00  0.00     0.012 A 
ATOM     16  C   UNL A   1      31.955  22.277  24.263  1.00  0.00     0.049 A 
ATOM     17  C   UNL A   1      33.332  21.705  26.162  1.00  0.00     0.049 A 
ATOM     18  Cl  UNL A   1      30.897  23.321  23.374  1.00  0.00    -0.084 Cl
ATOM     19  C   UNL A   1      32.342  21.088  23.631  1.00  0.00     0.021 A 
ATOM     20  C   UNL A   1      33.723  20.524  25.519  1.00  0.00     0.021 A 
ATOM     21  Cl  UNL A   1      33.987  22.001  27.739  1.00  0.00    -0.084 Cl
ATOM     22  C   UNL A   1      33.226  20.214  24.257  1.00  0.00     0.003 A 
ENDBRANCH  14  15
ENDBRANCH  11  13
ENDBRANCH   8   9
ENDBRANCH   5   8
ENDBRANCH   3   4
ENDBRANCH   2   3
ENDBRANCH   1   2
BRANCH   1  23
ATOM     23  C   UNL A   1      34.109  33.574  29.188  1.00  0.00     0.002 C 
BRANCH  23  24
ATOM     24  C   UNL A   1      33.170  34.718  28.798  1.00  0.00     0.021 C 
BRANCH  24  25
ATOM     25  C   UNL A   1      33.430  36.032  29.527  1.00  0.00     0.116 C 
BRANCH  25  26
ATOM     26  N   UNL A   1      32.528  36.223  30.652  1.00  0.00    -0.352 N 
ATOM     27  C   UNL A   1      32.601  35.718  31.924  1.00  0.00     0.251 C 
ATOM     28  H   UNL A   1      31.751  36.802  30.474  1.00  0.00     0.163 HD
ATOM     29  O   UNL A   1      31.647  35.837  32.692  1.00  0.00    -0.269 OA
BRANCH  27  30
ATOM     30  C   UNL A   1      33.817  35.011  32.375  1.00  0.00     0.039 A 
ATOM     31  C   UNL A   1      33.696  33.719  32.893  1.00  0.00     0.014 A 
ATOM     32  C   UNL A   1      35.072  35.625  32.309  1.00  0.00     0.014 A 
ATOM     33  C   UNL A   1      34.837  33.018  33.288  1.00  0.00     0.010 A 
ATOM     34  C   UNL A   1      36.215  34.903  32.642  1.00  0.00     0.010 A 
ATOM     35  C   UNL A   1      36.109  33.595  33.137  1.00  0.00    -0.014 A 
BRANCH  35  36
ATOM     36  C   UNL A   1      37.340  32.842  33.491  1.00  0.00     0.031 A 
ATOM     37  C   UNL A   1      38.067  33.140  34.771  1.00  0.00     0.074 A 
ATOM     38  C   UNL A   1      37.837  31.936  32.626  1.00  0.00     0.049 A 
ATOM     39  N   UNL A   1      39.193  32.644  35.220  1.00  0.00    -0.248 NA
ATOM     40  C   UNL A   1      37.462  34.149  35.654  1.00  0.00     0.031 C 
ATOM     41  C   UNL A   1      37.247  31.591  31.333  1.00  0.00     0.029 A 
ATOM     42  N   UNL A   1      38.959  31.149  32.702  1.00  0.00    -0.354 N 
ATOM     43  C   UNL A   1      39.436  33.288  36.426  1.00  0.00     0.074 A 
ATOM     44  C   UNL A   1      38.368  34.247  36.615  1.00  0.00     0.031 C 
ATOM     45  C   UNL A   1      38.000  30.647  30.745  1.00  0.00     0.029 A 
ATOM     46  C   UNL A   1      39.144  30.350  31.601  1.00  0.00     0.049 A 
ATOM     47  H   UNL A   1      39.573  31.157  33.472  1.00  0.00     0.167 HD
ATOM     48  C   UNL A   1      40.445  33.082  37.305  1.00  0.00     0.037 A 
ATOM     49  C   UNL A   1      40.130  29.479  31.313  1.00  0.00     0.037 A 
ATOM     50  C   UNL A   1      41.491  32.110  37.126  1.00  0.00     0.049 A 
ATOM     51  C   UNL A   1      41.243  29.274  32.303  1.00  0.00     0.074 A 
ATOM     52  C   UNL A   1      42.524  31.784  37.987  1.00  0.00     0.029 A 
ATOM     53  N   UNL A   1      41.637  31.307  36.005  1.00  0.00    -0.354 N 
ATOM     54  N   UNL A   1      41.427  29.842  33.471  1.00  0.00    -0.248 NA
ATOM     55  C   UNL A   1      42.284  28.303  31.939  1.00  0.00     0.031 C 
ATOM     56  C   UNL A   1      43.321  30.815  37.369  1.00  0.00     0.029 A 
ATOM     57  C   UNL A   1      42.757  30.502  36.142  1.00  0.00     0.049 A 
ATOM     58  H   UNL A   1      41.035  31.308  35.226  1.00  0.00     0.167 HD
ATOM     59  C   UNL A   1      42.586  29.280  33.991  1.00  0.00     0.074 A 
ATOM     60  C   UNL A   1      43.054  28.315  33.018  1.00  0.00     0.031 C 
ATOM     61  C   UNL A   1      43.206  29.541  35.167  1.00  0.00     0.037 A 
BRANCH  48  62
ATOM     62  C   UNL A   1      40.464  33.925  38.548  1.00  0.00     0.064 A 
ATOM     63  C   UNL A   1      41.173  35.135  38.604  1.00  0.00     0.173 A 
ATOM     64  C   UNL A   1      39.737  33.538  39.684  1.00  0.00     0.173 A 
ATOM     65  F   UNL A   1      41.892  35.545  37.549  1.00  0.00    -0.203 F 
ATOM     66  C   UNL A   1      41.179  35.909  39.761  1.00  0.00     0.198 A 
ATOM     67  C   UNL A   1      39.721  34.331  40.829  1.00  0.00     0.198 A 
ATOM     68  F   UNL A   1      39.037  32.394  39.682  1.00  0.00    -0.203 F 
ATOM     69  F   UNL A   1      41.905  37.035  39.807  1.00  0.00    -0.200 F 
ATOM     70  C   UNL A   1      40.448  35.511  40.870  1.00  0.00     0.200 A 
ATOM     71  F   UNL A   1      39.004  33.950  41.895  1.00  0.00    -0.200 F 
ATOM     72  F   UNL A   1      40.451  36.259  41.981  1.00  0.00    -0.200 F 
ENDBRANCH  48  62
BRANCH  49  73
ATOM     73  C   UNL A   1      40.096  28.715  30.040  1.00  0.00     0.064 A 
ATOM     74  C   UNL A   1      39.487  27.454  29.976  1.00  0.00     0.173 A 
ATOM     75  C   UNL A   1      40.670  29.223  28.865  1.00  0.00     0.173 A 
ATOM     76  F   UNL A   1      38.943  26.917  31.077  1.00  0.00    -0.203 F 
ATOM     77  C   UNL A   1      39.470  26.722  28.790  1.00  0.00     0.198 A 
ATOM     78  C   UNL A   1      40.629  28.502  27.674  1.00  0.00     0.198 A 
ATOM     79  F   UNL A   1      41.261  30.427  28.873  1.00  0.00    -0.203 F 
ATOM     80  F   UNL A   1      38.920  25.500  28.768  1.00  0.00    -0.200 F 
ATOM     81  C   UNL A   1      40.036  27.249  27.639  1.00  0.00     0.200 A 
ATOM     82  F   UNL A   1      41.165  29.020  26.561  1.00  0.00    -0.200 F 
ATOM     83  F   UNL A   1      40.016  26.546  26.499  1.00  0.00    -0.200 F 
ENDBRANCH  49  73
BRANCH  61  84
ATOM     84  C   UNL A   1      44.441  28.749  35.483  1.00  0.00     0.064 A 
ATOM     85  C   UNL A   1      45.718  29.197  35.112  1.00  0.00     0.173 A 
ATOM     86  C   UNL A   1      44.349  27.545  36.197  1.00  0.00     0.173 A 
ATOM     87  F   UNL A   1      45.856  30.334  34.413  1.00  0.00    -0.203 F 
ATOM     88  C   UNL A   1      46.854  28.457  35.424  1.00  0.00     0.198 A 
ATOM     89  C   UNL A   1      45.490  26.822  36.534  1.00  0.00     0.198 A 
ATOM     90  F   UNL A   1      43.152  27.076  36.581  1.00  0.00    -0.203 F 
ATOM     91  F   UNL A   1      48.060  28.881  35.020  1.00  0.00    -0.200 F 
ATOM     92  C   UNL A   1      46.741  27.275  36.141  1.00  0.00     0.200 A 
ATOM     93  F   UNL A   1      45.380  25.687  37.237  1.00  0.00    -0.200 F 
ATOM     94  F   UNL A   1      47.836  26.568  36.447  1.00  0.00    -0.200 F 
ENDBRANCH  61  84
ENDBRANCH  35  36
ENDBRANCH  27  30
ENDBRANCH  25  26
ENDBRANCH  24  25
ENDBRANCH  23  24
ENDBRANCH   1  23
TORSDOF 16
ENDMDL
MODEL 2
REMARK VINA RESULT:     -10.9      4.884      8.408
REMARK SMILES O=C(/C=C/c1c(Cl)cccc1Cl)NCC(=O)NCCCCCCNC(=O)c1ccc(-c2c3nc(c(-c4c(F)c(F)c(F)c(F)c4F)c4ccc([nH]4)c(-c4c(F)c(F)c(F)c(F)c4F)c4nc(c(-c5c(F)c(F)c(F)c(F)c5F)c5ccc2[nH]5)C=C4)C=C3)cc1
REMARK SMILES IDX 20 1 19 2 18 3 17 4 15 5 16 6 14 8 13 9 1 10 2 11 3 13 4 14
REMARK SMILES IDX 5 15 6 16 11 17 7 18 8 19 10 20 12 21 9 22 21 23 22 24 23 25
REMARK SMILES IDX 24 26 25 27 26 29 27 30 28 31 89 32 29 33 88 34 30 35 31 36
REMARK SMILES IDX 32 37 82 38 33 39 87 40 81 41 83 42 34 43 86 44 80 45 79 46
REMARK SMILES IDX 35 48 67 49 47 50 66 51 48 52 51 53 65 54 84 55 49 56 50 57
REMARK SMILES IDX 64 59 85 60 52 61 36 62 37 63 45 64 38 65 39 66 43 67 46 68
REMARK SMILES IDX 40 69 41 70 44 71 42 72 68 73 69 74 77 75 70 76 71 77 75 78
REMARK SMILES IDX 78 79 72 80 73 81 76 82 74 83 53 84 54 85 62 86 55 87 56 88
REMARK SMILES IDX 60 89 63 90 57 91 58 92 61 93 59 94
REMARK H PARENT 17 7 13 12 24 28 83 47 51 58
REMARK Flexibility Score: inf
ROOT
ATOM      1  C   UNL A   1      37.052  32.488  31.397  1.00  0.00     0.002 C 
ENDROOT
BRANCH   1   2
ATOM      2  C   UNL A   1      36.725  31.724  32.688  1.00  0.00     0.021 C 
BRANCH   2   3
ATOM      3  C   UNL A   1      37.944  31.457  33.572  1.00  0.00     0.116 C 
BRANCH   3   4
ATOM      4  N   UNL A   1      37.544  31.123  34.926  1.00  0.00    -0.355 N 
ATOM      5  C   UNL A   1      38.327  30.813  35.999  1.00  0.00     0.239 C 
ATOM      6  O   UNL A   1      37.774  30.572  37.075  1.00  0.00    -0.273 OA
ATOM      7  H   UNL A   1      36.574  31.121  35.092  1.00  0.00     0.163 HD
BRANCH   5   8
ATOM      8  C   UNL A   1      39.852  30.846  35.879  1.00  0.00     0.216 C 
BRANCH   8   9
ATOM      9  N   UNL A   1      40.423  29.534  35.614  1.00  0.00    -0.343 N 
ATOM     10  O   UNL A   1      41.066  30.012  33.467  1.00  0.00    -0.270 OA
ATOM     11  C   UNL A   1      41.006  29.235  34.414  1.00  0.00     0.244 C 
ATOM     12  H   UNL A   1      40.390  28.846  36.317  1.00  0.00     0.164 HD
BRANCH  11  13
ATOM     13  C   UNL A   1      41.499  27.849  34.244  1.00  0.00     0.072 C 
ATOM     14  C   UNL A   1      42.373  27.225  35.046  1.00  0.00     0.017 C 
BRANCH  14  15
ATOM     15  C   UNL A   1      42.849  25.853  34.773  1.00  0.00     0.012 A 
ATOM     16  C   UNL A   1      42.334  24.728  35.452  1.00  0.00     0.049 A 
ATOM     17  C   UNL A   1      43.823  25.628  33.780  1.00  0.00     0.049 A 
ATOM     18  Cl  UNL A   1      41.091  24.858  36.653  1.00  0.00    -0.084 Cl
ATOM     19  C   UNL A   1      42.792  23.438  35.160  1.00  0.00     0.021 A 
ATOM     20  C   UNL A   1      44.269  24.333  33.484  1.00  0.00     0.021 A 
ATOM     21  Cl  UNL A   1      44.530  26.930  32.881  1.00  0.00    -0.084 Cl
ATOM     22  C   UNL A   1      43.756  23.239  34.176  1.00  0.00     0.003 A 
ENDBRANCH  14  15
ENDBRANCH  11  13
ENDBRANCH   8   9
ENDBRANCH   5   8
ENDBRANCH   3   4
ENDBRANCH   2   3
ENDBRANCH   1   2
BRANCH   1  23
ATOM     23  C   UNL A   1      36.013  33.533  30.975  1.00  0.00     0.002 C 
BRANCH  23  24
ATOM     24  C   UNL A   1      34.739  32.968  30.341  1.00  0.00     0.021 C 
BRANCH  24  25
ATOM     25  C   UNL A   1      34.827  32.735  28.836  1.00  0.00     0.116 C 
BRANCH  25  26
ATOM     26  N   UNL A   1      34.059  31.572  28.416  1.00  0.00    -0.352 N 
ATOM     27  C   UNL A   1      34.492  30.316  28.081  1.00  0.00     0.251 C 
ATOM     28  H   UNL A   1      33.085  31.709  28.365  1.00  0.00     0.163 HD
ATOM     29  O   UNL A   1      33.716  29.510  27.569  1.00  0.00    -0.269 OA
BRANCH  27  30
ATOM     30  C   UNL A   1      35.898  29.927  28.315  1.00  0.00     0.039 A 
ATOM     31  C   UNL A   1      36.826  30.088  27.282  1.00  0.00     0.014 A 
ATOM     32  C   UNL A   1      36.301  29.386  29.540  1.00  0.00     0.014 A 
ATOM     33  C   UNL A   1      38.167  29.764  27.495  1.00  0.00     0.010 A 
ATOM     34  C   UNL A   1      37.648  29.124  29.773  1.00  0.00     0.010 A 
ATOM     35  C   UNL A   1      38.594  29.308  28.753  1.00  0.00    -0.014 A 
BRANCH  35  36
ATOM     36  C   UNL A   1      40.026  29.019  29.020  1.00  0.00     0.031 A 
ATOM     37  C   UNL A   1      40.886  30.036  29.713  1.00  0.00     0.074 A 
ATOM     38  C   UNL A   1      40.564  27.865  28.580  1.00  0.00     0.049 A 
ATOM     39  N   UNL A   1      42.171  30.000  29.970  1.00  0.00    -0.248 NA
ATOM     40  C   UNL A   1      40.223  31.273  30.152  1.00  0.00     0.031 C 
ATOM     41  C   UNL A   1      39.843  26.817  27.858  1.00  0.00     0.029 A 
ATOM     42  N   UNL A   1      41.848  27.386  28.668  1.00  0.00    -0.354 N 
ATOM     43  C   UNL A   1      42.468  31.208  30.586  1.00  0.00     0.074 A 
ATOM     44  C   UNL A   1      41.243  31.978  30.619  1.00  0.00     0.031 C 
ATOM     45  C   UNL A   1      40.688  25.810  27.585  1.00  0.00     0.029 A 
ATOM     46  C   UNL A   1      42.017  26.157  28.079  1.00  0.00     0.049 A 
ATOM     47  H   UNL A   1      42.578  27.877  29.110  1.00  0.00     0.167 HD
ATOM     48  C   UNL A   1      43.649  31.626  31.098  1.00  0.00     0.037 A 
ATOM     49  C   UNL A   1      43.122  25.399  27.948  1.00  0.00     0.037 A 
ATOM     50  C   UNL A   1      44.860  30.849  31.085  1.00  0.00     0.049 A 
ATOM     51  C   UNL A   1      44.423  25.890  28.518  1.00  0.00     0.074 A 
ATOM     52  C   UNL A   1      46.093  31.160  31.631  1.00  0.00     0.029 A 
ATOM     53  N   UNL A   1      44.989  29.600  30.493  1.00  0.00    -0.354 N 
ATOM     54  N   UNL A   1      44.678  27.006  29.157  1.00  0.00    -0.248 NA
ATOM     55  C   UNL A   1      45.591  25.014  28.354  1.00  0.00     0.031 C 
ATOM     56  C   UNL A   1      46.980  30.121  31.331  1.00  0.00     0.029 A 
ATOM     57  C   UNL A   1      46.288  29.139  30.641  1.00  0.00     0.049 A 
ATOM     58  H   UNL A   1      44.265  29.114  30.036  1.00  0.00     0.167 HD
ATOM     59  C   UNL A   1      46.024  26.955  29.494  1.00  0.00     0.074 A 
ATOM     60  C   UNL A   1      46.530  25.691  29.001  1.00  0.00     0.031 C 
ATOM     61  C   UNL A   1      46.773  27.874  30.150  1.00  0.00     0.037 A 
BRANCH  48  62
ATOM     62  C   UNL A   1      43.689  32.993  31.720  1.00  0.00     0.064 A 
ATOM     63  C   UNL A   1      43.900  34.146  30.948  1.00  0.00     0.173 A 
ATOM     64  C   UNL A   1      43.482  33.155  33.098  1.00  0.00     0.173 A 
ATOM     65  F   UNL A   1      44.114  34.044  29.628  1.00  0.00    -0.203 F 
ATOM     66  C   UNL A   1      43.931  35.407  31.537  1.00  0.00     0.198 A 
ATOM     67  C   UNL A   1      43.483  34.421  33.678  1.00  0.00     0.198 A 
ATOM     68  F   UNL A   1      43.270  32.087  33.881  1.00  0.00    -0.203 F 
ATOM     69  F   UNL A   1      44.183  36.488  30.786  1.00  0.00    -0.200 F 
ATOM     70  C   UNL A   1      43.715  35.544  32.900  1.00  0.00     0.200 A 
ATOM     71  F   UNL A   1      43.263  34.553  34.994  1.00  0.00    -0.200 F 
ATOM     72  F   UNL A   1      43.741  36.760  33.464  1.00  0.00    -0.200 F 
ENDBRANCH  48  62
BRANCH  49  73
ATOM     73  C   UNL A   1      43.039  24.080  27.267  1.00  0.00     0.064 A 
ATOM     74  C   UNL A   1      42.595  22.944  27.957  1.00  0.00     0.173 A 
ATOM     75  C   UNL A   1      43.404  23.928  25.921  1.00  0.00     0.173 A 
ATOM     76  F   UNL A   1      42.257  23.036  29.250  1.00  0.00    -0.203 F 
ATOM     77  C   UNL A   1      42.537  21.700  27.331  1.00  0.00     0.198 A 
ATOM     78  C   UNL A   1      43.319  22.689  25.290  1.00  0.00     0.198 A 
ATOM     79  F   UNL A   1      43.831  24.985  25.217  1.00  0.00    -0.203 F 
ATOM     80  F   UNL A   1      42.151  20.621  28.027  1.00  0.00    -0.200 F 
ATOM     81  C   UNL A   1      42.893  21.574  25.997  1.00  0.00     0.200 A 
ATOM     82  F   UNL A   1      43.651  22.574  23.997  1.00  0.00    -0.200 F 
ATOM     83  F   UNL A   1      42.833  20.379  25.395  1.00  0.00    -0.200 F 
ENDBRANCH  49  73
BRANCH  61  84
ATOM     84  C   UNL A   1      48.213  27.532  30.403  1.00  0.00     0.064 A 
ATOM     85  C   UNL A   1      49.227  27.911  29.511  1.00  0.00     0.173 A 
ATOM     86  C   UNL A   1      48.585  26.848  31.571  1.00  0.00     0.173 A 
ATOM     87  F   UNL A   1      48.919  28.552  28.373  1.00  0.00    -0.203 F 
ATOM     88  C   UNL A   1      50.559  27.598  29.768  1.00  0.00     0.198 A 
ATOM     89  C   UNL A   1      49.922  26.563  31.838  1.00  0.00     0.198 A 
ATOM     90  F   UNL A   1      47.655  26.469  32.459  1.00  0.00    -0.203 F 
ATOM     91  F   UNL A   1      51.506  27.930  28.880  1.00  0.00    -0.200 F 
ATOM     92  C   UNL A   1      50.906  26.931  30.933  1.00  0.00     0.200 A 
ATOM     93  F   UNL A   1      50.256  25.930  32.970  1.00  0.00    -0.200 F 
ATOM     94  F   UNL A   1      52.189  26.637  31.181  1.00  0.00    -0.200 F 
ENDBRANCH  61  84
ENDBRANCH  35  36
ENDBRANCH  27  30
ENDBRANCH  25  26
ENDBRANCH  24  25
ENDBRANCH  23  24
ENDBRANCH   1  23
TORSDOF 16
ENDMDL
MODEL 3
REMARK VINA RESULT:     -10.9      2.970      5.410
REMARK SMILES O=C(/C=C/c1c(Cl)cccc1Cl)NCC(=O)NCCCCCCNC(=O)c1ccc(-c2c3nc(c(-c4c(F)c(F)c(F)c(F)c4F)c4ccc([nH]4)c(-c4c(F)c(F)c(F)c(F)c4F)c4nc(c(-c5c(F)c(F)c(F)c(F)c5F)c5ccc2[nH]5)C=C4)C=C3)cc1
REMARK SMILES IDX 20 1 19 2 18 3 17 4 15 5 16 6 14 8 13 9 1 10 2 11 3 13 4 14
REMARK SMILES IDX 5 15 6 16 11 17 7 18 8 19 10 20 12 21 9 22 21 23 22 24 23 25
REMARK SMILES IDX 24 26 25 27 26 29 27 30 28 31 89 32 29 33 88 34 30 35 31 36
REMARK SMILES IDX 32 37 82 38 33 39 87 40 81 41 83 42 34 43 86 44 80 45 79 46
REMARK SMILES IDX 35 48 67 49 47 50 66 51 48 52 51 53 65 54 84 55 49 56 50 57
REMARK SMILES IDX 64 59 85 60 52 61 36 62 37 63 45 64 38 65 39 66 43 67 46 68
REMARK SMILES IDX 40 69 41 70 44 71 42 72 68 73 69 74 77 75 70 76 71 77 75 78
REMARK SMILES IDX 78 79 72 80 73 81 76 82 74 83 53 84 54 85 62 86 55 87 56 88
REMARK SMILES IDX 60 89 63 90 57 91 58 92 61 93 59 94
REMARK H PARENT 17 7 13 12 24 28 83 47 51 58
REMARK Flexibility Score: inf
ROOT
ATOM      1  C   UNL A   1      33.767  26.830  25.849  1.00  0.00     0.002 C 
ENDROOT
BRANCH   1   2
ATOM      2  C   UNL A   1      33.149  25.454  25.562  1.00  0.00     0.021 C 
BRANCH   2   3
ATOM      3  C   UNL A   1      34.161  24.414  25.076  1.00  0.00     0.116 C 
BRANCH   3   4
ATOM      4  N   UNL A   1      33.541  23.111  24.934  1.00  0.00    -0.355 N 
ATOM      5  C   UNL A   1      32.999  22.535  23.822  1.00  0.00     0.239 C 
ATOM      6  O   UNL A   1      32.531  21.399  23.921  1.00  0.00    -0.273 OA
ATOM      7  H   UNL A   1      33.507  22.567  25.754  1.00  0.00     0.163 HD
BRANCH   5   8
ATOM      8  C   UNL A   1      33.050  23.259  22.474  1.00  0.00     0.216 C 
BRANCH   8   9
ATOM      9  N   UNL A   1      32.076  24.336  22.378  1.00  0.00    -0.343 N 
ATOM     10  O   UNL A   1      33.563  25.901  21.610  1.00  0.00    -0.270 OA
ATOM     11  C   UNL A   1      32.424  25.580  21.929  1.00  0.00     0.244 C 
ATOM     12  H   UNL A   1      31.143  24.163  22.641  1.00  0.00     0.164 HD
BRANCH  11  13
ATOM     13  C   UNL A   1      31.357  26.607  21.932  1.00  0.00     0.072 C 
ATOM     14  C   UNL A   1      30.663  27.013  23.005  1.00  0.00     0.017 C 
BRANCH  14  15
ATOM     15  C   UNL A   1      29.579  28.012  22.908  1.00  0.00     0.012 A 
ATOM     16  C   UNL A   1      28.269  27.747  23.361  1.00  0.00     0.049 A 
ATOM     17  C   UNL A   1      29.844  29.293  22.384  1.00  0.00     0.049 A 
ATOM     18  Cl  UNL A   1      27.823  26.236  24.080  1.00  0.00    -0.084 Cl
ATOM     19  C   UNL A   1      27.265  28.721  23.272  1.00  0.00     0.021 A 
ATOM     20  C   UNL A   1      28.839  30.266  22.308  1.00  0.00     0.021 A 
ATOM     21  Cl  UNL A   1      31.414  29.733  21.796  1.00  0.00    -0.084 Cl
ATOM     22  C   UNL A   1      27.550  29.979  22.749  1.00  0.00     0.003 A 
ENDBRANCH  14  15
ENDBRANCH  11  13
ENDBRANCH   8   9
ENDBRANCH   5   8
ENDBRANCH   3   4
ENDBRANCH   2   3
ENDBRANCH   1   2
BRANCH   1  23
ATOM     23  C   UNL A   1      33.891  27.757  24.633  1.00  0.00     0.002 C 
BRANCH  23  24
ATOM     24  C   UNL A   1      33.188  29.109  24.769  1.00  0.00     0.021 C 
BRANCH  24  25
ATOM     25  C   UNL A   1      32.680  29.424  26.172  1.00  0.00     0.116 C 
BRANCH  25  26
ATOM     26  N   UNL A   1      32.512  30.853  26.387  1.00  0.00    -0.352 N 
ATOM     27  C   UNL A   1      33.225  31.704  27.190  1.00  0.00     0.251 C 
ATOM     28  H   UNL A   1      31.777  31.270  25.880  1.00  0.00     0.163 HD
ATOM     29  O   UNL A   1      32.823  32.850  27.389  1.00  0.00    -0.269 OA
BRANCH  27  30
ATOM     30  C   UNL A   1      34.473  31.246  27.837  1.00  0.00     0.039 A 
ATOM     31  C   UNL A   1      35.510  32.162  28.029  1.00  0.00     0.014 A 
ATOM     32  C   UNL A   1      34.630  29.915  28.235  1.00  0.00     0.014 A 
ATOM     33  C   UNL A   1      36.682  31.760  28.673  1.00  0.00     0.010 A 
ATOM     34  C   UNL A   1      35.770  29.531  28.935  1.00  0.00     0.010 A 
ATOM     35  C   UNL A   1      36.808  30.447  29.159  1.00  0.00    -0.014 A 
BRANCH  35  36
ATOM     36  C   UNL A   1      38.019  30.017  29.904  1.00  0.00     0.031 A 
ATOM     37  C   UNL A   1      38.267  30.519  31.297  1.00  0.00     0.074 A 
ATOM     38  C   UNL A   1      38.925  29.225  29.298  1.00  0.00     0.049 A 
ATOM     39  N   UNL A   1      39.298  30.316  32.080  1.00  0.00    -0.248 NA
ATOM     40  C   UNL A   1      37.233  31.386  31.881  1.00  0.00     0.031 C 
ATOM     41  C   UNL A   1      38.818  28.708  27.934  1.00  0.00     0.029 A 
ATOM     42  N   UNL A   1      40.121  28.726  29.751  1.00  0.00    -0.354 N 
ATOM     43  C   UNL A   1      39.042  31.039  33.238  1.00  0.00     0.074 A 
ATOM     44  C   UNL A   1      37.784  31.726  33.037  1.00  0.00     0.031 C 
ATOM     45  C   UNL A   1      39.893  27.949  27.666  1.00  0.00     0.029 A 
ATOM     46  C   UNL A   1      40.781  27.956  28.825  1.00  0.00     0.049 A 
ATOM     47  H   UNL A   1      40.473  28.903  30.653  1.00  0.00     0.167 HD
ATOM     48  C   UNL A   1      39.777  31.104  34.373  1.00  0.00     0.037 A 
ATOM     49  C   UNL A   1      41.972  27.332  28.901  1.00  0.00     0.037 A 
ATOM     50  C   UNL A   1      41.015  30.400  34.579  1.00  0.00     0.049 A 
ATOM     51  C   UNL A   1      42.773  27.427  30.170  1.00  0.00     0.074 A 
ATOM     52  C   UNL A   1      41.804  30.353  35.715  1.00  0.00     0.029 A 
ATOM     53  N   UNL A   1      41.645  29.616  33.623  1.00  0.00    -0.354 N 
ATOM     54  N   UNL A   1      42.489  28.060  31.282  1.00  0.00    -0.248 NA
ATOM     55  C   UNL A   1      44.057  26.716  30.197  1.00  0.00     0.031 C 
ATOM     56  C   UNL A   1      42.934  29.579  35.432  1.00  0.00     0.029 A 
ATOM     57  C   UNL A   1      42.826  29.101  34.136  1.00  0.00     0.049 A 
ATOM     58  H   UNL A   1      41.304  29.451  32.714  1.00  0.00     0.167 HD
ATOM     59  C   UNL A   1      43.543  27.803  32.148  1.00  0.00     0.074 A 
ATOM     60  C   UNL A   1      44.467  26.944  31.437  1.00  0.00     0.031 C 
ATOM     61  C   UNL A   1      43.730  28.241  33.417  1.00  0.00     0.037 A 
BRANCH  48  62
ATOM     62  C   UNL A   1      39.258  31.969  35.485  1.00  0.00     0.064 A 
ATOM     63  C   UNL A   1      38.445  31.447  36.503  1.00  0.00     0.173 A 
ATOM     64  C   UNL A   1      39.605  33.327  35.555  1.00  0.00     0.173 A 
ATOM     65  F   UNL A   1      38.076  30.158  36.478  1.00  0.00    -0.203 F 
ATOM     66  C   UNL A   1      37.974  32.260  37.532  1.00  0.00     0.198 A 
ATOM     67  C   UNL A   1      39.157  34.129  36.601  1.00  0.00     0.198 A 
ATOM     68  F   UNL A   1      40.384  33.875  34.610  1.00  0.00    -0.203 F 
ATOM     69  F   UNL A   1      37.157  31.750  38.464  1.00  0.00    -0.200 F 
ATOM     70  C   UNL A   1      38.335  33.597  37.584  1.00  0.00     0.200 A 
ATOM     71  F   UNL A   1      39.516  35.418  36.656  1.00  0.00    -0.200 F 
ATOM     72  F   UNL A   1      37.885  34.376  38.577  1.00  0.00    -0.200 F 
ENDBRANCH  48  62
BRANCH  49  73
ATOM     73  C   UNL A   1      42.468  26.540  27.746  1.00  0.00     0.064 A 
ATOM     74  C   UNL A   1      43.370  27.096  26.829  1.00  0.00     0.173 A 
ATOM     75  C   UNL A   1      42.051  25.217  27.533  1.00  0.00     0.173 A 
ATOM     76  F   UNL A   1      43.780  28.363  26.979  1.00  0.00    -0.203 F 
ATOM     77  C   UNL A   1      43.822  26.366  25.731  1.00  0.00     0.198 A 
ATOM     78  C   UNL A   1      42.525  24.480  26.451  1.00  0.00     0.198 A 
ATOM     79  F   UNL A   1      41.192  24.638  28.384  1.00  0.00    -0.203 F 
ATOM     80  F   UNL A   1      44.650  26.937  24.845  1.00  0.00    -0.200 F 
ATOM     81  C   UNL A   1      43.403  25.057  25.546  1.00  0.00     0.200 A 
ATOM     82  F   UNL A   1      42.129  23.211  26.282  1.00  0.00    -0.200 F 
ATOM     83  F   UNL A   1      43.842  24.355  24.492  1.00  0.00    -0.200 F 
ENDBRANCH  49  73
BRANCH  61  84
ATOM     84  C   UNL A   1      44.965  27.772  34.130  1.00  0.00     0.064 A 
ATOM     85  C   UNL A   1      46.158  28.509  34.099  1.00  0.00     0.173 A 
ATOM     86  C   UNL A   1      44.942  26.589  34.885  1.00  0.00     0.173 A 
ATOM     87  F   UNL A   1      46.234  29.638  33.378  1.00  0.00    -0.203 F 
ATOM     88  C   UNL A   1      47.289  28.066  34.778  1.00  0.00     0.198 A 
ATOM     89  C   UNL A   1      46.067  26.165  35.586  1.00  0.00     0.198 A 
ATOM     90  F   UNL A   1      43.823  25.851  34.953  1.00  0.00    -0.203 F 
ATOM     91  F   UNL A   1      48.432  28.762  34.696  1.00  0.00    -0.200 F 
ATOM     92  C   UNL A   1      47.241  26.900  35.526  1.00  0.00     0.200 A 
ATOM     93  F   UNL A   1      46.015  25.045  36.319  1.00  0.00    -0.200 F 
ATOM     94  F   UNL A   1      48.330  26.479  36.184  1.00  0.00    -0.200 F 
ENDBRANCH  61  84
ENDBRANCH  35  36
ENDBRANCH  27  30
ENDBRANCH  25  26
ENDBRANCH  24  25
ENDBRANCH  23  24
ENDBRANCH   1  23
TORSDOF 16
ENDMDL
