MODEL 1
REMARK VINA RESULT:     -11.5      0.000      0.000
REMARK SMILES CC1=NN(c2ccc(C(=O)NCCCCCCNC(=O)c3ccc(-c4c5nc(c(-c6c(F)c(F)c(F)c(F)c6F)c6ccc([nH]6)c(-c6c(F)c(F)c(F)c(F)c6F)c6nc(c(-c7c(F)c(F)c(F)c(F)c7F)c7ccc4[nH]7)C=C6)C=C5)cc3)cc2)C(=O)/C1=C\c1ccc(N2CCCC2)cc1
REMARK SMILES IDX 14 1 13 2 12 3 11 4 9 5 10 6 8 8 5 9 6 10 85 11 7 12 84 13
REMARK SMILES IDX 4 14 1 15 2 16 3 17 88 18 86 19 89 20 87 21 90 22 91 23
REMARK SMILES IDX 100 24 92 25 99 26 93 27 94 28 95 29 98 30 96 31 97 32 15 33
REMARK SMILES IDX 16 34 17 35 18 36 19 37 20 39 21 40 22 41 83 42 23 43 82 44
REMARK SMILES IDX 24 45 25 46 26 47 76 48 27 49 81 50 75 51 77 52 28 53 80 54
REMARK SMILES IDX 74 55 73 56 29 58 61 59 41 60 60 61 42 62 45 63 59 64 78 65
REMARK SMILES IDX 43 66 44 67 58 69 79 70 46 71 30 72 31 73 39 74 32 75 33 76
REMARK SMILES IDX 37 77 40 78 34 79 35 80 38 81 36 82 62 83 63 84 71 85 64 86
REMARK SMILES IDX 65 87 69 88 72 89 66 90 67 91 70 92 68 93 47 94 48 95 56 96
REMARK SMILES IDX 49 97 50 98 54 99 57 100 51 101 52 102 55 103 53 104
REMARK H PARENT 11 7 18 38 77 57 45 68
REMARK Flexibility Score: inf
ROOT
ATOM      1  C   UNL A   1      34.867  34.616  28.080  1.00  0.00     0.002 C 
ENDROOT
BRANCH   1   2
ATOM      2  C   UNL A   1      34.022  35.806  28.553  1.00  0.00     0.021 C 
BRANCH   2   3
ATOM      3  C   UNL A   1      32.791  35.368  29.351  1.00  0.00     0.116 C 
BRANCH   3   4
ATOM      4  N   UNL A   1      32.560  36.299  30.438  1.00  0.00    -0.352 N 
ATOM      5  C   UNL A   1      32.999  36.351  31.736  1.00  0.00     0.251 C 
ATOM      6  O   UNL A   1      32.563  37.259  32.443  1.00  0.00    -0.269 OA
ATOM      7  H   UNL A   1      31.968  37.048  30.194  1.00  0.00     0.163 HD
BRANCH   5   8
ATOM      8  C   UNL A   1      34.019  35.420  32.296  1.00  0.00     0.039 A 
ATOM      9  C   UNL A   1      35.764  33.698  33.663  1.00  0.00     0.069 A 
ATOM     10  C   UNL A   1      34.432  33.330  33.489  1.00  0.00     0.029 A 
ATOM     11  C   UNL A   1      36.242  34.867  33.071  1.00  0.00     0.029 A 
ATOM     12  C   UNL A   1      33.556  34.211  32.843  1.00  0.00     0.016 A 
ATOM     13  C   UNL A   1      35.389  35.681  32.330  1.00  0.00     0.016 A 
BRANCH   9  14
ATOM     14  N   UNL A   1      36.630  32.926  34.443  1.00  0.00    -0.196 N 
ATOM     15  C   UNL A   1      39.716  31.101  34.517  1.00  0.00     0.069 C 
ATOM     16  C   UNL A   1      38.430  31.812  34.764  1.00  0.00     0.071 C 
ATOM     17  N   UNL A   1      37.623  32.197  33.810  1.00  0.00    -0.169 NA
ATOM     18  C   UNL A   1      37.935  32.182  36.105  1.00  0.00     0.065 C 
ATOM     19  C   UNL A   1      36.762  33.044  35.830  1.00  0.00     0.280 C 
ATOM     20  C   UNL A   1      38.395  31.757  37.289  1.00  0.00     0.024 C 
ATOM     21  O   UNL A   1      36.115  33.695  36.624  1.00  0.00    -0.267 OA
BRANCH  20  22
ATOM     22  C   UNL A   1      37.684  31.988  38.553  1.00  0.00    -0.025 A 
ATOM     23  C   UNL A   1      37.962  33.093  39.355  1.00  0.00     0.010 A 
ATOM     24  C   UNL A   1      36.702  31.083  38.971  1.00  0.00     0.010 A 
ATOM     25  C   UNL A   1      37.241  33.300  40.543  1.00  0.00     0.026 A 
ATOM     26  C   UNL A   1      36.000  31.293  40.161  1.00  0.00     0.026 A 
ATOM     27  C   UNL A   1      36.253  32.403  40.974  1.00  0.00     0.037 A 
BRANCH  27  28
ATOM     28  N   UNL A   1      35.548  32.635  42.134  1.00  0.00    -0.372 N 
ATOM     29  C   UNL A   1      35.590  31.766  43.305  1.00  0.00     0.116 C 
ATOM     30  C   UNL A   1      34.314  33.418  42.084  1.00  0.00     0.116 C 
ATOM     31  C   UNL A   1      34.142  31.729  43.778  1.00  0.00     0.023 C 
ATOM     32  C   UNL A   1      33.628  33.116  43.418  1.00  0.00     0.023 C 
ENDBRANCH  27  28
ENDBRANCH  20  22
ENDBRANCH   9  14
ENDBRANCH   5   8
ENDBRANCH   3   4
ENDBRANCH   2   3
ENDBRANCH   1   2
BRANCH   1  33
ATOM     33  C   UNL A   1      36.105  34.340  28.943  1.00  0.00     0.002 C 
BRANCH  33  34
ATOM     34  C   UNL A   1      36.229  32.893  29.428  1.00  0.00     0.021 C 
BRANCH  34  35
ATOM     35  C   UNL A   1      34.925  32.312  29.961  1.00  0.00     0.116 C 
BRANCH  35  36
ATOM     36  N   UNL A   1      34.267  31.484  28.961  1.00  0.00    -0.352 N 
ATOM     37  C   UNL A   1      34.803  30.529  28.137  1.00  0.00     0.251 C 
ATOM     38  H   UNL A   1      33.299  31.630  28.863  1.00  0.00     0.163 HD
ATOM     39  O   UNL A   1      34.172  30.115  27.171  1.00  0.00    -0.269 OA
BRANCH  37  40
ATOM     40  C   UNL A   1      36.155  30.006  28.415  1.00  0.00     0.039 A 
ATOM     41  C   UNL A   1      37.154  30.156  27.451  1.00  0.00     0.014 A 
ATOM     42  C   UNL A   1      36.431  29.359  29.624  1.00  0.00     0.014 A 
ATOM     43  C   UNL A   1      38.447  29.709  27.724  1.00  0.00     0.010 A 
ATOM     44  C   UNL A   1      37.736  28.985  29.925  1.00  0.00     0.010 A 
ATOM     45  C   UNL A   1      38.756  29.153  28.977  1.00  0.00    -0.014 A 
BRANCH  45  46
ATOM     46  C   UNL A   1      40.141  28.743  29.317  1.00  0.00     0.031 A 
ATOM     47  C   UNL A   1      41.011  29.644  30.147  1.00  0.00     0.074 A 
ATOM     48  C   UNL A   1      40.630  27.586  28.829  1.00  0.00     0.049 A 
ATOM     49  N   UNL A   1      42.271  29.506  30.476  1.00  0.00    -0.248 NA
ATOM     50  C   UNL A   1      40.391  30.877  30.659  1.00  0.00     0.031 C 
ATOM     51  C   UNL A   1      39.891  26.643  27.988  1.00  0.00     0.029 A 
ATOM     52  N   UNL A   1      41.868  27.011  28.962  1.00  0.00    -0.354 N 
ATOM     53  C   UNL A   1      42.592  30.628  31.228  1.00  0.00     0.074 A 
ATOM     54  C   UNL A   1      41.415  31.470  31.256  1.00  0.00     0.031 C 
ATOM     55  C   UNL A   1      40.682  25.597  27.698  1.00  0.00     0.029 A 
ATOM     56  C   UNL A   1      41.997  25.818  28.290  1.00  0.00     0.049 A 
ATOM     57  H   UNL A   1      42.597  27.413  29.489  1.00  0.00     0.167 HD
ATOM     58  C   UNL A   1      43.753  30.916  31.862  1.00  0.00     0.037 A 
ATOM     59  C   UNL A   1      43.062  25.006  28.154  1.00  0.00     0.037 A 
ATOM     60  C   UNL A   1      44.918  30.071  31.839  1.00  0.00     0.049 A 
ATOM     61  C   UNL A   1      44.359  25.384  28.825  1.00  0.00     0.074 A 
ATOM     62  C   UNL A   1      46.135  30.261  32.470  1.00  0.00     0.029 A 
ATOM     63  N   UNL A   1      45.011  28.873  31.145  1.00  0.00    -0.354 N 
ATOM     64  N   UNL A   1      44.632  26.420  29.579  1.00  0.00    -0.248 NA
ATOM     65  C   UNL A   1      45.494  24.473  28.625  1.00  0.00     0.031 C 
ATOM     66  C   UNL A   1      46.982  29.206  32.117  1.00  0.00     0.029 A 
ATOM     67  C   UNL A   1      46.273  28.326  31.316  1.00  0.00     0.049 A 
ATOM     68  H   UNL A   1      44.288  28.472  30.611  1.00  0.00     0.167 HD
ATOM     69  C   UNL A   1      45.954  26.267  29.975  1.00  0.00     0.074 A 
ATOM     70  C   UNL A   1      46.421  25.026  29.393  1.00  0.00     0.031 C 
ATOM     71  C   UNL A   1      46.716  27.080  30.746  1.00  0.00     0.037 A 
BRANCH  58  72
ATOM     72  C   UNL A   1      43.822  32.194  32.649  1.00  0.00     0.064 A 
ATOM     73  C   UNL A   1      44.187  33.406  32.045  1.00  0.00     0.173 A 
ATOM     74  C   UNL A   1      43.460  32.220  34.005  1.00  0.00     0.173 A 
ATOM     75  F   UNL A   1      44.553  33.435  30.755  1.00  0.00    -0.203 F 
ATOM     76  C   UNL A   1      44.205  34.593  32.773  1.00  0.00     0.198 A 
ATOM     77  C   UNL A   1      43.448  33.414  34.720  1.00  0.00     0.198 A 
ATOM     78  F   UNL A   1      43.099  31.089  34.631  1.00  0.00    -0.203 F 
ATOM     79  F   UNL A   1      44.596  35.733  32.184  1.00  0.00    -0.200 F 
ATOM     80  C   UNL A   1      43.826  34.598  34.106  1.00  0.00     0.200 A 
ATOM     81  F   UNL A   1      43.066  33.419  36.005  1.00  0.00    -0.200 F 
ATOM     82  F   UNL A   1      43.827  35.744  34.800  1.00  0.00    -0.200 F 
ENDBRANCH  58  72
BRANCH  59  83
ATOM     83  C   UNL A   1      42.963  23.755  27.353  1.00  0.00     0.064 A 
ATOM     84  C   UNL A   1      42.509  22.563  27.935  1.00  0.00     0.173 A 
ATOM     85  C   UNL A   1      43.369  23.711  26.012  1.00  0.00     0.173 A 
ATOM     86  F   UNL A   1      42.129  22.547  29.221  1.00  0.00    -0.203 F 
ATOM     87  C   UNL A   1      42.504  21.367  27.218  1.00  0.00     0.198 A 
ATOM     88  C   UNL A   1      43.327  22.522  25.285  1.00  0.00     0.198 A 
ATOM     89  F   UNL A   1      43.806  24.823  25.403  1.00  0.00    -0.203 F 
ATOM     90  F   UNL A   1      42.135  20.230  27.823  1.00  0.00    -0.200 F 
ATOM     91  C   UNL A   1      42.910  21.349  25.894  1.00  0.00     0.200 A 
ATOM     92  F   UNL A   1      43.705  22.512  23.999  1.00  0.00    -0.200 F 
ATOM     93  F   UNL A   1      42.915  20.198  25.208  1.00  0.00    -0.200 F 
ENDBRANCH  59  83
BRANCH  71  94
ATOM     94  C   UNL A   1      48.117  26.630  31.049  1.00  0.00     0.064 A 
ATOM     95  C   UNL A   1      48.407  25.796  32.138  1.00  0.00     0.173 A 
ATOM     96  C   UNL A   1      49.180  27.014  30.216  1.00  0.00     0.173 A 
ATOM     97  F   UNL A   1      47.431  25.412  32.974  1.00  0.00    -0.203 F 
ATOM     98  C   UNL A   1      49.714  25.391  32.402  1.00  0.00     0.198 A 
ATOM     99  C   UNL A   1      50.478  26.578  30.461  1.00  0.00     0.198 A 
ATOM    100  F   UNL A   1      48.956  27.804  29.155  1.00  0.00    -0.203 F 
ATOM    101  F   UNL A   1      49.975  24.643  33.483  1.00  0.00    -0.200 F 
ATOM    102  C   UNL A   1      50.746  25.774  31.559  1.00  0.00     0.200 A 
ATOM    103  F   UNL A   1      51.470  26.934  29.634  1.00  0.00    -0.200 F 
ATOM    104  F   UNL A   1      52.001  25.377  31.810  1.00  0.00    -0.200 F 
ENDBRANCH  71  94
ENDBRANCH  45  46
ENDBRANCH  37  40
ENDBRANCH  35  36
ENDBRANCH  34  35
ENDBRANCH  33  34
ENDBRANCH   1  33
TORSDOF 16
ENDMDL
MODEL 2
REMARK VINA RESULT:     -11.4      5.847     11.546
REMARK SMILES CC1=NN(c2ccc(C(=O)NCCCCCCNC(=O)c3ccc(-c4c5nc(c(-c6c(F)c(F)c(F)c(F)c6F)c6ccc([nH]6)c(-c6c(F)c(F)c(F)c(F)c6F)c6nc(c(-c7c(F)c(F)c(F)c(F)c7F)c7ccc4[nH]7)C=C6)C=C5)cc3)cc2)C(=O)/C1=C\c1ccc(N2CCCC2)cc1
REMARK SMILES IDX 14 1 13 2 12 3 11 4 9 5 10 6 8 8 5 9 6 10 85 11 7 12 84 13
REMARK SMILES IDX 4 14 1 15 2 16 3 17 88 18 86 19 89 20 87 21 90 22 91 23
REMARK SMILES IDX 100 24 92 25 99 26 93 27 94 28 95 29 98 30 96 31 97 32 15 33
REMARK SMILES IDX 16 34 17 35 18 36 19 37 20 39 21 40 22 41 83 42 23 43 82 44
REMARK SMILES IDX 24 45 25 46 26 47 76 48 27 49 81 50 75 51 77 52 28 53 80 54
REMARK SMILES IDX 74 55 73 56 29 58 61 59 41 60 60 61 42 62 45 63 59 64 78 65
REMARK SMILES IDX 43 66 44 67 58 69 79 70 46 71 30 72 31 73 39 74 32 75 33 76
REMARK SMILES IDX 37 77 40 78 34 79 35 80 38 81 36 82 62 83 63 84 71 85 64 86
REMARK SMILES IDX 65 87 69 88 72 89 66 90 67 91 70 92 68 93 47 94 48 95 56 96
REMARK SMILES IDX 49 97 50 98 54 99 57 100 51 101 52 102 55 103 53 104
REMARK H PARENT 11 7 18 38 77 57 45 68
REMARK Flexibility Score: inf
ROOT
ATOM      1  C   UNL A   1      40.654  27.468  27.290  1.00  0.00     0.002 C 
ENDROOT
BRANCH   1   2
ATOM      2  C   UNL A   1      41.738  27.604  28.368  1.00  0.00     0.021 C 
BRANCH   2   3
ATOM      3  C   UNL A   1      41.254  27.138  29.743  1.00  0.00     0.116 C 
BRANCH   3   4
ATOM      4  N   UNL A   1      41.344  28.236  30.687  1.00  0.00    -0.352 N 
ATOM      5  C   UNL A   1      40.546  29.322  30.939  1.00  0.00     0.251 C 
ATOM      6  O   UNL A   1      40.937  30.126  31.783  1.00  0.00    -0.269 OA
ATOM      7  H   UNL A   1      42.140  28.192  31.264  1.00  0.00     0.163 HD
BRANCH   5   8
ATOM      8  C   UNL A   1      39.213  29.527  30.304  1.00  0.00     0.039 A 
ATOM      9  C   UNL A   1      36.751  30.263  29.174  1.00  0.00     0.069 A 
ATOM     10  C   UNL A   1      37.936  30.695  28.582  1.00  0.00     0.029 A 
ATOM     11  C   UNL A   1      36.799  29.389  30.261  1.00  0.00     0.029 A 
ATOM     12  C   UNL A   1      39.160  30.359  29.173  1.00  0.00     0.016 A 
ATOM     13  C   UNL A   1      38.024  28.967  30.771  1.00  0.00     0.016 A 
BRANCH   9  14
ATOM     14  N   UNL A   1      35.509  30.711  28.714  1.00  0.00    -0.196 N 
ATOM     15  C   UNL A   1      33.453  33.573  28.052  1.00  0.00     0.069 C 
ATOM     16  C   UNL A   1      34.101  32.239  28.200  1.00  0.00     0.071 C 
ATOM     17  N   UNL A   1      35.142  32.022  28.961  1.00  0.00    -0.169 NA
ATOM     18  C   UNL A   1      33.660  31.023  27.488  1.00  0.00     0.065 C 
ATOM     19  C   UNL A   1      34.722  30.032  27.777  1.00  0.00     0.280 C 
ATOM     20  C   UNL A   1      32.517  30.844  26.813  1.00  0.00     0.024 C 
ATOM     21  O   UNL A   1      34.862  28.928  27.293  1.00  0.00    -0.267 OA
BRANCH  20  22
ATOM     22  C   UNL A   1      32.060  29.528  26.350  1.00  0.00    -0.025 A 
ATOM     23  C   UNL A   1      32.051  29.194  24.997  1.00  0.00     0.010 A 
ATOM     24  C   UNL A   1      31.622  28.579  27.281  1.00  0.00     0.010 A 
ATOM     25  C   UNL A   1      31.636  27.914  24.591  1.00  0.00     0.026 A 
ATOM     26  C   UNL A   1      31.200  27.313  26.863  1.00  0.00     0.026 A 
ATOM     27  C   UNL A   1      31.196  26.952  25.512  1.00  0.00     0.037 A 
BRANCH  27  28
ATOM     28  N   UNL A   1      30.809  25.699  25.092  1.00  0.00    -0.372 N 
ATOM     29  C   UNL A   1      30.678  24.545  25.973  1.00  0.00     0.116 C 
ATOM     30  C   UNL A   1      31.046  25.298  23.706  1.00  0.00     0.116 C 
ATOM     31  C   UNL A   1      31.254  23.397  25.152  1.00  0.00     0.023 C 
ATOM     32  C   UNL A   1      30.883  23.777  23.725  1.00  0.00     0.023 C 
ENDBRANCH  27  28
ENDBRANCH  20  22
ENDBRANCH   9  14
ENDBRANCH   5   8
ENDBRANCH   3   4
ENDBRANCH   2   3
ENDBRANCH   1   2
BRANCH   1  33
ATOM     33  C   UNL A   1      39.570  26.431  27.612  1.00  0.00     0.002 C 
BRANCH  33  34
ATOM     34  C   UNL A   1      39.766  25.076  26.928  1.00  0.00     0.021 C 
BRANCH  34  35
ATOM     35  C   UNL A   1      40.649  24.114  27.714  1.00  0.00     0.116 C 
BRANCH  35  36
ATOM     36  N   UNL A   1      41.302  23.156  26.835  1.00  0.00    -0.352 N 
ATOM     37  C   UNL A   1      42.359  23.342  25.982  1.00  0.00     0.251 C 
ATOM     38  H   UNL A   1      40.931  22.244  26.855  1.00  0.00     0.163 HD
ATOM     39  O   UNL A   1      42.616  22.510  25.119  1.00  0.00    -0.269 OA
BRANCH  37  40
ATOM     40  C   UNL A   1      43.186  24.558  26.105  1.00  0.00     0.039 A 
ATOM     41  C   UNL A   1      43.962  24.739  27.252  1.00  0.00     0.014 A 
ATOM     42  C   UNL A   1      43.187  25.522  25.092  1.00  0.00     0.014 A 
ATOM     43  C   UNL A   1      44.784  25.862  27.357  1.00  0.00     0.010 A 
ATOM     44  C   UNL A   1      44.064  26.597  25.163  1.00  0.00     0.010 A 
ATOM     45  C   UNL A   1      44.869  26.780  26.297  1.00  0.00    -0.014 A 
BRANCH  45  46
ATOM     46  C   UNL A   1      45.796  27.938  26.353  1.00  0.00     0.031 A 
ATOM     47  C   UNL A   1      47.274  27.729  26.182  1.00  0.00     0.074 A 
ATOM     48  C   UNL A   1      45.309  29.166  26.616  1.00  0.00     0.049 A 
ATOM     49  N   UNL A   1      48.251  28.595  26.286  1.00  0.00    -0.248 NA
ATOM     50  C   UNL A   1      47.719  26.359  25.876  1.00  0.00     0.031 C 
ATOM     51  C   UNL A   1      43.897  29.488  26.831  1.00  0.00     0.029 A 
ATOM     52  N   UNL A   1      45.948  30.372  26.759  1.00  0.00    -0.354 N 
ATOM     53  C   UNL A   1      49.418  27.879  26.058  1.00  0.00     0.074 A 
ATOM     54  C   UNL A   1      49.037  26.495  25.874  1.00  0.00     0.031 C 
ATOM     55  C   UNL A   1      43.775  30.807  27.055  1.00  0.00     0.029 A 
ATOM     56  C   UNL A   1      45.101  31.414  27.050  1.00  0.00     0.049 A 
ATOM     57  H   UNL A   1      46.922  30.480  26.661  1.00  0.00     0.167 HD
ATOM     58  C   UNL A   1      50.689  28.339  25.982  1.00  0.00     0.037 A 
ATOM     59  C   UNL A   1      45.369  32.709  27.301  1.00  0.00     0.037 A 
ATOM     60  C   UNL A   1      51.063  29.717  26.158  1.00  0.00     0.049 A 
ATOM     61  C   UNL A   1      46.801  33.179  27.265  1.00  0.00     0.074 A 
ATOM     62  C   UNL A   1      52.321  30.289  26.075  1.00  0.00     0.029 A 
ATOM     63  N   UNL A   1      50.177  30.744  26.455  1.00  0.00    -0.354 N 
ATOM     64  N   UNL A   1      47.890  32.502  26.994  1.00  0.00    -0.248 NA
ATOM     65  C   UNL A   1      47.038  34.597  27.569  1.00  0.00     0.031 C 
ATOM     66  C   UNL A   1      52.204  31.650  26.372  1.00  0.00     0.029 A 
ATOM     67  C   UNL A   1      50.866  31.939  26.579  1.00  0.00     0.049 A 
ATOM     68  H   UNL A   1      49.204  30.637  26.561  1.00  0.00     0.167 HD
ATOM     69  C   UNL A   1      48.933  33.416  27.056  1.00  0.00     0.074 A 
ATOM     70  C   UNL A   1      48.344  34.701  27.370  1.00  0.00     0.031 C 
ATOM     71  C   UNL A   1      50.261  33.213  26.873  1.00  0.00     0.037 A 
BRANCH  58  72
ATOM     72  C   UNL A   1      51.776  27.345  25.682  1.00  0.00     0.064 A 
ATOM     73  C   UNL A   1      52.164  27.061  24.364  1.00  0.00     0.173 A 
ATOM     74  C   UNL A   1      52.480  26.720  26.722  1.00  0.00     0.173 A 
ATOM     75  F   UNL A   1      51.516  27.623  23.333  1.00  0.00    -0.203 F 
ATOM     76  C   UNL A   1      53.202  26.172  24.099  1.00  0.00     0.198 A 
ATOM     77  C   UNL A   1      53.539  25.857  26.453  1.00  0.00     0.198 A 
ATOM     78  F   UNL A   1      52.153  26.960  28.001  1.00  0.00    -0.203 F 
ATOM     79  F   UNL A   1      53.528  25.885  22.830  1.00  0.00    -0.200 F 
ATOM     80  C   UNL A   1      53.896  25.579  25.143  1.00  0.00     0.200 A 
ATOM     81  F   UNL A   1      54.218  25.297  27.464  1.00  0.00    -0.200 F 
ATOM     82  F   UNL A   1      54.907  24.738  24.885  1.00  0.00    -0.200 F 
ENDBRANCH  58  72
BRANCH  59  83
ATOM     83  C   UNL A   1      44.269  33.664  27.611  1.00  0.00     0.064 A 
ATOM     84  C   UNL A   1      43.764  34.523  26.625  1.00  0.00     0.173 A 
ATOM     85  C   UNL A   1      43.739  33.775  28.904  1.00  0.00     0.173 A 
ATOM     86  F   UNL A   1      44.251  34.471  25.376  1.00  0.00    -0.203 F 
ATOM     87  C   UNL A   1      42.801  35.484  26.930  1.00  0.00     0.198 A 
ATOM     88  C   UNL A   1      42.750  34.711  29.199  1.00  0.00     0.198 A 
ATOM     89  F   UNL A   1      44.182  32.975  29.885  1.00  0.00    -0.203 F 
ATOM     90  F   UNL A   1      42.392  36.341  25.985  1.00  0.00    -0.200 F 
ATOM     91  C   UNL A   1      42.293  35.575  28.216  1.00  0.00     0.200 A 
ATOM     92  F   UNL A   1      42.250  34.785  30.441  1.00  0.00    -0.200 F 
ATOM     93  F   UNL A   1      41.376  36.506  28.512  1.00  0.00    -0.200 F 
ENDBRANCH  59  83
BRANCH  71  94
ATOM     94  C   UNL A   1      51.161  34.413  26.957  1.00  0.00     0.064 A 
ATOM     95  C   UNL A   1      51.784  34.788  28.157  1.00  0.00     0.173 A 
ATOM     96  C   UNL A   1      51.427  35.180  25.812  1.00  0.00     0.173 A 
ATOM     97  F   UNL A   1      51.551  34.099  29.283  1.00  0.00    -0.203 F 
ATOM     98  C   UNL A   1      52.614  35.905  28.213  1.00  0.00     0.198 A 
ATOM     99  C   UNL A   1      52.286  36.273  25.864  1.00  0.00     0.198 A 
ATOM    100  F   UNL A   1      50.864  34.861  24.638  1.00  0.00    -0.203 F 
ATOM    101  F   UNL A   1      53.152  36.279  29.383  1.00  0.00    -0.200 F 
ATOM    102  C   UNL A   1      52.871  36.641  27.066  1.00  0.00     0.200 A 
ATOM    103  F   UNL A   1      52.548  36.972  24.750  1.00  0.00    -0.200 F 
ATOM    104  F   UNL A   1      53.677  37.711  27.121  1.00  0.00    -0.200 F 
ENDBRANCH  71  94
ENDBRANCH  45  46
ENDBRANCH  37  40
ENDBRANCH  35  36
ENDBRANCH  34  35
ENDBRANCH  33  34
ENDBRANCH   1  33
TORSDOF 16
ENDMDL
MODEL 3
REMARK VINA RESULT:     -11.3      3.119      7.197
REMARK SMILES CC1=NN(c2ccc(C(=O)NCCCCCCNC(=O)c3ccc(-c4c5nc(c(-c6c(F)c(F)c(F)c(F)c6F)c6ccc([nH]6)c(-c6c(F)c(F)c(F)c(F)c6F)c6nc(c(-c7c(F)c(F)c(F)c(F)c7F)c7ccc4[nH]7)C=C6)C=C5)cc3)cc2)C(=O)/C1=C\c1ccc(N2CCCC2)cc1
REMARK SMILES IDX 14 1 13 2 12 3 11 4 9 5 10 6 8 8 5 9 6 10 85 11 7 12 84 13
REMARK SMILES IDX 4 14 1 15 2 16 3 17 88 18 86 19 89 20 87 21 90 22 91 23
REMARK SMILES IDX 100 24 92 25 99 26 93 27 94 28 95 29 98 30 96 31 97 32 15 33
REMARK SMILES IDX 16 34 17 35 18 36 19 37 20 39 21 40 22 41 83 42 23 43 82 44
REMARK SMILES IDX 24 45 25 46 26 47 76 48 27 49 81 50 75 51 77 52 28 53 80 54
REMARK SMILES IDX 74 55 73 56 29 58 61 59 41 60 60 61 42 62 45 63 59 64 78 65
REMARK SMILES IDX 43 66 44 67 58 69 79 70 46 71 30 72 31 73 39 74 32 75 33 76
REMARK SMILES IDX 37 77 40 78 34 79 35 80 38 81 36 82 62 83 63 84 71 85 64 86
REMARK SMILES IDX 65 87 69 88 72 89 66 90 67 91 70 92 68 93 47 94 48 95 56 96
REMARK SMILES IDX 49 97 50 98 54 99 57 100 51 101 52 102 55 103 53 104
REMARK H PARENT 11 7 18 38 77 57 45 68
REMARK Flexibility Score: inf
ROOT
ATOM      1  C   UNL A   1      35.593  31.940  32.083  1.00  0.00     0.002 C 
ENDROOT
BRANCH   1   2
ATOM      2  C   UNL A   1      36.912  31.183  32.286  1.00  0.00     0.021 C 
BRANCH   2   3
ATOM      3  C   UNL A   1      37.604  31.556  33.600  1.00  0.00     0.116 C 
BRANCH   3   4
ATOM      4  N   UNL A   1      37.356  32.953  33.898  1.00  0.00    -0.352 N 
ATOM      5  C   UNL A   1      37.903  34.121  33.432  1.00  0.00     0.251 C 
ATOM      6  O   UNL A   1      37.511  35.170  33.942  1.00  0.00    -0.269 OA
ATOM      7  H   UNL A   1      36.652  33.091  34.573  1.00  0.00     0.163 HD
BRANCH   5   8
ATOM      8  C   UNL A   1      38.874  34.181  32.303  1.00  0.00     0.039 A 
ATOM      9  C   UNL A   1      40.782  34.625  30.293  1.00  0.00     0.069 A 
ATOM     10  C   UNL A   1      41.186  34.577  31.626  1.00  0.00     0.029 A 
ATOM     11  C   UNL A   1      39.455  34.353  29.963  1.00  0.00     0.029 A 
ATOM     12  C   UNL A   1      40.225  34.396  32.627  1.00  0.00     0.016 A 
ATOM     13  C   UNL A   1      38.527  34.059  30.958  1.00  0.00     0.016 A 
BRANCH   9  14
ATOM     14  N   UNL A   1      41.682  34.966  29.278  1.00  0.00    -0.196 N 
ATOM     15  C   UNL A   1      43.134  37.643  27.386  1.00  0.00     0.069 C 
ATOM     16  C   UNL A   1      42.721  36.370  28.041  1.00  0.00     0.071 C 
ATOM     17  N   UNL A   1      41.624  36.240  28.740  1.00  0.00    -0.169 NA
ATOM     18  C   UNL A   1      43.512  35.124  27.997  1.00  0.00     0.065 C 
ATOM     19  C   UNL A   1      42.824  34.226  28.953  1.00  0.00     0.280 C 
ATOM     20  C   UNL A   1      44.557  34.850  27.204  1.00  0.00     0.024 C 
ATOM     21  O   UNL A   1      43.191  33.141  29.353  1.00  0.00    -0.267 OA
BRANCH  20  22
ATOM     22  C   UNL A   1      45.120  33.502  27.061  1.00  0.00    -0.025 A 
ATOM     23  C   UNL A   1      46.274  33.118  27.741  1.00  0.00     0.010 A 
ATOM     24  C   UNL A   1      44.491  32.573  26.225  1.00  0.00     0.010 A 
ATOM     25  C   UNL A   1      46.768  31.810  27.605  1.00  0.00     0.026 A 
ATOM     26  C   UNL A   1      44.999  31.277  26.089  1.00  0.00     0.026 A 
ATOM     27  C   UNL A   1      46.148  30.867  26.773  1.00  0.00     0.037 A 
BRANCH  27  28
ATOM     28  N   UNL A   1      46.642  29.586  26.668  1.00  0.00    -0.372 N 
ATOM     29  C   UNL A   1      46.566  28.776  25.457  1.00  0.00     0.116 C 
ATOM     30  C   UNL A   1      46.759  28.757  27.867  1.00  0.00     0.116 C 
ATOM     31  C   UNL A   1      46.225  27.384  25.976  1.00  0.00     0.023 C 
ATOM     32  C   UNL A   1      46.931  27.338  27.323  1.00  0.00     0.023 C 
ENDBRANCH  27  28
ENDBRANCH  20  22
ENDBRANCH   9  14
ENDBRANCH   5   8
ENDBRANCH   3   4
ENDBRANCH   2   3
ENDBRANCH   1   2
BRANCH   1  33
ATOM     33  C   UNL A   1      35.587  32.883  30.873  1.00  0.00     0.002 C 
BRANCH  33  34
ATOM     34  C   UNL A   1      34.409  32.681  29.918  1.00  0.00     0.021 C 
BRANCH  34  35
ATOM     35  C   UNL A   1      34.826  32.490  28.464  1.00  0.00     0.116 C 
BRANCH  35  36
ATOM     36  N   UNL A   1      34.223  31.295  27.893  1.00  0.00    -0.352 N 
ATOM     37  C   UNL A   1      34.810  30.101  27.561  1.00  0.00     0.251 C 
ATOM     38  H   UNL A   1      33.256  31.352  27.719  1.00  0.00     0.163 HD
ATOM     39  O   UNL A   1      34.224  29.296  26.846  1.00  0.00    -0.269 OA
BRANCH  37  40
ATOM     40  C   UNL A   1      36.162  29.792  28.067  1.00  0.00     0.039 A 
ATOM     41  C   UNL A   1      36.302  29.249  29.346  1.00  0.00     0.014 A 
ATOM     42  C   UNL A   1      37.290  30.047  27.281  1.00  0.00     0.014 A 
ATOM     43  C   UNL A   1      37.571  28.908  29.814  1.00  0.00     0.010 A 
ATOM     44  C   UNL A   1      38.544  29.635  27.717  1.00  0.00     0.010 A 
ATOM     45  C   UNL A   1      38.697  29.064  28.989  1.00  0.00    -0.014 A 
BRANCH  45  46
ATOM     46  C   UNL A   1      40.046  28.635  29.437  1.00  0.00     0.031 A 
ATOM     47  C   UNL A   1      40.841  29.503  30.371  1.00  0.00     0.074 A 
ATOM     48  C   UNL A   1      40.573  27.492  28.956  1.00  0.00     0.049 A 
ATOM     49  N   UNL A   1      42.066  29.347  30.806  1.00  0.00    -0.248 NA
ATOM     50  C   UNL A   1      40.180  30.722  30.867  1.00  0.00     0.031 C 
ATOM     51  C   UNL A   1      39.910  26.582  28.020  1.00  0.00     0.029 A 
ATOM     52  N   UNL A   1      41.794  26.906  29.178  1.00  0.00    -0.354 N 
ATOM     53  C   UNL A   1      42.321  30.441  31.621  1.00  0.00     0.074 A 
ATOM     54  C   UNL A   1      41.148  31.289  31.572  1.00  0.00     0.031 C 
ATOM     55  C   UNL A   1      40.721  25.542  27.767  1.00  0.00     0.029 A 
ATOM     56  C   UNL A   1      41.979  25.736  28.480  1.00  0.00     0.049 A 
ATOM     57  H   UNL A   1      42.473  27.287  29.781  1.00  0.00     0.167 HD
ATOM     58  C   UNL A   1      43.422  30.702  32.365  1.00  0.00     0.037 A 
ATOM     59  C   UNL A   1      43.050  24.924  28.412  1.00  0.00     0.037 A 
ATOM     60  C   UNL A   1      44.582  29.852  32.417  1.00  0.00     0.049 A 
ATOM     61  C   UNL A   1      44.282  25.272  29.207  1.00  0.00     0.074 A 
ATOM     62  C   UNL A   1      45.739  30.015  33.160  1.00  0.00     0.029 A 
ATOM     63  N   UNL A   1      44.734  28.678  31.694  1.00  0.00    -0.354 N 
ATOM     64  N   UNL A   1      44.490  26.280  30.018  1.00  0.00    -0.248 NA
ATOM     65  C   UNL A   1      45.429  24.363  29.079  1.00  0.00     0.031 C 
ATOM     66  C   UNL A   1      46.611  28.968  32.848  1.00  0.00     0.029 A 
ATOM     67  C   UNL A   1      45.974  28.119  31.958  1.00  0.00     0.049 A 
ATOM     68  H   UNL A   1      44.060  28.299  31.084  1.00  0.00     0.167 HD
ATOM     69  C   UNL A   1      45.771  26.107  30.524  1.00  0.00     0.074 A 
ATOM     70  C   UNL A   1      46.286  24.884  29.945  1.00  0.00     0.031 C 
ATOM     71  C   UNL A   1      46.463  26.890  31.387  1.00  0.00     0.037 A 
BRANCH  58  72
ATOM     72  C   UNL A   1      43.424  31.952  33.198  1.00  0.00     0.064 A 
ATOM     73  C   UNL A   1      42.720  32.026  34.410  1.00  0.00     0.173 A 
ATOM     74  C   UNL A   1      44.187  33.066  32.815  1.00  0.00     0.173 A 
ATOM     75  F   UNL A   1      41.966  30.994  34.816  1.00  0.00    -0.203 F 
ATOM     76  C   UNL A   1      42.764  33.173  35.196  1.00  0.00     0.198 A 
ATOM     77  C   UNL A   1      44.255  34.199  33.620  1.00  0.00     0.198 A 
ATOM     78  F   UNL A   1      44.883  33.047  31.668  1.00  0.00    -0.203 F 
ATOM     79  F   UNL A   1      42.051  33.235  36.330  1.00  0.00    -0.200 F 
ATOM     80  C   UNL A   1      43.540  34.255  34.807  1.00  0.00     0.200 A 
ATOM     81  F   UNL A   1      45.017  35.237  33.250  1.00  0.00    -0.200 F 
ATOM     82  F   UNL A   1      43.596  35.352  35.574  1.00  0.00    -0.200 F 
ENDBRANCH  58  72
BRANCH  59  83
ATOM     83  C   UNL A   1      43.020  23.701  27.564  1.00  0.00     0.064 A 
ATOM     84  C   UNL A   1      43.400  23.751  26.215  1.00  0.00     0.173 A 
ATOM     85  C   UNL A   1      42.562  22.474  28.065  1.00  0.00     0.173 A 
ATOM     86  F   UNL A   1      43.827  24.906  25.681  1.00  0.00    -0.203 F 
ATOM     87  C   UNL A   1      43.285  22.633  25.391  1.00  0.00     0.198 A 
ATOM     88  C   UNL A   1      42.483  21.347  27.249  1.00  0.00     0.198 A 
ATOM     89  F   UNL A   1      42.191  22.367  29.349  1.00  0.00    -0.203 F 
ATOM     90  F   UNL A   1      43.585  22.731  24.089  1.00  0.00    -0.200 F 
ATOM     91  C   UNL A   1      42.829  21.431  25.909  1.00  0.00     0.200 A 
ATOM     92  F   UNL A   1      42.057  20.183  27.758  1.00  0.00    -0.200 F 
ATOM     93  F   UNL A   1      42.707  20.359  25.115  1.00  0.00    -0.200 F 
ENDBRANCH  59  83
BRANCH  71  94
ATOM     94  C   UNL A   1      47.831  26.423  31.798  1.00  0.00     0.064 A 
ATOM     95  C   UNL A   1      48.988  26.834  31.121  1.00  0.00     0.173 A 
ATOM     96  C   UNL A   1      47.986  25.575  32.906  1.00  0.00     0.173 A 
ATOM     97  F   UNL A   1      48.894  27.631  30.045  1.00  0.00    -0.203 F 
ATOM     98  C   UNL A   1      50.247  26.388  31.517  1.00  0.00     0.198 A 
ATOM     99  C   UNL A   1      49.248  25.161  33.322  1.00  0.00     0.198 A 
ATOM    100  F   UNL A   1      46.913  25.158  33.595  1.00  0.00    -0.203 F 
ATOM    101  F   UNL A   1      51.333  26.748  30.818  1.00  0.00    -0.200 F 
ATOM    102  C   UNL A   1      50.376  25.560  32.622  1.00  0.00     0.200 A 
ATOM    103  F   UNL A   1      49.372  24.376  34.401  1.00  0.00    -0.200 F 
ATOM    104  F   UNL A   1      51.589  25.139  33.007  1.00  0.00    -0.200 F 
ENDBRANCH  71  94
ENDBRANCH  45  46
ENDBRANCH  37  40
ENDBRANCH  35  36
ENDBRANCH  34  35
ENDBRANCH  33  34
ENDBRANCH   1  33
TORSDOF 16
ENDMDL
