MODEL 1
REMARK VINA RESULT:     -11.9      0.000      0.000
REMARK SMILES C#CCN(CC(=O)NCCCCCCNC(=O)c1ccc(-c2c3nc(c(-c4c(F)c(F)c(F)c(F)c4F)c4ccc([nH]4)c(-c4c(F)c(F)c(F)c(F)c4F)c4nc(c(-c5c(F)c(F)c(F)c(F)c5F)c5ccc2[nH]5)C=C4)C=C3)cc1)C(=O)N1CC[N@@H+]2CCC[C@H]2C1
REMARK SMILES IDX 11 1 10 2 9 3 8 4 6 5 7 6 5 8 4 9 3 10 2 11 1 12 81 13 82 14
REMARK SMILES IDX 83 15 84 16 91 17 85 18 90 19 86 20 89 21 87 22 88 24 12 25
REMARK SMILES IDX 13 26 14 27 15 28 16 29 17 31 18 32 19 33 80 34 20 35 79 36
REMARK SMILES IDX 21 37 22 38 23 39 73 40 24 41 78 42 72 43 74 44 25 45 77 46
REMARK SMILES IDX 71 47 70 48 26 50 58 51 38 52 57 53 39 54 42 55 56 56 75 57
REMARK SMILES IDX 40 58 41 59 55 61 76 62 43 63 27 64 28 65 36 66 29 67 30 68
REMARK SMILES IDX 34 69 37 70 31 71 32 72 35 73 33 74 59 75 60 76 68 77 61 78
REMARK SMILES IDX 62 79 66 80 69 81 63 82 64 83 67 84 65 85 44 86 45 87 53 88
REMARK SMILES IDX 46 89 47 90 51 91 54 92 48 93 49 94 52 95 50 96
REMARK H PARENT 8 7 86 23 15 30 74 49 42 60
REMARK Flexibility Score: inf
ROOT
ATOM      1  C   UNL A   1      32.504  29.541  27.101  1.00  0.00     0.002 C 
ENDROOT
BRANCH   1   2
ATOM      2  C   UNL A   1      31.657  28.329  27.510  1.00  0.00     0.021 C 
BRANCH   2   3
ATOM      3  C   UNL A   1      31.304  27.384  26.362  1.00  0.00     0.116 C 
BRANCH   3   4
ATOM      4  N   UNL A   1      31.005  26.040  26.795  1.00  0.00    -0.355 N 
ATOM      5  C   UNL A   1      31.645  24.866  26.536  1.00  0.00     0.239 C 
ATOM      6  O   UNL A   1      31.341  23.903  27.250  1.00  0.00    -0.273 OA
ATOM      7  H   UNL A   1      30.211  25.959  27.371  1.00  0.00     0.163 HD
BRANCH   5   8
ATOM      8  C   UNL A   1      32.784  24.735  25.506  1.00  0.00     0.222 C 
BRANCH   8   9
ATOM      9  N   UNL A   1      32.479  24.047  24.251  1.00  0.00    -0.304 N 
BRANCH   9  10
ATOM     10  C   UNL A   1      31.191  24.338  23.622  1.00  0.00     0.211 C 
BRANCH  10  11
ATOM     11  C   UNL A   1      31.137  25.739  23.034  1.00  0.00    -0.085 C 
ATOM     12  C   UNL A   1      31.091  26.941  22.530  1.00  0.00     0.006 C 
ENDBRANCH  10  11
ENDBRANCH   9  10
BRANCH   9  13
ATOM     13  C   UNL A   1      33.401  23.287  23.532  1.00  0.00     0.321 C 
ATOM     14  O   UNL A   1      34.049  23.751  22.595  1.00  0.00    -0.248 OA
BRANCH  13  15
ATOM     15  N   UNL A   1      33.665  22.025  24.014  1.00  0.00    -0.313 N 
ATOM     16  C   UNL A   1      34.662  21.766  25.063  1.00  0.00     0.183 C 
ATOM     17  C   UNL A   1      32.592  21.021  23.991  1.00  0.00     0.186 C 
ATOM     18  C   UNL A   1      35.282  20.356  24.904  1.00  0.00     0.284 C 
ATOM     19  C   UNL A   1      33.234  19.638  23.823  1.00  0.00     0.204 C 
ATOM     20  N   UNL A   1      34.211  19.353  24.894  1.00  0.00    -0.330 N 
ATOM     21  C   UNL A   1      32.327  18.424  23.937  1.00  0.00     0.073 C 
ATOM     22  C   UNL A   1      34.623  17.980  24.650  1.00  0.00     0.262 C 
ATOM     23  H   UNL A   1      33.836  19.428  25.840  1.00  0.00     0.348 HD
ATOM     24  C   UNL A   1      33.273  17.304  24.400  1.00  0.00     0.068 C 
ENDBRANCH  13  15
ENDBRANCH   9  13
ENDBRANCH   8   9
ENDBRANCH   5   8
ENDBRANCH   3   4
ENDBRANCH   2   3
ENDBRANCH   1   2
BRANCH   1  25
ATOM     25  C   UNL A   1      31.835  30.513  26.124  1.00  0.00     0.002 C 
BRANCH  25  26
ATOM     26  C   UNL A   1      31.537  31.906  26.687  1.00  0.00     0.021 C 
BRANCH  26  27
ATOM     27  C   UNL A   1      32.738  32.607  27.313  1.00  0.00     0.116 C 
BRANCH  27  28
ATOM     28  N   UNL A   1      32.467  34.010  27.590  1.00  0.00    -0.352 N 
ATOM     29  C   UNL A   1      33.014  34.843  28.534  1.00  0.00     0.251 C 
ATOM     30  H   UNL A   1      31.787  34.425  27.011  1.00  0.00     0.163 HD
ATOM     31  O   UNL A   1      32.504  35.933  28.765  1.00  0.00    -0.269 OA
BRANCH  29  32
ATOM     32  C   UNL A   1      34.207  34.414  29.294  1.00  0.00     0.039 A 
ATOM     33  C   UNL A   1      34.032  33.829  30.551  1.00  0.00     0.014 A 
ATOM     34  C   UNL A   1      35.491  34.584  28.770  1.00  0.00     0.014 A 
ATOM     35  C   UNL A   1      35.139  33.335  31.244  1.00  0.00     0.010 A 
ATOM     36  C   UNL A   1      36.585  34.030  29.429  1.00  0.00     0.010 A 
ATOM     37  C   UNL A   1      36.417  33.386  30.663  1.00  0.00    -0.014 A 
BRANCH  37  38
ATOM     38  C   UNL A   1      37.578  32.715  31.300  1.00  0.00     0.031 A 
ATOM     39  C   UNL A   1      38.269  31.569  30.623  1.00  0.00     0.074 A 
ATOM     40  C   UNL A   1      37.950  33.089  32.540  1.00  0.00     0.049 A 
ATOM     41  N   UNL A   1      39.249  30.818  31.059  1.00  0.00    -0.248 NA
ATOM     42  C   UNL A   1      37.780  31.206  29.285  1.00  0.00     0.031 C 
ATOM     43  C   UNL A   1      37.330  34.163  33.317  1.00  0.00     0.029 A 
ATOM     44  N   UNL A   1      38.930  32.602  33.368  1.00  0.00    -0.354 N 
ATOM     45  C   UNL A   1      39.486  29.888  30.057  1.00  0.00     0.074 A 
ATOM     46  C   UNL A   1      38.513  30.137  29.013  1.00  0.00     0.031 C 
ATOM     47  C   UNL A   1      37.963  34.275  34.495  1.00  0.00     0.029 A 
ATOM     48  C   UNL A   1      38.997  33.247  34.578  1.00  0.00     0.049 A 
ATOM     49  H   UNL A   1      39.527  31.861  33.118  1.00  0.00     0.167 HD
ATOM     50  C   UNL A   1      40.439  28.925  30.006  1.00  0.00     0.037 A 
ATOM     51  C   UNL A   1      39.792  33.028  35.642  1.00  0.00     0.037 A 
ATOM     52  C   UNL A   1      41.402  28.686  31.051  1.00  0.00     0.049 A 
ATOM     53  C   UNL A   1      40.801  31.915  35.586  1.00  0.00     0.074 A 
ATOM     54  C   UNL A   1      42.455  27.787  31.066  1.00  0.00     0.029 A 
ATOM     55  N   UNL A   1      41.417  29.336  32.278  1.00  0.00    -0.354 N 
ATOM     56  N   UNL A   1      41.075  31.096  34.602  1.00  0.00    -0.248 NA
ATOM     57  C   UNL A   1      41.605  31.693  36.796  1.00  0.00     0.031 C 
ATOM     58  C   UNL A   1      43.061  27.844  32.326  1.00  0.00     0.029 A 
ATOM     59  C   UNL A   1      42.427  28.821  33.076  1.00  0.00     0.049 A 
ATOM     60  H   UNL A   1      40.801  30.057  32.541  1.00  0.00     0.167 HD
ATOM     61  C   UNL A   1      42.093  30.271  35.062  1.00  0.00     0.074 A 
ATOM     62  C   UNL A   1      42.401  30.705  36.410  1.00  0.00     0.031 C 
ATOM     63  C   UNL A   1      42.714  29.248  34.424  1.00  0.00     0.037 A 
BRANCH  50  64
ATOM     64  C   UNL A   1      40.467  28.045  28.788  1.00  0.00     0.064 A 
ATOM     65  C   UNL A   1      39.771  26.826  28.738  1.00  0.00     0.173 A 
ATOM     66  C   UNL A   1      41.193  28.428  27.651  1.00  0.00     0.173 A 
ATOM     67  F   UNL A   1      39.065  26.408  29.800  1.00  0.00    -0.203 F 
ATOM     68  C   UNL A   1      39.843  26.003  27.617  1.00  0.00     0.198 A 
ATOM     69  C   UNL A   1      41.233  27.619  26.517  1.00  0.00     0.198 A 
ATOM     70  F   UNL A   1      41.868  29.588  27.636  1.00  0.00    -0.203 F 
ATOM     71  F   UNL A   1      39.227  24.813  27.621  1.00  0.00    -0.200 F 
ATOM     72  C   UNL A   1      40.570  26.403  26.506  1.00  0.00     0.200 A 
ATOM     73  F   UNL A   1      41.923  28.015  25.438  1.00  0.00    -0.200 F 
ATOM     74  F   UNL A   1      40.640  25.608  25.429  1.00  0.00    -0.200 F 
ENDBRANCH  50  64
BRANCH  51  75
ATOM     75  C   UNL A   1      39.675  33.901  36.838  1.00  0.00     0.064 A 
ATOM     76  C   UNL A   1      40.361  35.122  36.900  1.00  0.00     0.173 A 
ATOM     77  C   UNL A   1      38.858  33.555  37.924  1.00  0.00     0.173 A 
ATOM     78  F   UNL A   1      41.171  35.485  35.894  1.00  0.00    -0.203 F 
ATOM     79  C   UNL A   1      40.237  35.962  38.003  1.00  0.00     0.198 A 
ATOM     80  C   UNL A   1      38.714  34.408  39.016  1.00  0.00     0.198 A 
ATOM     81  F   UNL A   1      38.177  32.400  37.912  1.00  0.00    -0.203 F 
ATOM     82  F   UNL A   1      40.927  37.110  38.050  1.00  0.00    -0.200 F 
ATOM     83  C   UNL A   1      39.407  35.609  39.056  1.00  0.00     0.200 A 
ATOM     84  F   UNL A   1      37.896  34.072  40.023  1.00  0.00    -0.200 F 
ATOM     85  F   UNL A   1      39.275  36.425  40.112  1.00  0.00    -0.200 F 
ENDBRANCH  51  75
BRANCH  63  86
ATOM     86  C   UNL A   1      43.792  28.523  35.177  1.00  0.00     0.064 A 
ATOM     87  C   UNL A   1      45.127  28.952  35.142  1.00  0.00     0.173 A 
ATOM     88  C   UNL A   1      43.482  27.412  35.978  1.00  0.00     0.173 A 
ATOM     89  F   UNL A   1      45.480  29.996  34.377  1.00  0.00    -0.203 F 
ATOM     90  C   UNL A   1      46.113  28.287  35.867  1.00  0.00     0.198 A 
ATOM     91  C   UNL A   1      44.464  26.770  36.726  1.00  0.00     0.198 A 
ATOM     92  F   UNL A   1      42.220  26.961  36.050  1.00  0.00    -0.203 F 
ATOM     93  F   UNL A   1      47.389  28.688  35.782  1.00  0.00    -0.200 F 
ATOM     94  C   UNL A   1      45.780  27.203  36.664  1.00  0.00     0.200 A 
ATOM     95  F   UNL A   1      44.137  25.731  37.507  1.00  0.00    -0.200 F 
ATOM     96  F   UNL A   1      46.728  26.571  37.369  1.00  0.00    -0.200 F 
ENDBRANCH  63  86
ENDBRANCH  37  38
ENDBRANCH  29  32
ENDBRANCH  27  28
ENDBRANCH  26  27
ENDBRANCH  25  26
ENDBRANCH   1  25
TORSDOF 18
ENDMDL
MODEL 2
REMARK VINA RESULT:     -11.7      1.343      2.147
REMARK SMILES C#CCN(CC(=O)NCCCCCCNC(=O)c1ccc(-c2c3nc(c(-c4c(F)c(F)c(F)c(F)c4F)c4ccc([nH]4)c(-c4c(F)c(F)c(F)c(F)c4F)c4nc(c(-c5c(F)c(F)c(F)c(F)c5F)c5ccc2[nH]5)C=C4)C=C3)cc1)C(=O)N1CC[N@@H+]2CCC[C@H]2C1
REMARK SMILES IDX 11 1 10 2 9 3 8 4 6 5 7 6 5 8 4 9 3 10 2 11 1 12 81 13 82 14
REMARK SMILES IDX 83 15 84 16 91 17 85 18 90 19 86 20 89 21 87 22 88 24 12 25
REMARK SMILES IDX 13 26 14 27 15 28 16 29 17 31 18 32 19 33 80 34 20 35 79 36
REMARK SMILES IDX 21 37 22 38 23 39 73 40 24 41 78 42 72 43 74 44 25 45 77 46
REMARK SMILES IDX 71 47 70 48 26 50 58 51 38 52 57 53 39 54 42 55 56 56 75 57
REMARK SMILES IDX 40 58 41 59 55 61 76 62 43 63 27 64 28 65 36 66 29 67 30 68
REMARK SMILES IDX 34 69 37 70 31 71 32 72 35 73 33 74 59 75 60 76 68 77 61 78
REMARK SMILES IDX 62 79 66 80 69 81 63 82 64 83 67 84 65 85 44 86 45 87 53 88
REMARK SMILES IDX 46 89 47 90 51 91 54 92 48 93 49 94 52 95 50 96
REMARK H PARENT 8 7 86 23 15 30 74 49 42 60
REMARK Flexibility Score: inf
ROOT
ATOM      1  C   UNL A   1      32.960  29.926  26.968  1.00  0.00     0.002 C 
ENDROOT
BRANCH   1   2
ATOM      2  C   UNL A   1      32.867  28.407  27.156  1.00  0.00     0.021 C 
BRANCH   2   3
ATOM      3  C   UNL A   1      32.844  27.605  25.855  1.00  0.00     0.116 C 
BRANCH   3   4
ATOM      4  N   UNL A   1      33.803  28.066  24.880  1.00  0.00    -0.355 N 
ATOM      5  C   UNL A   1      33.659  28.311  23.547  1.00  0.00     0.239 C 
ATOM      6  O   UNL A   1      34.565  28.955  23.005  1.00  0.00    -0.273 OA
ATOM      7  H   UNL A   1      34.707  28.229  25.234  1.00  0.00     0.163 HD
BRANCH   5   8
ATOM      8  C   UNL A   1      32.394  27.937  22.752  1.00  0.00     0.222 C 
BRANCH   8   9
ATOM      9  N   UNL A   1      32.030  26.521  22.696  1.00  0.00    -0.304 N 
BRANCH   9  10
ATOM     10  C   UNL A   1      30.693  26.153  23.161  1.00  0.00     0.211 C 
BRANCH  10  11
ATOM     11  C   UNL A   1      29.729  27.328  23.143  1.00  0.00    -0.085 C 
ATOM     12  C   UNL A   1      28.903  28.337  23.127  1.00  0.00     0.006 C 
ENDBRANCH  10  11
ENDBRANCH   9  10
BRANCH   9  13
ATOM     13  C   UNL A   1      32.795  25.541  22.064  1.00  0.00     0.321 C 
ATOM     14  O   UNL A   1      33.276  25.703  20.943  1.00  0.00    -0.248 OA
BRANCH  13  15
ATOM     15  N   UNL A   1      33.115  24.433  22.814  1.00  0.00    -0.313 N 
ATOM     16  C   UNL A   1      33.066  23.066  22.276  1.00  0.00     0.183 C 
ATOM     17  C   UNL A   1      34.086  24.578  23.908  1.00  0.00     0.186 C 
ATOM     18  C   UNL A   1      32.739  22.042  23.391  1.00  0.00     0.284 C 
ATOM     19  C   UNL A   1      33.732  23.560  25.000  1.00  0.00     0.204 C 
ATOM     20  N   UNL A   1      33.717  22.178  24.476  1.00  0.00    -0.330 N 
ATOM     21  C   UNL A   1      34.699  23.411  26.162  1.00  0.00     0.073 C 
ATOM     22  C   UNL A   1      33.487  21.351  25.650  1.00  0.00     0.262 C 
ATOM     23  H   UNL A   1      34.583  21.886  24.025  1.00  0.00     0.348 HD
ATOM     24  C   UNL A   1      34.468  21.972  26.648  1.00  0.00     0.068 C 
ENDBRANCH  13  15
ENDBRANCH   9  13
ENDBRANCH   8   9
ENDBRANCH   5   8
ENDBRANCH   3   4
ENDBRANCH   2   3
ENDBRANCH   1   2
BRANCH   1  25
ATOM     25  C   UNL A   1      31.740  30.585  26.315  1.00  0.00     0.002 C 
BRANCH  25  26
ATOM     26  C   UNL A   1      31.528  32.061  26.667  1.00  0.00     0.021 C 
BRANCH  26  27
ATOM     27  C   UNL A   1      32.719  32.729  27.346  1.00  0.00     0.116 C 
BRANCH  27  28
ATOM     28  N   UNL A   1      32.468  34.136  27.625  1.00  0.00    -0.352 N 
ATOM     29  C   UNL A   1      33.023  34.957  28.575  1.00  0.00     0.251 C 
ATOM     30  H   UNL A   1      31.798  34.563  27.043  1.00  0.00     0.163 HD
ATOM     31  O   UNL A   1      32.529  36.055  28.807  1.00  0.00    -0.269 OA
BRANCH  29  32
ATOM     32  C   UNL A   1      34.205  34.507  29.340  1.00  0.00     0.039 A 
ATOM     33  C   UNL A   1      34.017  33.963  30.614  1.00  0.00     0.014 A 
ATOM     34  C   UNL A   1      35.491  34.617  28.805  1.00  0.00     0.014 A 
ATOM     35  C   UNL A   1      35.110  33.450  31.315  1.00  0.00     0.010 A 
ATOM     36  C   UNL A   1      36.569  34.043  29.473  1.00  0.00     0.010 A 
ATOM     37  C   UNL A   1      36.385  33.439  30.726  1.00  0.00    -0.014 A 
BRANCH  37  38
ATOM     38  C   UNL A   1      37.526  32.745  31.375  1.00  0.00     0.031 A 
ATOM     39  C   UNL A   1      38.202  31.586  30.704  1.00  0.00     0.074 A 
ATOM     40  C   UNL A   1      37.892  33.110  32.619  1.00  0.00     0.049 A 
ATOM     41  N   UNL A   1      39.162  30.815  31.151  1.00  0.00    -0.248 NA
ATOM     42  C   UNL A   1      37.720  31.233  29.361  1.00  0.00     0.031 C 
ATOM     43  C   UNL A   1      37.284  34.196  33.390  1.00  0.00     0.029 A 
ATOM     44  N   UNL A   1      38.852  32.604  33.458  1.00  0.00    -0.354 N 
ATOM     45  C   UNL A   1      39.391  29.881  30.150  1.00  0.00     0.074 A 
ATOM     46  C   UNL A   1      38.436  30.150  29.096  1.00  0.00     0.031 C 
ATOM     47  C   UNL A   1      37.906  34.294  34.575  1.00  0.00     0.029 A 
ATOM     48  C   UNL A   1      38.919  33.247  34.668  1.00  0.00     0.049 A 
ATOM     49  H   UNL A   1      39.438  31.851  33.214  1.00  0.00     0.167 HD
ATOM     50  C   UNL A   1      40.326  28.900  30.110  1.00  0.00     0.037 A 
ATOM     51  C   UNL A   1      39.697  33.011  35.741  1.00  0.00     0.037 A 
ATOM     52  C   UNL A   1      41.273  28.641  31.165  1.00  0.00     0.049 A 
ATOM     53  C   UNL A   1      40.685  31.879  35.696  1.00  0.00     0.074 A 
ATOM     54  C   UNL A   1      42.307  27.722  31.190  1.00  0.00     0.029 A 
ATOM     55  N   UNL A   1      41.287  29.290  32.392  1.00  0.00    -0.354 N 
ATOM     56  N   UNL A   1      40.954  31.055  34.714  1.00  0.00    -0.248 NA
ATOM     57  C   UNL A   1      41.471  31.640  36.914  1.00  0.00     0.031 C 
ATOM     58  C   UNL A   1      42.901  27.766  32.457  1.00  0.00     0.029 A 
ATOM     59  C   UNL A   1      42.278  28.755  33.201  1.00  0.00     0.049 A 
ATOM     60  H   UNL A   1      40.682  30.023  32.649  1.00  0.00     0.167 HD
ATOM     61  C   UNL A   1      41.950  30.210  35.185  1.00  0.00     0.074 A 
ATOM     62  C   UNL A   1      42.252  30.637  36.536  1.00  0.00     0.031 C 
ATOM     63  C   UNL A   1      42.557  29.176  34.552  1.00  0.00     0.037 A 
BRANCH  50  64
ATOM     64  C   UNL A   1      40.350  28.020  28.891  1.00  0.00     0.064 A 
ATOM     65  C   UNL A   1      39.630  26.816  28.832  1.00  0.00     0.173 A 
ATOM     66  C   UNL A   1      41.097  28.389  27.762  1.00  0.00     0.173 A 
ATOM     67  F   UNL A   1      38.903  26.411  29.885  1.00  0.00    -0.203 F 
ATOM     68  C   UNL A   1      39.698  25.992  27.711  1.00  0.00     0.198 A 
ATOM     69  C   UNL A   1      41.134  27.581  26.628  1.00  0.00     0.198 A 
ATOM     70  F   UNL A   1      41.795  29.535  27.756  1.00  0.00    -0.203 F 
ATOM     71  F   UNL A   1      39.059  24.815  27.707  1.00  0.00    -0.200 F 
ATOM     72  C   UNL A   1      40.446  26.378  26.608  1.00  0.00     0.200 A 
ATOM     73  F   UNL A   1      41.844  27.963  25.557  1.00  0.00    -0.200 F 
ATOM     74  F   UNL A   1      40.513  25.583  25.531  1.00  0.00    -0.200 F 
ENDBRANCH  50  64
BRANCH  51  75
ATOM     75  C   UNL A   1      39.584  33.885  36.937  1.00  0.00     0.064 A 
ATOM     76  C   UNL A   1      40.256  35.114  36.988  1.00  0.00     0.173 A 
ATOM     77  C   UNL A   1      38.784  33.533  38.033  1.00  0.00     0.173 A 
ATOM     78  F   UNL A   1      41.050  35.485  35.971  1.00  0.00    -0.203 F 
ATOM     79  C   UNL A   1      40.136  35.956  38.091  1.00  0.00     0.198 A 
ATOM     80  C   UNL A   1      38.643  34.387  39.124  1.00  0.00     0.198 A 
ATOM     81  F   UNL A   1      38.117  32.369  38.032  1.00  0.00    -0.203 F 
ATOM     82  F   UNL A   1      40.812  37.112  38.126  1.00  0.00    -0.200 F 
ATOM     83  C   UNL A   1      39.322  35.596  39.154  1.00  0.00     0.200 A 
ATOM     84  F   UNL A   1      37.841  34.043  40.142  1.00  0.00    -0.200 F 
ATOM     85  F   UNL A   1      39.194  36.412  40.209  1.00  0.00    -0.200 F 
ENDBRANCH  51  75
BRANCH  63  86
ATOM     86  C   UNL A   1      43.613  28.428  35.317  1.00  0.00     0.064 A 
ATOM     87  C   UNL A   1      43.297  27.307  36.098  1.00  0.00     0.173 A 
ATOM     88  C   UNL A   1      44.961  28.809  35.232  1.00  0.00     0.173 A 
ATOM     89  F   UNL A   1      42.021  26.913  36.227  1.00  0.00    -0.203 F 
ATOM     90  C   UNL A   1      44.289  26.606  36.780  1.00  0.00     0.198 A 
ATOM     91  C   UNL A   1      45.953  28.087  35.889  1.00  0.00     0.198 A 
ATOM     92  F   UNL A   1      45.319  29.873  34.496  1.00  0.00    -0.203 F 
ATOM     93  F   UNL A   1      43.958  25.566  37.556  1.00  0.00    -0.200 F 
ATOM     94  C   UNL A   1      45.616  26.991  36.667  1.00  0.00     0.200 A 
ATOM     95  F   UNL A   1      47.238  28.452  35.767  1.00  0.00    -0.200 F 
ATOM     96  F   UNL A   1      46.570  26.308  37.315  1.00  0.00    -0.200 F 
ENDBRANCH  63  86
ENDBRANCH  37  38
ENDBRANCH  29  32
ENDBRANCH  27  28
ENDBRANCH  26  27
ENDBRANCH  25  26
ENDBRANCH   1  25
TORSDOF 18
ENDMDL
MODEL 3
REMARK VINA RESULT:     -11.7      0.915      2.081
REMARK SMILES C#CCN(CC(=O)NCCCCCCNC(=O)c1ccc(-c2c3nc(c(-c4c(F)c(F)c(F)c(F)c4F)c4ccc([nH]4)c(-c4c(F)c(F)c(F)c(F)c4F)c4nc(c(-c5c(F)c(F)c(F)c(F)c5F)c5ccc2[nH]5)C=C4)C=C3)cc1)C(=O)N1CC[N@@H+]2CCC[C@H]2C1
REMARK SMILES IDX 11 1 10 2 9 3 8 4 6 5 7 6 5 8 4 9 3 10 2 11 1 12 81 13 82 14
REMARK SMILES IDX 83 15 84 16 91 17 85 18 90 19 86 20 89 21 87 22 88 24 12 25
REMARK SMILES IDX 13 26 14 27 15 28 16 29 17 31 18 32 19 33 80 34 20 35 79 36
REMARK SMILES IDX 21 37 22 38 23 39 73 40 24 41 78 42 72 43 74 44 25 45 77 46
REMARK SMILES IDX 71 47 70 48 26 50 58 51 38 52 57 53 39 54 42 55 56 56 75 57
REMARK SMILES IDX 40 58 41 59 55 61 76 62 43 63 27 64 28 65 36 66 29 67 30 68
REMARK SMILES IDX 34 69 37 70 31 71 32 72 35 73 33 74 59 75 60 76 68 77 61 78
REMARK SMILES IDX 62 79 66 80 69 81 63 82 64 83 67 84 65 85 44 86 45 87 53 88
REMARK SMILES IDX 46 89 47 90 51 91 54 92 48 93 49 94 52 95 50 96
REMARK H PARENT 8 7 86 23 15 30 74 49 42 60
REMARK Flexibility Score: inf
ROOT
ATOM      1  C   UNL A   1      32.673  29.744  27.266  1.00  0.00     0.002 C 
ENDROOT
BRANCH   1   2
ATOM      2  C   UNL A   1      32.730  28.233  27.012  1.00  0.00     0.021 C 
BRANCH   2   3
ATOM      3  C   UNL A   1      31.373  27.581  26.749  1.00  0.00     0.116 C 
BRANCH   3   4
ATOM      4  N   UNL A   1      31.410  26.139  26.797  1.00  0.00    -0.355 N 
ATOM      5  C   UNL A   1      31.558  25.226  25.797  1.00  0.00     0.239 C 
ATOM      6  O   UNL A   1      31.826  24.069  26.143  1.00  0.00    -0.273 OA
ATOM      7  H   UNL A   1      31.312  25.753  27.697  1.00  0.00     0.163 HD
BRANCH   5   8
ATOM      8  C   UNL A   1      31.529  25.598  24.302  1.00  0.00     0.222 C 
BRANCH   8   9
ATOM      9  N   UNL A   1      32.804  25.590  23.583  1.00  0.00    -0.304 N 
BRANCH   9  10
ATOM     10  C   UNL A   1      33.823  26.547  24.013  1.00  0.00     0.211 C 
BRANCH  10  11
ATOM     11  C   UNL A   1      33.545  27.954  23.508  1.00  0.00    -0.085 C 
ATOM     12  C   UNL A   1      33.307  29.160  23.076  1.00  0.00     0.006 C 
ENDBRANCH  10  11
ENDBRANCH   9  10
BRANCH   9  13
ATOM     13  C   UNL A   1      33.171  24.618  22.653  1.00  0.00     0.321 C 
ATOM     14  O   UNL A   1      33.130  24.818  21.439  1.00  0.00    -0.248 OA
BRANCH  13  15
ATOM     15  N   UNL A   1      33.726  23.464  23.157  1.00  0.00    -0.313 N 
ATOM     16  C   UNL A   1      32.975  22.206  23.279  1.00  0.00     0.183 C 
ATOM     17  C   UNL A   1      35.171  23.249  23.000  1.00  0.00     0.186 C 
ATOM     18  C   UNL A   1      33.499  21.359  24.464  1.00  0.00     0.284 C 
ATOM     19  C   UNL A   1      35.663  22.417  24.192  1.00  0.00     0.204 C 
ATOM     20  N   UNL A   1      34.939  21.133  24.300  1.00  0.00    -0.330 N 
ATOM     21  C   UNL A   1      37.102  21.928  24.161  1.00  0.00     0.073 C 
ATOM     22  C   UNL A   1      35.605  20.435  25.388  1.00  0.00     0.262 C 
ATOM     23  H   UNL A   1      34.974  20.555  23.461  1.00  0.00     0.348 HD
ATOM     24  C   UNL A   1      37.076  20.662  25.032  1.00  0.00     0.068 C 
ENDBRANCH  13  15
ENDBRANCH   9  13
ENDBRANCH   8   9
ENDBRANCH   5   8
ENDBRANCH   3   4
ENDBRANCH   2   3
ENDBRANCH   1   2
BRANCH   1  25
ATOM     25  C   UNL A   1      31.831  30.549  26.271  1.00  0.00     0.002 C 
BRANCH  25  26
ATOM     26  C   UNL A   1      31.583  32.011  26.656  1.00  0.00     0.021 C 
BRANCH  26  27
ATOM     27  C   UNL A   1      32.750  32.687  27.366  1.00  0.00     0.116 C 
BRANCH  27  28
ATOM     28  N   UNL A   1      32.484  34.093  27.634  1.00  0.00    -0.352 N 
ATOM     29  C   UNL A   1      33.030  34.928  28.577  1.00  0.00     0.251 C 
ATOM     30  H   UNL A   1      31.811  34.508  27.048  1.00  0.00     0.163 HD
ATOM     31  O   UNL A   1      32.524  36.022  28.800  1.00  0.00    -0.269 OA
BRANCH  29  32
ATOM     32  C   UNL A   1      34.215  34.496  29.348  1.00  0.00     0.039 A 
ATOM     33  C   UNL A   1      34.033  33.979  30.634  1.00  0.00     0.014 A 
ATOM     34  C   UNL A   1      35.499  34.598  28.806  1.00  0.00     0.014 A 
ATOM     35  C   UNL A   1      35.130  33.483  31.341  1.00  0.00     0.010 A 
ATOM     36  C   UNL A   1      36.581  34.040  29.482  1.00  0.00     0.010 A 
ATOM     37  C   UNL A   1      36.403  33.463  30.748  1.00  0.00    -0.014 A 
BRANCH  37  38
ATOM     38  C   UNL A   1      37.548  32.784  31.407  1.00  0.00     0.031 A 
ATOM     39  C   UNL A   1      38.204  31.595  30.773  1.00  0.00     0.074 A 
ATOM     40  C   UNL A   1      37.935  33.195  32.630  1.00  0.00     0.049 A 
ATOM     41  N   UNL A   1      39.164  30.833  31.236  1.00  0.00    -0.248 NA
ATOM     42  C   UNL A   1      37.700  31.193  29.451  1.00  0.00     0.031 C 
ATOM     43  C   UNL A   1      37.348  34.316  33.367  1.00  0.00     0.029 A 
ATOM     44  N   UNL A   1      38.904  32.714  33.474  1.00  0.00    -0.354 N 
ATOM     45  C   UNL A   1      39.371  29.859  30.269  1.00  0.00     0.074 A 
ATOM     46  C   UNL A   1      38.403  30.094  29.219  1.00  0.00     0.031 C 
ATOM     47  C   UNL A   1      37.988  34.455  34.537  1.00  0.00     0.029 A 
ATOM     48  C   UNL A   1      38.993  33.403  34.658  1.00  0.00     0.049 A 
ATOM     49  H   UNL A   1      39.479  31.947  33.252  1.00  0.00     0.167 HD
ATOM     50  C   UNL A   1      40.298  28.869  30.254  1.00  0.00     0.037 A 
ATOM     51  C   UNL A   1      39.785  33.203  35.728  1.00  0.00     0.037 A 
ATOM     52  C   UNL A   1      41.258  28.643  31.304  1.00  0.00     0.049 A 
ATOM     53  C   UNL A   1      40.763  32.062  35.712  1.00  0.00     0.074 A 
ATOM     54  C   UNL A   1      42.284  27.716  31.351  1.00  0.00     0.029 A 
ATOM     55  N   UNL A   1      41.295  29.340  32.505  1.00  0.00    -0.354 N 
ATOM     56  N   UNL A   1      41.011  31.197  34.760  1.00  0.00    -0.248 NA
ATOM     57  C   UNL A   1      41.565  31.864  36.928  1.00  0.00     0.031 C 
ATOM     58  C   UNL A   1      42.897  27.805  32.606  1.00  0.00     0.029 A 
ATOM     59  C   UNL A   1      42.294  28.828  33.320  1.00  0.00     0.049 A 
ATOM     60  H   UNL A   1      40.700  30.087  32.742  1.00  0.00     0.167 HD
ATOM     61  C   UNL A   1      42.007  30.363  35.249  1.00  0.00     0.074 A 
ATOM     62  C   UNL A   1      42.332  30.840  36.578  1.00  0.00     0.031 C 
ATOM     63  C   UNL A   1      42.597  29.299  34.649  1.00  0.00     0.037 A 
BRANCH  50  64
ATOM     64  C   UNL A   1      40.296  27.941  29.070  1.00  0.00     0.064 A 
ATOM     65  C   UNL A   1      41.024  28.226  27.904  1.00  0.00     0.173 A 
ATOM     66  C   UNL A   1      39.562  26.746  29.105  1.00  0.00     0.173 A 
ATOM     67  F   UNL A   1      41.739  29.358  27.814  1.00  0.00    -0.203 F 
ATOM     68  C   UNL A   1      40.976  27.377  26.801  1.00  0.00     0.198 A 
ATOM     69  C   UNL A   1      39.546  25.880  28.014  1.00  0.00     0.198 A 
ATOM     70  F   UNL A   1      38.857  26.415  30.198  1.00  0.00    -0.203 F 
ATOM     71  F   UNL A   1      41.624  27.707  25.675  1.00  0.00    -0.200 F 
ATOM     72  C   UNL A   1      40.241  26.202  26.859  1.00  0.00     0.200 A 
ATOM     73  F   UNL A   1      38.848  24.738  28.077  1.00  0.00    -0.200 F 
ATOM     74  F   UNL A   1      40.194  25.387  25.796  1.00  0.00    -0.200 F 
ENDBRANCH  50  64
BRANCH  51  75
ATOM     75  C   UNL A   1      39.697  34.125  36.889  1.00  0.00     0.064 A 
ATOM     76  C   UNL A   1      38.893  33.807  37.992  1.00  0.00     0.173 A 
ATOM     77  C   UNL A   1      40.433  35.317  36.939  1.00  0.00     0.173 A 
ATOM     78  F   UNL A   1      38.154  32.687  37.980  1.00  0.00    -0.203 F 
ATOM     79  C   UNL A   1      38.823  34.649  39.099  1.00  0.00     0.198 A 
ATOM     80  C   UNL A   1      40.385  36.146  38.058  1.00  0.00     0.198 A 
ATOM     81  F   UNL A   1      41.222  35.664  35.912  1.00  0.00    -0.203 F 
ATOM     82  F   UNL A   1      38.024  34.337  40.127  1.00  0.00    -0.200 F 
ATOM     83  C   UNL A   1      39.576  35.813  39.136  1.00  0.00     0.200 A 
ATOM     84  F   UNL A   1      41.128  37.260  38.097  1.00  0.00    -0.200 F 
ATOM     85  F   UNL A   1      39.523  36.616  40.207  1.00  0.00    -0.200 F 
ENDBRANCH  51  75
BRANCH  63  86
ATOM     86  C   UNL A   1      43.657  28.573  35.427  1.00  0.00     0.064 A 
ATOM     87  C   UNL A   1      45.017  28.891  35.287  1.00  0.00     0.173 A 
ATOM     88  C   UNL A   1      43.310  27.580  36.356  1.00  0.00     0.173 A 
ATOM     89  F   UNL A   1      45.404  29.819  34.399  1.00  0.00    -0.203 F 
ATOM     90  C   UNL A   1      45.988  28.230  36.034  1.00  0.00     0.198 A 
ATOM     91  C   UNL A   1      44.280  26.944  37.124  1.00  0.00     0.198 A 
ATOM     92  F   UNL A   1      42.024  27.239  36.532  1.00  0.00    -0.203 F 
ATOM     93  F   UNL A   1      47.284  28.518  35.850  1.00  0.00    -0.200 F 
ATOM     94  C   UNL A   1      45.619  27.264  36.957  1.00  0.00     0.200 A 
ATOM     95  F   UNL A   1      43.920  26.020  38.026  1.00  0.00    -0.200 F 
ATOM     96  F   UNL A   1      46.555  26.636  37.683  1.00  0.00    -0.200 F 
ENDBRANCH  63  86
ENDBRANCH  37  38
ENDBRANCH  29  32
ENDBRANCH  27  28
ENDBRANCH  26  27
ENDBRANCH  25  26
ENDBRANCH   1  25
TORSDOF 18
ENDMDL
