MODEL 1
REMARK VINA RESULT:     -12.6      0.000      0.000
REMARK SMILES C[C@@H](C(=O)NCCCCCCNC(=O)c1ccc(-c2c3nc(c(-c4c(F)c(F)c(F)c(F)c4F)c4ccc([nH]4)c(-c4c(F)c(F)c(F)c(F)c4F)c4nc(c(-c5c(F)c(F)c(F)c(F)c5F)c5ccc2[nH]5)C=C4)C=C3)cc1)N1C(=O)/C(=C/c2ccc(F)cc2)SC1=S
REMARK SMILES IDX 8 1 7 2 6 3 5 4 3 5 4 6 2 8 1 9 78 10 79 11 91 12 80 13
REMARK SMILES IDX 81 14 90 15 92 16 82 17 83 18 84 19 89 20 85 21 88 22 86 23
REMARK SMILES IDX 87 24 9 25 10 26 11 27 12 28 13 29 14 31 15 32 16 33 77 34
REMARK SMILES IDX 17 35 76 36 18 37 19 38 20 39 70 40 21 41 75 42 69 43 71 44
REMARK SMILES IDX 22 45 74 46 68 47 67 48 23 50 55 51 35 52 54 53 36 54 39 55
REMARK SMILES IDX 53 56 72 57 37 58 38 59 52 61 73 62 40 63 24 64 25 65 33 66
REMARK SMILES IDX 26 67 27 68 31 69 34 70 28 71 29 72 32 73 30 74 56 75 57 76
REMARK SMILES IDX 65 77 58 78 59 79 63 80 66 81 60 82 61 83 64 84 62 85 41 86
REMARK SMILES IDX 42 87 50 88 43 89 44 90 48 91 51 92 45 93 46 94 49 95 47 96
REMARK H PARENT 5 7 12 30 71 49 39 60
REMARK Flexibility Score: inf
ROOT
ATOM      1  C   UNL A   1      32.518  29.837  26.598  1.00  0.00     0.002 C 
ENDROOT
BRANCH   1   2
ATOM      2  C   UNL A   1      31.768  28.919  27.575  1.00  0.00     0.021 C 
BRANCH   2   3
ATOM      3  C   UNL A   1      31.892  27.435  27.227  1.00  0.00     0.116 C 
BRANCH   3   4
ATOM      4  N   UNL A   1      31.100  27.131  26.055  1.00  0.00    -0.354 N 
ATOM      5  C   UNL A   1      31.495  26.796  24.795  1.00  0.00     0.242 C 
ATOM      6  O   UNL A   1      30.612  26.695  23.939  1.00  0.00    -0.273 OA
ATOM      7  H   UNL A   1      30.126  27.173  26.188  1.00  0.00     0.163 HD
BRANCH   5   8
ATOM      8  C   UNL A   1      32.979  26.500  24.488  1.00  0.00     0.178 C 
ATOM      9  C   UNL A   1      33.679  27.497  23.565  1.00  0.00     0.042 C 
BRANCH   8  10
ATOM     10  N   UNL A   1      33.055  25.094  24.036  1.00  0.00    -0.281 N 
ATOM     11  C   UNL A   1      33.052  24.119  25.027  1.00  0.00     0.266 C 
ATOM     12  C   UNL A   1      32.950  24.633  22.737  1.00  0.00     0.149 C 
ATOM     13  O   UNL A   1      33.025  24.316  26.232  1.00  0.00    -0.268 OA
ATOM     14  C   UNL A   1      33.111  22.764  24.423  1.00  0.00     0.081 C 
ATOM     15  S   UNL A   1      33.078  22.879  22.713  1.00  0.00    -0.054 SA
ATOM     16  S   UNL A   1      32.757  25.477  21.308  1.00  0.00    -0.052 S 
ATOM     17  C   UNL A   1      33.205  21.651  25.165  1.00  0.00     0.029 C 
BRANCH  17  18
ATOM     18  C   UNL A   1      33.397  20.307  24.612  1.00  0.00    -0.024 A 
ATOM     19  C   UNL A   1      34.593  19.612  24.822  1.00  0.00     0.011 A 
ATOM     20  C   UNL A   1      32.368  19.707  23.870  1.00  0.00     0.011 A 
ATOM     21  C   UNL A   1      34.745  18.319  24.317  1.00  0.00     0.040 A 
ATOM     22  C   UNL A   1      32.519  18.414  23.372  1.00  0.00     0.040 A 
ATOM     23  C   UNL A   1      33.706  17.730  23.603  1.00  0.00     0.123 A 
ATOM     24  F   UNL A   1      33.849  16.486  23.131  1.00  0.00    -0.207 F 
ENDBRANCH  17  18
ENDBRANCH   8  10
ENDBRANCH   5   8
ENDBRANCH   3   4
ENDBRANCH   2   3
ENDBRANCH   1   2
BRANCH   1  25
ATOM     25  C   UNL A   1      31.622  30.799  25.808  1.00  0.00     0.002 C 
BRANCH  25  26
ATOM     26  C   UNL A   1      31.346  32.132  26.505  1.00  0.00     0.021 C 
BRANCH  26  27
ATOM     27  C   UNL A   1      32.540  32.700  27.263  1.00  0.00     0.116 C 
BRANCH  27  28
ATOM     28  N   UNL A   1      32.361  34.109  27.579  1.00  0.00    -0.352 N 
ATOM     29  C   UNL A   1      32.969  34.867  28.547  1.00  0.00     0.251 C 
ATOM     30  H   UNL A   1      31.709  34.587  27.017  1.00  0.00     0.163 HD
ATOM     31  O   UNL A   1      32.542  35.984  28.819  1.00  0.00    -0.269 OA
BRANCH  29  32
ATOM     32  C   UNL A   1      34.133  34.324  29.279  1.00  0.00     0.039 A 
ATOM     33  C   UNL A   1      33.920  33.649  30.482  1.00  0.00     0.014 A 
ATOM     34  C   UNL A   1      35.430  34.489  28.782  1.00  0.00     0.014 A 
ATOM     35  C   UNL A   1      35.004  33.086  31.158  1.00  0.00     0.010 A 
ATOM     36  C   UNL A   1      36.497  33.859  29.414  1.00  0.00     0.010 A 
ATOM     37  C   UNL A   1      36.297  33.154  30.611  1.00  0.00    -0.014 A 
BRANCH  37  38
ATOM     38  C   UNL A   1      37.450  32.497  31.278  1.00  0.00     0.031 A 
ATOM     39  C   UNL A   1      38.153  31.346  30.614  1.00  0.00     0.074 A 
ATOM     40  C   UNL A   1      37.823  32.900  32.508  1.00  0.00     0.049 A 
ATOM     41  N   UNL A   1      39.135  30.606  31.063  1.00  0.00    -0.248 NA
ATOM     42  C   UNL A   1      37.671  30.957  29.281  1.00  0.00     0.031 C 
ATOM     43  C   UNL A   1      37.191  33.975  33.274  1.00  0.00     0.029 A 
ATOM     44  N   UNL A   1      38.820  32.445  33.336  1.00  0.00    -0.354 N 
ATOM     45  C   UNL A   1      39.379  29.661  30.075  1.00  0.00     0.074 A 
ATOM     46  C   UNL A   1      38.404  29.883  29.029  1.00  0.00     0.031 C 
ATOM     47  C   UNL A   1      37.829  34.113  34.446  1.00  0.00     0.029 A 
ATOM     48  C   UNL A   1      38.885  33.110  34.536  1.00  0.00     0.049 A 
ATOM     49  H   UNL A   1      39.430  31.712  33.092  1.00  0.00     0.167 HD
ATOM     50  C   UNL A   1      40.344  28.711  30.033  1.00  0.00     0.037 A 
ATOM     51  C   UNL A   1      39.697  32.924  35.593  1.00  0.00     0.037 A 
ATOM     52  C   UNL A   1      41.322  28.507  31.070  1.00  0.00     0.049 A 
ATOM     53  C   UNL A   1      40.747  31.846  35.530  1.00  0.00     0.074 A 
ATOM     54  C   UNL A   1      42.375  27.611  31.097  1.00  0.00     0.029 A 
ATOM     55  N   UNL A   1      41.361  29.205  32.269  1.00  0.00    -0.354 N 
ATOM     56  N   UNL A   1      41.015  31.007  34.560  1.00  0.00    -0.248 NA
ATOM     57  C   UNL A   1      41.612  31.696  36.708  1.00  0.00     0.031 C 
ATOM     58  C   UNL A   1      43.015  27.724  32.336  1.00  0.00     0.029 A 
ATOM     59  C   UNL A   1      42.403  28.738  33.055  1.00  0.00     0.049 A 
ATOM     60  H   UNL A   1      40.741  29.926  32.523  1.00  0.00     0.167 HD
ATOM     61  C   UNL A   1      42.097  30.253  34.995  1.00  0.00     0.074 A 
ATOM     62  C   UNL A   1      42.445  30.745  36.310  1.00  0.00     0.031 C 
ATOM     63  C   UNL A   1      42.743  29.243  34.361  1.00  0.00     0.037 A 
BRANCH  50  64
ATOM     64  C   UNL A   1      40.389  27.817  28.827  1.00  0.00     0.064 A 
ATOM     65  C   UNL A   1      41.156  28.138  27.697  1.00  0.00     0.173 A 
ATOM     66  C   UNL A   1      39.684  26.604  28.815  1.00  0.00     0.173 A 
ATOM     67  F   UNL A   1      41.842  29.290  27.651  1.00  0.00    -0.203 F 
ATOM     68  C   UNL A   1      41.190  27.295  26.588  1.00  0.00     0.198 A 
ATOM     69  C   UNL A   1      39.748  25.747  27.718  1.00  0.00     0.198 A 
ATOM     70  F   UNL A   1      38.938  26.242  29.870  1.00  0.00    -0.203 F 
ATOM     71  F   UNL A   1      41.887  27.650  25.500  1.00  0.00    -0.200 F 
ATOM     72  C   UNL A   1      40.493  26.097  26.602  1.00  0.00     0.200 A 
ATOM     73  F   UNL A   1      39.086  24.581  27.741  1.00  0.00    -0.200 F 
ATOM     74  F   UNL A   1      40.534  25.282  25.539  1.00  0.00    -0.200 F 
ENDBRANCH  50  64
BRANCH  51  75
ATOM     75  C   UNL A   1      39.562  33.787  36.797  1.00  0.00     0.064 A 
ATOM     76  C   UNL A   1      38.759  33.398  37.878  1.00  0.00     0.173 A 
ATOM     77  C   UNL A   1      40.223  35.021  36.888  1.00  0.00     0.173 A 
ATOM     78  F   UNL A   1      38.091  32.234  37.831  1.00  0.00    -0.203 F 
ATOM     79  C   UNL A   1      38.601  34.219  38.992  1.00  0.00     0.198 A 
ATOM     80  C   UNL A   1      40.090  35.828  38.017  1.00  0.00     0.198 A 
ATOM     81  F   UNL A   1      41.008  35.440  35.885  1.00  0.00    -0.203 F 
ATOM     82  F   UNL A   1      37.785  33.845  39.987  1.00  0.00    -0.200 F 
ATOM     83  C   UNL A   1      39.271  35.431  39.063  1.00  0.00     0.200 A 
ATOM     84  F   UNL A   1      40.753  36.990  38.089  1.00  0.00    -0.200 F 
ATOM     85  F   UNL A   1      39.121  36.220  40.136  1.00  0.00    -0.200 F 
ENDBRANCH  51  75
BRANCH  63  86
ATOM     86  C   UNL A   1      43.921  28.629  35.063  1.00  0.00     0.064 A 
ATOM     87  C   UNL A   1      43.781  27.521  35.912  1.00  0.00     0.173 A 
ATOM     88  C   UNL A   1      45.213  29.133  34.851  1.00  0.00     0.173 A 
ATOM     89  F   UNL A   1      42.567  27.008  36.161  1.00  0.00    -0.203 F 
ATOM     90  C   UNL A   1      44.888  26.960  36.546  1.00  0.00     0.198 A 
ATOM     91  C   UNL A   1      46.322  28.547  35.458  1.00  0.00     0.198 A 
ATOM     92  F   UNL A   1      45.405  30.186  34.042  1.00  0.00    -0.203 F 
ATOM     93  F   UNL A   1      44.723  25.937  37.396  1.00  0.00    -0.200 F 
ATOM     94  C   UNL A   1      46.157  27.468  36.312  1.00  0.00     0.200 A 
ATOM     95  F   UNL A   1      47.548  29.029  35.215  1.00  0.00    -0.200 F 
ATOM     96  F   UNL A   1      47.221  26.921  36.914  1.00  0.00    -0.200 F 
ENDBRANCH  63  86
ENDBRANCH  37  38
ENDBRANCH  29  32
ENDBRANCH  27  28
ENDBRANCH  26  27
ENDBRANCH  25  26
ENDBRANCH   1  25
TORSDOF 15
ENDMDL
MODEL 2
REMARK VINA RESULT:     -12.5      0.462      7.289
REMARK SMILES C[C@@H](C(=O)NCCCCCCNC(=O)c1ccc(-c2c3nc(c(-c4c(F)c(F)c(F)c(F)c4F)c4ccc([nH]4)c(-c4c(F)c(F)c(F)c(F)c4F)c4nc(c(-c5c(F)c(F)c(F)c(F)c5F)c5ccc2[nH]5)C=C4)C=C3)cc1)N1C(=O)/C(=C/c2ccc(F)cc2)SC1=S
REMARK SMILES IDX 8 1 7 2 6 3 5 4 3 5 4 6 2 8 1 9 78 10 79 11 91 12 80 13
REMARK SMILES IDX 81 14 90 15 92 16 82 17 83 18 84 19 89 20 85 21 88 22 86 23
REMARK SMILES IDX 87 24 9 25 10 26 11 27 12 28 13 29 14 31 15 32 16 33 77 34
REMARK SMILES IDX 17 35 76 36 18 37 19 38 20 39 70 40 21 41 75 42 69 43 71 44
REMARK SMILES IDX 22 45 74 46 68 47 67 48 23 50 55 51 35 52 54 53 36 54 39 55
REMARK SMILES IDX 53 56 72 57 37 58 38 59 52 61 73 62 40 63 24 64 25 65 33 66
REMARK SMILES IDX 26 67 27 68 31 69 34 70 28 71 29 72 32 73 30 74 56 75 57 76
REMARK SMILES IDX 65 77 58 78 59 79 63 80 66 81 60 82 61 83 64 84 62 85 41 86
REMARK SMILES IDX 42 87 50 88 43 89 44 90 48 91 51 92 45 93 46 94 49 95 47 96
REMARK H PARENT 5 7 12 30 71 49 39 60
REMARK Flexibility Score: inf
ROOT
ATOM      1  C   UNL A   1      32.412  29.970  26.466  1.00  0.00     0.002 C 
ENDROOT
BRANCH   1   2
ATOM      2  C   UNL A   1      31.781  28.974  27.449  1.00  0.00     0.021 C 
BRANCH   2   3
ATOM      3  C   UNL A   1      31.870  27.521  26.979  1.00  0.00     0.116 C 
BRANCH   3   4
ATOM      4  N   UNL A   1      31.104  27.344  25.765  1.00  0.00    -0.354 N 
ATOM      5  C   UNL A   1      31.524  27.087  24.495  1.00  0.00     0.242 C 
ATOM      6  O   UNL A   1      30.666  27.091  23.608  1.00  0.00    -0.273 OA
ATOM      7  H   UNL A   1      30.129  27.420  25.873  1.00  0.00     0.163 HD
BRANCH   5   8
ATOM      8  C   UNL A   1      33.003  26.747  24.209  1.00  0.00     0.178 C 
ATOM      9  C   UNL A   1      33.726  27.684  23.243  1.00  0.00     0.042 C 
BRANCH   8  10
ATOM     10  N   UNL A   1      33.053  25.319  23.825  1.00  0.00    -0.281 N 
ATOM     11  C   UNL A   1      33.089  24.395  24.863  1.00  0.00     0.266 C 
ATOM     12  C   UNL A   1      32.887  24.795  22.557  1.00  0.00     0.149 C 
ATOM     13  O   UNL A   1      33.117  24.652  26.057  1.00  0.00    -0.268 OA
ATOM     14  C   UNL A   1      33.115  23.011  24.326  1.00  0.00     0.081 C 
ATOM     15  S   UNL A   1      33.006  23.041  22.615  1.00  0.00    -0.054 SA
ATOM     16  S   UNL A   1      32.634  25.568  21.098  1.00  0.00    -0.052 S 
ATOM     17  C   UNL A   1      33.237  21.936  25.117  1.00  0.00     0.029 C 
BRANCH  17  18
ATOM     18  C   UNL A   1      33.398  20.565  24.624  1.00  0.00    -0.024 A 
ATOM     19  C   UNL A   1      34.571  19.847  24.880  1.00  0.00     0.011 A 
ATOM     20  C   UNL A   1      32.361  19.962  23.895  1.00  0.00     0.011 A 
ATOM     21  C   UNL A   1      34.692  18.529  24.432  1.00  0.00     0.040 A 
ATOM     22  C   UNL A   1      32.481  18.646  23.454  1.00  0.00     0.040 A 
ATOM     23  C   UNL A   1      33.646  17.939  23.730  1.00  0.00     0.123 A 
ATOM     24  F   UNL A   1      33.760  16.673  23.312  1.00  0.00    -0.207 F 
ENDBRANCH  17  18
ENDBRANCH   8  10
ENDBRANCH   5   8
ENDBRANCH   3   4
ENDBRANCH   2   3
ENDBRANCH   1   2
BRANCH   1  25
ATOM     25  C   UNL A   1      31.418  30.925  25.793  1.00  0.00     0.002 C 
BRANCH  25  26
ATOM     26  C   UNL A   1      31.226  32.260  26.515  1.00  0.00     0.021 C 
BRANCH  26  27
ATOM     27  C   UNL A   1      32.474  32.769  27.228  1.00  0.00     0.116 C 
BRANCH  27  28
ATOM     28  N   UNL A   1      32.357  34.173  27.588  1.00  0.00    -0.352 N 
ATOM     29  C   UNL A   1      33.018  34.880  28.561  1.00  0.00     0.251 C 
ATOM     30  H   UNL A   1      31.710  34.692  27.058  1.00  0.00     0.163 HD
ATOM     31  O   UNL A   1      32.642  36.004  28.874  1.00  0.00    -0.269 OA
BRANCH  29  32
ATOM     32  C   UNL A   1      34.179  34.273  29.245  1.00  0.00     0.039 A 
ATOM     33  C   UNL A   1      33.962  33.499  30.387  1.00  0.00     0.014 A 
ATOM     34  C   UNL A   1      35.477  34.474  28.766  1.00  0.00     0.014 A 
ATOM     35  C   UNL A   1      35.042  32.877  31.014  1.00  0.00     0.010 A 
ATOM     36  C   UNL A   1      36.542  33.790  29.345  1.00  0.00     0.010 A 
ATOM     37  C   UNL A   1      36.336  32.987  30.478  1.00  0.00    -0.014 A 
BRANCH  37  38
ATOM     38  C   UNL A   1      37.485  32.271  31.088  1.00  0.00     0.031 A 
ATOM     39  C   UNL A   1      37.977  32.654  32.456  1.00  0.00     0.074 A 
ATOM     40  C   UNL A   1      38.124  31.317  30.382  1.00  0.00     0.049 A 
ATOM     41  N   UNL A   1      39.000  32.191  33.128  1.00  0.00    -0.248 NA
ATOM     42  C   UNL A   1      37.237  33.719  33.150  1.00  0.00     0.031 C 
ATOM     43  C   UNL A   1      37.770  30.888  29.029  1.00  0.00     0.029 A 
ATOM     44  N   UNL A   1      39.210  30.541  30.702  1.00  0.00    -0.354 N 
ATOM     45  C   UNL A   1      39.032  32.912  34.314  1.00  0.00     0.074 A 
ATOM     46  C   UNL A   1      37.962  33.885  34.246  1.00  0.00     0.031 C 
ATOM     47  C   UNL A   1      38.607  29.911  28.644  1.00  0.00     0.029 A 
ATOM     48  C   UNL A   1      39.582  29.675  29.704  1.00  0.00     0.049 A 
ATOM     49  H   UNL A   1      39.678  30.601  31.567  1.00  0.00     0.167 HD
ATOM     50  C   UNL A   1      39.861  32.761  35.374  1.00  0.00     0.037 A 
ATOM     51  C   UNL A   1      40.602  28.798  29.645  1.00  0.00     0.037 A 
ATOM     52  C   UNL A   1      40.913  31.779  35.443  1.00  0.00     0.049 A 
ATOM     53  C   UNL A   1      41.523  28.665  30.828  1.00  0.00     0.074 A 
ATOM     54  C   UNL A   1      41.771  31.507  36.494  1.00  0.00     0.029 A 
ATOM     55  N   UNL A   1      41.255  30.913  34.414  1.00  0.00    -0.354 N 
ATOM     56  N   UNL A   1      41.498  29.302  31.973  1.00  0.00    -0.248 NA
ATOM     57  C   UNL A   1      42.611  27.684  30.712  1.00  0.00     0.031 C 
ATOM     58  C   UNL A   1      42.670  30.519  36.080  1.00  0.00     0.029 A 
ATOM     59  C   UNL A   1      42.331  30.127  34.795  1.00  0.00     0.049 A 
ATOM     60  H   UNL A   1      40.801  30.865  33.542  1.00  0.00     0.167 HD
ATOM     61  C   UNL A   1      42.542  28.778  32.724  1.00  0.00     0.074 A 
ATOM     62  C   UNL A   1      43.171  27.760  31.911  1.00  0.00     0.031 C 
ATOM     63  C   UNL A   1      42.944  29.111  33.976  1.00  0.00     0.037 A 
BRANCH  50  64
ATOM     64  C   UNL A   1      39.668  33.679  36.547  1.00  0.00     0.064 A 
ATOM     65  C   UNL A   1      40.295  34.932  36.615  1.00  0.00     0.173 A 
ATOM     66  C   UNL A   1      38.815  33.317  37.601  1.00  0.00     0.173 A 
ATOM     67  F   UNL A   1      41.128  35.326  35.640  1.00  0.00    -0.203 F 
ATOM     68  C   UNL A   1      40.101  35.774  37.709  1.00  0.00     0.198 A 
ATOM     69  C   UNL A   1      38.597  34.176  38.676  1.00  0.00     0.198 A 
ATOM     70  F   UNL A   1      38.185  32.133  37.587  1.00  0.00    -0.203 F 
ATOM     71  F   UNL A   1      40.754  36.943  37.776  1.00  0.00    -0.200 F 
ATOM     72  C   UNL A   1      39.247  35.399  38.734  1.00  0.00     0.200 A 
ATOM     73  F   UNL A   1      37.758  33.818  39.658  1.00  0.00    -0.200 F 
ATOM     74  F   UNL A   1      39.055  36.214  39.780  1.00  0.00    -0.200 F 
ENDBRANCH  50  64
BRANCH  51  75
ATOM     75  C   UNL A   1      40.797  27.965  28.428  1.00  0.00     0.064 A 
ATOM     76  C   UNL A   1      41.564  28.428  27.351  1.00  0.00     0.173 A 
ATOM     77  C   UNL A   1      40.214  26.693  28.313  1.00  0.00     0.173 A 
ATOM     78  F   UNL A   1      42.126  29.646  27.405  1.00  0.00    -0.203 F 
ATOM     79  C   UNL A   1      41.720  27.666  26.195  1.00  0.00     0.198 A 
ATOM     80  C   UNL A   1      40.397  25.918  27.170  1.00  0.00     0.198 A 
ATOM     81  F   UNL A   1      39.475  26.198  29.316  1.00  0.00    -0.203 F 
ATOM     82  F   UNL A   1      42.414  28.158  25.160  1.00  0.00    -0.200 F 
ATOM     83  C   UNL A   1      41.142  26.409  26.108  1.00  0.00     0.200 A 
ATOM     84  F   UNL A   1      39.851  24.697  27.097  1.00  0.00    -0.200 F 
ATOM     85  F   UNL A   1      41.294  25.675  24.997  1.00  0.00    -0.200 F 
ENDBRANCH  51  75
BRANCH  63  86
ATOM     86  C   UNL A   1      44.092  28.340  34.562  1.00  0.00     0.064 A 
ATOM     87  C   UNL A   1      45.414  28.800  34.473  1.00  0.00     0.173 A 
ATOM     88  C   UNL A   1      43.860  27.142  35.255  1.00  0.00     0.173 A 
ATOM     89  F   UNL A   1      45.694  29.932  33.810  1.00  0.00    -0.203 F 
ATOM     90  C   UNL A   1      46.464  28.074  35.032  1.00  0.00     0.198 A 
ATOM     91  C   UNL A   1      44.907  26.437  35.843  1.00  0.00     0.198 A 
ATOM     92  F   UNL A   1      42.614  26.661  35.376  1.00  0.00    -0.203 F 
ATOM     93  F   UNL A   1      47.725  28.505  34.887  1.00  0.00    -0.200 F 
ATOM     94  C   UNL A   1      46.209  26.899  35.723  1.00  0.00     0.200 A 
ATOM     95  F   UNL A   1      44.656  25.312  36.525  1.00  0.00    -0.200 F 
ATOM     96  F   UNL A   1      47.219  26.207  36.268  1.00  0.00    -0.200 F 
ENDBRANCH  63  86
ENDBRANCH  37  38
ENDBRANCH  29  32
ENDBRANCH  27  28
ENDBRANCH  26  27
ENDBRANCH  25  26
ENDBRANCH   1  25
TORSDOF 15
ENDMDL
MODEL 3
REMARK VINA RESULT:     -12.4      1.066      2.321
REMARK SMILES C[C@@H](C(=O)NCCCCCCNC(=O)c1ccc(-c2c3nc(c(-c4c(F)c(F)c(F)c(F)c4F)c4ccc([nH]4)c(-c4c(F)c(F)c(F)c(F)c4F)c4nc(c(-c5c(F)c(F)c(F)c(F)c5F)c5ccc2[nH]5)C=C4)C=C3)cc1)N1C(=O)/C(=C/c2ccc(F)cc2)SC1=S
REMARK SMILES IDX 8 1 7 2 6 3 5 4 3 5 4 6 2 8 1 9 78 10 79 11 91 12 80 13
REMARK SMILES IDX 81 14 90 15 92 16 82 17 83 18 84 19 89 20 85 21 88 22 86 23
REMARK SMILES IDX 87 24 9 25 10 26 11 27 12 28 13 29 14 31 15 32 16 33 77 34
REMARK SMILES IDX 17 35 76 36 18 37 19 38 20 39 70 40 21 41 75 42 69 43 71 44
REMARK SMILES IDX 22 45 74 46 68 47 67 48 23 50 55 51 35 52 54 53 36 54 39 55
REMARK SMILES IDX 53 56 72 57 37 58 38 59 52 61 73 62 40 63 24 64 25 65 33 66
REMARK SMILES IDX 26 67 27 68 31 69 34 70 28 71 29 72 32 73 30 74 56 75 57 76
REMARK SMILES IDX 65 77 58 78 59 79 63 80 66 81 60 82 61 83 64 84 62 85 41 86
REMARK SMILES IDX 42 87 50 88 43 89 44 90 48 91 51 92 45 93 46 94 49 95 47 96
REMARK H PARENT 5 7 12 30 71 49 39 60
REMARK Flexibility Score: inf
ROOT
ATOM      1  C   UNL A   1      32.131  29.453  27.047  1.00  0.00     0.002 C 
ENDROOT
BRANCH   1   2
ATOM      2  C   UNL A   1      33.552  28.933  26.785  1.00  0.00     0.021 C 
BRANCH   2   3
ATOM      3  C   UNL A   1      33.603  27.800  25.760  1.00  0.00     0.116 C 
BRANCH   3   4
ATOM      4  N   UNL A   1      32.819  26.676  26.222  1.00  0.00    -0.354 N 
ATOM      5  C   UNL A   1      32.645  25.443  25.669  1.00  0.00     0.242 C 
ATOM      6  O   UNL A   1      31.827  24.695  26.210  1.00  0.00    -0.273 OA
ATOM      7  H   UNL A   1      32.336  26.824  27.067  1.00  0.00     0.163 HD
BRANCH   5   8
ATOM      8  C   UNL A   1      33.491  25.000  24.455  1.00  0.00     0.178 C 
ATOM      9  C   UNL A   1      32.940  25.391  23.083  1.00  0.00     0.042 C 
BRANCH   8  10
ATOM     10  N   UNL A   1      33.755  23.554  24.616  1.00  0.00    -0.281 N 
ATOM     11  C   UNL A   1      32.861  22.684  24.002  1.00  0.00     0.266 C 
ATOM     12  C   UNL A   1      34.887  22.973  25.156  1.00  0.00     0.149 C 
ATOM     13  O   UNL A   1      31.864  23.001  23.372  1.00  0.00    -0.268 OA
ATOM     14  C   UNL A   1      33.266  21.274  24.233  1.00  0.00     0.081 C 
ATOM     15  S   UNL A   1      34.741  21.220  25.105  1.00  0.00    -0.054 SA
ATOM     16  S   UNL A   1      36.248  23.680  25.818  1.00  0.00    -0.052 S 
ATOM     17  C   UNL A   1      32.525  20.237  23.818  1.00  0.00     0.029 C 
BRANCH  17  18
ATOM     18  C   UNL A   1      32.818  18.837  24.136  1.00  0.00    -0.024 A 
ATOM     19  C   UNL A   1      33.383  17.989  23.177  1.00  0.00     0.011 A 
ATOM     20  C   UNL A   1      32.538  18.342  25.419  1.00  0.00     0.011 A 
ATOM     21  C   UNL A   1      33.687  16.666  23.509  1.00  0.00     0.040 A 
ATOM     22  C   UNL A   1      32.847  17.024  25.751  1.00  0.00     0.040 A 
ATOM     23  C   UNL A   1      33.423  16.199  24.792  1.00  0.00     0.123 A 
ATOM     24  F   UNL A   1      33.726  14.935  25.112  1.00  0.00    -0.207 F 
ENDBRANCH  17  18
ENDBRANCH   8  10
ENDBRANCH   5   8
ENDBRANCH   3   4
ENDBRANCH   2   3
ENDBRANCH   1   2
BRANCH   1  25
ATOM     25  C   UNL A   1      31.629  30.485  26.030  1.00  0.00     0.002 C 
BRANCH  25  26
ATOM     26  C   UNL A   1      31.400  31.886  26.600  1.00  0.00     0.021 C 
BRANCH  26  27
ATOM     27  C   UNL A   1      32.657  32.549  27.150  1.00  0.00     0.116 C 
BRANCH  27  28
ATOM     28  N   UNL A   1      32.432  33.947  27.482  1.00  0.00    -0.352 N 
ATOM     29  C   UNL A   1      33.001  34.709  28.471  1.00  0.00     0.251 C 
ATOM     30  H   UNL A   1      31.776  34.414  26.916  1.00  0.00     0.163 HD
ATOM     31  O   UNL A   1      32.537  35.809  28.750  1.00  0.00    -0.269 OA
BRANCH  29  32
ATOM     32  C   UNL A   1      34.168  34.191  29.215  1.00  0.00     0.039 A 
ATOM     33  C   UNL A   1      33.954  33.459  30.385  1.00  0.00     0.014 A 
ATOM     34  C   UNL A   1      35.469  34.433  28.763  1.00  0.00     0.014 A 
ATOM     35  C   UNL A   1      35.043  32.919  31.070  1.00  0.00     0.010 A 
ATOM     36  C   UNL A   1      36.547  33.827  29.402  1.00  0.00     0.010 A 
ATOM     37  C   UNL A   1      36.346  33.067  30.565  1.00  0.00    -0.014 A 
BRANCH  37  38
ATOM     38  C   UNL A   1      37.509  32.436  31.239  1.00  0.00     0.031 A 
ATOM     39  C   UNL A   1      38.252  31.312  30.574  1.00  0.00     0.074 A 
ATOM     40  C   UNL A   1      37.856  32.838  32.477  1.00  0.00     0.049 A 
ATOM     41  N   UNL A   1      39.249  30.595  31.028  1.00  0.00    -0.248 NA
ATOM     42  C   UNL A   1      37.796  30.921  29.232  1.00  0.00     0.031 C 
ATOM     43  C   UNL A   1      37.185  33.888  33.245  1.00  0.00     0.029 A 
ATOM     44  N   UNL A   1      38.855  32.404  33.313  1.00  0.00    -0.354 N 
ATOM     45  C   UNL A   1      39.530  29.666  30.035  1.00  0.00     0.074 A 
ATOM     46  C   UNL A   1      38.562  29.870  28.979  1.00  0.00     0.031 C 
ATOM     47  C   UNL A   1      37.805  34.033  34.426  1.00  0.00     0.029 A 
ATOM     48  C   UNL A   1      38.888  33.059  34.519  1.00  0.00     0.049 A 
ATOM     49  H   UNL A   1      39.489  31.690  33.070  1.00  0.00     0.167 HD
ATOM     50  C   UNL A   1      40.522  28.744  29.996  1.00  0.00     0.037 A 
ATOM     51  C   UNL A   1      39.693  32.886  35.585  1.00  0.00     0.037 A 
ATOM     52  C   UNL A   1      41.493  28.558  31.043  1.00  0.00     0.049 A 
ATOM     53  C   UNL A   1      40.772  31.839  35.525  1.00  0.00     0.074 A 
ATOM     54  C   UNL A   1      42.571  27.691  31.075  1.00  0.00     0.029 A 
ATOM     55  N   UNL A   1      41.499  29.246  32.248  1.00  0.00    -0.354 N 
ATOM     56  N   UNL A   1      41.075  31.016  34.550  1.00  0.00    -0.248 NA
ATOM     57  C   UNL A   1      41.628  31.701  36.712  1.00  0.00     0.031 C 
ATOM     58  C   UNL A   1      43.193  27.810  32.322  1.00  0.00     0.029 A 
ATOM     59  C   UNL A   1      42.544  28.801  33.042  1.00  0.00     0.049 A 
ATOM     60  H   UNL A   1      40.856  29.947  32.501  1.00  0.00     0.167 HD
ATOM     61  C   UNL A   1      42.173  30.289  34.992  1.00  0.00     0.074 A 
ATOM     62  C   UNL A   1      42.492  30.778  36.316  1.00  0.00     0.031 C 
ATOM     63  C   UNL A   1      42.854  29.303  34.358  1.00  0.00     0.037 A 
BRANCH  50  64
ATOM     64  C   UNL A   1      40.606  27.863  28.783  1.00  0.00     0.064 A 
ATOM     65  C   UNL A   1      39.887  26.661  28.691  1.00  0.00     0.173 A 
ATOM     66  C   UNL A   1      41.389  28.241  27.681  1.00  0.00     0.173 A 
ATOM     67  F   UNL A   1      39.131  26.246  29.718  1.00  0.00    -0.203 F 
ATOM     68  C   UNL A   1      39.974  25.857  27.556  1.00  0.00     0.198 A 
ATOM     69  C   UNL A   1      41.445  27.452  26.535  1.00  0.00     0.198 A 
ATOM     70  F   UNL A   1      42.094  29.382  27.710  1.00  0.00    -0.203 F 
ATOM     71  F   UNL A   1      39.320  24.688  27.515  1.00  0.00    -0.200 F 
ATOM     72  C   UNL A   1      40.745  26.256  26.477  1.00  0.00     0.200 A 
ATOM     73  F   UNL A   1      42.179  27.848  25.486  1.00  0.00    -0.200 F 
ATOM     74  F   UNL A   1      40.820  25.487  25.382  1.00  0.00    -0.200 F 
ENDBRANCH  50  64
BRANCH  51  75
ATOM     75  C   UNL A   1      39.519  33.734  36.795  1.00  0.00     0.064 A 
ATOM     76  C   UNL A   1      40.151  34.980  36.900  1.00  0.00     0.173 A 
ATOM     77  C   UNL A   1      38.728  33.312  37.874  1.00  0.00     0.173 A 
ATOM     78  F   UNL A   1      40.934  35.419  35.902  1.00  0.00    -0.203 F 
ATOM     79  C   UNL A   1      40.020  35.761  38.045  1.00  0.00     0.198 A 
ATOM     80  C   UNL A   1      38.571  34.108  39.007  1.00  0.00     0.198 A 
ATOM     81  F   UNL A   1      38.096  32.130  37.824  1.00  0.00    -0.203 F 
ATOM     82  F   UNL A   1      40.679  36.924  38.140  1.00  0.00    -0.200 F 
ATOM     83  C   UNL A   1      39.226  35.328  39.096  1.00  0.00     0.200 A 
ATOM     84  F   UNL A   1      37.788  33.694  40.012  1.00  0.00    -0.200 F 
ATOM     85  F   UNL A   1      39.097  36.080  40.197  1.00  0.00    -0.200 F 
ENDBRANCH  51  75
BRANCH  63  86
ATOM     86  C   UNL A   1      44.041  28.715  35.068  1.00  0.00     0.064 A 
ATOM     87  C   UNL A   1      45.324  29.271  34.950  1.00  0.00     0.173 A 
ATOM     88  C   UNL A   1      43.884  27.604  35.909  1.00  0.00     0.173 A 
ATOM     89  F   UNL A   1      45.532  30.326  34.147  1.00  0.00    -0.203 F 
ATOM     90  C   UNL A   1      46.409  28.718  35.624  1.00  0.00     0.198 A 
ATOM     91  C   UNL A   1      44.964  27.075  36.611  1.00  0.00     0.198 A 
ATOM     92  F   UNL A   1      42.677  27.038  36.065  1.00  0.00    -0.203 F 
ATOM     93  F   UNL A   1      47.634  29.232  35.453  1.00  0.00    -0.200 F 
ATOM     94  C   UNL A   1      46.227  27.626  36.461  1.00  0.00     0.200 A 
ATOM     95  F   UNL A   1      44.781  26.032  37.432  1.00  0.00    -0.200 F 
ATOM     96  F   UNL A   1      47.270  27.100  37.116  1.00  0.00    -0.200 F 
ENDBRANCH  63  86
ENDBRANCH  37  38
ENDBRANCH  29  32
ENDBRANCH  27  28
ENDBRANCH  26  27
ENDBRANCH  25  26
ENDBRANCH   1  25
TORSDOF 15
ENDMDL
