MODEL 1
REMARK VINA RESULT:     -11.8      0.000      0.000
REMARK SMILES CCc1nc(N2CC[N@H+](CC=C(C)C)[C@H](C(=O)NCCCCCCNC(=O)c3ccc(-c4c5nc(c(-c6c(F)c(F)c(F)c(F)c6F)c6ccc([nH]6)c(-c6c(F)c(F)c(F)c(F)c6F)c6nc(c(-c7c(F)c(F)c(F)c(F)c7F)c7ccc4[nH]7)C=C6)C=C5)cc3)C2)no1
REMARK SMILES IDX 21 1 20 2 19 3 18 4 16 5 17 6 15 8 6 9 7 10 91 11 8 12 9 13
REMARK SMILES IDX 5 15 3 16 4 17 93 18 92 19 2 20 1 21 10 22 11 23 12 24 13 25
REMARK SMILES IDX 14 26 22 27 23 28 24 29 25 30 26 31 27 33 28 34 29 35 90 36
REMARK SMILES IDX 30 37 89 38 31 39 32 40 33 41 83 42 34 43 88 44 82 45 84 46
REMARK SMILES IDX 35 47 87 48 81 49 80 50 36 52 68 53 48 54 67 55 49 56 52 57
REMARK SMILES IDX 66 58 85 59 50 60 51 61 65 63 86 64 53 65 37 66 38 67 46 68
REMARK SMILES IDX 39 69 40 70 44 71 47 72 41 73 42 74 45 75 43 76 69 77 70 78
REMARK SMILES IDX 78 79 71 80 72 81 76 82 79 83 73 84 74 85 77 86 75 87 54 88
REMARK SMILES IDX 55 89 63 90 56 91 57 92 61 93 64 94 58 95 59 96 62 97 60 98
REMARK H PARENT 18 7 9 14 25 32 84 51 52 62
REMARK Flexibility Score: inf
ROOT
ATOM      1  C   UNL A   1      34.115  32.202  28.160  1.00  0.00     0.002 C 
ENDROOT
BRANCH   1   2
ATOM      2  C   UNL A   1      35.384  31.358  28.046  1.00  0.00     0.021 C 
BRANCH   2   3
ATOM      3  C   UNL A   1      35.172  30.023  27.334  1.00  0.00     0.116 C 
BRANCH   3   4
ATOM      4  N   UNL A   1      34.006  29.330  27.832  1.00  0.00    -0.351 N 
ATOM      5  C   UNL A   1      32.956  28.738  27.201  1.00  0.00     0.280 C 
ATOM      6  O   UNL A   1      32.061  28.319  27.947  1.00  0.00    -0.268 OA
ATOM      7  H   UNL A   1      33.962  29.277  28.814  1.00  0.00     0.163 HD
BRANCH   5   8
ATOM      8  C   UNL A   1      32.839  28.555  25.671  1.00  0.00     0.294 C 
ATOM      9  N   UNL A   1      31.414  28.690  23.618  1.00  0.00    -0.326 N 
ATOM     10  C   UNL A   1      32.227  27.653  22.978  1.00  0.00     0.181 C 
ATOM     11  C   UNL A   1      31.442  28.815  25.082  1.00  0.00     0.195 C 
ATOM     12  C   UNL A   1      33.616  27.499  23.644  1.00  0.00     0.284 C 
ATOM     13  N   UNL A   1      33.621  27.414  25.118  1.00  0.00    -0.318 N 
ATOM     14  H   UNL A   1      34.558  27.551  25.496  1.00  0.00     0.349 HD
BRANCH   9  15
ATOM     15  C   UNL A   1      30.391  29.246  22.932  1.00  0.00     0.266 A 
ATOM     16  C   UNL A   1      28.842  30.607  22.604  1.00  0.00     0.227 A 
ATOM     17  N   UNL A   1      29.598  30.157  23.574  1.00  0.00    -0.176 NA
ATOM     18  O   UNL A   1      29.035  29.963  21.422  1.00  0.00    -0.337 OA
ATOM     19  N   UNL A   1      30.071  29.058  21.642  1.00  0.00    -0.038 NA
BRANCH  16  20
ATOM     20  C   UNL A   1      27.952  31.786  22.598  1.00  0.00     0.097 C 
ATOM     21  C   UNL A   1      27.955  32.424  21.215  1.00  0.00     0.014 C 
ENDBRANCH  16  20
ENDBRANCH   9  15
BRANCH  13  22
ATOM     22  C   UNL A   1      33.394  26.069  25.628  1.00  0.00     0.291 C 
BRANCH  22  23
ATOM     23  C   UNL A   1      34.492  25.064  25.408  1.00  0.00     0.032 C 
ATOM     24  C   UNL A   1      34.579  23.808  25.886  1.00  0.00    -0.075 C 
ATOM     25  C   UNL A   1      35.772  22.952  25.556  1.00  0.00     0.039 C 
ATOM     26  C   UNL A   1      33.540  23.178  26.768  1.00  0.00     0.039 C 
ENDBRANCH  22  23
ENDBRANCH  13  22
ENDBRANCH   5   8
ENDBRANCH   3   4
ENDBRANCH   2   3
ENDBRANCH   1   2
BRANCH   1  27
ATOM     27  C   UNL A   1      34.285  33.520  28.927  1.00  0.00     0.002 C 
BRANCH  27  28
ATOM     28  C   UNL A   1      33.101  34.489  28.839  1.00  0.00     0.021 C 
BRANCH  28  29
ATOM     29  C   UNL A   1      33.380  35.890  29.373  1.00  0.00     0.116 C 
BRANCH  29  30
ATOM     30  N   UNL A   1      32.557  36.206  30.528  1.00  0.00    -0.352 N 
ATOM     31  C   UNL A   1      32.653  35.762  31.821  1.00  0.00     0.251 C 
ATOM     32  H   UNL A   1      31.818  36.833  30.356  1.00  0.00     0.163 HD
ATOM     33  O   UNL A   1      31.738  35.963  32.613  1.00  0.00    -0.269 OA
BRANCH  31  34
ATOM     34  C   UNL A   1      33.858  35.030  32.263  1.00  0.00     0.039 A 
ATOM     35  C   UNL A   1      33.718  33.725  32.739  1.00  0.00     0.014 A 
ATOM     36  C   UNL A   1      35.115  35.640  32.237  1.00  0.00     0.014 A 
ATOM     37  C   UNL A   1      34.848  33.010  33.139  1.00  0.00     0.010 A 
ATOM     38  C   UNL A   1      36.248  34.905  32.572  1.00  0.00     0.010 A 
ATOM     39  C   UNL A   1      36.125  33.585  33.032  1.00  0.00    -0.014 A 
BRANCH  39  40
ATOM     40  C   UNL A   1      37.342  32.824  33.402  1.00  0.00     0.031 A 
ATOM     41  C   UNL A   1      38.064  33.130  34.684  1.00  0.00     0.074 A 
ATOM     42  C   UNL A   1      37.833  31.901  32.552  1.00  0.00     0.049 A 
ATOM     43  N   UNL A   1      39.183  32.630  35.146  1.00  0.00    -0.248 NA
ATOM     44  C   UNL A   1      37.464  34.157  35.550  1.00  0.00     0.031 C 
ATOM     45  C   UNL A   1      37.245  31.549  31.258  1.00  0.00     0.029 A 
ATOM     46  N   UNL A   1      38.945  31.102  32.641  1.00  0.00    -0.354 N 
ATOM     47  C   UNL A   1      39.424  33.287  36.344  1.00  0.00     0.074 A 
ATOM     48  C   UNL A   1      38.368  34.260  36.514  1.00  0.00     0.031 C 
ATOM     49  C   UNL A   1      37.992  30.593  30.683  1.00  0.00     0.029 A 
ATOM     50  C   UNL A   1      39.129  30.292  31.548  1.00  0.00     0.049 A 
ATOM     51  H   UNL A   1      39.552  31.108  33.416  1.00  0.00     0.167 HD
ATOM     52  C   UNL A   1      40.424  33.080  37.235  1.00  0.00     0.037 A 
ATOM     53  C   UNL A   1      40.110  29.413  31.271  1.00  0.00     0.037 A 
ATOM     54  C   UNL A   1      41.460  32.094  37.070  1.00  0.00     0.049 A 
ATOM     55  C   UNL A   1      41.213  29.207  32.272  1.00  0.00     0.074 A 
ATOM     56  C   UNL A   1      42.486  31.768  37.940  1.00  0.00     0.029 A 
ATOM     57  N   UNL A   1      41.603  31.277  35.958  1.00  0.00    -0.354 N 
ATOM     58  N   UNL A   1      41.396  29.787  33.435  1.00  0.00    -0.248 NA
ATOM     59  C   UNL A   1      42.246  28.220  31.928  1.00  0.00     0.031 C 
ATOM     60  C   UNL A   1      43.277  30.786  37.334  1.00  0.00     0.029 A 
ATOM     61  C   UNL A   1      42.713  30.462  36.110  1.00  0.00     0.049 A 
ATOM     62  H   UNL A   1      41.004  31.276  35.177  1.00  0.00     0.167 HD
ATOM     63  C   UNL A   1      42.541  29.216  33.971  1.00  0.00     0.074 A 
ATOM     64  C   UNL A   1      43.005  28.234  33.014  1.00  0.00     0.031 C 
ATOM     65  C   UNL A   1      43.156  29.483  35.150  1.00  0.00     0.037 A 
BRANCH  52  66
ATOM     66  C   UNL A   1      40.444  33.935  38.469  1.00  0.00     0.064 A 
ATOM     67  C   UNL A   1      39.743  33.570  39.628  1.00  0.00     0.173 A 
ATOM     68  C   UNL A   1      41.201  35.116  38.505  1.00  0.00     0.173 A 
ATOM     69  F   UNL A   1      38.996  32.456  39.642  1.00  0.00    -0.203 F 
ATOM     70  C   UNL A   1      39.775  34.370  40.768  1.00  0.00     0.198 A 
ATOM     71  C   UNL A   1      41.255  35.898  39.657  1.00  0.00     0.198 A 
ATOM     72  F   UNL A   1      41.894  35.510  37.427  1.00  0.00    -0.203 F 
ATOM     73  F   UNL A   1      39.056  34.026  41.846  1.00  0.00    -0.200 F 
ATOM     74  C   UNL A   1      40.536  35.528  40.784  1.00  0.00     0.200 A 
ATOM     75  F   UNL A   1      42.002  37.010  39.676  1.00  0.00    -0.200 F 
ATOM     76  F   UNL A   1      40.572  36.293  41.884  1.00  0.00    -0.200 F 
ENDBRANCH  52  66
BRANCH  53  77
ATOM     77  C   UNL A   1      40.082  28.648  29.997  1.00  0.00     0.064 A 
ATOM     78  C   UNL A   1      39.468  27.390  29.927  1.00  0.00     0.173 A 
ATOM     79  C   UNL A   1      40.669  29.154  28.827  1.00  0.00     0.173 A 
ATOM     80  F   UNL A   1      38.910  26.855  31.023  1.00  0.00    -0.203 F 
ATOM     81  C   UNL A   1      39.461  26.657  28.742  1.00  0.00     0.198 A 
ATOM     82  C   UNL A   1      40.635  28.433  27.636  1.00  0.00     0.198 A 
ATOM     83  F   UNL A   1      41.264  30.355  28.840  1.00  0.00    -0.203 F 
ATOM     84  F   UNL A   1      38.908  25.437  28.715  1.00  0.00    -0.200 F 
ATOM     85  C   UNL A   1      40.040  27.182  27.596  1.00  0.00     0.200 A 
ATOM     86  F   UNL A   1      41.182  28.951  26.528  1.00  0.00    -0.200 F 
ATOM     87  F   UNL A   1      40.028  26.478  26.455  1.00  0.00    -0.200 F 
ENDBRANCH  53  77
BRANCH  65  88
ATOM     88  C   UNL A   1      44.375  28.676  35.487  1.00  0.00     0.064 A 
ATOM     89  C   UNL A   1      45.658  29.073  35.081  1.00  0.00     0.173 A 
ATOM     90  C   UNL A   1      44.263  27.512  36.263  1.00  0.00     0.173 A 
ATOM     91  F   UNL A   1      45.816  30.170  34.325  1.00  0.00    -0.203 F 
ATOM     92  C   UNL A   1      46.779  28.320  35.418  1.00  0.00     0.198 A 
ATOM     93  C   UNL A   1      45.389  26.779  36.623  1.00  0.00     0.198 A 
ATOM     94  F   UNL A   1      43.059  27.092  36.682  1.00  0.00    -0.203 F 
ATOM     95  F   UNL A   1      47.990  28.693  34.978  1.00  0.00    -0.200 F 
ATOM     96  C   UNL A   1      46.646  27.179  36.195  1.00  0.00     0.200 A 
ATOM     97  F   UNL A   1      45.260  25.684  37.386  1.00  0.00    -0.200 F 
ATOM     98  F   UNL A   1      47.728  26.461  36.524  1.00  0.00    -0.200 F 
ENDBRANCH  65  88
ENDBRANCH  39  40
ENDBRANCH  31  34
ENDBRANCH  29  30
ENDBRANCH  28  29
ENDBRANCH  27  28
ENDBRANCH   1  27
TORSDOF 17
ENDMDL
MODEL 2
REMARK VINA RESULT:     -11.7      2.498      8.458
REMARK SMILES CCc1nc(N2CC[N@H+](CC=C(C)C)[C@H](C(=O)NCCCCCCNC(=O)c3ccc(-c4c5nc(c(-c6c(F)c(F)c(F)c(F)c6F)c6ccc([nH]6)c(-c6c(F)c(F)c(F)c(F)c6F)c6nc(c(-c7c(F)c(F)c(F)c(F)c7F)c7ccc4[nH]7)C=C6)C=C5)cc3)C2)no1
REMARK SMILES IDX 21 1 20 2 19 3 18 4 16 5 17 6 15 8 6 9 7 10 91 11 8 12 9 13
REMARK SMILES IDX 5 15 3 16 4 17 93 18 92 19 2 20 1 21 10 22 11 23 12 24 13 25
REMARK SMILES IDX 14 26 22 27 23 28 24 29 25 30 26 31 27 33 28 34 29 35 90 36
REMARK SMILES IDX 30 37 89 38 31 39 32 40 33 41 83 42 34 43 88 44 82 45 84 46
REMARK SMILES IDX 35 47 87 48 81 49 80 50 36 52 68 53 48 54 67 55 49 56 52 57
REMARK SMILES IDX 66 58 85 59 50 60 51 61 65 63 86 64 53 65 37 66 38 67 46 68
REMARK SMILES IDX 39 69 40 70 44 71 47 72 41 73 42 74 45 75 43 76 69 77 70 78
REMARK SMILES IDX 78 79 71 80 72 81 76 82 79 83 73 84 74 85 77 86 75 87 54 88
REMARK SMILES IDX 55 89 63 90 56 91 57 92 61 93 64 94 58 95 59 96 62 97 60 98
REMARK H PARENT 18 7 9 14 25 32 84 51 52 62
REMARK Flexibility Score: inf
ROOT
ATOM      1  C   UNL A   1      32.333  29.923  26.875  1.00  0.00     0.002 C 
ENDROOT
BRANCH   1   2
ATOM      2  C   UNL A   1      32.108  28.423  26.683  1.00  0.00     0.021 C 
BRANCH   2   3
ATOM      3  C   UNL A   1      33.398  27.626  26.498  1.00  0.00     0.116 C 
BRANCH   3   4
ATOM      4  N   UNL A   1      33.596  27.240  25.120  1.00  0.00    -0.351 N 
ATOM      5  C   UNL A   1      33.361  26.077  24.454  1.00  0.00     0.280 C 
ATOM      6  O   UNL A   1      33.750  26.055  23.279  1.00  0.00    -0.268 OA
ATOM      7  H   UNL A   1      33.973  27.954  24.556  1.00  0.00     0.163 HD
BRANCH   5   8
ATOM      8  C   UNL A   1      32.650  24.845  25.059  1.00  0.00     0.294 C 
ATOM      9  N   UNL A   1      32.430  22.354  25.153  1.00  0.00    -0.326 N 
ATOM     10  C   UNL A   1      31.027  22.487  25.552  1.00  0.00     0.181 C 
ATOM     11  C   UNL A   1      33.094  23.485  24.491  1.00  0.00     0.195 C 
ATOM     12  C   UNL A   1      30.709  23.889  26.126  1.00  0.00     0.284 C 
ATOM     13  N   UNL A   1      31.201  25.037  25.340  1.00  0.00    -0.318 N 
ATOM     14  H   UNL A   1      31.167  25.901  25.880  1.00  0.00     0.349 HD
BRANCH   9  15
ATOM     15  C   UNL A   1      32.974  21.121  25.046  1.00  0.00     0.266 A 
ATOM     16  C   UNL A   1      32.943  19.042  24.860  1.00  0.00     0.227 A 
ATOM     17  N   UNL A   1      32.152  20.036  25.178  1.00  0.00    -0.176 NA
ATOM     18  O   UNL A   1      34.231  19.422  24.641  1.00  0.00    -0.337 OA
ATOM     19  N   UNL A   1      34.248  20.810  24.763  1.00  0.00    -0.038 NA
BRANCH  16  20
ATOM     20  C   UNL A   1      32.590  17.638  24.568  1.00  0.00     0.097 C 
ATOM     21  C   UNL A   1      33.784  16.928  23.942  1.00  0.00     0.014 C 
ENDBRANCH  16  20
ENDBRANCH   9  15
BRANCH  13  22
ATOM     22  C   UNL A   1      30.305  25.440  24.265  1.00  0.00     0.291 C 
BRANCH  22  23
ATOM     23  C   UNL A   1      29.862  26.877  24.250  1.00  0.00     0.032 C 
ATOM     24  C   UNL A   1      30.129  27.821  23.327  1.00  0.00    -0.075 C 
ATOM     25  C   UNL A   1      29.596  29.219  23.496  1.00  0.00     0.039 C 
ATOM     26  C   UNL A   1      30.962  27.577  22.102  1.00  0.00     0.039 C 
ENDBRANCH  22  23
ENDBRANCH  13  22
ENDBRANCH   5   8
ENDBRANCH   3   4
ENDBRANCH   2   3
ENDBRANCH   1   2
BRANCH   1  27
ATOM     27  C   UNL A   1      31.421  30.823  26.034  1.00  0.00     0.002 C 
BRANCH  27  28
ATOM     28  C   UNL A   1      31.296  32.271  26.521  1.00  0.00     0.021 C 
BRANCH  28  29
ATOM     29  C   UNL A   1      32.524  32.808  27.251  1.00  0.00     0.116 C 
BRANCH  29  30
ATOM     30  N   UNL A   1      32.366  34.204  27.625  1.00  0.00    -0.352 N 
ATOM     31  C   UNL A   1      32.976  34.918  28.624  1.00  0.00     0.251 C 
ATOM     32  H   UNL A   1      31.725  34.713  27.080  1.00  0.00     0.163 HD
ATOM     33  O   UNL A   1      32.558  36.029  28.933  1.00  0.00    -0.269 OA
BRANCH  31  34
ATOM     34  C   UNL A   1      34.137  34.347  29.337  1.00  0.00     0.039 A 
ATOM     35  C   UNL A   1      33.930  33.714  30.565  1.00  0.00     0.014 A 
ATOM     36  C   UNL A   1      35.428  34.461  28.812  1.00  0.00     0.014 A 
ATOM     37  C   UNL A   1      35.011  33.149  31.243  1.00  0.00     0.010 A 
ATOM     38  C   UNL A   1      36.494  33.839  29.454  1.00  0.00     0.010 A 
ATOM     39  C   UNL A   1      36.297  33.182  30.678  1.00  0.00    -0.014 A 
BRANCH  39  40
ATOM     40  C   UNL A   1      37.449  32.540  31.357  1.00  0.00     0.031 A 
ATOM     41  C   UNL A   1      38.166  31.392  30.705  1.00  0.00     0.074 A 
ATOM     42  C   UNL A   1      37.805  32.951  32.590  1.00  0.00     0.049 A 
ATOM     43  N   UNL A   1      39.142  30.653  31.170  1.00  0.00    -0.248 NA
ATOM     44  C   UNL A   1      37.706  31.004  29.363  1.00  0.00     0.031 C 
ATOM     45  C   UNL A   1      37.155  34.025  33.343  1.00  0.00     0.029 A 
ATOM     46  N   UNL A   1      38.793  32.504  33.432  1.00  0.00    -0.354 N 
ATOM     47  C   UNL A   1      39.403  29.710  30.185  1.00  0.00     0.074 A 
ATOM     48  C   UNL A   1      38.449  29.933  29.121  1.00  0.00     0.031 C 
ATOM     49  C   UNL A   1      37.772  34.165  34.527  1.00  0.00     0.029 A 
ATOM     50  C   UNL A   1      38.834  33.169  34.632  1.00  0.00     0.049 A 
ATOM     51  H   UNL A   1      39.413  31.777  33.196  1.00  0.00     0.167 HD
ATOM     52  C   UNL A   1      40.368  28.759  30.161  1.00  0.00     0.037 A 
ATOM     53  C   UNL A   1      39.632  32.988  35.701  1.00  0.00     0.037 A 
ATOM     54  C   UNL A   1      41.329  28.557  31.213  1.00  0.00     0.049 A 
ATOM     55  C   UNL A   1      40.691  31.920  35.652  1.00  0.00     0.074 A 
ATOM     56  C   UNL A   1      42.381  27.659  31.261  1.00  0.00     0.029 A 
ATOM     57  N   UNL A   1      41.353  29.264  32.407  1.00  0.00    -0.354 N 
ATOM     58  N   UNL A   1      40.972  31.077  34.688  1.00  0.00    -0.248 NA
ATOM     59  C   UNL A   1      41.548  31.782  36.837  1.00  0.00     0.031 C 
ATOM     60  C   UNL A   1      43.012  27.790  32.502  1.00  0.00     0.029 A 
ATOM     61  C   UNL A   1      42.387  28.806  33.207  1.00  0.00     0.049 A 
ATOM     62  H   UNL A   1      40.727  29.984  32.650  1.00  0.00     0.167 HD
ATOM     63  C   UNL A   1      42.053  30.331  35.136  1.00  0.00     0.074 A 
ATOM     64  C   UNL A   1      42.387  30.830  36.454  1.00  0.00     0.031 C 
ATOM     65  C   UNL A   1      42.710  29.321  34.514  1.00  0.00     0.037 A 
BRANCH  52  66
ATOM     66  C   UNL A   1      40.434  27.866  28.955  1.00  0.00     0.064 A 
ATOM     67  C   UNL A   1      41.249  28.173  27.857  1.00  0.00     0.173 A 
ATOM     68  C   UNL A   1      39.699  26.672  28.913  1.00  0.00     0.173 A 
ATOM     69  F   UNL A   1      41.964  29.308  27.842  1.00  0.00    -0.203 F 
ATOM     70  C   UNL A   1      41.306  27.333  26.746  1.00  0.00     0.198 A 
ATOM     71  C   UNL A   1      39.780  25.819  27.815  1.00  0.00     0.198 A 
ATOM     72  F   UNL A   1      38.906  26.327  29.938  1.00  0.00    -0.203 F 
ATOM     73  F   UNL A   1      42.053  27.673  25.688  1.00  0.00    -0.200 F 
ATOM     74  C   UNL A   1      40.577  26.154  26.730  1.00  0.00     0.200 A 
ATOM     75  F   UNL A   1      39.086  24.672  27.806  1.00  0.00    -0.200 F 
ATOM     76  F   UNL A   1      40.637  25.342  25.665  1.00  0.00    -0.200 F 
ENDBRANCH  52  66
BRANCH  53  77
ATOM     77  C   UNL A   1      39.473  33.851  36.901  1.00  0.00     0.064 A 
ATOM     78  C   UNL A   1      38.735  33.413  38.009  1.00  0.00     0.173 A 
ATOM     79  C   UNL A   1      40.050  35.128  36.964  1.00  0.00     0.173 A 
ATOM     80  F   UNL A   1      38.149  32.207  37.989  1.00  0.00    -0.203 F 
ATOM     81  C   UNL A   1      38.562  34.227  39.126  1.00  0.00     0.198 A 
ATOM     82  C   UNL A   1      39.900  35.930  38.094  1.00  0.00     0.198 A 
ATOM     83  F   UNL A   1      40.770  35.591  35.932  1.00  0.00    -0.203 F 
ATOM     84  F   UNL A   1      37.813  33.801  40.153  1.00  0.00    -0.200 F 
ATOM     85  C   UNL A   1      39.149  35.483  39.170  1.00  0.00     0.200 A 
ATOM     86  F   UNL A   1      40.483  37.135  38.137  1.00  0.00    -0.200 F 
ATOM     87  F   UNL A   1      38.986  36.264  40.246  1.00  0.00    -0.200 F 
ENDBRANCH  53  77
BRANCH  65  88
ATOM     88  C   UNL A   1      43.878  28.714  35.234  1.00  0.00     0.064 A 
ATOM     89  C   UNL A   1      43.720  27.636  36.118  1.00  0.00     0.173 A 
ATOM     90  C   UNL A   1      45.179  29.190  35.005  1.00  0.00     0.173 A 
ATOM     91  F   UNL A   1      42.496  27.155  36.382  1.00  0.00    -0.203 F 
ATOM     92  C   UNL A   1      44.817  27.075  36.764  1.00  0.00     0.198 A 
ATOM     93  C   UNL A   1      46.276  28.607  35.630  1.00  0.00     0.198 A 
ATOM     94  F   UNL A   1      45.384  30.215  34.164  1.00  0.00    -0.203 F 
ATOM     95  F   UNL A   1      44.637  26.077  37.641  1.00  0.00    -0.200 F 
ATOM     96  C   UNL A   1      46.095  27.554  36.514  1.00  0.00     0.200 A 
ATOM     97  F   UNL A   1      47.511  29.062  35.376  1.00  0.00    -0.200 F 
ATOM     98  F   UNL A   1      47.150  27.007  37.132  1.00  0.00    -0.200 F 
ENDBRANCH  65  88
ENDBRANCH  39  40
ENDBRANCH  31  34
ENDBRANCH  29  30
ENDBRANCH  28  29
ENDBRANCH  27  28
ENDBRANCH   1  27
TORSDOF 17
ENDMDL
MODEL 3
REMARK VINA RESULT:     -11.7      5.920     10.407
REMARK SMILES CCc1nc(N2CC[N@H+](CC=C(C)C)[C@H](C(=O)NCCCCCCNC(=O)c3ccc(-c4c5nc(c(-c6c(F)c(F)c(F)c(F)c6F)c6ccc([nH]6)c(-c6c(F)c(F)c(F)c(F)c6F)c6nc(c(-c7c(F)c(F)c(F)c(F)c7F)c7ccc4[nH]7)C=C6)C=C5)cc3)C2)no1
REMARK SMILES IDX 21 1 20 2 19 3 18 4 16 5 17 6 15 8 6 9 7 10 91 11 8 12 9 13
REMARK SMILES IDX 5 15 3 16 4 17 93 18 92 19 2 20 1 21 10 22 11 23 12 24 13 25
REMARK SMILES IDX 14 26 22 27 23 28 24 29 25 30 26 31 27 33 28 34 29 35 90 36
REMARK SMILES IDX 30 37 89 38 31 39 32 40 33 41 83 42 34 43 88 44 82 45 84 46
REMARK SMILES IDX 35 47 87 48 81 49 80 50 36 52 68 53 48 54 67 55 49 56 52 57
REMARK SMILES IDX 66 58 85 59 50 60 51 61 65 63 86 64 53 65 37 66 38 67 46 68
REMARK SMILES IDX 39 69 40 70 44 71 47 72 41 73 42 74 45 75 43 76 69 77 70 78
REMARK SMILES IDX 78 79 71 80 72 81 76 82 79 83 73 84 74 85 77 86 75 87 54 88
REMARK SMILES IDX 55 89 63 90 56 91 57 92 61 93 64 94 58 95 59 96 62 97 60 98
REMARK H PARENT 18 7 9 14 25 32 84 51 52 62
REMARK Flexibility Score: inf
ROOT
ATOM      1  C   UNL A   1      37.033  21.873  24.426  1.00  0.00     0.002 C 
ENDROOT
BRANCH   1   2
ATOM      2  C   UNL A   1      36.686  23.018  25.378  1.00  0.00     0.021 C 
BRANCH   2   3
ATOM      3  C   UNL A   1      35.657  23.996  24.813  1.00  0.00     0.116 C 
BRANCH   3   4
ATOM      4  N   UNL A   1      34.508  24.124  25.679  1.00  0.00    -0.351 N 
ATOM      5  C   UNL A   1      33.324  24.778  25.535  1.00  0.00     0.280 C 
ATOM      6  O   UNL A   1      32.591  24.766  26.533  1.00  0.00    -0.268 OA
ATOM      7  H   UNL A   1      34.599  23.648  26.536  1.00  0.00     0.163 HD
BRANCH   5   8
ATOM      8  C   UNL A   1      32.862  25.488  24.242  1.00  0.00     0.294 C 
ATOM      9  N   UNL A   1      31.413  27.228  23.176  1.00  0.00    -0.326 N 
ATOM     10  C   UNL A   1      31.400  26.460  21.928  1.00  0.00     0.181 C 
ATOM     11  C   UNL A   1      31.759  26.544  24.430  1.00  0.00     0.195 C 
ATOM     12  C   UNL A   1      32.568  25.448  21.848  1.00  0.00     0.284 C 
ATOM     13  N   UNL A   1      32.782  24.609  23.043  1.00  0.00    -0.318 N 
ATOM     14  H   UNL A   1      33.689  24.145  23.017  1.00  0.00     0.349 HD
BRANCH   9  15
ATOM     15  C   UNL A   1      30.761  28.411  23.232  1.00  0.00     0.266 A 
ATOM     16  C   UNL A   1      29.342  29.826  22.650  1.00  0.00     0.227 A 
ATOM     17  N   UNL A   1      29.915  28.735  22.208  1.00  0.00    -0.176 NA
ATOM     18  O   UNL A   1      29.851  30.266  23.832  1.00  0.00    -0.337 OA
ATOM     19  N   UNL A   1      30.795  29.318  24.220  1.00  0.00    -0.038 NA
BRANCH  16  20
ATOM     20  C   UNL A   1      28.153  30.525  22.120  1.00  0.00     0.097 C 
ATOM     21  C   UNL A   1      27.676  31.562  23.128  1.00  0.00     0.014 C 
ENDBRANCH  16  20
ENDBRANCH   9  15
BRANCH  13  22
ATOM     22  C   UNL A   1      31.949  23.416  23.078  1.00  0.00     0.291 C 
BRANCH  22  23
ATOM     23  C   UNL A   1      32.656  22.096  23.224  1.00  0.00     0.032 C 
ATOM     24  C   UNL A   1      32.598  21.229  24.252  1.00  0.00    -0.075 C 
ATOM     25  C   UNL A   1      33.393  19.951  24.213  1.00  0.00     0.039 C 
ATOM     26  C   UNL A   1      31.778  21.456  25.489  1.00  0.00     0.039 C 
ENDBRANCH  22  23
ENDBRANCH  13  22
ENDBRANCH   5   8
ENDBRANCH   3   4
ENDBRANCH   2   3
ENDBRANCH   1   2
BRANCH   1  27
ATOM     27  C   UNL A   1      36.815  20.469  25.002  1.00  0.00     0.002 C 
BRANCH  27  28
ATOM     28  C   UNL A   1      38.049  19.559  25.001  1.00  0.00     0.021 C 
BRANCH  28  29
ATOM     29  C   UNL A   1      39.250  20.109  25.765  1.00  0.00     0.116 C 
BRANCH  29  30
ATOM     30  N   UNL A   1      40.319  19.131  25.874  1.00  0.00    -0.352 N 
ATOM     31  C   UNL A   1      41.663  19.320  26.070  1.00  0.00     0.251 C 
ATOM     32  H   UNL A   1      40.036  18.192  25.795  1.00  0.00     0.163 HD
ATOM     33  O   UNL A   1      42.446  18.388  25.916  1.00  0.00    -0.269 OA
BRANCH  31  34
ATOM     34  C   UNL A   1      42.173  20.650  26.460  1.00  0.00     0.039 A 
ATOM     35  C   UNL A   1      42.631  21.516  25.464  1.00  0.00     0.014 A 
ATOM     36  C   UNL A   1      42.229  21.029  27.804  1.00  0.00     0.014 A 
ATOM     37  C   UNL A   1      43.095  22.785  25.812  1.00  0.00     0.010 A 
ATOM     38  C   UNL A   1      42.628  22.318  28.143  1.00  0.00     0.010 A 
ATOM     39  C   UNL A   1      43.070  23.207  27.151  1.00  0.00    -0.014 A 
BRANCH  39  40
ATOM     40  C   UNL A   1      43.510  24.570  27.534  1.00  0.00     0.031 A 
ATOM     41  C   UNL A   1      42.494  25.617  27.898  1.00  0.00     0.074 A 
ATOM     42  C   UNL A   1      44.819  24.883  27.489  1.00  0.00     0.049 A 
ATOM     43  N   UNL A   1      42.674  26.881  28.186  1.00  0.00    -0.248 NA
ATOM     44  C   UNL A   1      41.086  25.192  27.914  1.00  0.00     0.031 C 
ATOM     45  C   UNL A   1      45.894  23.965  27.107  1.00  0.00     0.029 A 
ATOM     46  N   UNL A   1      45.468  26.063  27.755  1.00  0.00    -0.354 N 
ATOM     47  C   UNL A   1      41.406  27.402  28.404  1.00  0.00     0.074 A 
ATOM     48  C   UNL A   1      40.461  26.334  28.163  1.00  0.00     0.031 C 
ATOM     49  C   UNL A   1      47.069  24.611  27.178  1.00  0.00     0.029 A 
ATOM     50  C   UNL A   1      46.827  25.995  27.575  1.00  0.00     0.049 A 
ATOM     51  H   UNL A   1      45.002  26.880  28.046  1.00  0.00     0.167 HD
ATOM     52  C   UNL A   1      41.063  28.654  28.794  1.00  0.00     0.037 A 
ATOM     53  C   UNL A   1      47.771  26.946  27.705  1.00  0.00     0.037 A 
ATOM     54  C   UNL A   1      42.009  29.707  29.054  1.00  0.00     0.049 A 
ATOM     55  C   UNL A   1      47.363  28.329  28.132  1.00  0.00     0.074 A 
ATOM     56  C   UNL A   1      41.767  30.991  29.507  1.00  0.00     0.029 A 
ATOM     57  N   UNL A   1      43.381  29.595  28.881  1.00  0.00    -0.354 N 
ATOM     58  N   UNL A   1      46.167  28.794  28.400  1.00  0.00    -0.248 NA
ATOM     59  C   UNL A   1      48.438  29.321  28.281  1.00  0.00     0.031 C 
ATOM     60  C   UNL A   1      42.988  31.673  29.563  1.00  0.00     0.029 A 
ATOM     61  C   UNL A   1      43.997  30.796  29.197  1.00  0.00     0.049 A 
ATOM     62  H   UNL A   1      43.848  28.783  28.578  1.00  0.00     0.167 HD
ATOM     63  C   UNL A   1      46.346  30.118  28.776  1.00  0.00     0.074 A 
ATOM     64  C   UNL A   1      47.769  30.379  28.715  1.00  0.00     0.031 C 
ATOM     65  C   UNL A   1      45.416  31.036  29.138  1.00  0.00     0.037 A 
BRANCH  52  66
ATOM     66  C   UNL A   1      39.600  28.952  28.966  1.00  0.00     0.064 A 
ATOM     67  C   UNL A   1      38.975  28.863  30.217  1.00  0.00     0.173 A 
ATOM     68  C   UNL A   1      38.824  29.364  27.872  1.00  0.00     0.173 A 
ATOM     69  F   UNL A   1      39.669  28.463  31.293  1.00  0.00    -0.203 F 
ATOM     70  C   UNL A   1      37.618  29.148  30.364  1.00  0.00     0.198 A 
ATOM     71  C   UNL A   1      37.476  29.678  28.028  1.00  0.00     0.198 A 
ATOM     72  F   UNL A   1      39.373  29.471  26.653  1.00  0.00    -0.203 F 
ATOM     73  F   UNL A   1      37.032  29.007  31.561  1.00  0.00    -0.200 F 
ATOM     74  C   UNL A   1      36.873  29.562  29.271  1.00  0.00     0.200 A 
ATOM     75  F   UNL A   1      36.760  30.091  26.973  1.00  0.00    -0.200 F 
ATOM     76  F   UNL A   1      35.570  29.843  29.414  1.00  0.00    -0.200 F 
ENDBRANCH  52  66
BRANCH  53  77
ATOM     77  C   UNL A   1      49.198  26.615  27.448  1.00  0.00     0.064 A 
ATOM     78  C   UNL A   1      49.694  26.544  26.139  1.00  0.00     0.173 A 
ATOM     79  C   UNL A   1      50.091  26.362  28.499  1.00  0.00     0.173 A 
ATOM     80  F   UNL A   1      48.875  26.759  25.099  1.00  0.00    -0.203 F 
ATOM     81  C   UNL A   1      51.024  26.211  25.890  1.00  0.00     0.198 A 
ATOM     82  C   UNL A   1      51.427  26.058  28.250  1.00  0.00     0.198 A 
ATOM     83  F   UNL A   1      49.667  26.424  29.770  1.00  0.00    -0.203 F 
ATOM     84  F   UNL A   1      51.460  26.104  24.628  1.00  0.00    -0.200 F 
ATOM     85  C   UNL A   1      51.891  25.974  26.946  1.00  0.00     0.200 A 
ATOM     86  F   UNL A   1      52.265  25.845  29.274  1.00  0.00    -0.200 F 
ATOM     87  F   UNL A   1      53.171  25.657  26.707  1.00  0.00    -0.200 F 
ENDBRANCH  53  77
BRANCH  65  88
ATOM     88  C   UNL A   1      45.911  32.397  29.531  1.00  0.00     0.064 A 
ATOM     89  C   UNL A   1      46.010  33.442  28.601  1.00  0.00     0.173 A 
ATOM     90  C   UNL A   1      46.250  32.671  30.866  1.00  0.00     0.173 A 
ATOM     91  F   UNL A   1      45.712  33.227  27.311  1.00  0.00    -0.203 F 
ATOM     92  C   UNL A   1      46.455  34.703  28.987  1.00  0.00     0.198 A 
ATOM     93  C   UNL A   1      46.665  33.940  31.254  1.00  0.00     0.198 A 
ATOM     94  F   UNL A   1      46.166  31.707  31.795  1.00  0.00    -0.203 F 
ATOM     95  F   UNL A   1      46.588  35.674  28.072  1.00  0.00    -0.200 F 
ATOM     96  C   UNL A   1      46.774  34.954  30.314  1.00  0.00     0.200 A 
ATOM     97  F   UNL A   1      46.959  34.185  32.538  1.00  0.00    -0.200 F 
ATOM     98  F   UNL A   1      47.195  36.171  30.685  1.00  0.00    -0.200 F 
ENDBRANCH  65  88
ENDBRANCH  39  40
ENDBRANCH  31  34
ENDBRANCH  29  30
ENDBRANCH  28  29
ENDBRANCH  27  28
ENDBRANCH   1  27
TORSDOF 17
ENDMDL
