MODEL 1
REMARK VINA RESULT:     -11.8      0.000      0.000
REMARK SMILES C[C@@H](Oc1ccc(N)cc1)C(=O)NCCCCCCNC(=O)c1ccc(-c2c3nc(c(-c4c(F)c(F)c(F)c(F)c4F)c4ccc([nH]4)c(-c4c(F)c(F)c(F)c(F)c4F)c4nc(c(-c5c(F)c(F)c(F)c(F)c5F)c5ccc2[nH]5)C=C4)C=C3)cc1
REMARK SMILES IDX 16 1 15 2 14 3 13 4 11 5 12 6 2 8 1 9 3 10 4 11 5 12 10 13
REMARK SMILES IDX 6 14 9 15 7 16 8 17 17 20 18 21 19 22 20 23 21 24 22 26
REMARK SMILES IDX 23 27 24 28 85 29 25 30 84 31 26 32 27 33 28 34 78 35 29 36
REMARK SMILES IDX 83 37 77 38 79 39 30 40 82 41 76 42 75 43 31 45 63 46 43 47
REMARK SMILES IDX 62 48 44 49 47 50 61 51 80 52 45 53 46 54 60 56 81 57 48 58
REMARK SMILES IDX 32 59 33 60 41 61 34 62 35 63 39 64 42 65 36 66 37 67 40 68
REMARK SMILES IDX 38 69 64 70 65 71 73 72 66 73 67 74 71 75 74 76 68 77 69 78
REMARK SMILES IDX 72 79 70 80 49 81 50 82 58 83 51 84 52 85 56 86 59 87 53 88
REMARK SMILES IDX 54 89 57 90 55 91
REMARK H PARENT 13 7 8 18 8 19 20 25 79 44 47 55
REMARK Flexibility Score: inf
ROOT
ATOM      1  C   UNL A   1      32.389  29.950  27.149  1.00  0.00     0.002 C 
ENDROOT
BRANCH   1   2
ATOM      2  C   UNL A   1      31.792  28.595  27.541  1.00  0.00     0.021 C 
BRANCH   2   3
ATOM      3  C   UNL A   1      31.835  27.548  26.432  1.00  0.00     0.116 C 
BRANCH   3   4
ATOM      4  N   UNL A   1      31.062  26.368  26.777  1.00  0.00    -0.353 N 
ATOM      5  C   UNL A   1      30.408  25.488  25.959  1.00  0.00     0.260 C 
ATOM      6  O   UNL A   1      29.810  24.544  26.484  1.00  0.00    -0.271 OA
ATOM      7  H   UNL A   1      30.999  26.175  27.740  1.00  0.00     0.163 HD
BRANCH   5   8
ATOM      8  C   UNL A   1      30.367  25.713  24.439  1.00  0.00     0.258 C 
ATOM      9  C   UNL A   1      30.563  24.365  23.748  1.00  0.00     0.064 C 
BRANCH   8  10
ATOM     10  O   UNL A   1      29.120  26.363  24.163  1.00  0.00    -0.481 OA
BRANCH  10  11
ATOM     11  C   UNL A   1      29.181  27.491  23.405  1.00  0.00     0.120 A 
ATOM     12  C   UNL A   1      28.042  28.241  23.131  1.00  0.00     0.048 A 
ATOM     13  C   UNL A   1      30.438  28.003  23.102  1.00  0.00     0.048 A 
ATOM     14  C   UNL A   1      28.160  29.478  22.495  1.00  0.00     0.029 A 
ATOM     15  C   UNL A   1      30.551  29.249  22.478  1.00  0.00     0.029 A 
ATOM     16  C   UNL A   1      29.412  29.984  22.142  1.00  0.00     0.032 A 
BRANCH  16  17
ATOM     17  N   UNL A   1      29.525  31.257  21.609  1.00  0.00    -0.399 N 
ATOM     18  H   UNL A   1      28.735  31.700  21.222  1.00  0.00     0.156 HD
ATOM     19  H   UNL A   1      30.394  31.719  21.617  1.00  0.00     0.156 HD
ENDBRANCH  16  17
ENDBRANCH  10  11
ENDBRANCH   8  10
ENDBRANCH   5   8
ENDBRANCH   3   4
ENDBRANCH   2   3
ENDBRANCH   1   2
BRANCH   1  20
ATOM     20  C   UNL A   1      31.537  30.779  26.183  1.00  0.00     0.002 C 
BRANCH  20  21
ATOM     21  C   UNL A   1      31.383  32.257  26.555  1.00  0.00     0.021 C 
BRANCH  21  22
ATOM     22  C   UNL A   1      32.608  32.876  27.220  1.00  0.00     0.116 C 
BRANCH  22  23
ATOM     23  N   UNL A   1      32.378  34.258  27.611  1.00  0.00    -0.352 N 
ATOM     24  C   UNL A   1      32.968  34.989  28.609  1.00  0.00     0.251 C 
ATOM     25  H   UNL A   1      31.701  34.739  27.082  1.00  0.00     0.163 HD
ATOM     26  O   UNL A   1      32.513  36.088  28.924  1.00  0.00    -0.269 OA
BRANCH  24  27
ATOM     27  C   UNL A   1      34.143  34.450  29.325  1.00  0.00     0.039 A 
ATOM     28  C   UNL A   1      33.950  33.793  30.543  1.00  0.00     0.014 A 
ATOM     29  C   UNL A   1      35.432  34.603  28.805  1.00  0.00     0.014 A 
ATOM     30  C   UNL A   1      35.043  33.235  31.208  1.00  0.00     0.010 A 
ATOM     31  C   UNL A   1      36.509  33.982  29.431  1.00  0.00     0.010 A 
ATOM     32  C   UNL A   1      36.327  33.296  30.642  1.00  0.00    -0.014 A 
BRANCH  32  33
ATOM     33  C   UNL A   1      37.490  32.648  31.301  1.00  0.00     0.031 A 
ATOM     34  C   UNL A   1      38.216  31.523  30.618  1.00  0.00     0.074 A 
ATOM     35  C   UNL A   1      37.853  33.033  32.539  1.00  0.00     0.049 A 
ATOM     36  N   UNL A   1      39.208  30.789  31.058  1.00  0.00    -0.248 NA
ATOM     37  C   UNL A   1      37.750  31.155  29.272  1.00  0.00     0.031 C 
ATOM     38  C   UNL A   1      37.200  34.082  33.324  1.00  0.00     0.029 A 
ATOM     39  N   UNL A   1      38.853  32.579  33.362  1.00  0.00    -0.354 N 
ATOM     40  C   UNL A   1      39.473  29.869  30.052  1.00  0.00     0.074 A 
ATOM     41  C   UNL A   1      38.503  30.099  29.003  1.00  0.00     0.031 C 
ATOM     42  C   UNL A   1      37.829  34.207  34.502  1.00  0.00     0.029 A 
ATOM     43  C   UNL A   1      38.902  33.220  34.576  1.00  0.00     0.049 A 
ATOM     44  H   UNL A   1      39.477  31.861  33.106  1.00  0.00     0.167 HD
ATOM     45  C   UNL A   1      40.452  28.935  29.998  1.00  0.00     0.037 A 
ATOM     46  C   UNL A   1      39.714  33.026  35.633  1.00  0.00     0.037 A 
ATOM     47  C   UNL A   1      41.426  28.722  31.036  1.00  0.00     0.049 A 
ATOM     48  C   UNL A   1      40.781  31.968  35.554  1.00  0.00     0.074 A 
ATOM     49  C   UNL A   1      42.492  27.840  31.051  1.00  0.00     0.029 A 
ATOM     50  N   UNL A   1      41.452  29.400  32.247  1.00  0.00    -0.354 N 
ATOM     51  N   UNL A   1      41.068  31.153  34.568  1.00  0.00    -0.248 NA
ATOM     52  C   UNL A   1      41.645  31.810  36.732  1.00  0.00     0.031 C 
ATOM     53  C   UNL A   1      43.128  27.943  32.293  1.00  0.00     0.029 A 
ATOM     54  C   UNL A   1      42.497  28.934  33.028  1.00  0.00     0.049 A 
ATOM     55  H   UNL A   1      40.819  30.106  32.513  1.00  0.00     0.167 HD
ATOM     56  C   UNL A   1      42.160  30.407  34.994  1.00  0.00     0.074 A 
ATOM     57  C   UNL A   1      42.495  30.880  36.321  1.00  0.00     0.031 C 
ATOM     58  C   UNL A   1      42.825  29.420  34.344  1.00  0.00     0.037 A 
BRANCH  45  59
ATOM     59  C   UNL A   1      40.519  28.066  28.773  1.00  0.00     0.064 A 
ATOM     60  C   UNL A   1      41.285  28.427  27.655  1.00  0.00     0.173 A 
ATOM     61  C   UNL A   1      39.839  26.839  28.732  1.00  0.00     0.173 A 
ATOM     62  F   UNL A   1      41.947  29.594  27.637  1.00  0.00    -0.203 F 
ATOM     63  C   UNL A   1      41.345  27.608  26.530  1.00  0.00     0.198 A 
ATOM     64  C   UNL A   1      39.928  26.006  27.620  1.00  0.00     0.198 A 
ATOM     65  F   UNL A   1      39.096  26.441  29.776  1.00  0.00    -0.203 F 
ATOM     66  F   UNL A   1      42.042  27.999  25.454  1.00  0.00    -0.200 F 
ATOM     67  C   UNL A   1      40.673  26.395  26.517  1.00  0.00     0.200 A 
ATOM     68  F   UNL A   1      39.291  24.828  27.614  1.00  0.00    -0.200 F 
ATOM     69  F   UNL A   1      40.739  25.603  25.438  1.00  0.00    -0.200 F 
ENDBRANCH  45  59
BRANCH  46  70
ATOM     70  C   UNL A   1      39.561  33.865  36.852  1.00  0.00     0.064 A 
ATOM     71  C   UNL A   1      38.798  33.420  37.941  1.00  0.00     0.173 A 
ATOM     72  C   UNL A   1      40.164  35.127  36.951  1.00  0.00     0.173 A 
ATOM     73  F   UNL A   1      38.185  32.228  37.885  1.00  0.00    -0.203 F 
ATOM     74  C   UNL A   1      38.621  34.217  39.070  1.00  0.00     0.198 A 
ATOM     75  C   UNL A   1      40.013  35.910  38.094  1.00  0.00     0.198 A 
ATOM     76  F   UNL A   1      40.908  35.598  35.939  1.00  0.00    -0.203 F 
ATOM     77  F   UNL A   1      37.843  33.788  40.074  1.00  0.00    -0.200 F 
ATOM     78  C   UNL A   1      39.233  35.458  39.148  1.00  0.00     0.200 A 
ATOM     79  F   UNL A   1      40.619  37.102  38.172  1.00  0.00    -0.200 F 
ATOM     80  F   UNL A   1      39.067  36.223  40.236  1.00  0.00    -0.200 F 
ENDBRANCH  46  70
BRANCH  58  81
ATOM     81  C   UNL A   1      44.008  28.811  35.041  1.00  0.00     0.064 A 
ATOM     82  C   UNL A   1      43.881  27.684  35.866  1.00  0.00     0.173 A 
ATOM     83  C   UNL A   1      45.293  29.341  34.847  1.00  0.00     0.173 A 
ATOM     84  F   UNL A   1      42.672  27.149  36.097  1.00  0.00    -0.203 F 
ATOM     85  C   UNL A   1      44.992  27.128  36.494  1.00  0.00     0.198 A 
ATOM     86  C   UNL A   1      46.407  28.761  35.448  1.00  0.00     0.198 A 
ATOM     87  F   UNL A   1      45.472  30.413  34.061  1.00  0.00    -0.203 F 
ATOM     88  F   UNL A   1      44.839  26.084  37.320  1.00  0.00    -0.200 F 
ATOM     89  C   UNL A   1      46.254  27.660  36.278  1.00  0.00     0.200 A 
ATOM     90  F   UNL A   1      47.627  29.268  35.225  1.00  0.00    -0.200 F 
ATOM     91  F   UNL A   1      47.324  27.118  36.876  1.00  0.00    -0.200 F 
ENDBRANCH  58  81
ENDBRANCH  32  33
ENDBRANCH  24  27
ENDBRANCH  22  23
ENDBRANCH  21  22
ENDBRANCH  20  21
ENDBRANCH   1  20
TORSDOF 16
ENDMDL
MODEL 2
REMARK VINA RESULT:     -11.7      0.116      1.715
REMARK SMILES C[C@@H](Oc1ccc(N)cc1)C(=O)NCCCCCCNC(=O)c1ccc(-c2c3nc(c(-c4c(F)c(F)c(F)c(F)c4F)c4ccc([nH]4)c(-c4c(F)c(F)c(F)c(F)c4F)c4nc(c(-c5c(F)c(F)c(F)c(F)c5F)c5ccc2[nH]5)C=C4)C=C3)cc1
REMARK SMILES IDX 16 1 15 2 14 3 13 4 11 5 12 6 2 8 1 9 3 10 4 11 5 12 10 13
REMARK SMILES IDX 6 14 9 15 7 16 8 17 17 20 18 21 19 22 20 23 21 24 22 26
REMARK SMILES IDX 23 27 24 28 85 29 25 30 84 31 26 32 27 33 28 34 78 35 29 36
REMARK SMILES IDX 83 37 77 38 79 39 30 40 82 41 76 42 75 43 31 45 63 46 43 47
REMARK SMILES IDX 62 48 44 49 47 50 61 51 80 52 45 53 46 54 60 56 81 57 48 58
REMARK SMILES IDX 32 59 33 60 41 61 34 62 35 63 39 64 42 65 36 66 37 67 40 68
REMARK SMILES IDX 38 69 64 70 65 71 73 72 66 73 67 74 71 75 74 76 68 77 69 78
REMARK SMILES IDX 72 79 70 80 49 81 50 82 58 83 51 84 52 85 56 86 59 87 53 88
REMARK SMILES IDX 54 89 57 90 55 91
REMARK H PARENT 13 7 8 18 8 19 20 25 79 44 47 55
REMARK Flexibility Score: inf
ROOT
ATOM      1  C   UNL A   1      32.455  29.907  26.962  1.00  0.00     0.002 C 
ENDROOT
BRANCH   1   2
ATOM      2  C   UNL A   1      31.814  28.610  27.462  1.00  0.00     0.021 C 
BRANCH   2   3
ATOM      3  C   UNL A   1      31.897  27.449  26.475  1.00  0.00     0.116 C 
BRANCH   3   4
ATOM      4  N   UNL A   1      30.974  26.383  26.820  1.00  0.00    -0.353 N 
ATOM      5  C   UNL A   1      30.305  25.514  26.002  1.00  0.00     0.260 C 
ATOM      6  O   UNL A   1      29.564  24.678  26.527  1.00  0.00    -0.271 OA
ATOM      7  H   UNL A   1      30.804  26.270  27.783  1.00  0.00     0.163 HD
BRANCH   5   8
ATOM      8  C   UNL A   1      30.424  25.627  24.473  1.00  0.00     0.258 C 
ATOM      9  C   UNL A   1      30.698  24.235  23.909  1.00  0.00     0.064 C 
BRANCH   8  10
ATOM     10  O   UNL A   1      29.212  26.241  24.021  1.00  0.00    -0.481 OA
BRANCH  10  11
ATOM     11  C   UNL A   1      29.319  27.507  23.535  1.00  0.00     0.120 A 
ATOM     12  C   UNL A   1      30.556  28.060  23.222  1.00  0.00     0.048 A 
ATOM     13  C   UNL A   1      28.151  28.154  23.145  1.00  0.00     0.048 A 
ATOM     14  C   UNL A   1      30.623  29.293  22.570  1.00  0.00     0.029 A 
ATOM     15  C   UNL A   1      28.224  29.382  22.481  1.00  0.00     0.029 A 
ATOM     16  C   UNL A   1      29.459  29.977  22.214  1.00  0.00     0.032 A 
BRANCH  16  17
ATOM     17  N   UNL A   1      29.536  31.146  21.476  1.00  0.00    -0.399 N 
ATOM     18  H   UNL A   1      30.334  31.719  21.542  1.00  0.00     0.156 HD
ATOM     19  H   UNL A   1      28.794  31.404  20.883  1.00  0.00     0.156 HD
ENDBRANCH  16  17
ENDBRANCH  10  11
ENDBRANCH   8  10
ENDBRANCH   5   8
ENDBRANCH   3   4
ENDBRANCH   2   3
ENDBRANCH   1   2
BRANCH   1  20
ATOM     20  C   UNL A   1      31.563  30.763  26.058  1.00  0.00     0.002 C 
BRANCH  20  21
ATOM     21  C   UNL A   1      31.379  32.215  26.509  1.00  0.00     0.021 C 
BRANCH  21  22
ATOM     22  C   UNL A   1      32.578  32.810  27.240  1.00  0.00     0.116 C 
BRANCH  22  23
ATOM     23  N   UNL A   1      32.364  34.202  27.600  1.00  0.00    -0.352 N 
ATOM     24  C   UNL A   1      32.962  34.948  28.583  1.00  0.00     0.251 C 
ATOM     25  H   UNL A   1      31.692  34.679  27.061  1.00  0.00     0.163 HD
ATOM     26  O   UNL A   1      32.518  36.059  28.873  1.00  0.00    -0.269 OA
BRANCH  24  27
ATOM     27  C   UNL A   1      34.130  34.413  29.311  1.00  0.00     0.039 A 
ATOM     28  C   UNL A   1      33.921  33.707  30.498  1.00  0.00     0.014 A 
ATOM     29  C   UNL A   1      35.428  34.616  28.833  1.00  0.00     0.014 A 
ATOM     30  C   UNL A   1      35.010  33.152  31.174  1.00  0.00     0.010 A 
ATOM     31  C   UNL A   1      36.504  33.999  29.466  1.00  0.00     0.010 A 
ATOM     32  C   UNL A   1      36.307  33.265  30.645  1.00  0.00    -0.014 A 
BRANCH  32  33
ATOM     33  C   UNL A   1      37.468  32.622  31.313  1.00  0.00     0.031 A 
ATOM     34  C   UNL A   1      38.190  31.485  30.645  1.00  0.00     0.074 A 
ATOM     35  C   UNL A   1      37.832  33.023  32.546  1.00  0.00     0.049 A 
ATOM     36  N   UNL A   1      39.179  30.754  31.095  1.00  0.00    -0.248 NA
ATOM     37  C   UNL A   1      37.722  31.101  29.304  1.00  0.00     0.031 C 
ATOM     38  C   UNL A   1      37.183  34.085  33.316  1.00  0.00     0.029 A 
ATOM     39  N   UNL A   1      38.831  32.576  33.375  1.00  0.00    -0.354 N 
ATOM     40  C   UNL A   1      39.440  29.820  30.101  1.00  0.00     0.074 A 
ATOM     41  C   UNL A   1      38.471  30.039  29.049  1.00  0.00     0.031 C 
ATOM     42  C   UNL A   1      37.813  34.223  34.493  1.00  0.00     0.029 A 
ATOM     43  C   UNL A   1      38.883  33.234  34.580  1.00  0.00     0.049 A 
ATOM     44  H   UNL A   1      39.452  31.853  33.128  1.00  0.00     0.167 HD
ATOM     45  C   UNL A   1      40.417  28.882  30.059  1.00  0.00     0.037 A 
ATOM     46  C   UNL A   1      39.694  33.051  35.638  1.00  0.00     0.037 A 
ATOM     47  C   UNL A   1      41.390  28.680  31.099  1.00  0.00     0.049 A 
ATOM     48  C   UNL A   1      40.758  31.989  35.573  1.00  0.00     0.074 A 
ATOM     49  C   UNL A   1      42.453  27.794  31.126  1.00  0.00     0.029 A 
ATOM     50  N   UNL A   1      41.418  29.374  32.301  1.00  0.00    -0.354 N 
ATOM     51  N   UNL A   1      41.042  31.159  34.599  1.00  0.00    -0.248 NA
ATOM     52  C   UNL A   1      41.622  31.843  36.753  1.00  0.00     0.031 C 
ATOM     53  C   UNL A   1      43.090  27.912  32.367  1.00  0.00     0.029 A 
ATOM     54  C   UNL A   1      42.463  28.915  33.088  1.00  0.00     0.049 A 
ATOM     55  H   UNL A   1      40.788  30.085  32.558  1.00  0.00     0.167 HD
ATOM     56  C   UNL A   1      42.131  30.416  35.035  1.00  0.00     0.074 A 
ATOM     57  C   UNL A   1      42.468  30.905  36.354  1.00  0.00     0.031 C 
ATOM     58  C   UNL A   1      42.792  29.417  34.398  1.00  0.00     0.037 A 
BRANCH  45  59
ATOM     59  C   UNL A   1      40.480  27.997  28.846  1.00  0.00     0.064 A 
ATOM     60  C   UNL A   1      39.757  26.796  28.772  1.00  0.00     0.173 A 
ATOM     61  C   UNL A   1      41.243  28.371  27.729  1.00  0.00     0.173 A 
ATOM     62  F   UNL A   1      39.019  26.386  29.814  1.00  0.00    -0.203 F 
ATOM     63  C   UNL A   1      39.818  25.991  27.637  1.00  0.00     0.198 A 
ATOM     64  C   UNL A   1      41.275  27.580  26.583  1.00  0.00     0.198 A 
ATOM     65  F   UNL A   1      41.949  29.512  27.744  1.00  0.00    -0.203 F 
ATOM     66  F   UNL A   1      39.159  24.824  27.610  1.00  0.00    -0.200 F 
ATOM     67  C   UNL A   1      40.570  26.387  26.542  1.00  0.00     0.200 A 
ATOM     68  F   UNL A   1      41.990  27.972  25.521  1.00  0.00    -0.200 F 
ATOM     69  F   UNL A   1      40.621  25.615  25.448  1.00  0.00    -0.200 F 
ENDBRANCH  45  59
BRANCH  46  70
ATOM     70  C   UNL A   1      39.545  33.906  36.846  1.00  0.00     0.064 A 
ATOM     71  C   UNL A   1      38.786  33.477  37.944  1.00  0.00     0.173 A 
ATOM     72  C   UNL A   1      40.147  35.171  36.925  1.00  0.00     0.173 A 
ATOM     73  F   UNL A   1      38.174  32.284  37.907  1.00  0.00    -0.203 F 
ATOM     74  C   UNL A   1      38.612  34.289  39.063  1.00  0.00     0.198 A 
ATOM     75  C   UNL A   1      40.000  35.969  38.058  1.00  0.00     0.198 A 
ATOM     76  F   UNL A   1      40.888  35.628  35.905  1.00  0.00    -0.203 F 
ATOM     77  F   UNL A   1      37.838  33.874  40.074  1.00  0.00    -0.200 F 
ATOM     78  C   UNL A   1      39.224  35.532  39.121  1.00  0.00     0.200 A 
ATOM     79  F   UNL A   1      40.605  37.163  38.118  1.00  0.00    -0.200 F 
ATOM     80  F   UNL A   1      39.060  36.311  40.198  1.00  0.00    -0.200 F 
ENDBRANCH  46  70
BRANCH  58  81
ATOM     81  C   UNL A   1      43.974  28.814  35.102  1.00  0.00     0.064 A 
ATOM     82  C   UNL A   1      45.265  29.346  34.968  1.00  0.00     0.173 A 
ATOM     83  C   UNL A   1      43.803  27.711  35.953  1.00  0.00     0.173 A 
ATOM     84  F   UNL A   1      45.485  30.390  34.155  1.00  0.00    -0.203 F 
ATOM     85  C   UNL A   1      46.346  28.779  35.638  1.00  0.00     0.198 A 
ATOM     86  C   UNL A   1      44.880  27.168  36.649  1.00  0.00     0.198 A 
ATOM     87  F   UNL A   1      42.588  27.169  36.123  1.00  0.00    -0.203 F 
ATOM     88  F   UNL A   1      47.578  29.271  35.455  1.00  0.00    -0.200 F 
ATOM     89  C   UNL A   1      46.151  27.697  36.485  1.00  0.00     0.200 A 
ATOM     90  F   UNL A   1      44.687  26.134  37.479  1.00  0.00    -0.200 F 
ATOM     91  F   UNL A   1      47.191  27.159  37.137  1.00  0.00    -0.200 F 
ENDBRANCH  58  81
ENDBRANCH  32  33
ENDBRANCH  24  27
ENDBRANCH  22  23
ENDBRANCH  21  22
ENDBRANCH  20  21
ENDBRANCH   1  20
TORSDOF 16
ENDMDL
MODEL 3
REMARK VINA RESULT:     -11.6      0.604      7.505
REMARK SMILES C[C@@H](Oc1ccc(N)cc1)C(=O)NCCCCCCNC(=O)c1ccc(-c2c3nc(c(-c4c(F)c(F)c(F)c(F)c4F)c4ccc([nH]4)c(-c4c(F)c(F)c(F)c(F)c4F)c4nc(c(-c5c(F)c(F)c(F)c(F)c5F)c5ccc2[nH]5)C=C4)C=C3)cc1
REMARK SMILES IDX 16 1 15 2 14 3 13 4 11 5 12 6 2 8 1 9 3 10 4 11 5 12 10 13
REMARK SMILES IDX 6 14 9 15 7 16 8 17 17 20 18 21 19 22 20 23 21 24 22 26
REMARK SMILES IDX 23 27 24 28 85 29 25 30 84 31 26 32 27 33 28 34 78 35 29 36
REMARK SMILES IDX 83 37 77 38 79 39 30 40 82 41 76 42 75 43 31 45 63 46 43 47
REMARK SMILES IDX 62 48 44 49 47 50 61 51 80 52 45 53 46 54 60 56 81 57 48 58
REMARK SMILES IDX 32 59 33 60 41 61 34 62 35 63 39 64 42 65 36 66 37 67 40 68
REMARK SMILES IDX 38 69 64 70 65 71 73 72 66 73 67 74 71 75 74 76 68 77 69 78
REMARK SMILES IDX 72 79 70 80 49 81 50 82 58 83 51 84 52 85 56 86 59 87 53 88
REMARK SMILES IDX 54 89 57 90 55 91
REMARK H PARENT 13 7 8 18 8 19 20 25 79 44 47 55
REMARK Flexibility Score: inf
ROOT
ATOM      1  C   UNL A   1      32.365  29.951  26.716  1.00  0.00     0.002 C 
ENDROOT
BRANCH   1   2
ATOM      2  C   UNL A   1      31.728  28.667  27.254  1.00  0.00     0.021 C 
BRANCH   2   3
ATOM      3  C   UNL A   1      32.149  27.402  26.513  1.00  0.00     0.116 C 
BRANCH   3   4
ATOM      4  N   UNL A   1      31.298  26.274  26.850  1.00  0.00    -0.353 N 
ATOM      5  C   UNL A   1      30.554  25.470  26.029  1.00  0.00     0.260 C 
ATOM      6  O   UNL A   1      29.902  24.559  26.547  1.00  0.00    -0.271 OA
ATOM      7  H   UNL A   1      31.250  26.056  27.809  1.00  0.00     0.163 HD
BRANCH   5   8
ATOM      8  C   UNL A   1      30.484  25.745  24.518  1.00  0.00     0.258 C 
ATOM      9  C   UNL A   1      30.654  24.417  23.781  1.00  0.00     0.064 C 
BRANCH   8  10
ATOM     10  O   UNL A   1      29.239  26.414  24.289  1.00  0.00    -0.481 OA
BRANCH  10  11
ATOM     11  C   UNL A   1      29.284  27.523  23.503  1.00  0.00     0.120 A 
ATOM     12  C   UNL A   1      28.125  28.197  23.134  1.00  0.00     0.048 A 
ATOM     13  C   UNL A   1      30.527  28.101  23.267  1.00  0.00     0.048 A 
ATOM     14  C   UNL A   1      28.212  29.422  22.471  1.00  0.00     0.029 A 
ATOM     15  C   UNL A   1      30.608  29.335  22.615  1.00  0.00     0.029 A 
ATOM     16  C   UNL A   1      29.454  29.993  22.184  1.00  0.00     0.032 A 
BRANCH  16  17
ATOM     17  N   UNL A   1      29.527  31.256  21.622  1.00  0.00    -0.399 N 
ATOM     18  H   UNL A   1      29.928  31.998  22.130  1.00  0.00     0.156 HD
ATOM     19  H   UNL A   1      29.181  31.412  20.714  1.00  0.00     0.156 HD
ENDBRANCH  16  17
ENDBRANCH  10  11
ENDBRANCH   8  10
ENDBRANCH   5   8
ENDBRANCH   3   4
ENDBRANCH   2   3
ENDBRANCH   1   2
BRANCH   1  20
ATOM     20  C   UNL A   1      31.409  30.885  25.967  1.00  0.00     0.002 C 
BRANCH  20  21
ATOM     21  C   UNL A   1      31.328  32.311  26.517  1.00  0.00     0.021 C 
BRANCH  21  22
ATOM     22  C   UNL A   1      32.596  32.801  27.207  1.00  0.00     0.116 C 
BRANCH  22  23
ATOM     23  N   UNL A   1      32.492  34.189  27.625  1.00  0.00    -0.352 N 
ATOM     24  C   UNL A   1      33.156  34.848  28.628  1.00  0.00     0.251 C 
ATOM     25  H   UNL A   1      31.851  34.736  27.115  1.00  0.00     0.163 HD
ATOM     26  O   UNL A   1      32.800  35.977  28.968  1.00  0.00    -0.269 OA
BRANCH  24  27
ATOM     27  C   UNL A   1      34.289  34.198  29.317  1.00  0.00     0.039 A 
ATOM     28  C   UNL A   1      34.024  33.252  30.310  1.00  0.00     0.014 A 
ATOM     29  C   UNL A   1      35.609  34.528  28.994  1.00  0.00     0.014 A 
ATOM     30  C   UNL A   1      35.082  32.592  30.937  1.00  0.00     0.010 A 
ATOM     31  C   UNL A   1      36.660  33.816  29.566  1.00  0.00     0.010 A 
ATOM     32  C   UNL A   1      36.408  32.845  30.547  1.00  0.00    -0.014 A 
BRANCH  32  33
ATOM     33  C   UNL A   1      37.542  32.102  31.154  1.00  0.00     0.031 A 
ATOM     34  C   UNL A   1      38.028  32.458  32.531  1.00  0.00     0.074 A 
ATOM     35  C   UNL A   1      38.172  31.149  30.441  1.00  0.00     0.049 A 
ATOM     36  N   UNL A   1      39.043  31.973  33.203  1.00  0.00    -0.248 NA
ATOM     37  C   UNL A   1      37.294  33.519  33.239  1.00  0.00     0.031 C 
ATOM     38  C   UNL A   1      37.823  30.743  29.079  1.00  0.00     0.029 A 
ATOM     39  N   UNL A   1      39.246  30.355  30.758  1.00  0.00    -0.354 N 
ATOM     40  C   UNL A   1      39.074  32.676  34.400  1.00  0.00     0.074 A 
ATOM     41  C   UNL A   1      38.014  33.659  34.342  1.00  0.00     0.031 C 
ATOM     42  C   UNL A   1      38.651  29.763  28.686  1.00  0.00     0.029 A 
ATOM     43  C   UNL A   1      39.615  29.498  29.749  1.00  0.00     0.049 A 
ATOM     44  H   UNL A   1      39.708  30.396  31.626  1.00  0.00     0.167 HD
ATOM     45  C   UNL A   1      39.897  32.500  35.463  1.00  0.00     0.037 A 
ATOM     46  C   UNL A   1      40.623  28.609  29.686  1.00  0.00     0.037 A 
ATOM     47  C   UNL A   1      40.938  31.508  35.524  1.00  0.00     0.049 A 
ATOM     48  C   UNL A   1      41.535  28.446  30.873  1.00  0.00     0.074 A 
ATOM     49  C   UNL A   1      41.788  31.213  36.576  1.00  0.00     0.029 A 
ATOM     50  N   UNL A   1      41.274  30.650  34.486  1.00  0.00    -0.354 N 
ATOM     51  N   UNL A   1      41.510  29.067  32.027  1.00  0.00    -0.248 NA
ATOM     52  C   UNL A   1      42.610  27.452  30.751  1.00  0.00     0.031 C 
ATOM     53  C   UNL A   1      42.674  30.215  36.156  1.00  0.00     0.029 A 
ATOM     54  C   UNL A   1      42.337  29.845  34.864  1.00  0.00     0.049 A 
ATOM     55  H   UNL A   1      40.825  30.619  33.611  1.00  0.00     0.167 HD
ATOM     56  C   UNL A   1      42.543  28.520  32.777  1.00  0.00     0.074 A 
ATOM     57  C   UNL A   1      43.164  27.505  31.953  1.00  0.00     0.031 C 
ATOM     58  C   UNL A   1      42.940  28.832  34.036  1.00  0.00     0.037 A 
BRANCH  45  59
ATOM     59  C   UNL A   1      39.706  33.403  36.648  1.00  0.00     0.064 A 
ATOM     60  C   UNL A   1      40.379  34.629  36.756  1.00  0.00     0.173 A 
ATOM     61  C   UNL A   1      38.809  33.056  37.671  1.00  0.00     0.173 A 
ATOM     62  F   UNL A   1      41.255  35.005  35.812  1.00  0.00    -0.203 F 
ATOM     63  C   UNL A   1      40.185  35.460  37.857  1.00  0.00     0.198 A 
ATOM     64  C   UNL A   1      38.592  33.905  38.754  1.00  0.00     0.198 A 
ATOM     65  F   UNL A   1      38.134  31.898  37.616  1.00  0.00    -0.203 F 
ATOM     66  F   UNL A   1      40.879  36.602  37.963  1.00  0.00    -0.200 F 
ATOM     67  C   UNL A   1      39.287  35.101  38.850  1.00  0.00     0.200 A 
ATOM     68  F   UNL A   1      37.713  33.564  39.705  1.00  0.00    -0.200 F 
ATOM     69  F   UNL A   1      39.094  35.906  39.904  1.00  0.00    -0.200 F 
ENDBRANCH  45  59
BRANCH  46  70
ATOM     70  C   UNL A   1      40.815  27.788  28.460  1.00  0.00     0.064 A 
ATOM     71  C   UNL A   1      41.622  28.243  27.408  1.00  0.00     0.173 A 
ATOM     72  C   UNL A   1      40.191  26.541  28.311  1.00  0.00     0.173 A 
ATOM     73  F   UNL A   1      42.225  29.438  27.496  1.00  0.00    -0.203 F 
ATOM     74  C   UNL A   1      41.777  27.494  26.243  1.00  0.00     0.198 A 
ATOM     75  C   UNL A   1      40.371  25.779  27.158  1.00  0.00     0.198 A 
ATOM     76  F   UNL A   1      39.411  26.058  29.289  1.00  0.00    -0.203 F 
ATOM     77  F   UNL A   1      42.512  27.978  25.232  1.00  0.00    -0.200 F 
ATOM     78  C   UNL A   1      41.155  26.261  26.121  1.00  0.00     0.200 A 
ATOM     79  F   UNL A   1      39.782  24.581  27.050  1.00  0.00    -0.200 F 
ATOM     80  F   UNL A   1      41.306  25.540  25.002  1.00  0.00    -0.200 F 
ENDBRANCH  46  70
BRANCH  58  81
ATOM     81  C   UNL A   1      44.076  28.038  34.616  1.00  0.00     0.064 A 
ATOM     82  C   UNL A   1      43.862  26.826  35.290  1.00  0.00     0.173 A 
ATOM     83  C   UNL A   1      45.400  28.478  34.461  1.00  0.00     0.173 A 
ATOM     84  F   UNL A   1      42.615  26.369  35.479  1.00  0.00    -0.203 F 
ATOM     85  C   UNL A   1      44.929  26.099  35.811  1.00  0.00     0.198 A 
ATOM     86  C   UNL A   1      46.467  27.732  34.953  1.00  0.00     0.198 A 
ATOM     87  F   UNL A   1      45.660  29.626  33.819  1.00  0.00    -0.203 F 
ATOM     88  F   UNL A   1      44.698  24.972  36.496  1.00  0.00    -0.200 F 
ATOM     89  C   UNL A   1      46.230  26.547  35.634  1.00  0.00     0.200 A 
ATOM     90  F   UNL A   1      47.723  28.158  34.767  1.00  0.00    -0.200 F 
ATOM     91  F   UNL A   1      47.257  25.841  36.129  1.00  0.00    -0.200 F 
ENDBRANCH  58  81
ENDBRANCH  32  33
ENDBRANCH  24  27
ENDBRANCH  22  23
ENDBRANCH  21  22
ENDBRANCH  20  21
ENDBRANCH   1  20
TORSDOF 16
ENDMDL
