MODEL 1
REMARK VINA RESULT:     -11.6      0.000      0.000
REMARK SMILES C[C@@H](C(=O)NCCCCCCNC(=O)c1ccc(-c2c3nc(c(-c4c(F)c(F)c(F)c(F)c4F)c4ccc([nH]4)c(-c4c(F)c(F)c(F)c(F)c4F)c4nc(c(-c5c(F)c(F)c(F)c(F)c5F)c5ccc2[nH]5)C=C4)C=C3)cc1)c1ccc2c3cc(Cl)ccc3n(C(=O)c3ccc(Cl)cc3)c2c1
REMARK SMILES IDX 8 1 7 2 6 3 5 4 3 5 4 6 2 8 1 9 78 10 79 11 100 12 80 13
REMARK SMILES IDX 99 14 81 15 89 16 82 17 88 18 83 19 87 20 84 21 86 22 85 23
REMARK SMILES IDX 90 24 91 25 92 26 93 27 98 28 94 29 97 30 95 31 96 32 9 33
REMARK SMILES IDX 10 34 11 35 12 36 13 37 14 39 15 40 16 41 77 42 17 43 76 44
REMARK SMILES IDX 18 45 19 46 20 47 70 48 21 49 75 50 69 51 71 52 22 53 74 54
REMARK SMILES IDX 68 55 67 56 23 58 55 59 35 60 54 61 36 62 39 63 53 64 72 65
REMARK SMILES IDX 37 66 38 67 52 69 73 70 40 71 24 72 25 73 33 74 26 75 27 76
REMARK SMILES IDX 31 77 34 78 28 79 29 80 32 81 30 82 56 83 57 84 65 85 58 86
REMARK SMILES IDX 59 87 63 88 66 89 60 90 61 91 64 92 62 93 41 94 42 95 50 96
REMARK SMILES IDX 43 97 44 98 48 99 51 100 45 101 46 102 49 103 47 104
REMARK H PARENT 5 7 12 38 71 57 39 68
REMARK Flexibility Score: inf
ROOT
ATOM      1  C   UNL A   1      40.603  27.446  29.514  1.00  0.00     0.002 C 
ENDROOT
BRANCH   1   2
ATOM      2  C   UNL A   1      41.927  28.141  29.856  1.00  0.00     0.021 C 
BRANCH   2   3
ATOM      3  C   UNL A   1      41.775  29.621  30.226  1.00  0.00     0.116 C 
BRANCH   3   4
ATOM      4  N   UNL A   1      40.673  29.783  31.149  1.00  0.00    -0.356 N 
ATOM      5  C   UNL A   1      39.742  30.781  31.193  1.00  0.00     0.227 C 
ATOM      6  O   UNL A   1      39.191  30.975  32.278  1.00  0.00    -0.274 OA
ATOM      7  H   UNL A   1      40.583  29.084  31.836  1.00  0.00     0.163 HD
BRANCH   5   8
ATOM      8  C   UNL A   1      39.422  31.568  29.910  1.00  0.00     0.105 C 
ATOM      9  C   UNL A   1      39.297  33.060  30.269  1.00  0.00     0.023 C 
BRANCH   8  10
ATOM     10  C   UNL A   1      38.196  31.049  29.147  1.00  0.00    -0.034 A 
ATOM     11  C   UNL A   1      38.163  29.771  28.578  1.00  0.00     0.005 A 
ATOM     12  C   UNL A   1      37.078  31.877  28.965  1.00  0.00     0.032 A 
ATOM     13  C   UNL A   1      36.993  29.256  28.003  1.00  0.00     0.011 A 
ATOM     14  C   UNL A   1      35.920  31.380  28.340  1.00  0.00     0.057 A 
ATOM     15  C   UNL A   1      35.841  30.061  27.924  1.00  0.00     0.008 A 
ATOM     16  N   UNL A   1      34.703  32.014  28.061  1.00  0.00    -0.276 N 
ATOM     17  C   UNL A   1      34.507  29.836  27.493  1.00  0.00     0.009 A 
ATOM     18  C   UNL A   1      33.825  31.062  27.531  1.00  0.00     0.057 A 
ATOM     19  C   UNL A   1      33.842  28.675  27.043  1.00  0.00     0.031 A 
ATOM     20  C   UNL A   1      32.521  31.163  27.006  1.00  0.00     0.029 A 
ATOM     21  C   UNL A   1      32.528  28.769  26.598  1.00  0.00     0.041 A 
ATOM     22  C   UNL A   1      31.882  29.998  26.559  1.00  0.00     0.023 A 
ATOM     23  Cl  UNL A   1      31.712  27.351  26.064  1.00  0.00    -0.084 Cl
BRANCH  16  24
ATOM     24  C   UNL A   1      34.516  33.406  28.261  1.00  0.00     0.262 C 
ATOM     25  O   UNL A   1      34.793  34.122  27.294  1.00  0.00    -0.268 OA
BRANCH  24  26
ATOM     26  C   UNL A   1      34.091  34.131  29.493  1.00  0.00     0.040 A 
ATOM     27  C   UNL A   1      33.280  35.272  29.311  1.00  0.00     0.015 A 
ATOM     28  C   UNL A   1      34.544  33.837  30.782  1.00  0.00     0.015 A 
ATOM     29  C   UNL A   1      32.905  36.078  30.387  1.00  0.00     0.021 A 
ATOM     30  C   UNL A   1      34.137  34.626  31.869  1.00  0.00     0.021 A 
ATOM     31  C   UNL A   1      33.325  35.742  31.667  1.00  0.00     0.041 A 
ATOM     32  Cl  UNL A   1      32.860  36.725  33.000  1.00  0.00    -0.084 Cl
ENDBRANCH  24  26
ENDBRANCH  16  24
ENDBRANCH   8  10
ENDBRANCH   5   8
ENDBRANCH   3   4
ENDBRANCH   2   3
ENDBRANCH   1   2
BRANCH   1  33
ATOM     33  C   UNL A   1      40.459  27.036  28.048  1.00  0.00     0.002 C 
BRANCH  33  34
ATOM     34  C   UNL A   1      39.839  25.654  27.833  1.00  0.00     0.021 C 
BRANCH  34  35
ATOM     35  C   UNL A   1      39.986  25.106  26.417  1.00  0.00     0.116 C 
BRANCH  35  36
ATOM     36  N   UNL A   1      40.772  23.886  26.387  1.00  0.00    -0.352 N 
ATOM     37  C   UNL A   1      42.124  23.721  26.231  1.00  0.00     0.251 C 
ATOM     38  H   UNL A   1      40.259  23.053  26.494  1.00  0.00     0.163 HD
ATOM     39  O   UNL A   1      42.586  22.605  26.022  1.00  0.00    -0.269 OA
BRANCH  37  40
ATOM     40  C   UNL A   1      43.029  24.889  26.296  1.00  0.00     0.039 A 
ATOM     41  C   UNL A   1      43.599  25.219  27.526  1.00  0.00     0.014 A 
ATOM     42  C   UNL A   1      43.287  25.675  25.168  1.00  0.00     0.014 A 
ATOM     43  C   UNL A   1      44.463  26.311  27.617  1.00  0.00     0.010 A 
ATOM     44  C   UNL A   1      44.202  26.723  25.245  1.00  0.00     0.010 A 
ATOM     45  C   UNL A   1      44.793  27.055  26.472  1.00  0.00    -0.014 A 
BRANCH  45  46
ATOM     46  C   UNL A   1      45.763  28.175  26.560  1.00  0.00     0.031 A 
ATOM     47  C   UNL A   1      47.234  27.930  26.368  1.00  0.00     0.074 A 
ATOM     48  C   UNL A   1      45.314  29.415  26.834  1.00  0.00     0.049 A 
ATOM     49  N   UNL A   1      48.224  28.788  26.398  1.00  0.00    -0.248 NA
ATOM     50  C   UNL A   1      47.653  26.540  26.133  1.00  0.00     0.031 C 
ATOM     51  C   UNL A   1      43.917  29.766  27.099  1.00  0.00     0.029 A 
ATOM     52  N   UNL A   1      45.982  30.609  26.938  1.00  0.00    -0.354 N 
ATOM     53  C   UNL A   1      49.376  28.043  26.181  1.00  0.00     0.074 A 
ATOM     54  C   UNL A   1      48.972  26.657  26.082  1.00  0.00     0.031 C 
ATOM     55  C   UNL A   1      43.829  31.088  27.310  1.00  0.00     0.029 A 
ATOM     56  C   UNL A   1      45.163  31.674  27.223  1.00  0.00     0.049 A 
ATOM     57  H   UNL A   1      46.956  30.693  26.819  1.00  0.00     0.167 HD
ATOM     58  C   UNL A   1      50.651  28.479  26.044  1.00  0.00     0.037 A 
ATOM     59  C   UNL A   1      45.456  32.977  27.391  1.00  0.00     0.037 A 
ATOM     60  C   UNL A   1      51.051  29.860  26.133  1.00  0.00     0.049 A 
ATOM     61  C   UNL A   1      46.880  33.433  27.226  1.00  0.00     0.074 A 
ATOM     62  C   UNL A   1      52.314  30.406  25.980  1.00  0.00     0.029 A 
ATOM     63  N   UNL A   1      50.190  30.915  26.398  1.00  0.00    -0.354 N 
ATOM     64  N   UNL A   1      47.950  32.728  26.954  1.00  0.00    -0.248 NA
ATOM     65  C   UNL A   1      47.133  34.873  27.377  1.00  0.00     0.031 C 
ATOM     66  C   UNL A   1      52.223  31.787  26.188  1.00  0.00     0.029 A 
ATOM     67  C   UNL A   1      50.897  32.107  26.425  1.00  0.00     0.049 A 
ATOM     68  H   UNL A   1      49.220  30.830  26.546  1.00  0.00     0.167 HD
ATOM     69  C   UNL A   1      48.998  33.635  26.883  1.00  0.00     0.074 A 
ATOM     70  C   UNL A   1      48.430  34.947  27.109  1.00  0.00     0.031 C 
ATOM     71  C   UNL A   1      50.314  33.404  26.655  1.00  0.00     0.037 A 
BRANCH  58  72
ATOM     72  C   UNL A   1      51.710  27.452  25.764  1.00  0.00     0.064 A 
ATOM     73  C   UNL A   1      52.402  26.816  26.805  1.00  0.00     0.173 A 
ATOM     74  C   UNL A   1      51.999  27.059  24.448  1.00  0.00     0.173 A 
ATOM     75  F   UNL A   1      52.172  27.164  28.081  1.00  0.00    -0.203 F 
ATOM     76  C   UNL A   1      53.359  25.839  26.539  1.00  0.00     0.198 A 
ATOM     77  C   UNL A   1      52.936  26.063  24.188  1.00  0.00     0.198 A 
ATOM     78  F   UNL A   1      51.363  27.632  23.415  1.00  0.00    -0.203 F 
ATOM     79  F   UNL A   1      54.035  25.275  27.550  1.00  0.00    -0.200 F 
ATOM     80  C   UNL A   1      53.619  25.457  25.233  1.00  0.00     0.200 A 
ATOM     81  F   UNL A   1      53.177  25.685  22.925  1.00  0.00    -0.200 F 
ATOM     82  F   UNL A   1      54.531  24.508  24.979  1.00  0.00    -0.200 F 
ENDBRANCH  58  72
BRANCH  59  83
ATOM     83  C   UNL A   1      44.377  33.946  27.715  1.00  0.00     0.064 A 
ATOM     84  C   UNL A   1      43.889  34.079  29.021  1.00  0.00     0.173 A 
ATOM     85  C   UNL A   1      43.800  34.747  26.718  1.00  0.00     0.173 A 
ATOM     86  F   UNL A   1      44.396  33.320  30.005  1.00  0.00    -0.203 F 
ATOM     87  C   UNL A   1      42.845  34.953  29.315  1.00  0.00     0.198 A 
ATOM     88  C   UNL A   1      42.778  35.643  27.019  1.00  0.00     0.198 A 
ATOM     89  F   UNL A   1      44.236  34.664  25.453  1.00  0.00    -0.203 F 
ATOM     90  F   UNL A   1      42.361  35.019  30.562  1.00  0.00    -0.200 F 
ATOM     91  C   UNL A   1      42.293  35.738  28.315  1.00  0.00     0.200 A 
ATOM     92  F   UNL A   1      42.257  36.413  26.051  1.00  0.00    -0.200 F 
ATOM     93  F   UNL A   1      41.289  36.579  28.596  1.00  0.00    -0.200 F 
ENDBRANCH  59  83
BRANCH  71  94
ATOM     94  C   UNL A   1      51.220  34.600  26.624  1.00  0.00     0.064 A 
ATOM     95  C   UNL A   1      51.455  35.311  25.438  1.00  0.00     0.173 A 
ATOM     96  C   UNL A   1      51.849  35.048  27.795  1.00  0.00     0.173 A 
ATOM     97  F   UNL A   1      50.888  34.913  24.289  1.00  0.00    -0.203 F 
ATOM     98  C   UNL A   1      52.317  36.405  25.418  1.00  0.00     0.198 A 
ATOM     99  C   UNL A   1      52.685  36.162  27.777  1.00  0.00     0.198 A 
ATOM    100  F   UNL A   1      51.651  34.409  28.957  1.00  0.00    -0.203 F 
ATOM    101  F   UNL A   1      52.573  37.032  24.262  1.00  0.00    -0.200 F 
ATOM    102  C   UNL A   1      52.926  36.832  26.588  1.00  0.00     0.200 A 
ATOM    103  F   UNL A   1      53.264  36.580  28.911  1.00  0.00    -0.200 F 
ATOM    104  F   UNL A   1      53.757  37.884  26.566  1.00  0.00    -0.200 F 
ENDBRANCH  71  94
ENDBRANCH  45  46
ENDBRANCH  37  40
ENDBRANCH  35  36
ENDBRANCH  34  35
ENDBRANCH  33  34
ENDBRANCH   1  33
TORSDOF 16
ENDMDL
MODEL 2
REMARK VINA RESULT:     -11.5      0.472      6.850
REMARK SMILES C[C@@H](C(=O)NCCCCCCNC(=O)c1ccc(-c2c3nc(c(-c4c(F)c(F)c(F)c(F)c4F)c4ccc([nH]4)c(-c4c(F)c(F)c(F)c(F)c4F)c4nc(c(-c5c(F)c(F)c(F)c(F)c5F)c5ccc2[nH]5)C=C4)C=C3)cc1)c1ccc2c3cc(Cl)ccc3n(C(=O)c3ccc(Cl)cc3)c2c1
REMARK SMILES IDX 8 1 7 2 6 3 5 4 3 5 4 6 2 8 1 9 78 10 79 11 100 12 80 13
REMARK SMILES IDX 99 14 81 15 89 16 82 17 88 18 83 19 87 20 84 21 86 22 85 23
REMARK SMILES IDX 90 24 91 25 92 26 93 27 98 28 94 29 97 30 95 31 96 32 9 33
REMARK SMILES IDX 10 34 11 35 12 36 13 37 14 39 15 40 16 41 77 42 17 43 76 44
REMARK SMILES IDX 18 45 19 46 20 47 70 48 21 49 75 50 69 51 71 52 22 53 74 54
REMARK SMILES IDX 68 55 67 56 23 58 55 59 35 60 54 61 36 62 39 63 53 64 72 65
REMARK SMILES IDX 37 66 38 67 52 69 73 70 40 71 24 72 25 73 33 74 26 75 27 76
REMARK SMILES IDX 31 77 34 78 28 79 29 80 32 81 30 82 56 83 57 84 65 85 58 86
REMARK SMILES IDX 59 87 63 88 66 89 60 90 61 91 64 92 62 93 41 94 42 95 50 96
REMARK SMILES IDX 43 97 44 98 48 99 51 100 45 101 46 102 49 103 47 104
REMARK H PARENT 5 7 12 38 71 57 39 68
REMARK Flexibility Score: inf
ROOT
ATOM      1  C   UNL A   1      41.094  27.378  29.603  1.00  0.00     0.002 C 
ENDROOT
BRANCH   1   2
ATOM      2  C   UNL A   1      42.327  28.262  29.824  1.00  0.00     0.021 C 
BRANCH   2   3
ATOM      3  C   UNL A   1      41.998  29.695  30.257  1.00  0.00     0.116 C 
BRANCH   3   4
ATOM      4  N   UNL A   1      40.835  29.690  31.118  1.00  0.00    -0.356 N 
ATOM      5  C   UNL A   1      39.801  30.582  31.153  1.00  0.00     0.227 C 
ATOM      6  O   UNL A   1      39.173  30.657  32.210  1.00  0.00    -0.274 OA
ATOM      7  H   UNL A   1      40.783  28.949  31.763  1.00  0.00     0.163 HD
BRANCH   5   8
ATOM      8  C   UNL A   1      39.471  31.400  29.892  1.00  0.00     0.105 C 
ATOM      9  C   UNL A   1      39.363  32.884  30.286  1.00  0.00     0.023 C 
BRANCH   8  10
ATOM     10  C   UNL A   1      38.229  30.909  29.135  1.00  0.00    -0.034 A 
ATOM     11  C   UNL A   1      38.165  29.632  28.564  1.00  0.00     0.005 A 
ATOM     12  C   UNL A   1      37.128  31.761  28.960  1.00  0.00     0.032 A 
ATOM     13  C   UNL A   1      36.982  29.143  27.995  1.00  0.00     0.011 A 
ATOM     14  C   UNL A   1      35.956  31.290  28.340  1.00  0.00     0.057 A 
ATOM     15  C   UNL A   1      35.847  29.974  27.923  1.00  0.00     0.008 A 
ATOM     16  N   UNL A   1      34.753  31.951  28.069  1.00  0.00    -0.276 N 
ATOM     17  C   UNL A   1      34.506  29.778  27.500  1.00  0.00     0.009 A 
ATOM     18  C   UNL A   1      33.851  31.019  27.543  1.00  0.00     0.057 A 
ATOM     19  C   UNL A   1      33.814  28.632  27.051  1.00  0.00     0.031 A 
ATOM     20  C   UNL A   1      32.546  31.149  27.024  1.00  0.00     0.029 A 
ATOM     21  C   UNL A   1      32.499  28.756  26.614  1.00  0.00     0.041 A 
ATOM     22  C   UNL A   1      31.880  29.998  26.580  1.00  0.00     0.023 A 
ATOM     23  Cl  UNL A   1      31.650  27.356  26.083  1.00  0.00    -0.084 Cl
BRANCH  16  24
ATOM     24  C   UNL A   1      34.596  33.346  28.272  1.00  0.00     0.262 C 
ATOM     25  O   UNL A   1      34.936  34.061  27.323  1.00  0.00    -0.268 OA
BRANCH  24  26
ATOM     26  C   UNL A   1      34.139  34.075  29.490  1.00  0.00     0.040 A 
ATOM     27  C   UNL A   1      33.246  35.150  29.289  1.00  0.00     0.015 A 
ATOM     28  C   UNL A   1      34.630  33.851  30.778  1.00  0.00     0.015 A 
ATOM     29  C   UNL A   1      32.831  35.958  30.348  1.00  0.00     0.021 A 
ATOM     30  C   UNL A   1      34.185  34.641  31.850  1.00  0.00     0.021 A 
ATOM     31  C   UNL A   1      33.292  35.690  31.630  1.00  0.00     0.041 A 
ATOM     32  Cl  UNL A   1      32.778  36.676  32.943  1.00  0.00    -0.084 Cl
ENDBRANCH  24  26
ENDBRANCH  16  24
ENDBRANCH   8  10
ENDBRANCH   5   8
ENDBRANCH   3   4
ENDBRANCH   2   3
ENDBRANCH   1   2
BRANCH   1  33
ATOM     33  C   UNL A   1      40.654  27.252  28.144  1.00  0.00     0.002 C 
BRANCH  33  34
ATOM     34  C   UNL A   1      39.705  26.084  27.866  1.00  0.00     0.021 C 
BRANCH  34  35
ATOM     35  C   UNL A   1      39.861  25.456  26.484  1.00  0.00     0.116 C 
BRANCH  35  36
ATOM     36  N   UNL A   1      40.465  24.138  26.553  1.00  0.00    -0.352 N 
ATOM     37  C   UNL A   1      41.784  23.775  26.461  1.00  0.00     0.251 C 
ATOM     38  H   UNL A   1      39.834  23.393  26.684  1.00  0.00     0.163 HD
ATOM     39  O   UNL A   1      42.088  22.595  26.332  1.00  0.00    -0.269 OA
BRANCH  37  40
ATOM     40  C   UNL A   1      42.843  24.807  26.500  1.00  0.00     0.039 A 
ATOM     41  C   UNL A   1      43.140  25.499  25.325  1.00  0.00     0.014 A 
ATOM     42  C   UNL A   1      43.564  25.067  27.670  1.00  0.00     0.014 A 
ATOM     43  C   UNL A   1      44.128  26.484  25.333  1.00  0.00     0.010 A 
ATOM     44  C   UNL A   1      44.503  26.096  27.694  1.00  0.00     0.010 A 
ATOM     45  C   UNL A   1      44.799  26.810  26.523  1.00  0.00    -0.014 A 
BRANCH  45  46
ATOM     46  C   UNL A   1      45.804  27.902  26.543  1.00  0.00     0.031 A 
ATOM     47  C   UNL A   1      45.383  29.323  26.795  1.00  0.00     0.074 A 
ATOM     48  C   UNL A   1      47.098  27.610  26.312  1.00  0.00     0.049 A 
ATOM     49  N   UNL A   1      46.122  30.404  26.859  1.00  0.00    -0.248 NA
ATOM     50  C   UNL A   1      43.945  29.570  26.978  1.00  0.00     0.031 C 
ATOM     51  C   UNL A   1      47.618  26.278  25.996  1.00  0.00     0.029 A 
ATOM     52  N   UNL A   1      48.211  28.412  26.304  1.00  0.00    -0.354 N 
ATOM     53  C   UNL A   1      45.241  31.450  27.095  1.00  0.00     0.074 A 
ATOM     54  C   UNL A   1      43.908  30.889  27.101  1.00  0.00     0.031 C 
ATOM     55  C   UNL A   1      48.950  26.351  25.851  1.00  0.00     0.029 A 
ATOM     56  C   UNL A   1      49.375  27.735  26.035  1.00  0.00     0.049 A 
ATOM     57  H   UNL A   1      48.178  29.382  26.476  1.00  0.00     0.167 HD
ATOM     58  C   UNL A   1      45.522  32.757  27.318  1.00  0.00     0.037 A 
ATOM     59  C   UNL A   1      50.642  28.180  25.949  1.00  0.00     0.037 A 
ATOM     60  C   UNL A   1      46.850  33.313  27.321  1.00  0.00     0.049 A 
ATOM     61  C   UNL A   1      50.925  29.635  26.209  1.00  0.00     0.074 A 
ATOM     62  C   UNL A   1      47.241  34.619  27.566  1.00  0.00     0.029 A 
ATOM     63  N   UNL A   1      48.009  32.592  27.069  1.00  0.00    -0.354 N 
ATOM     64  N   UNL A   1      50.089  30.603  26.497  1.00  0.00    -0.248 NA
ATOM     65  C   UNL A   1      52.331  30.056  26.147  1.00  0.00     0.031 C 
ATOM     66  C   UNL A   1      48.631  34.695  27.426  1.00  0.00     0.029 A 
ATOM     67  C   UNL A   1      49.111  33.428  27.140  1.00  0.00     0.049 A 
ATOM     68  H   UNL A   1      48.042  31.628  26.869  1.00  0.00     0.167 HD
ATOM     69  C   UNL A   1      50.866  31.740  26.668  1.00  0.00     0.074 A 
ATOM     70  C   UNL A   1      52.244  31.336  26.482  1.00  0.00     0.031 C 
ATOM     71  C   UNL A   1      50.476  33.007  26.949  1.00  0.00     0.037 A 
BRANCH  58  72
ATOM     72  C   UNL A   1      44.369  33.678  27.597  1.00  0.00     0.064 A 
ATOM     73  C   UNL A   1      43.791  33.755  28.873  1.00  0.00     0.173 A 
ATOM     74  C   UNL A   1      43.874  34.530  26.599  1.00  0.00     0.173 A 
ATOM     75  F   UNL A   1      44.220  32.953  29.859  1.00  0.00    -0.203 F 
ATOM     76  C   UNL A   1      42.744  34.636  29.134  1.00  0.00     0.198 A 
ATOM     77  C   UNL A   1      42.846  35.430  26.871  1.00  0.00     0.198 A 
ATOM     78  F   UNL A   1      44.394  34.501  25.363  1.00  0.00    -0.203 F 
ATOM     79  F   UNL A   1      42.181  34.663  30.350  1.00  0.00    -0.200 F 
ATOM     80  C   UNL A   1      42.279  35.478  28.136  1.00  0.00     0.200 A 
ATOM     81  F   UNL A   1      42.405  36.253  25.910  1.00  0.00    -0.200 F 
ATOM     82  F   UNL A   1      41.280  36.335  28.392  1.00  0.00    -0.200 F 
ENDBRANCH  58  72
BRANCH  59  83
ATOM     83  C   UNL A   1      51.742  27.237  25.623  1.00  0.00     0.064 A 
ATOM     84  C   UNL A   1      52.429  26.548  26.631  1.00  0.00     0.173 A 
ATOM     85  C   UNL A   1      52.142  27.020  24.296  1.00  0.00     0.173 A 
ATOM     86  F   UNL A   1      52.096  26.737  27.917  1.00  0.00    -0.203 F 
ATOM     87  C   UNL A   1      53.493  25.699  26.329  1.00  0.00     0.198 A 
ATOM     88  C   UNL A   1      53.185  26.149  23.992  1.00  0.00     0.198 A 
ATOM     89  F   UNL A   1      51.513  27.650  23.293  1.00  0.00    -0.203 F 
ATOM     90  F   UNL A   1      54.167  25.096  27.316  1.00  0.00    -0.200 F 
ATOM     91  C   UNL A   1      53.867  25.497  25.009  1.00  0.00     0.200 A 
ATOM     92  F   UNL A   1      53.533  25.943  22.714  1.00  0.00    -0.200 F 
ATOM     93  F   UNL A   1      54.890  24.683  24.718  1.00  0.00    -0.200 F 
ENDBRANCH  59  83
BRANCH  71  94
ATOM     94  C   UNL A   1      51.558  34.038  27.088  1.00  0.00     0.064 A 
ATOM     95  C   UNL A   1      51.999  34.791  25.989  1.00  0.00     0.173 A 
ATOM     96  C   UNL A   1      52.151  34.285  28.335  1.00  0.00     0.173 A 
ATOM     97  F   UNL A   1      51.474  34.582  24.773  1.00  0.00    -0.203 F 
ATOM     98  C   UNL A   1      53.020  35.727  26.128  1.00  0.00     0.198 A 
ATOM     99  C   UNL A   1      53.150  35.245  28.475  1.00  0.00     0.198 A 
ATOM    100  F   UNL A   1      51.760  33.598  29.418  1.00  0.00    -0.203 F 
ATOM    101  F   UNL A   1      53.467  36.392  25.053  1.00  0.00    -0.200 F 
ATOM    102  C   UNL A   1      53.591  35.957  27.371  1.00  0.00     0.200 A 
ATOM    103  F   UNL A   1      53.692  35.473  29.679  1.00  0.00    -0.200 F 
ATOM    104  F   UNL A   1      54.575  36.857  27.501  1.00  0.00    -0.200 F 
ENDBRANCH  71  94
ENDBRANCH  45  46
ENDBRANCH  37  40
ENDBRANCH  35  36
ENDBRANCH  34  35
ENDBRANCH  33  34
ENDBRANCH   1  33
TORSDOF 16
ENDMDL
MODEL 3
REMARK VINA RESULT:     -11.4      3.684      8.999
REMARK SMILES C[C@@H](C(=O)NCCCCCCNC(=O)c1ccc(-c2c3nc(c(-c4c(F)c(F)c(F)c(F)c4F)c4ccc([nH]4)c(-c4c(F)c(F)c(F)c(F)c4F)c4nc(c(-c5c(F)c(F)c(F)c(F)c5F)c5ccc2[nH]5)C=C4)C=C3)cc1)c1ccc2c3cc(Cl)ccc3n(C(=O)c3ccc(Cl)cc3)c2c1
REMARK SMILES IDX 8 1 7 2 6 3 5 4 3 5 4 6 2 8 1 9 78 10 79 11 100 12 80 13
REMARK SMILES IDX 99 14 81 15 89 16 82 17 88 18 83 19 87 20 84 21 86 22 85 23
REMARK SMILES IDX 90 24 91 25 92 26 93 27 98 28 94 29 97 30 95 31 96 32 9 33
REMARK SMILES IDX 10 34 11 35 12 36 13 37 14 39 15 40 16 41 77 42 17 43 76 44
REMARK SMILES IDX 18 45 19 46 20 47 70 48 21 49 75 50 69 51 71 52 22 53 74 54
REMARK SMILES IDX 68 55 67 56 23 58 55 59 35 60 54 61 36 62 39 63 53 64 72 65
REMARK SMILES IDX 37 66 38 67 52 69 73 70 40 71 24 72 25 73 33 74 26 75 27 76
REMARK SMILES IDX 31 77 34 78 28 79 29 80 32 81 30 82 56 83 57 84 65 85 58 86
REMARK SMILES IDX 59 87 63 88 66 89 60 90 61 91 64 92 62 93 41 94 42 95 50 96
REMARK SMILES IDX 43 97 44 98 48 99 51 100 45 101 46 102 49 103 47 104
REMARK H PARENT 5 7 12 38 71 57 39 68
REMARK Flexibility Score: inf
ROOT
ATOM      1  C   UNL A   1      37.059  23.212  25.736  1.00  0.00     0.002 C 
ENDROOT
BRANCH   1   2
ATOM      2  C   UNL A   1      35.943  23.694  24.801  1.00  0.00     0.021 C 
BRANCH   2   3
ATOM      3  C   UNL A   1      34.862  24.526  25.500  1.00  0.00     0.116 C 
BRANCH   3   4
ATOM      4  N   UNL A   1      34.296  25.476  24.567  1.00  0.00    -0.356 N 
ATOM      5  C   UNL A   1      33.225  26.306  24.744  1.00  0.00     0.227 C 
ATOM      6  O   UNL A   1      32.648  26.686  23.724  1.00  0.00    -0.274 OA
ATOM      7  H   UNL A   1      34.739  25.530  23.690  1.00  0.00     0.163 HD
BRANCH   5   8
ATOM      8  C   UNL A   1      32.829  26.728  26.169  1.00  0.00     0.105 C 
ATOM      9  C   UNL A   1      31.369  26.309  26.417  1.00  0.00     0.023 C 
BRANCH   8  10
ATOM     10  C   UNL A   1      33.066  28.214  26.470  1.00  0.00    -0.034 A 
ATOM     11  C   UNL A   1      32.093  29.187  26.213  1.00  0.00     0.005 A 
ATOM     12  C   UNL A   1      34.302  28.641  26.979  1.00  0.00     0.032 A 
ATOM     13  C   UNL A   1      32.265  30.518  26.616  1.00  0.00     0.011 A 
ATOM     14  C   UNL A   1      34.497  29.989  27.335  1.00  0.00     0.057 A 
ATOM     15  C   UNL A   1      33.471  30.913  27.226  1.00  0.00     0.008 A 
ATOM     16  N   UNL A   1      35.627  30.628  27.858  1.00  0.00    -0.276 N 
ATOM     17  C   UNL A   1      33.932  32.121  27.812  1.00  0.00     0.009 A 
ATOM     18  C   UNL A   1      35.283  31.953  28.152  1.00  0.00     0.057 A 
ATOM     19  C   UNL A   1      33.297  33.360  28.047  1.00  0.00     0.031 A 
ATOM     20  C   UNL A   1      36.040  33.050  28.611  1.00  0.00     0.029 A 
ATOM     21  C   UNL A   1      34.033  34.416  28.574  1.00  0.00     0.041 A 
ATOM     22  C   UNL A   1      35.390  34.272  28.832  1.00  0.00     0.023 A 
ATOM     23  Cl  UNL A   1      33.255  35.921  28.875  1.00  0.00    -0.084 Cl
BRANCH  16  24
ATOM     24  C   UNL A   1      36.879  29.971  27.973  1.00  0.00     0.262 C 
ATOM     25  O   UNL A   1      37.560  29.946  26.944  1.00  0.00    -0.268 OA
BRANCH  24  26
ATOM     26  C   UNL A   1      37.461  29.254  29.144  1.00  0.00     0.040 A 
ATOM     27  C   UNL A   1      37.181  29.788  30.420  1.00  0.00     0.015 A 
ATOM     28  C   UNL A   1      38.358  28.186  29.053  1.00  0.00     0.015 A 
ATOM     29  C   UNL A   1      37.752  29.252  31.575  1.00  0.00     0.021 A 
ATOM     30  C   UNL A   1      38.904  27.624  30.217  1.00  0.00     0.021 A 
ATOM     31  C   UNL A   1      38.603  28.160  31.470  1.00  0.00     0.041 A 
ATOM     32  Cl  UNL A   1      39.305  27.488  32.889  1.00  0.00    -0.084 Cl
ENDBRANCH  24  26
ENDBRANCH  16  24
ENDBRANCH   8  10
ENDBRANCH   5   8
ENDBRANCH   3   4
ENDBRANCH   2   3
ENDBRANCH   1   2
BRANCH   1  33
ATOM     33  C   UNL A   1      37.884  24.331  26.373  1.00  0.00     0.002 C 
BRANCH  33  34
ATOM     34  C   UNL A   1      39.279  23.906  26.836  1.00  0.00     0.021 C 
BRANCH  34  35
ATOM     35  C   UNL A   1      40.345  24.992  26.716  1.00  0.00     0.116 C 
BRANCH  35  36
ATOM     36  N   UNL A   1      41.460  24.568  25.889  1.00  0.00    -0.352 N 
ATOM     37  C   UNL A   1      42.588  25.256  25.524  1.00  0.00     0.251 C 
ATOM     38  H   UNL A   1      41.397  23.650  25.538  1.00  0.00     0.163 HD
ATOM     39  O   UNL A   1      43.323  24.810  24.650  1.00  0.00    -0.269 OA
BRANCH  37  40
ATOM     40  C   UNL A   1      42.915  26.545  26.170  1.00  0.00     0.039 A 
ATOM     41  C   UNL A   1      42.383  27.715  25.624  1.00  0.00     0.014 A 
ATOM     42  C   UNL A   1      43.764  26.611  27.280  1.00  0.00     0.014 A 
ATOM     43  C   UNL A   1      42.666  28.946  26.217  1.00  0.00     0.010 A 
ATOM     44  C   UNL A   1      43.991  27.832  27.910  1.00  0.00     0.010 A 
ATOM     45  C   UNL A   1      43.450  29.012  27.381  1.00  0.00    -0.014 A 
BRANCH  45  46
ATOM     46  C   UNL A   1      43.696  30.316  28.046  1.00  0.00     0.031 A 
ATOM     47  C   UNL A   1      42.733  30.846  29.071  1.00  0.00     0.074 A 
ATOM     48  C   UNL A   1      44.784  31.034  27.706  1.00  0.00     0.049 A 
ATOM     49  N   UNL A   1      42.791  31.957  29.762  1.00  0.00    -0.248 NA
ATOM     50  C   UNL A   1      41.537  30.033  29.344  1.00  0.00     0.031 C 
ATOM     51  C   UNL A   1      45.759  30.653  26.682  1.00  0.00     0.029 A 
ATOM     52  N   UNL A   1      45.253  32.232  28.181  1.00  0.00    -0.354 N 
ATOM     53  C   UNL A   1      41.648  31.972  30.550  1.00  0.00     0.074 A 
ATOM     54  C   UNL A   1      40.883  30.793  30.210  1.00  0.00     0.031 C 
ATOM     55  C   UNL A   1      46.722  31.585  26.624  1.00  0.00     0.029 A 
ATOM     56  C   UNL A   1      46.420  32.642  27.585  1.00  0.00     0.049 A 
ATOM     57  H   UNL A   1      44.796  32.749  28.884  1.00  0.00     0.167 HD
ATOM     58  C   UNL A   1      41.285  32.873  31.495  1.00  0.00     0.037 A 
ATOM     59  C   UNL A   1      47.164  33.744  27.792  1.00  0.00     0.037 A 
ATOM     60  C   UNL A   1      42.052  34.042  31.840  1.00  0.00     0.049 A 
ATOM     61  C   UNL A   1      46.741  34.723  28.853  1.00  0.00     0.074 A 
ATOM     62  C   UNL A   1      41.785  34.999  32.804  1.00  0.00     0.029 A 
ATOM     63  N   UNL A   1      43.243  34.412  31.231  1.00  0.00    -0.354 N 
ATOM     64  N   UNL A   1      45.692  34.692  29.638  1.00  0.00    -0.248 NA
ATOM     65  C   UNL A   1      47.615  35.884  29.067  1.00  0.00     0.031 C 
ATOM     66  C   UNL A   1      42.794  35.967  32.753  1.00  0.00     0.029 A 
ATOM     67  C   UNL A   1      43.714  35.589  31.790  1.00  0.00     0.049 A 
ATOM     68  H   UNL A   1      43.687  33.913  30.509  1.00  0.00     0.167 HD
ATOM     69  C   UNL A   1      45.789  35.813  30.450  1.00  0.00     0.074 A 
ATOM     70  C   UNL A   1      47.015  36.489  30.083  1.00  0.00     0.031 C 
ATOM     71  C   UNL A   1      44.937  36.250  31.409  1.00  0.00     0.037 A 
BRANCH  58  72
ATOM     72  C   UNL A   1      40.007  32.620  32.241  1.00  0.00     0.064 A 
ATOM     73  C   UNL A   1      39.996  31.900  33.445  1.00  0.00     0.173 A 
ATOM     74  C   UNL A   1      38.791  33.149  31.782  1.00  0.00     0.173 A 
ATOM     75  F   UNL A   1      41.130  31.363  33.922  1.00  0.00    -0.203 F 
ATOM     76  C   UNL A   1      38.812  31.699  34.150  1.00  0.00     0.198 A 
ATOM     77  C   UNL A   1      37.614  32.969  32.504  1.00  0.00     0.198 A 
ATOM     78  F   UNL A   1      38.746  33.851  30.639  1.00  0.00    -0.203 F 
ATOM     79  F   UNL A   1      38.821  30.972  35.277  1.00  0.00    -0.200 F 
ATOM     80  C   UNL A   1      37.624  32.241  33.684  1.00  0.00     0.200 A 
ATOM     81  F   UNL A   1      36.468  33.505  32.060  1.00  0.00    -0.200 F 
ATOM     82  F   UNL A   1      36.488  32.057  34.371  1.00  0.00    -0.200 F 
ENDBRANCH  58  72
BRANCH  59  83
ATOM     83  C   UNL A   1      48.396  33.971  26.993  1.00  0.00     0.064 A 
ATOM     84  C   UNL A   1      48.408  34.870  25.918  1.00  0.00     0.173 A 
ATOM     85  C   UNL A   1      49.583  33.280  27.279  1.00  0.00     0.173 A 
ATOM     86  F   UNL A   1      47.293  35.541  25.595  1.00  0.00    -0.203 F 
ATOM     87  C   UNL A   1      49.550  35.047  25.140  1.00  0.00     0.198 A 
ATOM     88  C   UNL A   1      50.733  33.481  26.519  1.00  0.00     0.198 A 
ATOM     89  F   UNL A   1      49.627  32.414  28.301  1.00  0.00    -0.203 F 
ATOM     90  F   UNL A   1      49.517  35.871  24.085  1.00  0.00    -0.200 F 
ATOM     91  C   UNL A   1      50.713  34.356  25.443  1.00  0.00     0.200 A 
ATOM     92  F   UNL A   1      51.860  32.822  26.826  1.00  0.00    -0.200 F 
ATOM     93  F   UNL A   1      51.811  34.525  24.695  1.00  0.00    -0.200 F 
ENDBRANCH  59  83
BRANCH  71  94
ATOM     94  C   UNL A   1      45.316  37.506  32.137  1.00  0.00     0.064 A 
ATOM     95  C   UNL A   1      44.875  38.766  31.705  1.00  0.00     0.173 A 
ATOM     96  C   UNL A   1      46.119  37.449  33.286  1.00  0.00     0.173 A 
ATOM     97  F   UNL A   1      44.118  38.874  30.602  1.00  0.00    -0.203 F 
ATOM     98  C   UNL A   1      45.255  39.926  32.375  1.00  0.00     0.198 A 
ATOM     99  C   UNL A   1      46.470  38.609  33.972  1.00  0.00     0.198 A 
ATOM    100  F   UNL A   1      46.561  36.269  33.746  1.00  0.00    -0.203 F 
ATOM    101  F   UNL A   1      44.871  41.122  31.909  1.00  0.00    -0.200 F 
ATOM    102  C   UNL A   1      46.047  39.846  33.511  1.00  0.00     0.200 A 
ATOM    103  F   UNL A   1      47.226  38.529  35.076  1.00  0.00    -0.200 F 
ATOM    104  F   UNL A   1      46.412  40.964  34.154  1.00  0.00    -0.200 F 
ENDBRANCH  71  94
ENDBRANCH  45  46
ENDBRANCH  37  40
ENDBRANCH  35  36
ENDBRANCH  34  35
ENDBRANCH  33  34
ENDBRANCH   1  33
TORSDOF 16
ENDMDL
