MODEL 1
REMARK VINA RESULT:     -12.6      0.000      0.000
REMARK SMILES COc1ccccc1[C@@H]1CN(C(=O)CCc2cc(Cl)no2)C[C@H]1C(=O)NCCCCCCNC(=O)c1ccc(-c2c3nc(c(-c4c(F)c(F)c(F)c(F)c4F)c4ccc([nH]4)c(-c4c(F)c(F)c(F)c(F)c4F)c4nc(c(-c5c(F)c(F)c(F)c(F)c5F)c5ccc2[nH]5)C=C4)C=C3)cc1
REMARK SMILES IDX 28 1 27 2 26 3 24 4 25 5 23 7 9 8 10 9 11 10 22 11 8 12 3 13
REMARK SMILES IDX 4 14 5 15 7 16 6 17 2 18 1 19 12 20 13 21 14 22 15 23 16 24
REMARK SMILES IDX 17 25 21 26 18 27 20 28 19 29 29 30 30 31 31 32 32 33 33 34
REMARK SMILES IDX 34 35 35 37 36 38 37 39 98 40 38 41 97 42 39 43 40 44 41 45
REMARK SMILES IDX 91 46 42 47 96 48 90 49 92 50 43 51 95 52 89 53 88 54 44 56
REMARK SMILES IDX 76 57 56 58 75 59 57 60 60 61 74 62 93 63 58 64 59 65 73 67
REMARK SMILES IDX 94 68 61 69 45 70 46 71 54 72 47 73 48 74 52 75 55 76 49 77
REMARK SMILES IDX 50 78 53 79 51 80 77 81 78 82 86 83 79 84 80 85 84 86 87 87
REMARK SMILES IDX 81 88 82 89 85 90 83 91 62 92 63 93 71 94 64 95 65 96 69 97
REMARK SMILES IDX 72 98 66 99 67 100 70 101 68 102
REMARK H PARENT 26 6 33 36 92 55 60 66
REMARK Flexibility Score: inf
ROOT
ATOM      1  C   UNL A   1      33.319  22.565  27.159  1.00  0.00     0.021 C 
ENDROOT
BRANCH   1   2
ATOM      2  C   UNL A   1      31.840  22.533  26.799  1.00  0.00     0.116 C 
BRANCH   2   3
ATOM      3  N   UNL A   1      31.241  23.841  26.961  1.00  0.00    -0.356 N 
ATOM      4  C   UNL A   1      31.006  24.824  26.061  1.00  0.00     0.225 C 
ATOM      5  O   UNL A   1      30.510  25.873  26.480  1.00  0.00    -0.275 OA
ATOM      6  H   UNL A   1      30.956  24.051  27.879  1.00  0.00     0.163 HD
BRANCH   4   7
ATOM      7  C   UNL A   1      31.328  24.661  24.592  1.00  0.00     0.107 C 
ATOM      8  C   UNL A   1      32.818  24.828  24.253  1.00  0.00     0.057 C 
ATOM      9  C   UNL A   1      33.082  23.798  23.170  1.00  0.00     0.128 C 
ATOM     10  N   UNL A   1      32.096  22.759  23.360  1.00  0.00    -0.341 N 
ATOM     11  C   UNL A   1      30.922  23.287  24.045  1.00  0.00     0.133 C 
BRANCH   8  12
ATOM     12  C   UNL A   1      33.358  26.201  23.906  1.00  0.00    -0.000 A 
ATOM     13  C   UNL A   1      33.739  27.207  24.812  1.00  0.00     0.122 A 
ATOM     14  C   UNL A   1      34.158  28.460  24.336  1.00  0.00     0.047 A 
ATOM     15  C   UNL A   1      34.150  28.756  22.974  1.00  0.00     0.004 A 
ATOM     16  C   UNL A   1      33.346  26.535  22.531  1.00  0.00     0.008 A 
ATOM     17  C   UNL A   1      33.715  27.799  22.071  1.00  0.00     0.001 A 
BRANCH  13  18
ATOM     18  O   UNL A   1      33.452  27.201  26.150  1.00  0.00    -0.496 OA
ATOM     19  C   UNL A   1      33.296  28.451  26.797  1.00  0.00     0.278 C 
ENDBRANCH  13  18
ENDBRANCH   8  12
BRANCH  10  20
ATOM     20  C   UNL A   1      32.129  21.479  22.860  1.00  0.00     0.223 C 
ATOM     21  O   UNL A   1      32.060  21.260  21.649  1.00  0.00    -0.275 OA
BRANCH  20  22
ATOM     22  C   UNL A   1      32.191  20.312  23.836  1.00  0.00     0.108 C 
BRANCH  22  23
ATOM     23  C   UNL A   1      32.465  18.961  23.179  1.00  0.00     0.088 C 
BRANCH  23  24
ATOM     24  C   UNL A   1      33.230  18.022  24.038  1.00  0.00     0.138 A 
ATOM     25  C   UNL A   1      34.559  17.682  24.159  1.00  0.00     0.089 A 
ATOM     26  O   UNL A   1      32.498  17.266  24.905  1.00  0.00    -0.360 OA
ATOM     27  C   UNL A   1      34.555  16.624  25.086  1.00  0.00     0.172 A 
ATOM     28  N   UNL A   1      33.337  16.385  25.572  1.00  0.00    -0.068 NA
ATOM     29  Cl  UNL A   1      35.892  15.689  25.536  1.00  0.00    -0.058 Cl
ENDBRANCH  23  24
ENDBRANCH  22  23
ENDBRANCH  20  22
ENDBRANCH  10  20
ENDBRANCH   4   7
ENDBRANCH   2   3
ENDBRANCH   1   2
BRANCH   1  30
ATOM     30  C   UNL A   1      34.130  21.442  26.512  1.00  0.00     0.002 C 
BRANCH  30  31
ATOM     31  C   UNL A   1      35.223  21.906  25.536  1.00  0.00     0.002 C 
BRANCH  31  32
ATOM     32  C   UNL A   1      36.092  23.084  26.002  1.00  0.00     0.021 C 
BRANCH  32  33
ATOM     33  C   UNL A   1      37.507  23.039  25.459  1.00  0.00     0.116 C 
BRANCH  33  34
ATOM     34  N   UNL A   1      38.335  22.062  26.166  1.00  0.00    -0.352 N 
ATOM     35  C   UNL A   1      39.555  22.253  26.786  1.00  0.00     0.251 C 
ATOM     36  H   UNL A   1      37.975  21.146  26.204  1.00  0.00     0.163 HD
ATOM     37  O   UNL A   1      40.306  21.324  27.017  1.00  0.00    -0.269 OA
BRANCH  35  38
ATOM     38  C   UNL A   1      39.914  23.623  27.186  1.00  0.00     0.039 A 
ATOM     39  C   UNL A   1      39.092  24.723  26.923  1.00  0.00     0.014 A 
ATOM     40  C   UNL A   1      41.111  23.773  27.876  1.00  0.00     0.014 A 
ATOM     41  C   UNL A   1      39.475  25.971  27.409  1.00  0.00     0.010 A 
ATOM     42  C   UNL A   1      41.349  24.927  28.555  1.00  0.00     0.010 A 
ATOM     43  C   UNL A   1      40.610  26.054  28.227  1.00  0.00    -0.014 A 
BRANCH  43  44
ATOM     44  C   UNL A   1      41.045  27.292  28.854  1.00  0.00     0.031 A 
ATOM     45  C   UNL A   1      42.272  27.874  28.249  1.00  0.00     0.074 A 
ATOM     46  C   UNL A   1      40.206  27.961  29.682  1.00  0.00     0.049 A 
ATOM     47  N   UNL A   1      43.401  28.122  28.824  1.00  0.00    -0.248 NA
ATOM     48  C   UNL A   1      42.297  28.067  26.787  1.00  0.00     0.031 C 
ATOM     49  C   UNL A   1      38.838  27.590  30.079  1.00  0.00     0.029 A 
ATOM     50  N   UNL A   1      40.345  29.191  30.245  1.00  0.00    -0.354 N 
ATOM     51  C   UNL A   1      44.206  28.702  27.845  1.00  0.00     0.074 A 
ATOM     52  C   UNL A   1      43.562  28.441  26.589  1.00  0.00     0.031 C 
ATOM     53  C   UNL A   1      38.203  28.662  30.601  1.00  0.00     0.029 A 
ATOM     54  C   UNL A   1      39.159  29.739  30.736  1.00  0.00     0.049 A 
ATOM     55  H   UNL A   1      41.210  29.657  30.301  1.00  0.00     0.167 HD
ATOM     56  C   UNL A   1      45.172  29.599  28.188  1.00  0.00     0.037 A 
ATOM     57  C   UNL A   1      38.986  31.010  31.179  1.00  0.00     0.037 A 
ATOM     58  C   UNL A   1      45.496  29.481  29.591  1.00  0.00     0.049 A 
ATOM     59  C   UNL A   1      40.340  31.547  31.474  1.00  0.00     0.074 A 
ATOM     60  C   UNL A   1      45.994  28.470  30.390  1.00  0.00     0.029 A 
ATOM     61  N   UNL A   1      44.938  30.394  30.451  1.00  0.00    -0.354 N 
ATOM     62  N   UNL A   1      41.104  31.081  32.423  1.00  0.00    -0.248 NA
ATOM     63  C   UNL A   1      41.026  32.241  30.396  1.00  0.00     0.031 C 
ATOM     64  C   UNL A   1      45.284  28.591  31.622  1.00  0.00     0.029 A 
ATOM     65  C   UNL A   1      44.457  29.711  31.538  1.00  0.00     0.049 A 
ATOM     66  H   UNL A   1      44.892  31.367  30.312  1.00  0.00     0.167 HD
ATOM     67  C   UNL A   1      42.375  31.041  31.865  1.00  0.00     0.074 A 
ATOM     68  C   UNL A   1      42.273  31.825  30.635  1.00  0.00     0.031 C 
ATOM     69  C   UNL A   1      43.299  30.131  32.292  1.00  0.00     0.037 A 
BRANCH  56  70
ATOM     70  C   UNL A   1      45.496  30.853  27.397  1.00  0.00     0.064 A 
ATOM     71  C   UNL A   1      46.844  31.101  27.058  1.00  0.00     0.173 A 
ATOM     72  C   UNL A   1      44.628  31.957  27.243  1.00  0.00     0.173 A 
ATOM     73  F   UNL A   1      47.762  30.126  27.149  1.00  0.00    -0.203 F 
ATOM     74  C   UNL A   1      47.302  32.378  26.725  1.00  0.00     0.198 A 
ATOM     75  C   UNL A   1      45.082  33.219  26.862  1.00  0.00     0.198 A 
ATOM     76  F   UNL A   1      43.329  31.908  27.552  1.00  0.00    -0.203 F 
ATOM     77  F   UNL A   1      48.615  32.589  26.560  1.00  0.00    -0.200 F 
ATOM     78  C   UNL A   1      46.424  33.440  26.643  1.00  0.00     0.200 A 
ATOM     79  F   UNL A   1      44.212  34.237  26.797  1.00  0.00    -0.200 F 
ATOM     80  F   UNL A   1      46.869  34.679  26.402  1.00  0.00    -0.200 F 
ENDBRANCH  56  70
BRANCH  57  81
ATOM     81  C   UNL A   1      37.795  31.885  31.023  1.00  0.00     0.064 A 
ATOM     82  C   UNL A   1      37.359  32.306  29.755  1.00  0.00     0.173 A 
ATOM     83  C   UNL A   1      36.898  32.094  32.089  1.00  0.00     0.173 A 
ATOM     84  F   UNL A   1      38.128  32.098  28.676  1.00  0.00    -0.203 F 
ATOM     85  C   UNL A   1      36.097  32.883  29.563  1.00  0.00     0.198 A 
ATOM     86  C   UNL A   1      35.641  32.673  31.899  1.00  0.00     0.198 A 
ATOM     87  F   UNL A   1      37.181  31.650  33.322  1.00  0.00    -0.203 F 
ATOM     88  F   UNL A   1      35.693  33.217  28.330  1.00  0.00    -0.200 F 
ATOM     89  C   UNL A   1      35.236  33.056  30.634  1.00  0.00     0.200 A 
ATOM     90  F   UNL A   1      34.802  32.794  32.938  1.00  0.00    -0.200 F 
ATOM     91  F   UNL A   1      34.003  33.549  30.444  1.00  0.00    -0.200 F 
ENDBRANCH  57  81
BRANCH  69  92
ATOM     92  C   UNL A   1      42.986  29.339  33.533  1.00  0.00     0.064 A 
ATOM     93  C   UNL A   1      42.344  28.087  33.530  1.00  0.00     0.173 A 
ATOM     94  C   UNL A   1      43.512  29.785  34.751  1.00  0.00     0.173 A 
ATOM     95  F   UNL A   1      41.895  27.547  32.393  1.00  0.00    -0.203 F 
ATOM     96  C   UNL A   1      42.211  27.335  34.698  1.00  0.00     0.198 A 
ATOM     97  C   UNL A   1      43.409  29.018  35.908  1.00  0.00     0.198 A 
ATOM     98  F   UNL A   1      44.183  30.947  34.804  1.00  0.00    -0.203 F 
ATOM     99  F   UNL A   1      41.595  26.144  34.665  1.00  0.00    -0.200 F 
ATOM    100  C   UNL A   1      42.755  27.797  35.884  1.00  0.00     0.200 A 
ATOM    101  F   UNL A   1      43.981  29.448  37.042  1.00  0.00    -0.200 F 
ATOM    102  F   UNL A   1      42.672  27.056  36.997  1.00  0.00    -0.200 F 
ENDBRANCH  69  92
ENDBRANCH  43  44
ENDBRANCH  35  38
ENDBRANCH  33  34
ENDBRANCH  32  33
ENDBRANCH  31  32
ENDBRANCH  30  31
ENDBRANCH   1  30
TORSDOF 19
ENDMDL
MODEL 2
REMARK VINA RESULT:     -12.5      3.555      8.773
REMARK SMILES COc1ccccc1[C@@H]1CN(C(=O)CCc2cc(Cl)no2)C[C@H]1C(=O)NCCCCCCNC(=O)c1ccc(-c2c3nc(c(-c4c(F)c(F)c(F)c(F)c4F)c4ccc([nH]4)c(-c4c(F)c(F)c(F)c(F)c4F)c4nc(c(-c5c(F)c(F)c(F)c(F)c5F)c5ccc2[nH]5)C=C4)C=C3)cc1
REMARK SMILES IDX 28 1 27 2 26 3 24 4 25 5 23 7 9 8 10 9 11 10 22 11 8 12 3 13
REMARK SMILES IDX 4 14 5 15 7 16 6 17 2 18 1 19 12 20 13 21 14 22 15 23 16 24
REMARK SMILES IDX 17 25 21 26 18 27 20 28 19 29 29 30 30 31 31 32 32 33 33 34
REMARK SMILES IDX 34 35 35 37 36 38 37 39 98 40 38 41 97 42 39 43 40 44 41 45
REMARK SMILES IDX 91 46 42 47 96 48 90 49 92 50 43 51 95 52 89 53 88 54 44 56
REMARK SMILES IDX 76 57 56 58 75 59 57 60 60 61 74 62 93 63 58 64 59 65 73 67
REMARK SMILES IDX 94 68 61 69 45 70 46 71 54 72 47 73 48 74 52 75 55 76 49 77
REMARK SMILES IDX 50 78 53 79 51 80 77 81 78 82 86 83 79 84 80 85 84 86 87 87
REMARK SMILES IDX 81 88 82 89 85 90 83 91 62 92 63 93 71 94 64 95 65 96 69 97
REMARK SMILES IDX 72 98 66 99 67 100 70 101 68 102
REMARK H PARENT 26 6 33 36 92 55 60 66
REMARK Flexibility Score: inf
ROOT
ATOM      1  C   UNL A   1      31.441  27.857  27.160  1.00  0.00     0.021 C 
ENDROOT
BRANCH   1   2
ATOM      2  C   UNL A   1      31.453  26.704  26.164  1.00  0.00     0.116 C 
BRANCH   2   3
ATOM      3  N   UNL A   1      31.470  25.430  26.849  1.00  0.00    -0.356 N 
ATOM      4  C   UNL A   1      32.109  24.274  26.554  1.00  0.00     0.225 C 
ATOM      5  O   UNL A   1      31.917  23.310  27.299  1.00  0.00    -0.275 OA
ATOM      6  H   UNL A   1      30.925  25.398  27.668  1.00  0.00     0.163 HD
BRANCH   4   7
ATOM      7  C   UNL A   1      33.033  24.150  25.363  1.00  0.00     0.107 C 
ATOM      8  C   UNL A   1      32.625  23.058  24.362  1.00  0.00     0.057 C 
ATOM      9  C   UNL A   1      32.944  23.647  23.000  1.00  0.00     0.128 C 
ATOM     10  N   UNL A   1      32.884  25.082  23.164  1.00  0.00    -0.341 N 
ATOM     11  C   UNL A   1      33.134  25.449  24.552  1.00  0.00     0.133 C 
BRANCH   8  12
ATOM     12  C   UNL A   1      33.156  21.648  24.534  1.00  0.00    -0.000 A 
ATOM     13  C   UNL A   1      34.483  21.279  24.815  1.00  0.00     0.122 A 
ATOM     14  C   UNL A   1      34.838  19.922  24.878  1.00  0.00     0.047 A 
ATOM     15  C   UNL A   1      33.909  18.919  24.606  1.00  0.00     0.004 A 
ATOM     16  C   UNL A   1      32.239  20.609  24.248  1.00  0.00     0.008 A 
ATOM     17  C   UNL A   1      32.612  19.265  24.263  1.00  0.00     0.001 A 
BRANCH  13  18
ATOM     18  O   UNL A   1      35.560  22.121  24.735  1.00  0.00    -0.496 OA
ATOM     19  C   UNL A   1      36.527  22.055  25.769  1.00  0.00     0.278 C 
ENDBRANCH  13  18
ENDBRANCH   8  12
BRANCH  10  20
ATOM     20  C   UNL A   1      32.767  26.028  22.173  1.00  0.00     0.223 C 
ATOM     21  O   UNL A   1      33.656  26.196  21.336  1.00  0.00    -0.275 OA
BRANCH  20  22
ATOM     22  C   UNL A   1      31.535  26.923  22.156  1.00  0.00     0.108 C 
BRANCH  22  23
ATOM     23  C   UNL A   1      31.748  28.291  22.800  1.00  0.00     0.088 C 
BRANCH  23  24
ATOM     24  C   UNL A   1      30.545  29.161  22.768  1.00  0.00     0.138 A 
ATOM     25  C   UNL A   1      29.865  29.911  23.702  1.00  0.00     0.089 A 
ATOM     26  O   UNL A   1      29.898  29.250  21.571  1.00  0.00    -0.360 OA
ATOM     27  C   UNL A   1      28.736  30.376  23.006  1.00  0.00     0.172 A 
ATOM     28  N   UNL A   1      28.756  30.024  21.721  1.00  0.00    -0.068 NA
ATOM     29  Cl  UNL A   1      27.442  31.242  23.671  1.00  0.00    -0.058 Cl
ENDBRANCH  23  24
ENDBRANCH  22  23
ENDBRANCH  20  22
ENDBRANCH  10  20
ENDBRANCH   4   7
ENDBRANCH   2   3
ENDBRANCH   1   2
BRANCH   1  30
ATOM     30  C   UNL A   1      32.055  29.145  26.610  1.00  0.00     0.002 C 
BRANCH  30  31
ATOM     31  C   UNL A   1      33.585  29.132  26.475  1.00  0.00     0.002 C 
BRANCH  31  32
ATOM     32  C   UNL A   1      34.378  29.619  27.698  1.00  0.00     0.021 C 
BRANCH  32  33
ATOM     33  C   UNL A   1      34.802  31.070  27.601  1.00  0.00     0.116 C 
BRANCH  33  34
ATOM     34  N   UNL A   1      34.659  31.770  28.878  1.00  0.00    -0.352 N 
ATOM     35  C   UNL A   1      35.394  31.609  30.037  1.00  0.00     0.251 C 
ATOM     36  H   UNL A   1      33.943  32.445  28.916  1.00  0.00     0.163 HD
ATOM     37  O   UNL A   1      34.967  31.968  31.119  1.00  0.00    -0.269 OA
BRANCH  35  38
ATOM     38  C   UNL A   1      36.733  31.008  29.923  1.00  0.00     0.039 A 
ATOM     39  C   UNL A   1      37.881  31.769  29.682  1.00  0.00     0.014 A 
ATOM     40  C   UNL A   1      36.811  29.632  30.099  1.00  0.00     0.014 A 
ATOM     41  C   UNL A   1      39.115  31.124  29.670  1.00  0.00     0.010 A 
ATOM     42  C   UNL A   1      38.021  29.057  30.335  1.00  0.00     0.010 A 
ATOM     43  C   UNL A   1      39.166  29.763  30.000  1.00  0.00    -0.014 A 
BRANCH  43  44
ATOM     44  C   UNL A   1      40.412  29.018  30.100  1.00  0.00     0.031 A 
ATOM     45  C   UNL A   1      40.884  28.820  31.494  1.00  0.00     0.074 A 
ATOM     46  C   UNL A   1      40.874  28.331  29.027  1.00  0.00     0.049 A 
ATOM     47  N   UNL A   1      42.002  29.202  32.017  1.00  0.00    -0.248 NA
ATOM     48  C   UNL A   1      39.935  28.259  32.473  1.00  0.00     0.031 C 
ATOM     49  C   UNL A   1      40.274  28.231  27.687  1.00  0.00     0.029 A 
ATOM     50  N   UNL A   1      41.914  27.459  28.942  1.00  0.00    -0.354 N 
ATOM     51  C   UNL A   1      41.985  28.737  33.331  1.00  0.00     0.074 A 
ATOM     52  C   UNL A   1      40.625  28.369  33.609  1.00  0.00     0.031 C 
ATOM     53  C   UNL A   1      40.808  27.185  27.019  1.00  0.00     0.029 A 
ATOM     54  C   UNL A   1      41.898  26.649  27.806  1.00  0.00     0.049 A 
ATOM     55  H   UNL A   1      42.620  27.403  29.626  1.00  0.00     0.167 HD
ATOM     56  C   UNL A   1      43.147  28.421  33.967  1.00  0.00     0.037 A 
ATOM     57  C   UNL A   1      42.708  25.587  27.566  1.00  0.00     0.037 A 
ATOM     58  C   UNL A   1      44.270  29.037  33.301  1.00  0.00     0.049 A 
ATOM     59  C   UNL A   1      43.874  25.725  28.477  1.00  0.00     0.074 A 
ATOM     60  C   UNL A   1      44.643  30.339  33.029  1.00  0.00     0.029 A 
ATOM     61  N   UNL A   1      45.015  28.254  32.454  1.00  0.00    -0.354 N 
ATOM     62  N   UNL A   1      44.743  26.694  28.386  1.00  0.00    -0.248 NA
ATOM     63  C   UNL A   1      43.775  25.087  29.779  1.00  0.00     0.031 C 
ATOM     64  C   UNL A   1      45.213  30.294  31.722  1.00  0.00     0.029 A 
ATOM     65  C   UNL A   1      45.233  28.964  31.303  1.00  0.00     0.049 A 
ATOM     66  H   UNL A   1      45.337  27.342  32.642  1.00  0.00     0.167 HD
ATOM     67  C   UNL A   1      44.988  27.072  29.699  1.00  0.00     0.074 A 
ATOM     68  C   UNL A   1      44.408  26.006  30.515  1.00  0.00     0.031 C 
ATOM     69  C   UNL A   1      45.361  28.350  30.002  1.00  0.00     0.037 A 
BRANCH  56  70
ATOM     70  C   UNL A   1      43.321  27.229  34.889  1.00  0.00     0.064 A 
ATOM     71  C   UNL A   1      43.570  27.471  36.257  1.00  0.00     0.173 A 
ATOM     72  C   UNL A   1      43.579  25.907  34.460  1.00  0.00     0.173 A 
ATOM     73  F   UNL A   1      43.350  28.685  36.787  1.00  0.00    -0.203 F 
ATOM     74  C   UNL A   1      44.152  26.510  37.088  1.00  0.00     0.198 A 
ATOM     75  C   UNL A   1      44.113  24.936  35.306  1.00  0.00     0.198 A 
ATOM     76  F   UNL A   1      43.431  25.513  33.192  1.00  0.00    -0.203 F 
ATOM     77  F   UNL A   1      44.507  26.840  38.337  1.00  0.00    -0.200 F 
ATOM     78  C   UNL A   1      44.439  25.249  36.607  1.00  0.00     0.200 A 
ATOM     79  F   UNL A   1      44.391  23.719  34.815  1.00  0.00    -0.200 F 
ATOM     80  F   UNL A   1      45.068  24.350  37.375  1.00  0.00    -0.200 F 
ENDBRANCH  56  70
BRANCH  57  81
ATOM     81  C   UNL A   1      42.373  24.310  26.883  1.00  0.00     0.064 A 
ATOM     82  C   UNL A   1      43.253  23.725  25.956  1.00  0.00     0.173 A 
ATOM     83  C   UNL A   1      41.315  23.496  27.334  1.00  0.00     0.173 A 
ATOM     84  F   UNL A   1      44.317  24.411  25.514  1.00  0.00    -0.203 F 
ATOM     85  C   UNL A   1      43.095  22.402  25.523  1.00  0.00     0.198 A 
ATOM     86  C   UNL A   1      41.155  22.178  26.899  1.00  0.00     0.198 A 
ATOM     87  F   UNL A   1      40.472  23.929  28.283  1.00  0.00    -0.203 F 
ATOM     88  F   UNL A   1      43.989  21.861  24.684  1.00  0.00    -0.200 F 
ATOM     89  C   UNL A   1      42.052  21.628  26.002  1.00  0.00     0.200 A 
ATOM     90  F   UNL A   1      40.166  21.428  27.405  1.00  0.00    -0.200 F 
ATOM     91  F   UNL A   1      41.934  20.343  25.638  1.00  0.00    -0.200 F 
ENDBRANCH  57  81
BRANCH  69  92
ATOM     92  C   UNL A   1      45.728  29.265  28.864  1.00  0.00     0.064 A 
ATOM     93  C   UNL A   1      44.809  30.082  28.181  1.00  0.00     0.173 A 
ATOM     94  C   UNL A   1      47.085  29.447  28.574  1.00  0.00     0.173 A 
ATOM     95  F   UNL A   1      43.503  30.036  28.464  1.00  0.00    -0.203 F 
ATOM     96  C   UNL A   1      45.230  31.015  27.233  1.00  0.00     0.198 A 
ATOM     97  C   UNL A   1      47.507  30.403  27.654  1.00  0.00     0.198 A 
ATOM     98  F   UNL A   1      48.011  28.735  29.234  1.00  0.00    -0.203 F 
ATOM     99  F   UNL A   1      44.331  31.782  26.598  1.00  0.00    -0.200 F 
ATOM    100  C   UNL A   1      46.581  31.182  26.979  1.00  0.00     0.200 A 
ATOM    101  F   UNL A   1      48.817  30.594  27.449  1.00  0.00    -0.200 F 
ATOM    102  F   UNL A   1      46.992  32.111  26.105  1.00  0.00    -0.200 F 
ENDBRANCH  69  92
ENDBRANCH  43  44
ENDBRANCH  35  38
ENDBRANCH  33  34
ENDBRANCH  32  33
ENDBRANCH  31  32
ENDBRANCH  30  31
ENDBRANCH   1  30
TORSDOF 19
ENDMDL
MODEL 3
REMARK VINA RESULT:     -12.5      3.105      7.912
REMARK SMILES COc1ccccc1[C@@H]1CN(C(=O)CCc2cc(Cl)no2)C[C@H]1C(=O)NCCCCCCNC(=O)c1ccc(-c2c3nc(c(-c4c(F)c(F)c(F)c(F)c4F)c4ccc([nH]4)c(-c4c(F)c(F)c(F)c(F)c4F)c4nc(c(-c5c(F)c(F)c(F)c(F)c5F)c5ccc2[nH]5)C=C4)C=C3)cc1
REMARK SMILES IDX 28 1 27 2 26 3 24 4 25 5 23 7 9 8 10 9 11 10 22 11 8 12 3 13
REMARK SMILES IDX 4 14 5 15 7 16 6 17 2 18 1 19 12 20 13 21 14 22 15 23 16 24
REMARK SMILES IDX 17 25 21 26 18 27 20 28 19 29 29 30 30 31 31 32 32 33 33 34
REMARK SMILES IDX 34 35 35 37 36 38 37 39 98 40 38 41 97 42 39 43 40 44 41 45
REMARK SMILES IDX 91 46 42 47 96 48 90 49 92 50 43 51 95 52 89 53 88 54 44 56
REMARK SMILES IDX 76 57 56 58 75 59 57 60 60 61 74 62 93 63 58 64 59 65 73 67
REMARK SMILES IDX 94 68 61 69 45 70 46 71 54 72 47 73 48 74 52 75 55 76 49 77
REMARK SMILES IDX 50 78 53 79 51 80 77 81 78 82 86 83 79 84 80 85 84 86 87 87
REMARK SMILES IDX 81 88 82 89 85 90 83 91 62 92 63 93 71 94 64 95 65 96 69 97
REMARK SMILES IDX 72 98 66 99 67 100 70 101 68 102
REMARK H PARENT 26 6 33 36 92 55 60 66
REMARK Flexibility Score: inf
ROOT
ATOM      1  C   UNL A   1      32.948  28.232  27.202  1.00  0.00     0.021 C 
ENDROOT
BRANCH   1   2
ATOM      2  C   UNL A   1      32.268  27.503  26.051  1.00  0.00     0.116 C 
BRANCH   2   3
ATOM      3  N   UNL A   1      31.206  26.648  26.538  1.00  0.00    -0.356 N 
ATOM      4  C   UNL A   1      30.234  25.980  25.875  1.00  0.00     0.225 C 
ATOM      5  O   UNL A   1      29.419  25.343  26.548  1.00  0.00    -0.275 OA
ATOM      6  H   UNL A   1      31.189  26.532  27.515  1.00  0.00     0.163 HD
BRANCH   4   7
ATOM      7  C   UNL A   1      30.135  25.996  24.365  1.00  0.00     0.107 C 
ATOM      8  C   UNL A   1      30.639  27.295  23.717  1.00  0.00     0.057 C 
ATOM      9  C   UNL A   1      31.334  26.844  22.444  1.00  0.00     0.128 C 
ATOM     10  N   UNL A   1      31.761  25.485  22.685  1.00  0.00    -0.341 N 
ATOM     11  C   UNL A   1      30.929  24.860  23.707  1.00  0.00     0.133 C 
BRANCH   8  12
ATOM     12  C   UNL A   1      29.674  28.441  23.487  1.00  0.00    -0.000 A 
ATOM     13  C   UNL A   1      29.924  29.807  23.709  1.00  0.00     0.122 A 
ATOM     14  C   UNL A   1      28.902  30.750  23.516  1.00  0.00     0.047 A 
ATOM     15  C   UNL A   1      27.612  30.356  23.161  1.00  0.00     0.004 A 
ATOM     16  C   UNL A   1      28.352  28.070  23.143  1.00  0.00     0.008 A 
ATOM     17  C   UNL A   1      27.330  29.009  23.002  1.00  0.00     0.001 A 
BRANCH  13  18
ATOM     18  O   UNL A   1      30.996  30.301  24.402  1.00  0.00    -0.496 OA
ATOM     19  C   UNL A   1      30.741  31.243  25.429  1.00  0.00     0.278 C 
ENDBRANCH  13  18
ENDBRANCH   8  12
BRANCH  10  20
ATOM     20  C   UNL A   1      32.704  24.773  21.984  1.00  0.00     0.223 C 
ATOM     21  O   UNL A   1      33.509  25.333  21.237  1.00  0.00    -0.275 OA
BRANCH  20  22
ATOM     22  C   UNL A   1      32.707  23.254  22.093  1.00  0.00     0.108 C 
BRANCH  22  23
ATOM     23  C   UNL A   1      33.107  22.727  23.469  1.00  0.00     0.088 C 
BRANCH  23  24
ATOM     24  C   UNL A   1      34.542  22.930  23.794  1.00  0.00     0.138 A 
ATOM     25  C   UNL A   1      35.256  23.118  24.957  1.00  0.00     0.089 A 
ATOM     26  O   UNL A   1      35.397  22.989  22.734  1.00  0.00    -0.360 OA
ATOM     27  C   UNL A   1      36.564  23.375  24.513  1.00  0.00     0.172 A 
ATOM     28  N   UNL A   1      36.678  23.266  23.189  1.00  0.00    -0.068 NA
ATOM     29  Cl  UNL A   1      37.875  23.826  25.484  1.00  0.00    -0.058 Cl
ENDBRANCH  23  24
ENDBRANCH  22  23
ENDBRANCH  20  22
ENDBRANCH  10  20
ENDBRANCH   4   7
ENDBRANCH   2   3
ENDBRANCH   1   2
BRANCH   1  30
ATOM     30  C   UNL A   1      34.451  28.432  26.996  1.00  0.00     0.002 C 
BRANCH  30  31
ATOM     31  C   UNL A   1      34.964  29.853  27.278  1.00  0.00     0.002 C 
BRANCH  31  32
ATOM     32  C   UNL A   1      33.907  30.884  27.703  1.00  0.00     0.021 C 
BRANCH  32  33
ATOM     33  C   UNL A   1      34.488  32.249  28.010  1.00  0.00     0.116 C 
BRANCH  33  34
ATOM     34  N   UNL A   1      34.295  32.625  29.411  1.00  0.00    -0.352 N 
ATOM     35  C   UNL A   1      35.016  32.223  30.519  1.00  0.00     0.251 C 
ATOM     36  H   UNL A   1      33.553  33.247  29.587  1.00  0.00     0.163 HD
ATOM     37  O   UNL A   1      34.557  32.304  31.643  1.00  0.00    -0.269 OA
BRANCH  35  38
ATOM     38  C   UNL A   1      36.380  31.712  30.303  1.00  0.00     0.039 A 
ATOM     39  C   UNL A   1      37.469  32.555  30.064  1.00  0.00     0.014 A 
ATOM     40  C   UNL A   1      36.544  30.335  30.380  1.00  0.00     0.014 A 
ATOM     41  C   UNL A   1      38.736  31.988  29.951  1.00  0.00     0.010 A 
ATOM     42  C   UNL A   1      37.795  29.819  30.521  1.00  0.00     0.010 A 
ATOM     43  C   UNL A   1      38.881  30.614  30.184  1.00  0.00    -0.014 A 
BRANCH  43  44
ATOM     44  C   UNL A   1      40.170  29.940  30.175  1.00  0.00     0.031 A 
ATOM     45  C   UNL A   1      40.774  29.779  31.523  1.00  0.00     0.074 A 
ATOM     46  C   UNL A   1      40.574  29.271  29.068  1.00  0.00     0.049 A 
ATOM     47  N   UNL A   1      41.910  30.226  31.944  1.00  0.00    -0.248 NA
ATOM     48  C   UNL A   1      39.948  29.174  32.584  1.00  0.00     0.031 C 
ATOM     49  C   UNL A   1      39.865  29.127  27.786  1.00  0.00     0.029 A 
ATOM     50  N   UNL A   1      41.650  28.457  28.894  1.00  0.00    -0.354 N 
ATOM     51  C   UNL A   1      42.035  29.772  33.255  1.00  0.00     0.074 A 
ATOM     52  C   UNL A   1      40.728  29.331  33.654  1.00  0.00     0.031 C 
ATOM     53  C   UNL A   1      40.395  28.107  27.077  1.00  0.00     0.029 A 
ATOM     54  C   UNL A   1      41.579  27.639  27.766  1.00  0.00     0.049 A 
ATOM     55  H   UNL A   1      42.415  28.446  29.512  1.00  0.00     0.167 HD
ATOM     56  C   UNL A   1      43.265  29.526  33.787  1.00  0.00     0.037 A 
ATOM     57  C   UNL A   1      42.422  26.621  27.458  1.00  0.00     0.037 A 
ATOM     58  C   UNL A   1      44.289  30.198  33.022  1.00  0.00     0.049 A 
ATOM     59  C   UNL A   1      43.655  26.831  28.262  1.00  0.00     0.074 A 
ATOM     60  C   UNL A   1      44.562  31.516  32.715  1.00  0.00     0.029 A 
ATOM     61  N   UNL A   1      44.999  29.451  32.115  1.00  0.00    -0.354 N 
ATOM     62  N   UNL A   1      44.457  27.846  28.092  1.00  0.00    -0.248 NA
ATOM     63  C   UNL A   1      43.707  26.199  29.570  1.00  0.00     0.031 C 
ATOM     64  C   UNL A   1      45.017  31.493  31.362  1.00  0.00     0.029 A 
ATOM     65  C   UNL A   1      45.074  30.163  30.947  1.00  0.00     0.049 A 
ATOM     66  H   UNL A   1      45.386  28.560  32.276  1.00  0.00     0.167 HD
ATOM     67  C   UNL A   1      44.795  28.248  29.376  1.00  0.00     0.074 A 
ATOM     68  C   UNL A   1      44.350  27.157  30.244  1.00  0.00     0.031 C 
ATOM     69  C   UNL A   1      45.121  29.547  29.642  1.00  0.00     0.037 A 
BRANCH  56  70
ATOM     70  C   UNL A   1      43.586  28.353  34.694  1.00  0.00     0.064 A 
ATOM     71  C   UNL A   1      43.210  27.059  34.273  1.00  0.00     0.173 A 
ATOM     72  C   UNL A   1      43.936  28.459  36.059  1.00  0.00     0.173 A 
ATOM     73  F   UNL A   1      42.870  26.828  32.996  1.00  0.00    -0.203 F 
ATOM     74  C   UNL A   1      43.068  25.999  35.172  1.00  0.00     0.198 A 
ATOM     75  C   UNL A   1      43.840  27.386  36.942  1.00  0.00     0.198 A 
ATOM     76  F   UNL A   1      44.282  29.616  36.632  1.00  0.00    -0.203 F 
ATOM     77  F   UNL A   1      42.562  24.833  34.747  1.00  0.00    -0.200 F 
ATOM     78  C   UNL A   1      43.367  26.167  36.509  1.00  0.00     0.200 A 
ATOM     79  F   UNL A   1      44.128  27.575  38.239  1.00  0.00    -0.200 F 
ATOM     80  F   UNL A   1      43.157  25.178  37.387  1.00  0.00    -0.200 F 
ENDBRANCH  56  70
BRANCH  57  81
ATOM     81  C   UNL A   1      42.101  25.322  26.811  1.00  0.00     0.064 A 
ATOM     82  C   UNL A   1      42.852  24.843  25.724  1.00  0.00     0.173 A 
ATOM     83  C   UNL A   1      41.233  24.396  27.423  1.00  0.00     0.173 A 
ATOM     84  F   UNL A   1      43.740  25.641  25.116  1.00  0.00    -0.203 F 
ATOM     85  C   UNL A   1      42.753  23.515  25.289  1.00  0.00     0.198 A 
ATOM     86  C   UNL A   1      41.132  23.073  26.987  1.00  0.00     0.198 A 
ATOM     87  F   UNL A   1      40.538  24.729  28.521  1.00  0.00    -0.203 F 
ATOM     88  F   UNL A   1      43.528  23.078  24.287  1.00  0.00    -0.200 F 
ATOM     89  C   UNL A   1      41.900  22.629  25.928  1.00  0.00     0.200 A 
ATOM     90  F   UNL A   1      40.334  22.218  27.643  1.00  0.00    -0.200 F 
ATOM     91  F   UNL A   1      41.850  21.343  25.555  1.00  0.00    -0.200 F 
ENDBRANCH  57  81
BRANCH  69  92
ATOM     92  C   UNL A   1      45.334  30.472  28.473  1.00  0.00     0.064 A 
ATOM     93  C   UNL A   1      44.327  31.276  27.909  1.00  0.00     0.173 A 
ATOM     94  C   UNL A   1      46.644  30.677  28.023  1.00  0.00     0.173 A 
ATOM     95  F   UNL A   1      43.066  31.208  28.347  1.00  0.00    -0.203 F 
ATOM     96  C   UNL A   1      44.617  32.220  26.923  1.00  0.00     0.198 A 
ATOM     97  C   UNL A   1      46.937  31.643  27.064  1.00  0.00     0.198 A 
ATOM     98  F   UNL A   1      47.653  29.978  28.564  1.00  0.00    -0.203 F 
ATOM     99  F   UNL A   1      43.636  32.974  26.404  1.00  0.00    -0.200 F 
ATOM    100  C   UNL A   1      45.924  32.409  26.510  1.00  0.00     0.200 A 
ATOM    101  F   UNL A   1      48.210  31.856  26.705  1.00  0.00    -0.200 F 
ATOM    102  F   UNL A   1      46.213  33.347  25.598  1.00  0.00    -0.200 F 
ENDBRANCH  69  92
ENDBRANCH  43  44
ENDBRANCH  35  38
ENDBRANCH  33  34
ENDBRANCH  32  33
ENDBRANCH  31  32
ENDBRANCH  30  31
ENDBRANCH   1  30
TORSDOF 19
ENDMDL
