MODEL 1
REMARK VINA RESULT:     -11.6      0.000      0.000
REMARK SMILES Cc1ccc(NC(=O)c2cccn2CC(=O)NCCCCCCNC(=O)c2ccc(-c3c4nc(c(-c5c(F)c(F)c(F)c(F)c5F)c5ccc([nH]5)c(-c5c(F)c(F)c(F)c(F)c5F)c5nc(c(-c6c(F)c(F)c(F)c(F)c6F)c6ccc3[nH]6)C=C5)C=C4)cc2)cc1
REMARK SMILES IDX 20 1 19 2 18 3 17 4 15 5 16 6 14 8 13 9 9 10 10 11 11 12
REMARK SMILES IDX 12 13 7 14 6 15 8 17 5 18 1 19 2 20 3 21 91 22 4 23 90 24
REMARK SMILES IDX 21 25 22 26 23 27 24 28 25 29 26 31 27 32 28 33 89 34 29 35
REMARK SMILES IDX 88 36 30 37 31 38 32 39 82 40 33 41 87 42 81 43 83 44 34 45
REMARK SMILES IDX 86 46 80 47 79 48 35 50 67 51 47 52 66 53 48 54 51 55 65 56
REMARK SMILES IDX 84 57 49 58 50 59 64 61 85 62 52 63 36 64 37 65 45 66 38 67
REMARK SMILES IDX 39 68 43 69 46 70 40 71 41 72 44 73 42 74 68 75 69 76 77 77
REMARK SMILES IDX 70 78 71 79 75 80 78 81 72 82 73 83 76 84 74 85 53 86 54 87
REMARK SMILES IDX 62 88 55 89 56 90 60 91 63 92 57 93 58 94 61 95 59 96
REMARK H PARENT 17 7 6 16 24 30 83 49 51 60
REMARK Flexibility Score: inf
ROOT
ATOM      1  C   UNL A   1      39.482  23.822  26.755  1.00  0.00     0.002 C 
ENDROOT
BRANCH   1   2
ATOM      2  C   UNL A   1      38.490  22.828  26.128  1.00  0.00     0.021 C 
BRANCH   2   3
ATOM      3  C   UNL A   1      37.043  23.301  25.943  1.00  0.00     0.116 C 
BRANCH   3   4
ATOM      4  N   UNL A   1      36.075  22.364  26.499  1.00  0.00    -0.355 N 
ATOM      5  C   UNL A   1      34.715  22.456  26.606  1.00  0.00     0.239 C 
ATOM      6  O   UNL A   1      34.116  21.518  27.142  1.00  0.00    -0.273 OA
ATOM      7  H   UNL A   1      36.463  21.531  26.852  1.00  0.00     0.163 HD
BRANCH   5   8
ATOM      8  C   UNL A   1      33.957  23.648  26.053  1.00  0.00     0.222 C 
BRANCH   8   9
ATOM      9  N   UNL A   1      32.961  23.302  25.043  1.00  0.00    -0.334 N 
ATOM     10  C   UNL A   1      31.600  23.538  25.127  1.00  0.00     0.107 A 
ATOM     11  C   UNL A   1      31.070  23.253  23.873  1.00  0.00     0.033 A 
ATOM     12  C   UNL A   1      32.102  22.725  23.066  1.00  0.00     0.020 A 
ATOM     13  C   UNL A   1      33.258  22.770  23.810  1.00  0.00     0.087 A 
BRANCH  10  14
ATOM     14  C   UNL A   1      30.916  24.051  26.280  1.00  0.00     0.272 C 
ATOM     15  N   UNL A   1      30.497  25.354  26.357  1.00  0.00    -0.321 N 
ATOM     16  H   UNL A   1      30.169  25.599  27.253  1.00  0.00     0.170 HD
ATOM     17  O   UNL A   1      30.644  23.317  27.250  1.00  0.00    -0.267 OA
BRANCH  15  18
ATOM     18  C   UNL A   1      30.430  26.425  25.439  1.00  0.00     0.041 A 
ATOM     19  C   UNL A   1      30.035  29.518  22.427  1.00  0.00     0.044 C 
ATOM     20  C   UNL A   1      30.169  28.425  23.446  1.00  0.00    -0.051 A 
ATOM     21  C   UNL A   1      31.185  28.491  24.398  1.00  0.00     0.005 A 
ATOM     22  C   UNL A   1      29.282  27.348  23.491  1.00  0.00     0.005 A 
ATOM     23  C   UNL A   1      31.316  27.497  25.374  1.00  0.00     0.026 A 
ATOM     24  C   UNL A   1      29.412  26.360  24.477  1.00  0.00     0.026 A 
ENDBRANCH  15  18
ENDBRANCH  10  14
ENDBRANCH   8   9
ENDBRANCH   5   8
ENDBRANCH   3   4
ENDBRANCH   2   3
ENDBRANCH   1   2
BRANCH   1  25
ATOM     25  C   UNL A   1      40.807  23.231  27.275  1.00  0.00     0.002 C 
BRANCH  25  26
ATOM     26  C   UNL A   1      42.082  23.407  26.409  1.00  0.00     0.021 C 
BRANCH  26  27
ATOM     27  C   UNL A   1      43.106  24.520  26.786  1.00  0.00     0.116 C 
BRANCH  27  28
ATOM     28  N   UNL A   1      42.859  25.808  26.120  1.00  0.00    -0.352 N 
ATOM     29  C   UNL A   1      41.776  26.657  26.328  1.00  0.00     0.251 C 
ATOM     30  H   UNL A   1      43.529  26.099  25.461  1.00  0.00     0.163 HD
ATOM     31  O   UNL A   1      40.990  26.809  25.391  1.00  0.00    -0.269 OA
BRANCH  29  32
ATOM     32  C   UNL A   1      41.599  27.517  27.565  1.00  0.00     0.039 A 
ATOM     33  C   UNL A   1      40.844  27.014  28.656  1.00  0.00     0.014 A 
ATOM     34  C   UNL A   1      42.048  28.824  27.679  1.00  0.00     0.014 A 
ATOM     35  C   UNL A   1      40.644  27.738  29.872  1.00  0.00     0.010 A 
ATOM     36  C   UNL A   1      41.798  29.562  28.869  1.00  0.00     0.010 A 
ATOM     37  C   UNL A   1      41.165  29.021  30.029  1.00  0.00    -0.014 A 
BRANCH  37  38
ATOM     38  C   UNL A   1      41.526  29.610  31.393  1.00  0.00     0.031 A 
ATOM     39  C   UNL A   1      42.500  30.692  31.255  1.00  0.00     0.074 A 
ATOM     40  C   UNL A   1      40.861  29.800  32.576  1.00  0.00     0.049 A 
ATOM     41  N   UNL A   1      42.087  31.762  30.672  1.00  0.00    -0.248 NA
ATOM     42  C   UNL A   1      43.834  30.768  31.814  1.00  0.00     0.031 C 
ATOM     43  C   UNL A   1      39.656  29.120  33.015  1.00  0.00     0.029 A 
ATOM     44  N   UNL A   1      41.051  30.825  33.572  1.00  0.00    -0.354 N 
ATOM     45  C   UNL A   1      42.965  32.740  30.965  1.00  0.00     0.074 A 
ATOM     46  C   UNL A   1      44.093  32.069  31.599  1.00  0.00     0.031 C 
ATOM     47  C   UNL A   1      39.132  29.783  34.068  1.00  0.00     0.029 A 
ATOM     48  C   UNL A   1      39.921  30.999  34.382  1.00  0.00     0.049 A 
ATOM     49  H   UNL A   1      41.882  31.343  33.671  1.00  0.00     0.167 HD
ATOM     50  C   UNL A   1      42.565  34.021  30.777  1.00  0.00     0.037 A 
ATOM     51  C   UNL A   1      39.314  32.150  34.839  1.00  0.00     0.037 A 
ATOM     52  C   UNL A   1      41.199  34.201  30.252  1.00  0.00     0.049 A 
ATOM     53  C   UNL A   1      38.282  32.348  33.792  1.00  0.00     0.074 A 
ATOM     54  C   UNL A   1      40.594  34.986  29.290  1.00  0.00     0.029 A 
ATOM     55  N   UNL A   1      40.163  33.403  30.737  1.00  0.00    -0.354 N 
ATOM     56  N   UNL A   1      38.672  32.668  32.602  1.00  0.00    -0.248 NA
ATOM     57  C   UNL A   1      36.850  32.262  33.982  1.00  0.00     0.031 C 
ATOM     58  C   UNL A   1      39.218  34.583  29.170  1.00  0.00     0.029 A 
ATOM     59  C   UNL A   1      38.960  33.550  30.059  1.00  0.00     0.049 A 
ATOM     60  H   UNL A   1      40.276  32.786  31.496  1.00  0.00     0.167 HD
ATOM     61  C   UNL A   1      37.566  32.709  31.812  1.00  0.00     0.074 A 
ATOM     62  C   UNL A   1      36.453  32.493  32.722  1.00  0.00     0.031 C 
ATOM     63  C   UNL A   1      37.754  32.773  30.467  1.00  0.00     0.037 A 
BRANCH  50  64
ATOM     64  C   UNL A   1      43.447  35.091  31.303  1.00  0.00     0.064 A 
ATOM     65  C   UNL A   1      44.657  35.382  30.660  1.00  0.00     0.173 A 
ATOM     66  C   UNL A   1      43.044  35.951  32.342  1.00  0.00     0.173 A 
ATOM     67  F   UNL A   1      45.084  34.627  29.637  1.00  0.00    -0.203 F 
ATOM     68  C   UNL A   1      45.404  36.508  31.005  1.00  0.00     0.198 A 
ATOM     69  C   UNL A   1      43.771  37.097  32.655  1.00  0.00     0.198 A 
ATOM     70  F   UNL A   1      41.899  35.728  33.005  1.00  0.00    -0.203 F 
ATOM     71  F   UNL A   1      46.537  36.780  30.345  1.00  0.00    -0.200 F 
ATOM     72  C   UNL A   1      44.949  37.376  31.984  1.00  0.00     0.200 A 
ATOM     73  F   UNL A   1      43.297  37.958  33.567  1.00  0.00    -0.200 F 
ATOM     74  F   UNL A   1      45.629  38.497  32.260  1.00  0.00    -0.200 F 
ENDBRANCH  50  64
BRANCH  51  75
ATOM     75  C   UNL A   1      39.744  33.495  35.411  1.00  0.00     0.064 A 
ATOM     76  C   UNL A   1      41.067  33.925  35.228  1.00  0.00     0.173 A 
ATOM     77  C   UNL A   1      39.030  34.192  36.431  1.00  0.00     0.173 A 
ATOM     78  F   UNL A   1      41.850  33.311  34.330  1.00  0.00    -0.203 F 
ATOM     79  C   UNL A   1      41.644  34.926  36.037  1.00  0.00     0.198 A 
ATOM     80  C   UNL A   1      39.612  35.167  37.247  1.00  0.00     0.198 A 
ATOM     81  F   UNL A   1      37.759  33.909  36.730  1.00  0.00    -0.203 F 
ATOM     82  F   UNL A   1      42.931  35.261  35.865  1.00  0.00    -0.200 F 
ATOM     83  C   UNL A   1      40.926  35.525  37.059  1.00  0.00     0.200 A 
ATOM     84  F   UNL A   1      38.909  35.698  38.258  1.00  0.00    -0.200 F 
ATOM     85  F   UNL A   1      41.505  36.413  37.880  1.00  0.00    -0.200 F 
ENDBRANCH  51  75
BRANCH  63  86
ATOM     86  C   UNL A   1      36.810  32.054  29.512  1.00  0.00     0.064 A 
ATOM     87  C   UNL A   1      37.062  30.794  28.909  1.00  0.00     0.173 A 
ATOM     88  C   UNL A   1      35.665  32.702  29.006  1.00  0.00     0.173 A 
ATOM     89  F   UNL A   1      38.222  30.143  29.056  1.00  0.00    -0.203 F 
ATOM     90  C   UNL A   1      36.175  30.171  28.028  1.00  0.00     0.198 A 
ATOM     91  C   UNL A   1      34.796  32.096  28.088  1.00  0.00     0.198 A 
ATOM     92  F   UNL A   1      35.385  33.972  29.325  1.00  0.00    -0.203 F 
ATOM     93  F   UNL A   1      36.467  28.955  27.544  1.00  0.00    -0.200 F 
ATOM     94  C   UNL A   1      35.033  30.819  27.625  1.00  0.00     0.200 A 
ATOM     95  F   UNL A   1      33.738  32.779  27.630  1.00  0.00    -0.200 F 
ATOM     96  F   UNL A   1      34.196  30.236  26.758  1.00  0.00    -0.200 F 
ENDBRANCH  63  86
ENDBRANCH  37  38
ENDBRANCH  29  32
ENDBRANCH  27  28
ENDBRANCH  26  27
ENDBRANCH  25  26
ENDBRANCH   1  25
TORSDOF 16
ENDMDL
MODEL 2
REMARK VINA RESULT:     -11.4      5.062      9.844
REMARK SMILES Cc1ccc(NC(=O)c2cccn2CC(=O)NCCCCCCNC(=O)c2ccc(-c3c4nc(c(-c5c(F)c(F)c(F)c(F)c5F)c5ccc([nH]5)c(-c5c(F)c(F)c(F)c(F)c5F)c5nc(c(-c6c(F)c(F)c(F)c(F)c6F)c6ccc3[nH]6)C=C5)C=C4)cc2)cc1
REMARK SMILES IDX 20 1 19 2 18 3 17 4 15 5 16 6 14 8 13 9 9 10 10 11 11 12
REMARK SMILES IDX 12 13 7 14 6 15 8 17 5 18 1 19 2 20 3 21 91 22 4 23 90 24
REMARK SMILES IDX 21 25 22 26 23 27 24 28 25 29 26 31 27 32 28 33 89 34 29 35
REMARK SMILES IDX 88 36 30 37 31 38 32 39 82 40 33 41 87 42 81 43 83 44 34 45
REMARK SMILES IDX 86 46 80 47 79 48 35 50 67 51 47 52 66 53 48 54 51 55 65 56
REMARK SMILES IDX 84 57 49 58 50 59 64 61 85 62 52 63 36 64 37 65 45 66 38 67
REMARK SMILES IDX 39 68 43 69 46 70 40 71 41 72 44 73 42 74 68 75 69 76 77 77
REMARK SMILES IDX 70 78 71 79 75 80 78 81 72 82 73 83 76 84 74 85 53 86 54 87
REMARK SMILES IDX 62 88 55 89 56 90 60 91 63 92 57 93 58 94 61 95 59 96
REMARK H PARENT 17 7 6 16 24 30 83 49 51 60
REMARK Flexibility Score: inf
ROOT
ATOM      1  C   UNL A   1      35.696  30.583  27.720  1.00  0.00     0.002 C 
ENDROOT
BRANCH   1   2
ATOM      2  C   UNL A   1      34.459  29.680  27.581  1.00  0.00     0.021 C 
BRANCH   2   3
ATOM      3  C   UNL A   1      33.444  30.041  26.489  1.00  0.00     0.116 C 
BRANCH   3   4
ATOM      4  N   UNL A   1      33.745  29.403  25.215  1.00  0.00    -0.355 N 
ATOM      5  C   UNL A   1      32.908  28.931  24.241  1.00  0.00     0.239 C 
ATOM      6  O   UNL A   1      33.421  28.409  23.246  1.00  0.00    -0.273 OA
ATOM      7  H   UNL A   1      34.705  29.297  25.023  1.00  0.00     0.163 HD
BRANCH   5   8
ATOM      8  C   UNL A   1      31.402  29.076  24.354  1.00  0.00     0.222 C 
BRANCH   8   9
ATOM      9  N   UNL A   1      30.680  27.807  24.332  1.00  0.00    -0.334 N 
ATOM     10  C   UNL A   1      30.605  26.895  25.370  1.00  0.00     0.107 A 
ATOM     11  C   UNL A   1      29.652  25.951  25.002  1.00  0.00     0.033 A 
ATOM     12  C   UNL A   1      29.242  26.231  23.679  1.00  0.00     0.020 A 
ATOM     13  C   UNL A   1      29.888  27.382  23.292  1.00  0.00     0.087 A 
BRANCH  10  14
ATOM     14  C   UNL A   1      31.330  26.983  26.607  1.00  0.00     0.272 C 
ATOM     15  N   UNL A   1      32.404  26.177  26.880  1.00  0.00    -0.321 N 
ATOM     16  H   UNL A   1      32.713  26.252  27.812  1.00  0.00     0.170 HD
ATOM     17  O   UNL A   1      31.029  27.827  27.474  1.00  0.00    -0.267 OA
BRANCH  15  18
ATOM     18  C   UNL A   1      33.167  25.261  26.124  1.00  0.00     0.041 A 
ATOM     19  C   UNL A   1      35.377  22.204  23.988  1.00  0.00     0.044 C 
ATOM     20  C   UNL A   1      34.614  23.243  24.754  1.00  0.00    -0.051 A 
ATOM     21  C   UNL A   1      35.012  24.577  24.691  1.00  0.00     0.005 A 
ATOM     22  C   UNL A   1      33.487  22.919  25.511  1.00  0.00     0.005 A 
ATOM     23  C   UNL A   1      34.301  25.568  25.377  1.00  0.00     0.026 A 
ATOM     24  C   UNL A   1      32.772  23.917  26.187  1.00  0.00     0.026 A 
ENDBRANCH  15  18
ENDBRANCH  10  14
ENDBRANCH   8   9
ENDBRANCH   5   8
ENDBRANCH   3   4
ENDBRANCH   2   3
ENDBRANCH   1   2
BRANCH   1  25
ATOM     25  C   UNL A   1      35.595  31.728  28.748  1.00  0.00     0.002 C 
BRANCH  25  26
ATOM     26  C   UNL A   1      36.909  32.329  29.311  1.00  0.00     0.021 C 
BRANCH  26  27
ATOM     27  C   UNL A   1      37.144  32.330  30.852  1.00  0.00     0.116 C 
BRANCH  27  28
ATOM     28  N   UNL A   1      37.212  30.987  31.445  1.00  0.00    -0.352 N 
ATOM     29  C   UNL A   1      37.556  29.806  30.792  1.00  0.00     0.251 C 
ATOM     30  H   UNL A   1      36.994  30.915  32.402  1.00  0.00     0.163 HD
ATOM     31  O   UNL A   1      36.675  28.952  30.670  1.00  0.00    -0.269 OA
BRANCH  29  32
ATOM     32  C   UNL A   1      38.969  29.450  30.373  1.00  0.00     0.039 A 
ATOM     33  C   UNL A   1      39.325  29.525  29.001  1.00  0.00     0.014 A 
ATOM     34  C   UNL A   1      39.938  28.955  31.233  1.00  0.00     0.014 A 
ATOM     35  C   UNL A   1      40.637  29.235  28.513  1.00  0.00     0.010 A 
ATOM     36  C   UNL A   1      41.226  28.614  30.735  1.00  0.00     0.010 A 
ATOM     37  C   UNL A   1      41.642  28.818  29.384  1.00  0.00    -0.014 A 
BRANCH  37  38
ATOM     38  C   UNL A   1      43.127  29.057  29.112  1.00  0.00     0.031 A 
ATOM     39  C   UNL A   1      43.931  28.761  30.297  1.00  0.00     0.074 A 
ATOM     40  C   UNL A   1      43.946  28.942  28.018  1.00  0.00     0.049 A 
ATOM     41  N   UNL A   1      43.984  27.528  30.660  1.00  0.00    -0.248 NA
ATOM     42  C   UNL A   1      44.791  29.661  31.039  1.00  0.00     0.031 C 
ATOM     43  C   UNL A   1      43.536  28.909  26.626  1.00  0.00     0.029 A 
ATOM     44  N   UNL A   1      45.352  28.630  27.962  1.00  0.00    -0.354 N 
ATOM     45  C   UNL A   1      45.028  27.404  31.501  1.00  0.00     0.074 A 
ATOM     46  C   UNL A   1      45.454  28.767  31.793  1.00  0.00     0.031 C 
ATOM     47  C   UNL A   1      44.569  28.478  25.870  1.00  0.00     0.029 A 
ATOM     48  C   UNL A   1      45.741  28.132  26.712  1.00  0.00     0.049 A 
ATOM     49  H   UNL A   1      45.970  28.754  28.719  1.00  0.00     0.167 HD
ATOM     50  C   UNL A   1      45.507  26.156  31.728  1.00  0.00     0.037 A 
ATOM     51  C   UNL A   1      46.576  27.086  26.384  1.00  0.00     0.037 A 
ATOM     52  C   UNL A   1      44.812  25.060  31.030  1.00  0.00     0.049 A 
ATOM     53  C   UNL A   1      45.591  25.987  26.233  1.00  0.00     0.074 A 
ATOM     54  C   UNL A   1      44.356  23.799  31.357  1.00  0.00     0.029 A 
ATOM     55  N   UNL A   1      44.419  25.227  29.702  1.00  0.00    -0.354 N 
ATOM     56  N   UNL A   1      44.982  25.563  27.290  1.00  0.00    -0.248 NA
ATOM     57  C   UNL A   1      45.269  25.297  25.003  1.00  0.00     0.031 C 
ATOM     58  C   UNL A   1      43.629  23.270  30.233  1.00  0.00     0.029 A 
ATOM     59  C   UNL A   1      43.636  24.196  29.200  1.00  0.00     0.049 A 
ATOM     60  H   UNL A   1      44.675  26.013  29.166  1.00  0.00     0.167 HD
ATOM     61  C   UNL A   1      44.081  24.627  26.890  1.00  0.00     0.074 A 
ATOM     62  C   UNL A   1      44.325  24.464  25.466  1.00  0.00     0.031 C 
ATOM     63  C   UNL A   1      43.146  24.224  27.792  1.00  0.00     0.037 A 
BRANCH  50  64
ATOM     64  C   UNL A   1      46.784  26.046  32.475  1.00  0.00     0.064 A 
ATOM     65  C   UNL A   1      46.815  26.302  33.853  1.00  0.00     0.173 A 
ATOM     66  C   UNL A   1      47.955  25.533  31.887  1.00  0.00     0.173 A 
ATOM     67  F   UNL A   1      45.724  26.757  34.485  1.00  0.00    -0.203 F 
ATOM     68  C   UNL A   1      47.945  26.010  34.614  1.00  0.00     0.198 A 
ATOM     69  C   UNL A   1      49.068  25.204  32.657  1.00  0.00     0.198 A 
ATOM     70  F   UNL A   1      47.997  25.271  30.571  1.00  0.00    -0.203 F 
ATOM     71  F   UNL A   1      47.930  26.230  35.935  1.00  0.00    -0.200 F 
ATOM     72  C   UNL A   1      49.061  25.441  34.021  1.00  0.00     0.200 A 
ATOM     73  F   UNL A   1      50.121  24.606  32.085  1.00  0.00    -0.200 F 
ATOM     74  F   UNL A   1      50.116  25.091  34.768  1.00  0.00    -0.200 F 
ENDBRANCH  50  64
BRANCH  51  75
ATOM     75  C   UNL A   1      47.915  26.528  26.852  1.00  0.00     0.064 A 
ATOM     76  C   UNL A   1      48.406  26.896  28.113  1.00  0.00     0.173 A 
ATOM     77  C   UNL A   1      48.890  25.958  25.980  1.00  0.00     0.173 A 
ATOM     78  F   UNL A   1      47.592  27.486  29.000  1.00  0.00    -0.203 F 
ATOM     79  C   UNL A   1      49.768  26.761  28.451  1.00  0.00     0.198 A 
ATOM     80  C   UNL A   1      50.244  25.847  26.309  1.00  0.00     0.198 A 
ATOM     81  F   UNL A   1      48.587  25.550  24.744  1.00  0.00    -0.203 F 
ATOM     82  F   UNL A   1      50.203  27.184  29.648  1.00  0.00    -0.200 F 
ATOM     83  C   UNL A   1      50.687  26.263  27.542  1.00  0.00     0.200 A 
ATOM     84  F   UNL A   1      51.119  25.404  25.394  1.00  0.00    -0.200 F 
ATOM     85  F   UNL A   1      51.995  26.217  27.837  1.00  0.00    -0.200 F 
ENDBRANCH  51  75
BRANCH  63  86
ATOM     86  C   UNL A   1      41.728  23.890  27.350  1.00  0.00     0.064 A 
ATOM     87  C   UNL A   1      40.601  24.737  27.515  1.00  0.00     0.173 A 
ATOM     88  C   UNL A   1      41.400  22.596  26.898  1.00  0.00     0.173 A 
ATOM     89  F   UNL A   1      40.663  25.902  28.171  1.00  0.00    -0.203 F 
ATOM     90  C   UNL A   1      39.311  24.390  27.106  1.00  0.00     0.198 A 
ATOM     91  C   UNL A   1      40.097  22.231  26.528  1.00  0.00     0.198 A 
ATOM     92  F   UNL A   1      42.312  21.617  26.866  1.00  0.00    -0.203 F 
ATOM     93  F   UNL A   1      38.310  25.271  27.251  1.00  0.00    -0.200 F 
ATOM     94  C   UNL A   1      39.060  23.137  26.600  1.00  0.00     0.200 A 
ATOM     95  F   UNL A   1      39.852  20.976  26.128  1.00  0.00    -0.200 F 
ATOM     96  F   UNL A   1      37.820  22.793  26.235  1.00  0.00    -0.200 F 
ENDBRANCH  63  86
ENDBRANCH  37  38
ENDBRANCH  29  32
ENDBRANCH  27  28
ENDBRANCH  26  27
ENDBRANCH  25  26
ENDBRANCH   1  25
TORSDOF 16
ENDMDL
MODEL 3
REMARK VINA RESULT:     -11.3      5.214      9.751
REMARK SMILES Cc1ccc(NC(=O)c2cccn2CC(=O)NCCCCCCNC(=O)c2ccc(-c3c4nc(c(-c5c(F)c(F)c(F)c(F)c5F)c5ccc([nH]5)c(-c5c(F)c(F)c(F)c(F)c5F)c5nc(c(-c6c(F)c(F)c(F)c(F)c6F)c6ccc3[nH]6)C=C5)C=C4)cc2)cc1
REMARK SMILES IDX 20 1 19 2 18 3 17 4 15 5 16 6 14 8 13 9 9 10 10 11 11 12
REMARK SMILES IDX 12 13 7 14 6 15 8 17 5 18 1 19 2 20 3 21 91 22 4 23 90 24
REMARK SMILES IDX 21 25 22 26 23 27 24 28 25 29 26 31 27 32 28 33 89 34 29 35
REMARK SMILES IDX 88 36 30 37 31 38 32 39 82 40 33 41 87 42 81 43 83 44 34 45
REMARK SMILES IDX 86 46 80 47 79 48 35 50 67 51 47 52 66 53 48 54 51 55 65 56
REMARK SMILES IDX 84 57 49 58 50 59 64 61 85 62 52 63 36 64 37 65 45 66 38 67
REMARK SMILES IDX 39 68 43 69 46 70 40 71 41 72 44 73 42 74 68 75 69 76 77 77
REMARK SMILES IDX 70 78 71 79 75 80 78 81 72 82 73 83 76 84 74 85 53 86 54 87
REMARK SMILES IDX 62 88 55 89 56 90 60 91 63 92 57 93 58 94 61 95 59 96
REMARK H PARENT 17 7 6 16 24 30 83 49 51 60
REMARK Flexibility Score: inf
ROOT
ATOM      1  C   UNL A   1      36.495  29.762  27.513  1.00  0.00     0.002 C 
ENDROOT
BRANCH   1   2
ATOM      2  C   UNL A   1      34.963  29.629  27.521  1.00  0.00     0.021 C 
BRANCH   2   3
ATOM      3  C   UNL A   1      34.340  28.618  26.551  1.00  0.00     0.116 C 
BRANCH   3   4
ATOM      4  N   UNL A   1      32.962  28.294  26.893  1.00  0.00    -0.355 N 
ATOM      5  C   UNL A   1      32.260  27.130  26.734  1.00  0.00     0.239 C 
ATOM      6  O   UNL A   1      31.079  27.118  27.095  1.00  0.00    -0.273 OA
ATOM      7  H   UNL A   1      32.455  29.030  27.306  1.00  0.00     0.163 HD
BRANCH   5   8
ATOM      8  C   UNL A   1      32.914  25.883  26.171  1.00  0.00     0.222 C 
BRANCH   8   9
ATOM      9  N   UNL A   1      32.163  25.255  25.088  1.00  0.00    -0.334 N 
ATOM     10  C   UNL A   1      31.290  24.189  25.214  1.00  0.00     0.107 A 
ATOM     11  C   UNL A   1      30.640  24.060  23.991  1.00  0.00     0.033 A 
ATOM     12  C   UNL A   1      31.218  24.978  23.086  1.00  0.00     0.020 A 
ATOM     13  C   UNL A   1      32.150  25.705  23.789  1.00  0.00     0.087 A 
BRANCH  10  14
ATOM     14  C   UNL A   1      31.068  23.435  26.416  1.00  0.00     0.272 C 
ATOM     15  N   UNL A   1      31.862  22.374  26.767  1.00  0.00    -0.321 N 
ATOM     16  H   UNL A   1      31.511  21.871  27.537  1.00  0.00     0.170 HD
ATOM     17  O   UNL A   1      30.158  23.741  27.212  1.00  0.00    -0.267 OA
BRANCH  15  18
ATOM     18  C   UNL A   1      33.071  21.840  26.270  1.00  0.00     0.041 A 
ATOM     19  C   UNL A   1      36.939  20.457  24.886  1.00  0.00     0.044 C 
ATOM     20  C   UNL A   1      35.612  20.966  25.363  1.00  0.00    -0.051 A 
ATOM     21  C   UNL A   1      34.440  20.493  24.775  1.00  0.00     0.005 A 
ATOM     22  C   UNL A   1      35.508  21.884  26.409  1.00  0.00     0.005 A 
ATOM     23  C   UNL A   1      33.189  20.935  25.219  1.00  0.00     0.026 A 
ATOM     24  C   UNL A   1      34.252  22.315  26.857  1.00  0.00     0.026 A 
ENDBRANCH  15  18
ENDBRANCH  10  14
ENDBRANCH   8   9
ENDBRANCH   5   8
ENDBRANCH   3   4
ENDBRANCH   2   3
ENDBRANCH   1   2
BRANCH   1  25
ATOM     25  C   UNL A   1      37.164  30.064  28.869  1.00  0.00     0.002 C 
BRANCH  25  26
ATOM     26  C   UNL A   1      36.261  30.183  30.125  1.00  0.00     0.021 C 
BRANCH  26  27
ATOM     27  C   UNL A   1      36.679  29.445  31.433  1.00  0.00     0.116 C 
BRANCH  27  28
ATOM     28  N   UNL A   1      37.628  30.199  32.264  1.00  0.00    -0.352 N 
ATOM     29  C   UNL A   1      38.849  29.744  32.755  1.00  0.00     0.251 C 
ATOM     30  H   UNL A   1      37.375  31.122  32.498  1.00  0.00     0.163 HD
ATOM     31  O   UNL A   1      38.953  29.612  33.976  1.00  0.00    -0.269 OA
BRANCH  29  32
ATOM     32  C   UNL A   1      40.089  29.559  31.902  1.00  0.00     0.039 A 
ATOM     33  C   UNL A   1      40.393  30.520  30.903  1.00  0.00     0.014 A 
ATOM     34  C   UNL A   1      40.917  28.448  31.958  1.00  0.00     0.014 A 
ATOM     35  C   UNL A   1      41.551  30.446  30.068  1.00  0.00     0.010 A 
ATOM     36  C   UNL A   1      42.038  28.350  31.087  1.00  0.00     0.010 A 
ATOM     37  C   UNL A   1      42.437  29.375  30.177  1.00  0.00    -0.014 A 
BRANCH  37  38
ATOM     38  C   UNL A   1      43.917  29.482  29.810  1.00  0.00     0.031 A 
ATOM     39  C   UNL A   1      44.765  29.099  30.937  1.00  0.00     0.074 A 
ATOM     40  C   UNL A   1      44.649  29.309  28.664  1.00  0.00     0.049 A 
ATOM     41  N   UNL A   1      44.729  27.861  31.286  1.00  0.00    -0.248 NA
ATOM     42  C   UNL A   1      45.749  29.907  31.628  1.00  0.00     0.031 C 
ATOM     43  C   UNL A   1      44.149  29.332  27.301  1.00  0.00     0.029 A 
ATOM     44  N   UNL A   1      46.015  28.872  28.513  1.00  0.00    -0.354 N 
ATOM     45  C   UNL A   1      45.810  27.632  32.056  1.00  0.00     0.074 A 
ATOM     46  C   UNL A   1      46.376  28.947  32.330  1.00  0.00     0.031 C 
ATOM     47  C   UNL A   1      45.087  28.819  26.476  1.00  0.00     0.029 A 
ATOM     48  C   UNL A   1      46.275  28.358  27.236  1.00  0.00     0.049 A 
ATOM     49  H   UNL A   1      46.688  28.929  29.229  1.00  0.00     0.167 HD
ATOM     50  C   UNL A   1      46.187  26.343  32.241  1.00  0.00     0.037 A 
ATOM     51  C   UNL A   1      46.989  27.245  26.846  1.00  0.00     0.037 A 
ATOM     52  C   UNL A   1      45.351  25.323  31.582  1.00  0.00     0.049 A 
ATOM     53  C   UNL A   1      45.900  26.242  26.751  1.00  0.00     0.074 A 
ATOM     54  C   UNL A   1      44.804  24.104  31.928  1.00  0.00     0.029 A 
ATOM     55  N   UNL A   1      44.890  25.544  30.284  1.00  0.00    -0.354 N 
ATOM     56  N   UNL A   1      45.324  25.860  27.843  1.00  0.00    -0.248 NA
ATOM     57  C   UNL A   1      45.437  25.600  25.540  1.00  0.00     0.031 C 
ATOM     58  C   UNL A   1      43.961  23.658  30.850  1.00  0.00     0.029 A 
ATOM     59  C   UNL A   1      43.986  24.594  29.827  1.00  0.00     0.049 A 
ATOM     60  H   UNL A   1      45.181  26.310  29.738  1.00  0.00     0.167 HD
ATOM     61  C   UNL A   1      44.318  25.015  27.496  1.00  0.00     0.074 A 
ATOM     62  C   UNL A   1      44.454  24.850  26.058  1.00  0.00     0.031 C 
ATOM     63  C   UNL A   1      43.410  24.686  28.454  1.00  0.00     0.037 A 
BRANCH  50  64
ATOM     64  C   UNL A   1      47.494  26.108  32.902  1.00  0.00     0.064 A 
ATOM     65  C   UNL A   1      47.639  26.348  34.275  1.00  0.00     0.173 A 
ATOM     66  C   UNL A   1      48.570  25.493  32.237  1.00  0.00     0.173 A 
ATOM     67  F   UNL A   1      46.639  26.897  34.980  1.00  0.00    -0.203 F 
ATOM     68  C   UNL A   1      48.784  25.945  34.960  1.00  0.00     0.198 A 
ATOM     69  C   UNL A   1      49.695  25.054  32.932  1.00  0.00     0.198 A 
ATOM     70  F   UNL A   1      48.501  25.239  30.921  1.00  0.00    -0.203 F 
ATOM     71  F   UNL A   1      48.877  26.154  36.280  1.00  0.00    -0.200 F 
ATOM     72  C   UNL A   1      49.800  25.279  34.294  1.00  0.00     0.200 A 
ATOM     73  F   UNL A   1      50.649  24.366  32.289  1.00  0.00    -0.200 F 
ATOM     74  F   UNL A   1      50.865  24.826  34.968  1.00  0.00    -0.200 F 
ENDBRANCH  50  64
BRANCH  51  75
ATOM     75  C   UNL A   1      48.298  26.562  27.221  1.00  0.00     0.064 A 
ATOM     76  C   UNL A   1      48.897  26.860  28.455  1.00  0.00     0.173 A 
ATOM     77  C   UNL A   1      49.164  25.927  26.281  1.00  0.00     0.173 A 
ATOM     78  F   UNL A   1      48.193  27.501  29.399  1.00  0.00    -0.203 F 
ATOM     79  C   UNL A   1      50.259  26.599  28.705  1.00  0.00     0.198 A 
ATOM     80  C   UNL A   1      50.520  25.691  26.524  1.00  0.00     0.198 A 
ATOM     81  F   UNL A   1      48.750  25.572  25.061  1.00  0.00    -0.203 F 
ATOM     82  F   UNL A   1      50.802  26.957  29.878  1.00  0.00    -0.200 F 
ATOM     83  C   UNL A   1      51.073  26.041  27.732  1.00  0.00     0.200 A 
ATOM     84  F   UNL A   1      51.295  25.191  25.549  1.00  0.00    -0.200 F 
ATOM     85  F   UNL A   1      52.386  25.874  27.945  1.00  0.00    -0.200 F 
ENDBRANCH  51  75
BRANCH  63  86
ATOM     86  C   UNL A   1      41.942  24.487  28.103  1.00  0.00     0.064 A 
ATOM     87  C   UNL A   1      41.374  23.279  27.620  1.00  0.00     0.173 A 
ATOM     88  C   UNL A   1      41.056  25.582  28.063  1.00  0.00     0.173 A 
ATOM     89  F   UNL A   1      42.111  22.200  27.335  1.00  0.00    -0.203 F 
ATOM     90  C   UNL A   1      40.022  23.139  27.298  1.00  0.00     0.198 A 
ATOM     91  C   UNL A   1      39.709  25.453  27.697  1.00  0.00     0.198 A 
ATOM     92  F   UNL A   1      41.478  26.830  28.303  1.00  0.00    -0.203 F 
ATOM     93  F   UNL A   1      39.557  21.947  26.898  1.00  0.00    -0.200 F 
ATOM     94  C   UNL A   1      39.184  24.226  27.347  1.00  0.00     0.200 A 
ATOM     95  F   UNL A   1      38.928  26.541  27.657  1.00  0.00    -0.200 F 
ATOM     96  F   UNL A   1      37.895  24.101  27.011  1.00  0.00    -0.200 F 
ENDBRANCH  63  86
ENDBRANCH  37  38
ENDBRANCH  29  32
ENDBRANCH  27  28
ENDBRANCH  26  27
ENDBRANCH  25  26
ENDBRANCH   1  25
TORSDOF 16
ENDMDL
