MODEL 1
REMARK VINA RESULT:     -13.3      0.000      0.000
REMARK SMILES Cc1ccc(S(=O)(=O)N(c2ccccc2)[C@H](C)C(=O)NCCCCCCNC(=O)c2ccc(-c3c4nc(c(-c5c(F)c(F)c(F)c(F)c5F)c5ccc([nH]5)c(-c5c(F)c(F)c(F)c(F)c5F)c5nc(c(-c6c(F)c(F)c(F)c(F)c6F)c6ccc3[nH]6)C=C5)C=C4)cc2)cc1
REMARK SMILES IDX 23 1 22 2 21 3 20 4 18 5 19 6 16 8 17 9 9 10 6 11 7 12 8 13
REMARK SMILES IDX 5 14 1 15 2 16 3 17 94 18 4 19 93 20 10 21 11 22 15 23 12 24
REMARK SMILES IDX 14 25 13 26 24 27 25 28 26 29 27 30 28 31 29 33 30 34 31 35
REMARK SMILES IDX 92 36 32 37 91 38 33 39 34 40 35 41 85 42 36 43 90 44 84 45
REMARK SMILES IDX 86 46 37 47 89 48 83 49 82 50 38 52 70 53 50 54 69 55 51 56
REMARK SMILES IDX 54 57 68 58 87 59 52 60 53 61 67 63 88 64 55 65 39 66 40 67
REMARK SMILES IDX 48 68 41 69 42 70 46 71 49 72 43 73 44 74 47 75 45 76 71 77
REMARK SMILES IDX 72 78 80 79 73 80 74 81 78 82 81 83 75 84 76 85 79 86 77 87
REMARK SMILES IDX 56 88 57 89 65 90 58 91 59 92 63 93 66 94 60 95 61 96 64 97
REMARK SMILES IDX 62 98
REMARK H PARENT 20 7 27 32 86 51 54 62
REMARK Flexibility Score: inf
ROOT
ATOM      1  C   UNL A   1      31.713  28.379  27.391  1.00  0.00     0.002 C 
ENDROOT
BRANCH   1   2
ATOM      2  C   UNL A   1      32.102  27.081  26.664  1.00  0.00     0.021 C 
BRANCH   2   3
ATOM      3  C   UNL A   1      30.959  26.238  26.104  1.00  0.00     0.116 C 
BRANCH   3   4
ATOM      4  N   UNL A   1      30.935  24.859  26.527  1.00  0.00    -0.354 N 
ATOM      5  C   UNL A   1      31.935  23.927  26.490  1.00  0.00     0.243 C 
ATOM      6  O   UNL A   1      31.778  22.952  27.237  1.00  0.00    -0.273 OA
ATOM      7  H   UNL A   1      30.077  24.545  26.893  1.00  0.00     0.163 HD
BRANCH   5   8
ATOM      8  C   UNL A   1      33.165  24.001  25.569  1.00  0.00     0.185 C 
ATOM      9  C   UNL A   1      34.492  24.045  26.327  1.00  0.00     0.043 C 
BRANCH   8  10
ATOM     10  N   UNL A   1      33.158  23.097  24.358  1.00  0.00    -0.254 N 
BRANCH  10  11
ATOM     11  S   UNL A   1      33.649  23.886  22.911  1.00  0.00     0.265 S 
ATOM     12  O   UNL A   1      33.063  23.126  21.821  1.00  0.00    -0.201 OA
ATOM     13  O   UNL A   1      35.085  24.063  22.983  1.00  0.00    -0.201 OA
BRANCH  11  14
ATOM     14  C   UNL A   1      32.941  25.522  22.792  1.00  0.00     0.088 A 
ATOM     15  C   UNL A   1      30.894  29.309  22.981  1.00  0.00     0.044 C 
ATOM     16  C   UNL A   1      31.612  27.996  22.876  1.00  0.00    -0.051 A 
ATOM     17  C   UNL A   1      30.941  26.851  22.438  1.00  0.00     0.005 A 
ATOM     18  C   UNL A   1      32.978  27.908  23.176  1.00  0.00     0.005 A 
ATOM     19  C   UNL A   1      31.594  25.617  22.418  1.00  0.00     0.022 A 
ATOM     20  C   UNL A   1      33.649  26.683  23.091  1.00  0.00     0.022 A 
ENDBRANCH  11  14
ENDBRANCH  10  11
BRANCH  10  21
ATOM     21  C   UNL A   1      33.425  21.705  24.504  1.00  0.00     0.053 A 
ATOM     22  C   UNL A   1      32.342  20.837  24.313  1.00  0.00     0.027 A 
ATOM     23  C   UNL A   1      34.690  21.188  24.772  1.00  0.00     0.027 A 
ATOM     24  C   UNL A   1      32.525  19.458  24.359  1.00  0.00     0.002 A 
ATOM     25  C   UNL A   1      34.865  19.803  24.846  1.00  0.00     0.002 A 
ATOM     26  C   UNL A   1      33.787  18.940  24.635  1.00  0.00     0.000 A 
ENDBRANCH  10  21
ENDBRANCH   8  10
ENDBRANCH   5   8
ENDBRANCH   3   4
ENDBRANCH   2   3
ENDBRANCH   1   2
BRANCH   1  27
ATOM     27  C   UNL A   1      31.574  29.668  26.562  1.00  0.00     0.002 C 
BRANCH  27  28
ATOM     28  C   UNL A   1      32.402  30.879  26.994  1.00  0.00     0.021 C 
BRANCH  28  29
ATOM     29  C   UNL A   1      33.849  30.592  27.365  1.00  0.00     0.116 C 
BRANCH  29  30
ATOM     30  N   UNL A   1      34.383  31.478  28.399  1.00  0.00    -0.352 N 
ATOM     31  C   UNL A   1      35.497  31.275  29.196  1.00  0.00     0.251 C 
ATOM     32  H   UNL A   1      33.892  32.319  28.546  1.00  0.00     0.163 HD
ATOM     33  O   UNL A   1      35.882  32.119  29.996  1.00  0.00    -0.269 OA
BRANCH  31  34
ATOM     34  C   UNL A   1      36.279  30.043  28.968  1.00  0.00     0.039 A 
ATOM     35  C   UNL A   1      36.699  29.329  30.092  1.00  0.00     0.014 A 
ATOM     36  C   UNL A   1      36.847  29.824  27.714  1.00  0.00     0.014 A 
ATOM     37  C   UNL A   1      37.873  28.589  30.011  1.00  0.00     0.010 A 
ATOM     38  C   UNL A   1      38.055  29.157  27.654  1.00  0.00     0.010 A 
ATOM     39  C   UNL A   1      38.607  28.621  28.824  1.00  0.00    -0.014 A 
BRANCH  39  40
ATOM     40  C   UNL A   1      40.022  28.264  28.776  1.00  0.00     0.031 A 
ATOM     41  C   UNL A   1      40.437  26.897  28.408  1.00  0.00     0.074 A 
ATOM     42  C   UNL A   1      40.952  29.204  29.060  1.00  0.00     0.049 A 
ATOM     43  N   UNL A   1      41.573  26.371  28.729  1.00  0.00    -0.248 NA
ATOM     44  C   UNL A   1      39.549  25.969  27.720  1.00  0.00     0.031 C 
ATOM     45  C   UNL A   1      42.396  29.115  28.861  1.00  0.00     0.029 A 
ATOM     46  N   UNL A   1      40.775  30.377  29.815  1.00  0.00    -0.354 N 
ATOM     47  C   UNL A   1      41.680  25.165  28.074  1.00  0.00     0.074 A 
ATOM     48  C   UNL A   1      40.351  24.909  27.579  1.00  0.00     0.031 C 
ATOM     49  C   UNL A   1      43.000  29.971  29.700  1.00  0.00     0.029 A 
ATOM     50  C   UNL A   1      41.970  30.534  30.555  1.00  0.00     0.049 A 
ATOM     51  H   UNL A   1      39.986  30.966  29.826  1.00  0.00     0.167 HD
ATOM     52  C   UNL A   1      42.919  24.612  27.923  1.00  0.00     0.037 A 
ATOM     53  C   UNL A   1      41.978  30.500  31.918  1.00  0.00     0.037 A 
ATOM     54  C   UNL A   1      43.891  25.284  28.792  1.00  0.00     0.049 A 
ATOM     55  C   UNL A   1      42.856  29.420  32.505  1.00  0.00     0.074 A 
ATOM     56  C   UNL A   1      44.891  26.214  28.561  1.00  0.00     0.029 A 
ATOM     57  N   UNL A   1      43.723  25.228  30.175  1.00  0.00    -0.354 N 
ATOM     58  N   UNL A   1      43.302  28.399  31.827  1.00  0.00    -0.248 NA
ATOM     59  C   UNL A   1      43.246  29.372  33.912  1.00  0.00     0.031 C 
ATOM     60  C   UNL A   1      45.262  26.779  29.811  1.00  0.00     0.029 A 
ATOM     61  C   UNL A   1      44.512  26.171  30.803  1.00  0.00     0.049 A 
ATOM     62  H   UNL A   1      43.122  24.601  30.640  1.00  0.00     0.167 HD
ATOM     63  C   UNL A   1      43.966  27.550  32.671  1.00  0.00     0.074 A 
ATOM     64  C   UNL A   1      43.932  28.218  33.959  1.00  0.00     0.031 C 
ATOM     65  C   UNL A   1      44.461  26.351  32.247  1.00  0.00     0.037 A 
BRANCH  52  66
ATOM     66  C   UNL A   1      43.331  23.649  26.810  1.00  0.00     0.064 A 
ATOM     67  C   UNL A   1      42.946  22.287  26.872  1.00  0.00     0.173 A 
ATOM     68  C   UNL A   1      44.193  23.942  25.733  1.00  0.00     0.173 A 
ATOM     69  F   UNL A   1      42.076  21.847  27.793  1.00  0.00    -0.203 F 
ATOM     70  C   UNL A   1      43.446  21.311  25.998  1.00  0.00     0.198 A 
ATOM     71  C   UNL A   1      44.690  22.970  24.857  1.00  0.00     0.198 A 
ATOM     72  F   UNL A   1      44.606  25.178  25.457  1.00  0.00    -0.203 F 
ATOM     73  F   UNL A   1      43.075  20.031  26.146  1.00  0.00    -0.200 F 
ATOM     74  C   UNL A   1      44.332  21.651  25.000  1.00  0.00     0.200 A 
ATOM     75  F   UNL A   1      45.534  23.334  23.880  1.00  0.00    -0.200 F 
ATOM     76  F   UNL A   1      44.833  20.720  24.177  1.00  0.00    -0.200 F 
ENDBRANCH  52  66
BRANCH  53  77
ATOM     77  C   UNL A   1      40.718  30.992  32.534  1.00  0.00     0.064 A 
ATOM     78  C   UNL A   1      40.414  32.363  32.437  1.00  0.00     0.173 A 
ATOM     79  C   UNL A   1      39.680  30.122  32.887  1.00  0.00     0.173 A 
ATOM     80  F   UNL A   1      41.372  33.241  32.096  1.00  0.00    -0.203 F 
ATOM     81  C   UNL A   1      39.108  32.828  32.575  1.00  0.00     0.198 A 
ATOM     82  C   UNL A   1      38.375  30.594  33.040  1.00  0.00     0.198 A 
ATOM     83  F   UNL A   1      39.900  28.803  32.972  1.00  0.00    -0.203 F 
ATOM     84  F   UNL A   1      38.835  34.124  32.364  1.00  0.00    -0.200 F 
ATOM     85  C   UNL A   1      38.085  31.938  32.852  1.00  0.00     0.200 A 
ATOM     86  F   UNL A   1      37.379  29.728  33.275  1.00  0.00    -0.200 F 
ATOM     87  F   UNL A   1      36.816  32.366  32.894  1.00  0.00    -0.200 F 
ENDBRANCH  53  77
BRANCH  65  88
ATOM     88  C   UNL A   1      45.006  25.275  33.149  1.00  0.00     0.064 A 
ATOM     89  C   UNL A   1      46.373  24.964  33.255  1.00  0.00     0.173 A 
ATOM     90  C   UNL A   1      44.153  24.605  34.055  1.00  0.00     0.173 A 
ATOM     91  F   UNL A   1      47.292  25.619  32.532  1.00  0.00    -0.203 F 
ATOM     92  C   UNL A   1      46.843  24.002  34.153  1.00  0.00     0.198 A 
ATOM     93  C   UNL A   1      44.632  23.686  34.987  1.00  0.00     0.198 A 
ATOM     94  F   UNL A   1      42.833  24.843  34.073  1.00  0.00    -0.203 F 
ATOM     95  F   UNL A   1      48.152  23.710  34.187  1.00  0.00    -0.200 F 
ATOM     96  C   UNL A   1      45.976  23.371  35.025  1.00  0.00     0.200 A 
ATOM     97  F   UNL A   1      43.788  23.119  35.861  1.00  0.00    -0.200 F 
ATOM     98  F   UNL A   1      46.437  22.479  35.912  1.00  0.00    -0.200 F 
ENDBRANCH  65  88
ENDBRANCH  39  40
ENDBRANCH  31  34
ENDBRANCH  29  30
ENDBRANCH  28  29
ENDBRANCH  27  28
ENDBRANCH   1  27
TORSDOF 17
ENDMDL
MODEL 2
REMARK VINA RESULT:     -13.2      1.024      2.350
REMARK SMILES Cc1ccc(S(=O)(=O)N(c2ccccc2)[C@H](C)C(=O)NCCCCCCNC(=O)c2ccc(-c3c4nc(c(-c5c(F)c(F)c(F)c(F)c5F)c5ccc([nH]5)c(-c5c(F)c(F)c(F)c(F)c5F)c5nc(c(-c6c(F)c(F)c(F)c(F)c6F)c6ccc3[nH]6)C=C5)C=C4)cc2)cc1
REMARK SMILES IDX 23 1 22 2 21 3 20 4 18 5 19 6 16 8 17 9 9 10 6 11 7 12 8 13
REMARK SMILES IDX 5 14 1 15 2 16 3 17 94 18 4 19 93 20 10 21 11 22 15 23 12 24
REMARK SMILES IDX 14 25 13 26 24 27 25 28 26 29 27 30 28 31 29 33 30 34 31 35
REMARK SMILES IDX 92 36 32 37 91 38 33 39 34 40 35 41 85 42 36 43 90 44 84 45
REMARK SMILES IDX 86 46 37 47 89 48 83 49 82 50 38 52 70 53 50 54 69 55 51 56
REMARK SMILES IDX 54 57 68 58 87 59 52 60 53 61 67 63 88 64 55 65 39 66 40 67
REMARK SMILES IDX 48 68 41 69 42 70 46 71 49 72 43 73 44 74 47 75 45 76 71 77
REMARK SMILES IDX 72 78 80 79 73 80 74 81 78 82 81 83 75 84 76 85 79 86 77 87
REMARK SMILES IDX 56 88 57 89 65 90 58 91 59 92 63 93 66 94 60 95 61 96 64 97
REMARK SMILES IDX 62 98
REMARK H PARENT 20 7 27 32 86 51 54 62
REMARK Flexibility Score: inf
ROOT
ATOM      1  C   UNL A   1      31.764  28.436  27.188  1.00  0.00     0.002 C 
ENDROOT
BRANCH   1   2
ATOM      2  C   UNL A   1      32.397  27.276  26.402  1.00  0.00     0.021 C 
BRANCH   2   3
ATOM      3  C   UNL A   1      31.475  26.492  25.472  1.00  0.00     0.116 C 
BRANCH   3   4
ATOM      4  N   UNL A   1      30.884  25.302  26.036  1.00  0.00    -0.354 N 
ATOM      5  C   UNL A   1      31.499  24.199  26.561  1.00  0.00     0.243 C 
ATOM      6  O   UNL A   1      30.792  23.501  27.300  1.00  0.00    -0.273 OA
ATOM      7  H   UNL A   1      29.900  25.281  26.041  1.00  0.00     0.163 HD
BRANCH   5   8
ATOM      8  C   UNL A   1      32.945  23.774  26.253  1.00  0.00     0.185 C 
ATOM      9  C   UNL A   1      33.548  22.850  27.312  1.00  0.00     0.043 C 
BRANCH   8  10
ATOM     10  N   UNL A   1      33.244  23.379  24.825  1.00  0.00    -0.254 N 
BRANCH  10  11
ATOM     11  S   UNL A   1      34.611  24.184  24.162  1.00  0.00     0.265 S 
ATOM     12  O   UNL A   1      34.662  25.485  24.807  1.00  0.00    -0.201 OA
ATOM     13  O   UNL A   1      34.509  24.091  22.721  1.00  0.00    -0.201 OA
BRANCH  11  14
ATOM     14  C   UNL A   1      36.130  23.362  24.619  1.00  0.00     0.088 A 
ATOM     15  C   UNL A   1      39.521  21.256  26.243  1.00  0.00     0.044 C 
ATOM     16  C   UNL A   1      38.366  22.011  25.655  1.00  0.00    -0.051 A 
ATOM     17  C   UNL A   1      38.015  23.272  26.146  1.00  0.00     0.005 A 
ATOM     18  C   UNL A   1      37.648  21.481  24.575  1.00  0.00     0.005 A 
ATOM     19  C   UNL A   1      36.890  23.933  25.648  1.00  0.00     0.022 A 
ATOM     20  C   UNL A   1      36.562  22.175  24.031  1.00  0.00     0.022 A 
ENDBRANCH  11  14
ENDBRANCH  10  11
BRANCH  10  21
ATOM     21  C   UNL A   1      32.934  22.065  24.368  1.00  0.00     0.053 A 
ATOM     22  C   UNL A   1      32.197  21.974  23.180  1.00  0.00     0.027 A 
ATOM     23  C   UNL A   1      33.364  20.906  25.009  1.00  0.00     0.027 A 
ATOM     24  C   UNL A   1      31.914  20.733  22.617  1.00  0.00     0.002 A 
ATOM     25  C   UNL A   1      33.055  19.660  24.456  1.00  0.00     0.002 A 
ATOM     26  C   UNL A   1      32.336  19.573  23.261  1.00  0.00     0.000 A 
ENDBRANCH  10  21
ENDBRANCH   8  10
ENDBRANCH   5   8
ENDBRANCH   3   4
ENDBRANCH   2   3
ENDBRANCH   1   2
BRANCH   1  27
ATOM     27  C   UNL A   1      31.725  29.828  26.533  1.00  0.00     0.002 C 
BRANCH  27  28
ATOM     28  C   UNL A   1      32.557  30.937  27.178  1.00  0.00     0.021 C 
BRANCH  28  29
ATOM     29  C   UNL A   1      33.956  30.540  27.624  1.00  0.00     0.116 C 
BRANCH  29  30
ATOM     30  N   UNL A   1      34.533  31.433  28.628  1.00  0.00    -0.352 N 
ATOM     31  C   UNL A   1      35.699  31.251  29.353  1.00  0.00     0.251 C 
ATOM     32  H   UNL A   1      34.034  32.263  28.810  1.00  0.00     0.163 HD
ATOM     33  O   UNL A   1      36.116  32.100  30.132  1.00  0.00    -0.269 OA
BRANCH  31  34
ATOM     34  C   UNL A   1      36.492  30.038  29.070  1.00  0.00     0.039 A 
ATOM     35  C   UNL A   1      36.891  29.259  30.158  1.00  0.00     0.014 A 
ATOM     36  C   UNL A   1      37.089  29.896  27.818  1.00  0.00     0.014 A 
ATOM     37  C   UNL A   1      38.070  28.530  30.060  1.00  0.00     0.010 A 
ATOM     38  C   UNL A   1      38.302  29.239  27.746  1.00  0.00     0.010 A 
ATOM     39  C   UNL A   1      38.830  28.635  28.894  1.00  0.00    -0.014 A 
BRANCH  39  40
ATOM     40  C   UNL A   1      40.247  28.286  28.857  1.00  0.00     0.031 A 
ATOM     41  C   UNL A   1      40.675  26.928  28.472  1.00  0.00     0.074 A 
ATOM     42  C   UNL A   1      41.168  29.226  29.168  1.00  0.00     0.049 A 
ATOM     43  N   UNL A   1      41.809  26.403  28.798  1.00  0.00    -0.248 NA
ATOM     44  C   UNL A   1      39.800  26.007  27.758  1.00  0.00     0.031 C 
ATOM     45  C   UNL A   1      42.615  29.148  28.985  1.00  0.00     0.029 A 
ATOM     46  N   UNL A   1      40.976  30.386  29.940  1.00  0.00    -0.354 N 
ATOM     47  C   UNL A   1      41.931  25.209  28.124  1.00  0.00     0.074 A 
ATOM     48  C   UNL A   1      40.609  24.954  27.609  1.00  0.00     0.031 C 
ATOM     49  C   UNL A   1      43.205  29.994  29.845  1.00  0.00     0.029 A 
ATOM     50  C   UNL A   1      42.161  30.538  30.696  1.00  0.00     0.049 A 
ATOM     51  H   UNL A   1      40.184  30.971  29.950  1.00  0.00     0.167 HD
ATOM     52  C   UNL A   1      43.175  24.664  27.979  1.00  0.00     0.037 A 
ATOM     53  C   UNL A   1      42.154  30.481  32.058  1.00  0.00     0.037 A 
ATOM     54  C   UNL A   1      44.133  25.327  28.871  1.00  0.00     0.049 A 
ATOM     55  C   UNL A   1      43.030  29.396  32.638  1.00  0.00     0.074 A 
ATOM     56  C   UNL A   1      45.130  26.266  28.667  1.00  0.00     0.029 A 
ATOM     57  N   UNL A   1      43.948  25.247  30.250  1.00  0.00    -0.354 N 
ATOM     58  N   UNL A   1      43.491  28.389  31.949  1.00  0.00    -0.248 NA
ATOM     59  C   UNL A   1      43.404  29.327  34.049  1.00  0.00     0.031 C 
ATOM     60  C   UNL A   1      45.483  26.812  29.930  1.00  0.00     0.029 A 
ATOM     61  C   UNL A   1      44.725  26.184  30.903  1.00  0.00     0.049 A 
ATOM     62  H   UNL A   1      43.345  24.610  30.698  1.00  0.00     0.167 HD
ATOM     63  C   UNL A   1      44.149  27.530  32.787  1.00  0.00     0.074 A 
ATOM     64  C   UNL A   1      44.096  28.177  34.086  1.00  0.00     0.031 C 
ATOM     65  C   UNL A   1      44.655  26.341  32.349  1.00  0.00     0.037 A 
BRANCH  52  66
ATOM     66  C   UNL A   1      43.605  23.721  26.856  1.00  0.00     0.064 A 
ATOM     67  C   UNL A   1      43.213  22.360  26.883  1.00  0.00     0.173 A 
ATOM     68  C   UNL A   1      44.489  24.033  25.802  1.00  0.00     0.173 A 
ATOM     69  F   UNL A   1      42.324  21.905  27.778  1.00  0.00    -0.203 F 
ATOM     70  C   UNL A   1      43.728  21.400  26.000  1.00  0.00     0.198 A 
ATOM     71  C   UNL A   1      44.999  23.076  24.917  1.00  0.00     0.198 A 
ATOM     72  F   UNL A   1      44.911  25.272  25.559  1.00  0.00    -0.203 F 
ATOM     73  F   UNL A   1      43.350  20.119  26.115  1.00  0.00    -0.200 F 
ATOM     74  C   UNL A   1      44.635  21.756  25.026  1.00  0.00     0.200 A 
ATOM     75  F   UNL A   1      45.864  23.456  23.964  1.00  0.00    -0.200 F 
ATOM     76  F   UNL A   1      45.148  20.840  24.196  1.00  0.00    -0.200 F 
ENDBRANCH  52  66
BRANCH  53  77
ATOM     77  C   UNL A   1      40.884  30.956  32.667  1.00  0.00     0.064 A 
ATOM     78  C   UNL A   1      40.583  32.330  32.606  1.00  0.00     0.173 A 
ATOM     79  C   UNL A   1      39.839  30.077  32.976  1.00  0.00     0.173 A 
ATOM     80  F   UNL A   1      41.548  33.216  32.309  1.00  0.00    -0.203 F 
ATOM     81  C   UNL A   1      39.275  32.793  32.736  1.00  0.00     0.198 A 
ATOM     82  C   UNL A   1      38.532  30.547  33.121  1.00  0.00     0.198 A 
ATOM     83  F   UNL A   1      40.056  28.756  33.024  1.00  0.00    -0.203 F 
ATOM     84  F   UNL A   1      39.007  34.095  32.559  1.00  0.00    -0.200 F 
ATOM     85  C   UNL A   1      38.247  31.897  32.969  1.00  0.00     0.200 A 
ATOM     86  F   UNL A   1      37.531  29.676  33.312  1.00  0.00    -0.200 F 
ATOM     87  F   UNL A   1      36.978  32.325  33.002  1.00  0.00    -0.200 F 
ENDBRANCH  53  77
BRANCH  65  88
ATOM     88  C   UNL A   1      45.196  25.253  33.240  1.00  0.00     0.064 A 
ATOM     89  C   UNL A   1      46.565  24.969  33.383  1.00  0.00     0.173 A 
ATOM     90  C   UNL A   1      44.329  24.540  34.100  1.00  0.00     0.173 A 
ATOM     91  F   UNL A   1      47.492  25.663  32.707  1.00  0.00    -0.203 F 
ATOM     92  C   UNL A   1      47.028  23.994  34.270  1.00  0.00     0.198 A 
ATOM     93  C   UNL A   1      44.800  23.607  35.023  1.00  0.00     0.198 A 
ATOM     94  F   UNL A   1      43.005  24.748  34.081  1.00  0.00    -0.203 F 
ATOM     95  F   UNL A   1      48.341  23.730  34.338  1.00  0.00    -0.200 F 
ATOM     96  C   UNL A   1      46.148  23.321  35.096  1.00  0.00     0.200 A 
ATOM     97  F   UNL A   1      43.940  22.998  35.853  1.00  0.00    -0.200 F 
ATOM     98  F   UNL A   1      46.601  22.415  35.974  1.00  0.00    -0.200 F 
ENDBRANCH  65  88
ENDBRANCH  39  40
ENDBRANCH  31  34
ENDBRANCH  29  30
ENDBRANCH  28  29
ENDBRANCH  27  28
ENDBRANCH   1  27
TORSDOF 17
ENDMDL
MODEL 3
REMARK VINA RESULT:     -13.1      3.307      9.607
REMARK SMILES Cc1ccc(S(=O)(=O)N(c2ccccc2)[C@H](C)C(=O)NCCCCCCNC(=O)c2ccc(-c3c4nc(c(-c5c(F)c(F)c(F)c(F)c5F)c5ccc([nH]5)c(-c5c(F)c(F)c(F)c(F)c5F)c5nc(c(-c6c(F)c(F)c(F)c(F)c6F)c6ccc3[nH]6)C=C5)C=C4)cc2)cc1
REMARK SMILES IDX 23 1 22 2 21 3 20 4 18 5 19 6 16 8 17 9 9 10 6 11 7 12 8 13
REMARK SMILES IDX 5 14 1 15 2 16 3 17 94 18 4 19 93 20 10 21 11 22 15 23 12 24
REMARK SMILES IDX 14 25 13 26 24 27 25 28 26 29 27 30 28 31 29 33 30 34 31 35
REMARK SMILES IDX 92 36 32 37 91 38 33 39 34 40 35 41 85 42 36 43 90 44 84 45
REMARK SMILES IDX 86 46 37 47 89 48 83 49 82 50 38 52 70 53 50 54 69 55 51 56
REMARK SMILES IDX 54 57 68 58 87 59 52 60 53 61 67 63 88 64 55 65 39 66 40 67
REMARK SMILES IDX 48 68 41 69 42 70 46 71 49 72 43 73 44 74 47 75 45 76 71 77
REMARK SMILES IDX 72 78 80 79 73 80 74 81 78 82 81 83 75 84 76 85 79 86 77 87
REMARK SMILES IDX 56 88 57 89 65 90 58 91 59 92 63 93 66 94 60 95 61 96 64 97
REMARK SMILES IDX 62 98
REMARK H PARENT 20 7 27 32 86 51 54 62
REMARK Flexibility Score: inf
ROOT
ATOM      1  C   UNL A   1      35.048  22.553  24.118  1.00  0.00     0.002 C 
ENDROOT
BRANCH   1   2
ATOM      2  C   UNL A   1      33.624  22.103  23.755  1.00  0.00     0.021 C 
BRANCH   2   3
ATOM      3  C   UNL A   1      32.556  23.192  23.682  1.00  0.00     0.116 C 
BRANCH   3   4
ATOM      4  N   UNL A   1      32.560  23.989  22.479  1.00  0.00    -0.354 N 
ATOM      5  C   UNL A   1      32.992  25.273  22.295  1.00  0.00     0.243 C 
ATOM      6  O   UNL A   1      33.228  25.590  21.121  1.00  0.00    -0.273 OA
ATOM      7  H   UNL A   1      32.198  23.546  21.678  1.00  0.00     0.163 HD
BRANCH   5   8
ATOM      8  C   UNL A   1      33.143  26.314  23.419  1.00  0.00     0.185 C 
ATOM      9  C   UNL A   1      33.785  27.622  22.955  1.00  0.00     0.043 C 
BRANCH   8  10
ATOM     10  N   UNL A   1      31.964  26.482  24.348  1.00  0.00    -0.254 N 
BRANCH  10  11
ATOM     11  S   UNL A   1      32.403  26.535  26.010  1.00  0.00     0.265 S 
ATOM     12  O   UNL A   1      33.519  25.616  26.160  1.00  0.00    -0.201 OA
ATOM     13  O   UNL A   1      31.193  26.340  26.782  1.00  0.00    -0.201 OA
BRANCH  11  14
ATOM     14  C   UNL A   1      33.040  28.143  26.461  1.00  0.00     0.088 A 
ATOM     15  C   UNL A   1      34.344  31.911  28.093  1.00  0.00     0.044 C 
ATOM     16  C   UNL A   1      33.889  30.616  27.489  1.00  0.00    -0.051 A 
ATOM     17  C   UNL A   1      32.533  30.387  27.234  1.00  0.00     0.005 A 
ATOM     18  C   UNL A   1      34.821  29.633  27.131  1.00  0.00     0.005 A 
ATOM     19  C   UNL A   1      32.108  29.150  26.745  1.00  0.00     0.022 A 
ATOM     20  C   UNL A   1      34.400  28.419  26.578  1.00  0.00     0.022 A 
ENDBRANCH  11  14
ENDBRANCH  10  11
BRANCH  10  21
ATOM     21  C   UNL A   1      30.815  27.207  23.920  1.00  0.00     0.053 A 
ATOM     22  C   UNL A   1      29.616  26.488  23.839  1.00  0.00     0.027 A 
ATOM     23  C   UNL A   1      30.827  28.571  23.635  1.00  0.00     0.027 A 
ATOM     24  C   UNL A   1      28.427  27.130  23.504  1.00  0.00     0.002 A 
ATOM     25  C   UNL A   1      29.637  29.207  23.272  1.00  0.00     0.002 A 
ATOM     26  C   UNL A   1      28.439  28.490  23.212  1.00  0.00     0.000 A 
ENDBRANCH  10  21
ENDBRANCH   8  10
ENDBRANCH   5   8
ENDBRANCH   3   4
ENDBRANCH   2   3
ENDBRANCH   1   2
BRANCH   1  27
ATOM     27  C   UNL A   1      35.901  21.634  25.010  1.00  0.00     0.002 C 
BRANCH  27  28
ATOM     28  C   UNL A   1      37.422  21.755  24.902  1.00  0.00     0.021 C 
BRANCH  28  29
ATOM     29  C   UNL A   1      38.053  22.882  25.705  1.00  0.00     0.116 C 
BRANCH  29  30
ATOM     30  N   UNL A   1      39.483  22.702  25.955  1.00  0.00    -0.352 N 
ATOM     31  C   UNL A   1      40.370  23.618  26.496  1.00  0.00     0.251 C 
ATOM     32  H   UNL A   1      39.860  21.826  25.711  1.00  0.00     0.163 HD
ATOM     33  O   UNL A   1      41.542  23.334  26.711  1.00  0.00    -0.269 OA
BRANCH  31  34
ATOM     34  C   UNL A   1      39.825  24.925  26.914  1.00  0.00     0.039 A 
ATOM     35  C   UNL A   1      40.328  26.065  26.284  1.00  0.00     0.014 A 
ATOM     36  C   UNL A   1      39.112  25.011  28.110  1.00  0.00     0.014 A 
ATOM     37  C   UNL A   1      40.350  27.263  26.990  1.00  0.00     0.010 A 
ATOM     38  C   UNL A   1      39.208  26.178  28.842  1.00  0.00     0.010 A 
ATOM     39  C   UNL A   1      39.907  27.270  28.314  1.00  0.00    -0.014 A 
BRANCH  39  40
ATOM     40  C   UNL A   1      40.289  28.320  29.253  1.00  0.00     0.031 A 
ATOM     41  C   UNL A   1      39.362  29.428  29.556  1.00  0.00     0.074 A 
ATOM     42  C   UNL A   1      41.498  28.262  29.856  1.00  0.00     0.049 A 
ATOM     43  N   UNL A   1      39.729  30.578  30.014  1.00  0.00    -0.248 NA
ATOM     44  C   UNL A   1      37.936  29.353  29.270  1.00  0.00     0.031 C 
ATOM     45  C   UNL A   1      41.977  29.075  30.970  1.00  0.00     0.029 A 
ATOM     46  N   UNL A   1      42.641  27.574  29.409  1.00  0.00    -0.354 N 
ATOM     47  C   UNL A   1      38.594  31.286  30.338  1.00  0.00     0.074 A 
ATOM     48  C   UNL A   1      37.522  30.537  29.732  1.00  0.00     0.031 C 
ATOM     49  C   UNL A   1      43.319  29.097  30.943  1.00  0.00     0.029 A 
ATOM     50  C   UNL A   1      43.735  28.410  29.733  1.00  0.00     0.049 A 
ATOM     51  H   UNL A   1      42.673  26.696  28.965  1.00  0.00     0.167 HD
ATOM     52  C   UNL A   1      38.705  32.343  31.196  1.00  0.00     0.037 A 
ATOM     53  C   UNL A   1      44.541  28.940  28.770  1.00  0.00     0.037 A 
ATOM     54  C   UNL A   1      40.113  32.720  31.366  1.00  0.00     0.049 A 
ATOM     55  C   UNL A   1      44.589  30.450  28.765  1.00  0.00     0.074 A 
ATOM     56  C   UNL A   1      41.036  32.519  32.379  1.00  0.00     0.029 A 
ATOM     57  N   UNL A   1      40.835  33.173  30.264  1.00  0.00    -0.354 N 
ATOM     58  N   UNL A   1      43.716  31.206  29.370  1.00  0.00    -0.248 NA
ATOM     59  C   UNL A   1      45.587  31.223  28.029  1.00  0.00     0.031 C 
ATOM     60  C   UNL A   1      42.329  32.773  31.850  1.00  0.00     0.029 A 
ATOM     61  C   UNL A   1      42.191  33.158  30.528  1.00  0.00     0.049 A 
ATOM     62  H   UNL A   1      40.434  33.464  29.412  1.00  0.00     0.167 HD
ATOM     63  C   UNL A   1      43.974  32.518  29.077  1.00  0.00     0.074 A 
ATOM     64  C   UNL A   1      45.174  32.480  28.262  1.00  0.00     0.031 C 
ATOM     65  C   UNL A   1      43.159  33.527  29.504  1.00  0.00     0.037 A 
BRANCH  52  66
ATOM     66  C   UNL A   1      37.590  32.878  32.094  1.00  0.00     0.064 A 
ATOM     67  C   UNL A   1      36.519  33.614  31.531  1.00  0.00     0.173 A 
ATOM     68  C   UNL A   1      37.560  32.823  33.503  1.00  0.00     0.173 A 
ATOM     69  F   UNL A   1      36.355  33.710  30.204  1.00  0.00    -0.203 F 
ATOM     70  C   UNL A   1      35.572  34.297  32.308  1.00  0.00     0.198 A 
ATOM     71  C   UNL A   1      36.612  33.501  34.279  1.00  0.00     0.198 A 
ATOM     72  F   UNL A   1      38.434  32.116  34.215  1.00  0.00    -0.203 F 
ATOM     73  F   UNL A   1      34.612  35.016  31.708  1.00  0.00    -0.200 F 
ATOM     74  C   UNL A   1      35.629  34.254  33.684  1.00  0.00     0.200 A 
ATOM     75  F   UNL A   1      36.679  33.423  35.616  1.00  0.00    -0.200 F 
ATOM     76  F   UNL A   1      34.742  34.924  34.431  1.00  0.00    -0.200 F 
ENDBRANCH  52  66
BRANCH  53  77
ATOM     77  C   UNL A   1      44.661  28.088  27.558  1.00  0.00     0.064 A 
ATOM     78  C   UNL A   1      45.382  26.881  27.654  1.00  0.00     0.173 A 
ATOM     79  C   UNL A   1      43.818  28.252  26.453  1.00  0.00     0.173 A 
ATOM     80  F   UNL A   1      46.201  26.671  28.698  1.00  0.00    -0.203 F 
ATOM     81  C   UNL A   1      45.181  25.842  26.748  1.00  0.00     0.198 A 
ATOM     82  C   UNL A   1      43.632  27.214  25.538  1.00  0.00     0.198 A 
ATOM     83  F   UNL A   1      43.088  29.367  26.317  1.00  0.00    -0.203 F 
ATOM     84  F   UNL A   1      45.797  24.666  26.935  1.00  0.00    -0.200 F 
ATOM     85  C   UNL A   1      44.287  26.001  25.705  1.00  0.00     0.200 A 
ATOM     86  F   UNL A   1      42.741  27.354  24.546  1.00  0.00    -0.200 F 
ATOM     87  F   UNL A   1      44.021  24.975  24.886  1.00  0.00    -0.200 F 
ENDBRANCH  53  77
BRANCH  65  88
ATOM     88  C   UNL A   1      43.250  34.960  29.050  1.00  0.00     0.064 A 
ATOM     89  C   UNL A   1      42.925  35.390  27.752  1.00  0.00     0.173 A 
ATOM     90  C   UNL A   1      43.546  35.984  29.979  1.00  0.00     0.173 A 
ATOM     91  F   UNL A   1      42.514  34.522  26.817  1.00  0.00    -0.203 F 
ATOM     92  C   UNL A   1      42.961  36.739  27.390  1.00  0.00     0.198 A 
ATOM     93  C   UNL A   1      43.528  37.334  29.628  1.00  0.00     0.198 A 
ATOM     94  F   UNL A   1      43.840  35.701  31.256  1.00  0.00    -0.203 F 
ATOM     95  F   UNL A   1      42.684  37.094  26.127  1.00  0.00    -0.200 F 
ATOM     96  C   UNL A   1      43.253  37.710  28.329  1.00  0.00     0.200 A 
ATOM     97  F   UNL A   1      43.763  38.268  30.561  1.00  0.00    -0.200 F 
ATOM     98  F   UNL A   1      43.246  39.006  27.988  1.00  0.00    -0.200 F 
ENDBRANCH  65  88
ENDBRANCH  39  40
ENDBRANCH  31  34
ENDBRANCH  29  30
ENDBRANCH  28  29
ENDBRANCH  27  28
ENDBRANCH   1  27
TORSDOF 17
ENDMDL
