MODEL 1
REMARK VINA RESULT:     -12.2      0.000      0.000
REMARK SMILES CCC(CC)(NC(=O)Nc1cc(Cl)cc(Cl)c1)C(=O)NCCCCCCNC(=O)c1ccc(-c2c3nc(c(-c4c(F)c(F)c(F)c(F)c4F)c4ccc([nH]4)c(-c4c(F)c(F)c(F)c(F)c4F)c4nc(c(-c5c(F)c(F)c(F)c(F)c5F)c5ccc2[nH]5)C=C4)C=C3)cc1
REMARK SMILES IDX 23 1 22 2 21 3 20 4 18 5 19 6 3 8 2 9 1 10 4 11 5 12 6 13
REMARK SMILES IDX 7 14 8 16 9 17 10 19 11 20 17 21 12 22 15 23 13 24 14 25
REMARK SMILES IDX 16 26 24 27 25 28 26 29 27 30 28 31 29 33 30 34 31 35 92 36
REMARK SMILES IDX 32 37 91 38 33 39 34 40 35 41 85 42 36 43 90 44 84 45 86 46
REMARK SMILES IDX 37 47 89 48 83 49 82 50 38 52 70 53 50 54 69 55 51 56 54 57
REMARK SMILES IDX 68 58 87 59 52 60 53 61 67 63 88 64 55 65 39 66 40 67 48 68
REMARK SMILES IDX 41 69 42 70 46 71 49 72 43 73 44 74 47 75 45 76 71 77 72 78
REMARK SMILES IDX 80 79 73 80 74 81 78 82 81 83 75 84 76 85 79 86 77 87 56 88
REMARK SMILES IDX 57 89 65 90 58 91 59 92 63 93 66 94 60 95 61 96 64 97 62 98
REMARK H PARENT 20 7 6 15 9 18 27 32 86 51 54 62
REMARK Flexibility Score: inf
ROOT
ATOM      1  C   UNL A   1      32.261  30.032  25.432  1.00  0.00     0.002 C 
ENDROOT
BRANCH   1   2
ATOM      2  C   UNL A   1      31.243  29.229  24.605  1.00  0.00     0.021 C 
BRANCH   2   3
ATOM      3  C   UNL A   1      31.809  28.105  23.710  1.00  0.00     0.116 C 
BRANCH   3   4
ATOM      4  N   UNL A   1      30.849  27.020  23.556  1.00  0.00    -0.354 N 
ATOM      5  C   UNL A   1      30.294  26.148  24.486  1.00  0.00     0.245 C 
ATOM      6  O   UNL A   1      29.080  26.085  24.663  1.00  0.00    -0.272 OA
ATOM      7  H   UNL A   1      30.537  26.881  22.633  1.00  0.00     0.163 HD
BRANCH   5   8
ATOM      8  C   UNL A   1      31.312  25.349  25.329  1.00  0.00     0.120 C 
BRANCH   8   9
ATOM      9  C   UNL A   1      32.469  26.015  26.100  1.00  0.00     0.035 C 
ATOM     10  C   UNL A   1      33.833  26.076  25.451  1.00  0.00     0.007 C 
ENDBRANCH   8   9
BRANCH   8  11
ATOM     11  C   UNL A   1      31.864  24.457  24.143  1.00  0.00     0.035 C 
ATOM     12  C   UNL A   1      30.998  23.484  23.372  1.00  0.00     0.007 C 
ENDBRANCH   8  11
BRANCH   8  13
ATOM     13  N   UNL A   1      30.488  24.670  26.364  1.00  0.00    -0.323 N 
ATOM     14  C   UNL A   1      30.534  23.459  26.956  1.00  0.00     0.320 C 
ATOM     15  H   UNL A   1      29.745  25.228  26.690  1.00  0.00     0.166 HD
ATOM     16  O   UNL A   1      29.530  23.152  27.612  1.00  0.00    -0.248 OA
ATOM     17  N   UNL A   1      31.521  22.529  26.943  1.00  0.00    -0.308 N 
ATOM     18  H   UNL A   1      31.256  21.779  27.521  1.00  0.00     0.171 HD
BRANCH  17  19
ATOM     19  C   UNL A   1      32.801  22.249  26.392  1.00  0.00     0.045 A 
ATOM     20  C   UNL A   1      33.991  22.959  26.595  1.00  0.00     0.046 A 
ATOM     21  C   UNL A   1      32.947  21.001  25.779  1.00  0.00     0.046 A 
ATOM     22  C   UNL A   1      35.185  22.617  25.945  1.00  0.00     0.044 A 
ATOM     23  C   UNL A   1      34.160  20.618  25.187  1.00  0.00     0.044 A 
ATOM     24  Cl  UNL A   1      36.569  23.631  26.107  1.00  0.00    -0.084 Cl
ATOM     25  C   UNL A   1      35.266  21.457  25.205  1.00  0.00     0.041 A 
ATOM     26  Cl  UNL A   1      34.289  19.076  24.436  1.00  0.00    -0.084 Cl
ENDBRANCH  17  19
ENDBRANCH   8  13
ENDBRANCH   5   8
ENDBRANCH   3   4
ENDBRANCH   2   3
ENDBRANCH   1   2
BRANCH   1  27
ATOM     27  C   UNL A   1      31.744  30.544  26.774  1.00  0.00     0.002 C 
BRANCH  27  28
ATOM     28  C   UNL A   1      31.527  32.053  26.825  1.00  0.00     0.021 C 
BRANCH  28  29
ATOM     29  C   UNL A   1      32.754  32.849  27.243  1.00  0.00     0.116 C 
BRANCH  29  30
ATOM     30  N   UNL A   1      32.437  34.222  27.590  1.00  0.00    -0.352 N 
ATOM     31  C   UNL A   1      32.973  34.995  28.593  1.00  0.00     0.251 C 
ATOM     32  H   UNL A   1      31.750  34.655  27.035  1.00  0.00     0.163 HD
ATOM     33  O   UNL A   1      32.492  36.082  28.868  1.00  0.00    -0.269 OA
BRANCH  31  34
ATOM     34  C   UNL A   1      34.121  34.472  29.368  1.00  0.00     0.039 A 
ATOM     35  C   UNL A   1      33.871  33.843  30.588  1.00  0.00     0.014 A 
ATOM     36  C   UNL A   1      35.428  34.569  28.880  1.00  0.00     0.014 A 
ATOM     37  C   UNL A   1      34.926  33.259  31.290  1.00  0.00     0.010 A 
ATOM     38  C   UNL A   1      36.465  33.911  29.537  1.00  0.00     0.010 A 
ATOM     39  C   UNL A   1      36.226  33.254  30.753  1.00  0.00    -0.014 A 
BRANCH  39  40
ATOM     40  C   UNL A   1      37.327  32.543  31.452  1.00  0.00     0.031 A 
ATOM     41  C   UNL A   1      38.039  31.393  30.798  1.00  0.00     0.074 A 
ATOM     42  C   UNL A   1      37.668  32.924  32.700  1.00  0.00     0.049 A 
ATOM     43  N   UNL A   1      39.051  30.688  31.238  1.00  0.00    -0.248 NA
ATOM     44  C   UNL A   1      37.532  30.958  29.488  1.00  0.00     0.031 C 
ATOM     45  C   UNL A   1      37.012  33.984  33.467  1.00  0.00     0.029 A 
ATOM     46  N   UNL A   1      38.656  32.472  33.537  1.00  0.00    -0.354 N 
ATOM     47  C   UNL A   1      39.296  29.727  30.265  1.00  0.00     0.074 A 
ATOM     48  C   UNL A   1      38.287  29.898  29.243  1.00  0.00     0.031 C 
ATOM     49  C   UNL A   1      37.649  34.137  34.638  1.00  0.00     0.029 A 
ATOM     50  C   UNL A   1      38.731  33.161  34.722  1.00  0.00     0.049 A 
ATOM     51  H   UNL A   1      39.255  31.723  33.310  1.00  0.00     0.167 HD
ATOM     52  C   UNL A   1      40.285  28.802  30.219  1.00  0.00     0.037 A 
ATOM     53  C   UNL A   1      39.584  33.029  35.755  1.00  0.00     0.037 A 
ATOM     54  C   UNL A   1      41.294  28.645  31.236  1.00  0.00     0.049 A 
ATOM     55  C   UNL A   1      40.668  31.990  35.681  1.00  0.00     0.074 A 
ATOM     56  C   UNL A   1      42.383  27.791  31.248  1.00  0.00     0.029 A 
ATOM     57  N   UNL A   1      41.328  29.350  32.432  1.00  0.00    -0.354 N 
ATOM     58  N   UNL A   1      40.952  31.152  34.714  1.00  0.00    -0.248 NA
ATOM     59  C   UNL A   1      41.558  31.886  36.845  1.00  0.00     0.031 C 
ATOM     60  C   UNL A   1      43.034  27.929  32.479  1.00  0.00     0.029 A 
ATOM     61  C   UNL A   1      42.395  28.920  33.207  1.00  0.00     0.049 A 
ATOM     62  H   UNL A   1      40.689  30.052  32.692  1.00  0.00     0.167 HD
ATOM     63  C   UNL A   1      42.065  30.440  35.138  1.00  0.00     0.074 A 
ATOM     64  C   UNL A   1      42.421  30.966  36.440  1.00  0.00     0.031 C 
ATOM     65  C   UNL A   1      42.732  29.440  34.509  1.00  0.00     0.037 A 
BRANCH  52  66
ATOM     66  C   UNL A   1      40.316  27.878  29.033  1.00  0.00     0.064 A 
ATOM     67  C   UNL A   1      41.062  28.171  27.881  1.00  0.00     0.173 A 
ATOM     68  C   UNL A   1      39.604  26.668  29.059  1.00  0.00     0.173 A 
ATOM     69  F   UNL A   1      41.754  29.317  27.798  1.00  0.00    -0.203 F 
ATOM     70  C   UNL A   1      41.062  27.310  26.786  1.00  0.00     0.198 A 
ATOM     71  C   UNL A   1      39.636  25.792  27.976  1.00  0.00     0.198 A 
ATOM     72  F   UNL A   1      38.878  26.332  30.135  1.00  0.00    -0.203 F 
ATOM     73  F   UNL A   1      41.732  27.643  25.673  1.00  0.00    -0.200 F 
ATOM     74  C   UNL A   1      40.355  26.118  26.837  1.00  0.00     0.200 A 
ATOM     75  F   UNL A   1      38.964  24.634  28.034  1.00  0.00    -0.200 F 
ATOM     76  F   UNL A   1      40.358  25.289  25.784  1.00  0.00    -0.200 F 
ENDBRANCH  52  66
BRANCH  53  77
ATOM     77  C   UNL A   1      39.472  33.933  36.931  1.00  0.00     0.064 A 
ATOM     78  C   UNL A   1      40.100  35.188  36.935  1.00  0.00     0.173 A 
ATOM     79  C   UNL A   1      38.743  33.567  38.071  1.00  0.00     0.173 A 
ATOM     80  F   UNL A   1      40.827  35.576  35.876  1.00  0.00    -0.203 F 
ATOM     81  C   UNL A   1      40.020  36.031  38.041  1.00  0.00     0.198 A 
ATOM     82  C   UNL A   1      38.637  34.424  39.165  1.00  0.00     0.198 A 
ATOM     83  F   UNL A   1      38.120  32.380  38.118  1.00  0.00    -0.203 F 
ATOM     84  F   UNL A   1      40.671  37.202  38.037  1.00  0.00    -0.200 F 
ATOM     85  C   UNL A   1      39.283  35.651  39.152  1.00  0.00     0.200 A 
ATOM     86  F   UNL A   1      37.911  34.060  40.230  1.00  0.00    -0.200 F 
ATOM     87  F   UNL A   1      39.201  36.464  40.214  1.00  0.00    -0.200 F 
ENDBRANCH  53  77
BRANCH  65  88
ATOM     88  C   UNL A   1      43.928  28.867  35.217  1.00  0.00     0.064 A 
ATOM     89  C   UNL A   1      43.811  27.797  36.119  1.00  0.00     0.173 A 
ATOM     90  C   UNL A   1      45.209  29.395  34.994  1.00  0.00     0.173 A 
ATOM     91  F   UNL A   1      42.608  27.263  36.381  1.00  0.00    -0.203 F 
ATOM     92  C   UNL A   1      44.922  27.312  36.805  1.00  0.00     0.198 A 
ATOM     93  C   UNL A   1      46.324  28.880  35.651  1.00  0.00     0.198 A 
ATOM     94  F   UNL A   1      45.383  30.411  34.135  1.00  0.00    -0.203 F 
ATOM     95  F   UNL A   1      44.772  26.341  37.717  1.00  0.00    -0.200 F 
ATOM     96  C   UNL A   1      46.177  27.849  36.567  1.00  0.00     0.200 A 
ATOM     97  F   UNL A   1      47.539  29.389  35.406  1.00  0.00    -0.200 F 
ATOM     98  F   UNL A   1      47.244  27.383  37.230  1.00  0.00    -0.200 F 
ENDBRANCH  65  88
ENDBRANCH  39  40
ENDBRANCH  31  34
ENDBRANCH  29  30
ENDBRANCH  28  29
ENDBRANCH  27  28
ENDBRANCH   1  27
TORSDOF 17
ENDMDL
MODEL 2
REMARK VINA RESULT:     -12.1      5.477      9.920
REMARK SMILES CCC(CC)(NC(=O)Nc1cc(Cl)cc(Cl)c1)C(=O)NCCCCCCNC(=O)c1ccc(-c2c3nc(c(-c4c(F)c(F)c(F)c(F)c4F)c4ccc([nH]4)c(-c4c(F)c(F)c(F)c(F)c4F)c4nc(c(-c5c(F)c(F)c(F)c(F)c5F)c5ccc2[nH]5)C=C4)C=C3)cc1
REMARK SMILES IDX 23 1 22 2 21 3 20 4 18 5 19 6 3 8 2 9 1 10 4 11 5 12 6 13
REMARK SMILES IDX 7 14 8 16 9 17 10 19 11 20 17 21 12 22 15 23 13 24 14 25
REMARK SMILES IDX 16 26 24 27 25 28 26 29 27 30 28 31 29 33 30 34 31 35 92 36
REMARK SMILES IDX 32 37 91 38 33 39 34 40 35 41 85 42 36 43 90 44 84 45 86 46
REMARK SMILES IDX 37 47 89 48 83 49 82 50 38 52 70 53 50 54 69 55 51 56 54 57
REMARK SMILES IDX 68 58 87 59 52 60 53 61 67 63 88 64 55 65 39 66 40 67 48 68
REMARK SMILES IDX 41 69 42 70 46 71 49 72 43 73 44 74 47 75 45 76 71 77 72 78
REMARK SMILES IDX 80 79 73 80 74 81 78 82 81 83 75 84 76 85 79 86 77 87 56 88
REMARK SMILES IDX 57 89 65 90 58 91 59 92 63 93 66 94 60 95 61 96 64 97 62 98
REMARK H PARENT 20 7 6 15 9 18 27 32 86 51 54 62
REMARK Flexibility Score: inf
ROOT
ATOM      1  C   UNL A   1      37.996  23.237  26.126  1.00  0.00     0.002 C 
ENDROOT
BRANCH   1   2
ATOM      2  C   UNL A   1      37.231  22.654  24.926  1.00  0.00     0.021 C 
BRANCH   2   3
ATOM      3  C   UNL A   1      36.022  21.750  25.247  1.00  0.00     0.116 C 
BRANCH   3   4
ATOM      4  N   UNL A   1      35.398  22.132  26.508  1.00  0.00    -0.354 N 
ATOM      5  C   UNL A   1      34.070  22.104  26.918  1.00  0.00     0.245 C 
ATOM      6  O   UNL A   1      33.714  21.452  27.896  1.00  0.00    -0.272 OA
ATOM      7  H   UNL A   1      36.026  22.467  27.187  1.00  0.00     0.163 HD
BRANCH   5   8
ATOM      8  C   UNL A   1      33.082  22.866  26.007  1.00  0.00     0.120 C 
BRANCH   8   9
ATOM      9  C   UNL A   1      32.894  22.536  24.513  1.00  0.00     0.035 C 
ATOM     10  C   UNL A   1      32.561  21.114  24.121  1.00  0.00     0.007 C 
ENDBRANCH   8   9
BRANCH   8  11
ATOM     11  C   UNL A   1      33.737  24.295  26.192  1.00  0.00     0.035 C 
ATOM     12  C   UNL A   1      34.351  25.074  25.048  1.00  0.00     0.007 C 
ENDBRANCH   8  11
BRANCH   8  13
ATOM     13  N   UNL A   1      31.751  22.642  26.631  1.00  0.00    -0.323 N 
ATOM     14  C   UNL A   1      30.622  23.375  26.725  1.00  0.00     0.320 C 
ATOM     15  H   UNL A   1      31.676  21.766  27.073  1.00  0.00     0.166 HD
ATOM     16  O   UNL A   1      29.783  22.953  27.531  1.00  0.00    -0.248 OA
ATOM     17  N   UNL A   1      30.269  24.503  26.061  1.00  0.00    -0.308 N 
ATOM     18  H   UNL A   1      29.354  24.751  26.325  1.00  0.00     0.171 HD
BRANCH  17  19
ATOM     19  C   UNL A   1      30.746  25.456  25.120  1.00  0.00     0.045 A 
ATOM     20  C   UNL A   1      30.908  25.285  23.740  1.00  0.00     0.046 A 
ATOM     21  C   UNL A   1      30.834  26.776  25.573  1.00  0.00     0.046 A 
ATOM     22  C   UNL A   1      31.447  26.287  22.921  1.00  0.00     0.044 A 
ATOM     23  C   UNL A   1      31.305  27.802  24.740  1.00  0.00     0.044 A 
ATOM     24  Cl  UNL A   1      31.777  25.953  21.263  1.00  0.00    -0.084 Cl
ATOM     25  C   UNL A   1      31.682  27.547  23.429  1.00  0.00     0.041 A 
ATOM     26  Cl  UNL A   1      31.405  29.408  25.344  1.00  0.00    -0.084 Cl
ENDBRANCH  17  19
ENDBRANCH   8  13
ENDBRANCH   5   8
ENDBRANCH   3   4
ENDBRANCH   2   3
ENDBRANCH   1   2
BRANCH   1  27
ATOM     27  C   UNL A   1      39.279  22.497  26.497  1.00  0.00     0.002 C 
BRANCH  27  28
ATOM     28  C   UNL A   1      39.489  21.193  25.734  1.00  0.00     0.021 C 
BRANCH  28  29
ATOM     29  C   UNL A   1      39.803  19.994  26.615  1.00  0.00     0.116 C 
BRANCH  29  30
ATOM     30  N   UNL A   1      40.869  19.170  26.077  1.00  0.00    -0.352 N 
ATOM     31  C   UNL A   1      42.182  19.510  25.853  1.00  0.00     0.251 C 
ATOM     32  H   UNL A   1      40.619  18.246  25.843  1.00  0.00     0.163 HD
ATOM     33  O   UNL A   1      42.927  18.759  25.245  1.00  0.00    -0.269 OA
BRANCH  31  34
ATOM     34  C   UNL A   1      42.674  20.825  26.325  1.00  0.00     0.039 A 
ATOM     35  C   UNL A   1      43.062  21.771  25.376  1.00  0.00     0.014 A 
ATOM     36  C   UNL A   1      42.719  21.133  27.688  1.00  0.00     0.014 A 
ATOM     37  C   UNL A   1      43.439  23.049  25.793  1.00  0.00     0.010 A 
ATOM     38  C   UNL A   1      43.011  22.433  28.096  1.00  0.00     0.010 A 
ATOM     39  C   UNL A   1      43.379  23.403  27.153  1.00  0.00    -0.014 A 
BRANCH  39  40
ATOM     40  C   UNL A   1      43.682  24.792  27.582  1.00  0.00     0.031 A 
ATOM     41  C   UNL A   1      45.099  25.288  27.643  1.00  0.00     0.074 A 
ATOM     42  C   UNL A   1      42.669  25.604  27.946  1.00  0.00     0.049 A 
ATOM     43  N   UNL A   1      45.546  26.481  27.948  1.00  0.00    -0.248 NA
ATOM     44  C   UNL A   1      46.157  24.310  27.348  1.00  0.00     0.031 C 
ATOM     45  C   UNL A   1      41.257  25.222  27.990  1.00  0.00     0.029 A 
ATOM     46  N   UNL A   1      42.669  26.919  28.336  1.00  0.00    -0.354 N 
ATOM     47  C   UNL A   1      46.931  26.393  27.888  1.00  0.00     0.074 A 
ATOM     48  C   UNL A   1      47.253  25.017  27.581  1.00  0.00     0.031 C 
ATOM     49  C   UNL A   1      40.523  26.292  28.333  1.00  0.00     0.029 A 
ATOM     50  C   UNL A   1      41.414  27.424  28.570  1.00  0.00     0.049 A 
ATOM     51  H   UNL A   1      43.492  27.452  28.439  1.00  0.00     0.167 HD
ATOM     52  C   UNL A   1      47.850  27.377  28.052  1.00  0.00     0.037 A 
ATOM     53  C   UNL A   1      41.023  28.662  28.925  1.00  0.00     0.037 A 
ATOM     54  C   UNL A   1      47.521  28.749  28.347  1.00  0.00     0.049 A 
ATOM     55  C   UNL A   1      42.064  29.733  29.108  1.00  0.00     0.074 A 
ATOM     56  C   UNL A   1      48.372  29.835  28.457  1.00  0.00     0.029 A 
ATOM     57  N   UNL A   1      46.239  29.219  28.594  1.00  0.00    -0.354 N 
ATOM     58  N   UNL A   1      43.363  29.664  28.952  1.00  0.00    -0.248 NA
ATOM     59  C   UNL A   1      41.577  31.059  29.508  1.00  0.00     0.031 C 
ATOM     60  C   UNL A   1      47.613  30.947  28.839  1.00  0.00     0.029 A 
ATOM     61  C   UNL A   1      46.281  30.573  28.898  1.00  0.00     0.049 A 
ATOM     62  H   UNL A   1      45.421  28.674  28.560  1.00  0.00     0.167 HD
ATOM     63  C   UNL A   1      43.848  30.940  29.209  1.00  0.00     0.074 A 
ATOM     64  C   UNL A   1      42.696  31.768  29.503  1.00  0.00     0.031 C 
ATOM     65  C   UNL A   1      45.130  31.385  29.204  1.00  0.00     0.037 A 
BRANCH  52  66
ATOM     66  C   UNL A   1      49.300  26.999  27.929  1.00  0.00     0.064 A 
ATOM     67  C   UNL A   1      49.966  27.000  26.694  1.00  0.00     0.173 A 
ATOM     68  C   UNL A   1      50.042  26.652  29.069  1.00  0.00     0.173 A 
ATOM     69  F   UNL A   1      49.305  27.315  25.569  1.00  0.00    -0.203 F 
ATOM     70  C   UNL A   1      51.305  26.628  26.599  1.00  0.00     0.198 A 
ATOM     71  C   UNL A   1      51.391  26.316  28.975  1.00  0.00     0.198 A 
ATOM     72  F   UNL A   1      49.460  26.639  30.277  1.00  0.00    -0.203 F 
ATOM     73  F   UNL A   1      51.902  26.576  25.398  1.00  0.00    -0.200 F 
ATOM     74  C   UNL A   1      52.018  26.294  27.740  1.00  0.00     0.200 A 
ATOM     75  F   UNL A   1      52.081  26.009  30.082  1.00  0.00    -0.200 F 
ATOM     76  F   UNL A   1      53.308  25.940  27.648  1.00  0.00    -0.200 F 
ENDBRANCH  52  66
BRANCH  53  77
ATOM     77  C   UNL A   1      39.577  28.967  29.091  1.00  0.00     0.064 A 
ATOM     78  C   UNL A   1      38.959  28.856  30.345  1.00  0.00     0.173 A 
ATOM     79  C   UNL A   1      38.784  29.371  28.008  1.00  0.00     0.173 A 
ATOM     80  F   UNL A   1      39.670  28.452  31.409  1.00  0.00    -0.203 F 
ATOM     81  C   UNL A   1      37.600  29.116  30.505  1.00  0.00     0.198 A 
ATOM     82  C   UNL A   1      37.432  29.663  28.174  1.00  0.00     0.198 A 
ATOM     83  F   UNL A   1      39.327  29.498  26.788  1.00  0.00    -0.203 F 
ATOM     84  F   UNL A   1      37.025  28.954  31.704  1.00  0.00    -0.200 F 
ATOM     85  C   UNL A   1      36.839  29.526  29.421  1.00  0.00     0.200 A 
ATOM     86  F   UNL A   1      36.703  30.074  27.128  1.00  0.00    -0.200 F 
ATOM     87  F   UNL A   1      35.533  29.783  29.575  1.00  0.00    -0.200 F 
ENDBRANCH  53  77
BRANCH  65  88
ATOM     88  C   UNL A   1      45.346  32.842  29.507  1.00  0.00     0.064 A 
ATOM     89  C   UNL A   1      45.320  33.818  28.499  1.00  0.00     0.173 A 
ATOM     90  C   UNL A   1      45.586  33.268  30.822  1.00  0.00     0.173 A 
ATOM     91  F   UNL A   1      45.108  33.466  27.222  1.00  0.00    -0.203 F 
ATOM     92  C   UNL A   1      45.573  35.157  28.789  1.00  0.00     0.198 A 
ATOM     93  C   UNL A   1      45.798  34.613  31.115  1.00  0.00     0.198 A 
ATOM     94  F   UNL A   1      45.613  32.381  31.829  1.00  0.00    -0.203 F 
ATOM     95  F   UNL A   1      45.617  36.059  27.798  1.00  0.00    -0.200 F 
ATOM     96  C   UNL A   1      45.806  35.554  30.097  1.00  0.00     0.200 A 
ATOM     97  F   UNL A   1      46.006  34.997  32.382  1.00  0.00    -0.200 F 
ATOM     98  F   UNL A   1      46.052  36.841  30.374  1.00  0.00    -0.200 F 
ENDBRANCH  65  88
ENDBRANCH  39  40
ENDBRANCH  31  34
ENDBRANCH  29  30
ENDBRANCH  28  29
ENDBRANCH  27  28
ENDBRANCH   1  27
TORSDOF 17
ENDMDL
MODEL 3
REMARK VINA RESULT:     -12.0      1.283      2.635
REMARK SMILES CCC(CC)(NC(=O)Nc1cc(Cl)cc(Cl)c1)C(=O)NCCCCCCNC(=O)c1ccc(-c2c3nc(c(-c4c(F)c(F)c(F)c(F)c4F)c4ccc([nH]4)c(-c4c(F)c(F)c(F)c(F)c4F)c4nc(c(-c5c(F)c(F)c(F)c(F)c5F)c5ccc2[nH]5)C=C4)C=C3)cc1
REMARK SMILES IDX 23 1 22 2 21 3 20 4 18 5 19 6 3 8 2 9 1 10 4 11 5 12 6 13
REMARK SMILES IDX 7 14 8 16 9 17 10 19 11 20 17 21 12 22 15 23 13 24 14 25
REMARK SMILES IDX 16 26 24 27 25 28 26 29 27 30 28 31 29 33 30 34 31 35 92 36
REMARK SMILES IDX 32 37 91 38 33 39 34 40 35 41 85 42 36 43 90 44 84 45 86 46
REMARK SMILES IDX 37 47 89 48 83 49 82 50 38 52 70 53 50 54 69 55 51 56 54 57
REMARK SMILES IDX 68 58 87 59 52 60 53 61 67 63 88 64 55 65 39 66 40 67 48 68
REMARK SMILES IDX 41 69 42 70 46 71 49 72 43 73 44 74 47 75 45 76 71 77 72 78
REMARK SMILES IDX 80 79 73 80 74 81 78 82 81 83 75 84 76 85 79 86 77 87 56 88
REMARK SMILES IDX 57 89 65 90 58 91 59 92 63 93 66 94 60 95 61 96 64 97 62 98
REMARK H PARENT 20 7 6 15 9 18 27 32 86 51 54 62
REMARK Flexibility Score: inf
ROOT
ATOM      1  C   UNL A   1      31.565  29.390  26.823  1.00  0.00     0.002 C 
ENDROOT
BRANCH   1   2
ATOM      2  C   UNL A   1      32.733  28.398  26.699  1.00  0.00     0.021 C 
BRANCH   2   3
ATOM      3  C   UNL A   1      32.423  27.040  26.034  1.00  0.00     0.116 C 
BRANCH   3   4
ATOM      4  N   UNL A   1      31.322  27.156  25.086  1.00  0.00    -0.354 N 
ATOM      5  C   UNL A   1      31.241  26.846  23.733  1.00  0.00     0.245 C 
ATOM      6  O   UNL A   1      30.426  26.033  23.308  1.00  0.00    -0.272 OA
ATOM      7  H   UNL A   1      30.490  27.515  25.470  1.00  0.00     0.163 HD
BRANCH   5   8
ATOM      8  C   UNL A   1      32.303  27.523  22.837  1.00  0.00     0.120 C 
BRANCH   8   9
ATOM      9  C   UNL A   1      33.779  27.676  23.256  1.00  0.00     0.035 C 
ATOM     10  C   UNL A   1      34.380  29.063  23.297  1.00  0.00     0.007 C 
ENDBRANCH   8   9
BRANCH   8  11
ATOM     11  C   UNL A   1      31.590  28.934  22.753  1.00  0.00     0.035 C 
ATOM     12  C   UNL A   1      30.118  29.097  22.442  1.00  0.00     0.007 C 
ENDBRANCH   8  11
BRANCH   8  13
ATOM     13  N   UNL A   1      32.327  26.698  21.600  1.00  0.00    -0.323 N 
ATOM     14  C   UNL A   1      32.785  25.465  21.302  1.00  0.00     0.320 C 
ATOM     15  H   UNL A   1      31.919  27.152  20.828  1.00  0.00     0.166 HD
ATOM     16  O   UNL A   1      32.842  25.200  20.094  1.00  0.00    -0.248 OA
ATOM     17  N   UNL A   1      33.187  24.470  22.131  1.00  0.00    -0.308 N 
ATOM     18  H   UNL A   1      33.410  23.680  21.590  1.00  0.00     0.171 HD
BRANCH  17  19
ATOM     19  C   UNL A   1      33.402  24.161  23.501  1.00  0.00     0.045 A 
ATOM     20  C   UNL A   1      32.492  23.593  24.401  1.00  0.00     0.046 A 
ATOM     21  C   UNL A   1      34.729  24.199  23.939  1.00  0.00     0.046 A 
ATOM     22  C   UNL A   1      32.804  23.388  25.752  1.00  0.00     0.044 A 
ATOM     23  C   UNL A   1      35.064  23.927  25.275  1.00  0.00     0.044 A 
ATOM     24  Cl  UNL A   1      31.585  22.844  26.841  1.00  0.00    -0.084 Cl
ATOM     25  C   UNL A   1      34.091  23.589  26.205  1.00  0.00     0.041 A 
ATOM     26  Cl  UNL A   1      36.709  23.997  25.769  1.00  0.00    -0.084 Cl
ENDBRANCH  17  19
ENDBRANCH   8  13
ENDBRANCH   5   8
ENDBRANCH   3   4
ENDBRANCH   2   3
ENDBRANCH   1   2
BRANCH   1  27
ATOM     27  C   UNL A   1      31.732  30.688  26.037  1.00  0.00     0.002 C 
BRANCH  27  28
ATOM     28  C   UNL A   1      31.448  31.948  26.848  1.00  0.00     0.021 C 
BRANCH  28  29
ATOM     29  C   UNL A   1      32.692  32.714  27.274  1.00  0.00     0.116 C 
BRANCH  29  30
ATOM     30  N   UNL A   1      32.415  34.107  27.571  1.00  0.00    -0.352 N 
ATOM     31  C   UNL A   1      32.989  34.905  28.533  1.00  0.00     0.251 C 
ATOM     32  H   UNL A   1      31.729  34.536  27.011  1.00  0.00     0.163 HD
ATOM     33  O   UNL A   1      32.540  36.014  28.773  1.00  0.00    -0.269 OA
BRANCH  31  34
ATOM     34  C   UNL A   1      34.138  34.384  29.309  1.00  0.00     0.039 A 
ATOM     35  C   UNL A   1      33.884  33.688  30.491  1.00  0.00     0.014 A 
ATOM     36  C   UNL A   1      35.450  34.549  28.856  1.00  0.00     0.014 A 
ATOM     37  C   UNL A   1      34.943  33.106  31.188  1.00  0.00     0.010 A 
ATOM     38  C   UNL A   1      36.495  33.895  29.504  1.00  0.00     0.010 A 
ATOM     39  C   UNL A   1      36.253  33.171  30.681  1.00  0.00    -0.014 A 
BRANCH  39  40
ATOM     40  C   UNL A   1      37.363  32.465  31.370  1.00  0.00     0.031 A 
ATOM     41  C   UNL A   1      38.075  31.318  30.709  1.00  0.00     0.074 A 
ATOM     42  C   UNL A   1      37.714  32.846  32.615  1.00  0.00     0.049 A 
ATOM     43  N   UNL A   1      39.094  30.618  31.140  1.00  0.00    -0.248 NA
ATOM     44  C   UNL A   1      37.558  30.882  29.403  1.00  0.00     0.031 C 
ATOM     45  C   UNL A   1      37.060  33.903  33.389  1.00  0.00     0.029 A 
ATOM     46  N   UNL A   1      38.711  32.398  33.443  1.00  0.00    -0.354 N 
ATOM     47  C   UNL A   1      39.334  29.658  30.164  1.00  0.00     0.074 A 
ATOM     48  C   UNL A   1      38.316  29.825  29.151  1.00  0.00     0.031 C 
ATOM     49  C   UNL A   1      37.706  34.057  34.554  1.00  0.00     0.029 A 
ATOM     50  C   UNL A   1      38.793  33.087  34.628  1.00  0.00     0.049 A 
ATOM     51  H   UNL A   1      39.311  31.652  33.211  1.00  0.00     0.167 HD
ATOM     52  C   UNL A   1      40.327  28.738  30.109  1.00  0.00     0.037 A 
ATOM     53  C   UNL A   1      39.655  32.958  35.654  1.00  0.00     0.037 A 
ATOM     54  C   UNL A   1      41.346  28.584  31.117  1.00  0.00     0.049 A 
ATOM     55  C   UNL A   1      40.743  31.923  35.570  1.00  0.00     0.074 A 
ATOM     56  C   UNL A   1      42.438  27.735  31.119  1.00  0.00     0.029 A 
ATOM     57  N   UNL A   1      41.386  29.288  32.313  1.00  0.00    -0.354 N 
ATOM     58  N   UNL A   1      41.022  31.087  34.599  1.00  0.00    -0.248 NA
ATOM     59  C   UNL A   1      41.643  31.822  36.726  1.00  0.00     0.031 C 
ATOM     60  C   UNL A   1      43.099  27.875  32.344  1.00  0.00     0.029 A 
ATOM     61  C   UNL A   1      42.462  28.862  33.078  1.00  0.00     0.049 A 
ATOM     62  H   UNL A   1      40.747  29.987  32.579  1.00  0.00     0.167 HD
ATOM     63  C   UNL A   1      42.142  30.379  35.013  1.00  0.00     0.074 A 
ATOM     64  C   UNL A   1      42.507  30.906  36.313  1.00  0.00     0.031 C 
ATOM     65  C   UNL A   1      42.808  29.383  34.378  1.00  0.00     0.037 A 
BRANCH  52  66
ATOM     66  C   UNL A   1      40.352  27.814  28.922  1.00  0.00     0.064 A 
ATOM     67  C   UNL A   1      41.075  28.118  27.759  1.00  0.00     0.173 A 
ATOM     68  C   UNL A   1      39.657  26.594  28.958  1.00  0.00     0.173 A 
ATOM     69  F   UNL A   1      41.750  29.274  27.665  1.00  0.00    -0.203 F 
ATOM     70  C   UNL A   1      41.069  27.258  26.663  1.00  0.00     0.198 A 
ATOM     71  C   UNL A   1      39.684  25.720  27.874  1.00  0.00     0.198 A 
ATOM     72  F   UNL A   1      38.954  26.248  30.046  1.00  0.00    -0.203 F 
ATOM     73  F   UNL A   1      41.716  27.600  25.540  1.00  0.00    -0.200 F 
ATOM     74  C   UNL A   1      40.379  26.056  26.725  1.00  0.00     0.200 A 
ATOM     75  F   UNL A   1      39.029  24.552  27.943  1.00  0.00    -0.200 F 
ATOM     76  F   UNL A   1      40.378  25.227  25.671  1.00  0.00    -0.200 F 
ENDBRANCH  52  66
BRANCH  53  77
ATOM     77  C   UNL A   1      39.550  33.860  36.832  1.00  0.00     0.064 A 
ATOM     78  C   UNL A   1      38.835  33.469  37.974  1.00  0.00     0.173 A 
ATOM     79  C   UNL A   1      40.153  35.125  36.843  1.00  0.00     0.173 A 
ATOM     80  F   UNL A   1      38.222  32.276  38.005  1.00  0.00    -0.203 F 
ATOM     81  C   UNL A   1      38.711  34.317  39.072  1.00  0.00     0.198 A 
ATOM     82  C   UNL A   1      40.056  35.960  37.954  1.00  0.00     0.198 A 
ATOM     83  F   UNL A   1      40.852  35.546  35.778  1.00  0.00    -0.203 F 
ATOM     84  F   UNL A   1      37.981  33.938  40.130  1.00  0.00    -0.200 F 
ATOM     85  C   UNL A   1      39.327  35.559  39.064  1.00  0.00     0.200 A 
ATOM     86  F   UNL A   1      40.666  37.153  37.949  1.00  0.00    -0.200 F 
ATOM     87  F   UNL A   1      39.213  36.373  40.122  1.00  0.00    -0.200 F 
ENDBRANCH  53  77
BRANCH  65  88
ATOM     88  C   UNL A   1      44.013  28.814  35.075  1.00  0.00     0.064 A 
ATOM     89  C   UNL A   1      45.296  29.352  34.890  1.00  0.00     0.173 A 
ATOM     90  C   UNL A   1      43.884  27.715  35.938  1.00  0.00     0.173 A 
ATOM     91  F   UNL A   1      45.480  30.394  34.066  1.00  0.00    -0.203 F 
ATOM     92  C   UNL A   1      46.409  28.781  35.504  1.00  0.00     0.198 A 
ATOM     93  C   UNL A   1      44.993  27.172  36.583  1.00  0.00     0.198 A 
ATOM     94  F   UNL A   1      42.680  27.165  36.161  1.00  0.00    -0.203 F 
ATOM     95  F   UNL A   1      47.633  29.267  35.252  1.00  0.00    -0.200 F 
ATOM     96  C   UNL A   1      46.255  27.697  36.354  1.00  0.00     0.200 A 
ATOM     97  F   UNL A   1      44.840  26.135  37.417  1.00  0.00    -0.200 F 
ATOM     98  F   UNL A   1      47.327  27.147  36.941  1.00  0.00    -0.200 F 
ENDBRANCH  65  88
ENDBRANCH  39  40
ENDBRANCH  31  34
ENDBRANCH  29  30
ENDBRANCH  28  29
ENDBRANCH  27  28
ENDBRANCH   1  27
TORSDOF 17
ENDMDL
