MODEL 1
REMARK VINA RESULT:     -12.5      0.000      0.000
REMARK SMILES CC1CCN(C(=O)N[C@]2(C(=O)NCCCCCCNC(=O)c3ccc(-c4c5nc(c(-c6c(F)c(F)c(F)c(F)c6F)c6ccc([nH]6)c(-c6c(F)c(F)c(F)c(F)c6F)c6nc(c(-c7c(F)c(F)c(F)c(F)c7F)c7ccc4[nH]7)C=C6)C=C5)cc3)CCSC2)CC1
REMARK SMILES IDX 16 1 15 2 14 3 13 4 12 5 10 6 11 7 9 9 85 10 88 11 86 12
REMARK SMILES IDX 87 13 8 14 1 15 2 16 3 17 90 18 4 19 89 20 5 21 6 22 7 23
REMARK SMILES IDX 17 25 18 26 19 27 20 28 21 30 22 31 23 32 84 33 24 34 83 35
REMARK SMILES IDX 25 36 26 37 27 38 77 39 28 40 82 41 76 42 78 43 29 44 81 45
REMARK SMILES IDX 75 46 74 47 30 49 62 50 42 51 61 52 43 53 46 54 60 55 79 56
REMARK SMILES IDX 44 57 45 58 59 60 80 61 47 62 31 63 32 64 40 65 33 66 34 67
REMARK SMILES IDX 38 68 41 69 35 70 36 71 39 72 37 73 63 74 64 75 72 76 65 77
REMARK SMILES IDX 66 78 70 79 73 80 67 81 68 82 71 83 69 84 48 85 49 86 57 87
REMARK SMILES IDX 50 88 51 89 55 90 58 91 52 92 53 93 56 94 54 95
REMARK H PARENT 12 8 8 24 19 29 78 48 46 59
REMARK Flexibility Score: inf
ROOT
ATOM      1  C   UNL A   1      31.832  30.513  26.586  1.00  0.00     0.002 C 
ENDROOT
BRANCH   1   2
ATOM      2  C   UNL A   1      33.299  30.089  26.569  1.00  0.00     0.002 C 
BRANCH   2   3
ATOM      3  C   UNL A   1      33.677  28.870  25.723  1.00  0.00     0.021 C 
BRANCH   3   4
ATOM      4  C   UNL A   1      33.312  28.842  24.230  1.00  0.00     0.116 C 
BRANCH   4   5
ATOM      5  N   UNL A   1      33.847  27.741  23.455  1.00  0.00    -0.354 N 
ATOM      6  C   UNL A   1      33.298  26.657  22.846  1.00  0.00     0.246 C 
ATOM      7  O   UNL A   1      34.005  26.161  21.956  1.00  0.00    -0.272 OA
ATOM      8  H   UNL A   1      34.824  27.789  23.343  1.00  0.00     0.163 HD
BRANCH   6   9
ATOM      9  C   UNL A   1      31.889  26.057  23.138  1.00  0.00     0.130 C 
ATOM     10  C   UNL A   1      31.224  26.179  24.524  1.00  0.00     0.050 C 
ATOM     11  C   UNL A   1      30.985  26.803  22.104  1.00  0.00     0.108 C 
ATOM     12  C   UNL A   1      29.788  26.671  24.403  1.00  0.00     0.072 C 
ATOM     13  S   UNL A   1      29.850  27.842  23.050  1.00  0.00    -0.159 SA
BRANCH   9  14
ATOM     14  N   UNL A   1      31.945  24.603  22.776  1.00  0.00    -0.323 N 
ATOM     15  C   UNL A   1      37.378  23.527  25.424  1.00  0.00     0.008 C 
ATOM     16  C   UNL A   1      35.875  23.280  25.542  1.00  0.00    -0.011 C 
ATOM     17  C   UNL A   1      35.388  22.157  24.614  1.00  0.00     0.025 C 
ATOM     18  C   UNL A   1      35.114  24.563  25.210  1.00  0.00     0.025 C 
ATOM     19  C   UNL A   1      33.853  22.025  24.621  1.00  0.00     0.121 C 
ATOM     20  C   UNL A   1      33.611  24.323  25.343  1.00  0.00     0.121 C 
ATOM     21  N   UNL A   1      33.199  23.321  24.377  1.00  0.00    -0.325 N 
ATOM     22  C   UNL A   1      32.402  23.443  23.278  1.00  0.00     0.318 C 
ATOM     23  O   UNL A   1      32.059  22.452  22.621  1.00  0.00    -0.249 OA
ATOM     24  H   UNL A   1      31.515  24.453  21.904  1.00  0.00     0.166 HD
ENDBRANCH   9  14
ENDBRANCH   6   9
ENDBRANCH   4   5
ENDBRANCH   3   4
ENDBRANCH   2   3
ENDBRANCH   1   2
BRANCH   1  25
ATOM     25  C   UNL A   1      31.606  32.017  26.706  1.00  0.00     0.021 C 
BRANCH  25  26
ATOM     26  C   UNL A   1      32.719  32.766  27.420  1.00  0.00     0.116 C 
BRANCH  26  27
ATOM     27  N   UNL A   1      32.390  34.160  27.668  1.00  0.00    -0.352 N 
ATOM     28  C   UNL A   1      32.944  35.003  28.606  1.00  0.00     0.251 C 
ATOM     29  H   UNL A   1      31.687  34.547  27.099  1.00  0.00     0.163 HD
ATOM     30  O   UNL A   1      32.477  36.110  28.816  1.00  0.00    -0.269 OA
BRANCH  28  31
ATOM     31  C   UNL A   1      34.103  34.520  29.384  1.00  0.00     0.039 A 
ATOM     32  C   UNL A   1      33.884  33.930  30.630  1.00  0.00     0.014 A 
ATOM     33  C   UNL A   1      35.393  34.593  28.847  1.00  0.00     0.014 A 
ATOM     34  C   UNL A   1      34.956  33.355  31.314  1.00  0.00     0.010 A 
ATOM     35  C   UNL A   1      36.443  33.950  29.493  1.00  0.00     0.010 A 
ATOM     36  C   UNL A   1      36.236  33.329  30.735  1.00  0.00    -0.014 A 
BRANCH  36  37
ATOM     37  C   UNL A   1      37.374  32.664  31.416  1.00  0.00     0.031 A 
ATOM     38  C   UNL A   1      38.067  31.504  30.759  1.00  0.00     0.074 A 
ATOM     39  C   UNL A   1      37.740  33.062  32.650  1.00  0.00     0.049 A 
ATOM     40  N   UNL A   1      39.041  30.757  31.212  1.00  0.00    -0.248 NA
ATOM     41  C   UNL A   1      37.580  31.112  29.427  1.00  0.00     0.031 C 
ATOM     42  C   UNL A   1      37.108  34.139  33.413  1.00  0.00     0.029 A 
ATOM     43  N   UNL A   1      38.729  32.601  33.483  1.00  0.00    -0.354 N 
ATOM     44  C   UNL A   1      39.273  29.803  30.230  1.00  0.00     0.074 A 
ATOM     45  C   UNL A   1      38.300  30.027  29.183  1.00  0.00     0.031 C 
ATOM     46  C   UNL A   1      37.741  34.273  34.590  1.00  0.00     0.029 A 
ATOM     47  C   UNL A   1      38.798  33.270  34.680  1.00  0.00     0.049 A 
ATOM     48  H   UNL A   1      39.332  31.860  33.244  1.00  0.00     0.167 HD
ATOM     49  C   UNL A   1      40.228  28.845  30.192  1.00  0.00     0.037 A 
ATOM     50  C   UNL A   1      39.619  33.091  35.732  1.00  0.00     0.037 A 
ATOM     51  C   UNL A   1      41.212  28.645  31.222  1.00  0.00     0.049 A 
ATOM     52  C   UNL A   1      40.675  32.020  35.664  1.00  0.00     0.074 A 
ATOM     53  C   UNL A   1      42.264  27.745  31.249  1.00  0.00     0.029 A 
ATOM     54  N   UNL A   1      41.264  29.356  32.412  1.00  0.00    -0.354 N 
ATOM     55  N   UNL A   1      40.933  31.174  34.697  1.00  0.00    -0.248 NA
ATOM     56  C   UNL A   1      41.556  31.884  36.832  1.00  0.00     0.031 C 
ATOM     57  C   UNL A   1      42.923  27.880  32.475  1.00  0.00     0.029 A 
ATOM     58  C   UNL A   1      42.315  28.899  33.190  1.00  0.00     0.049 A 
ATOM     59  H   UNL A   1      40.645  30.079  32.666  1.00  0.00     0.167 HD
ATOM     60  C   UNL A   1      42.023  30.427  35.124  1.00  0.00     0.074 A 
ATOM     61  C   UNL A   1      42.384  30.928  36.434  1.00  0.00     0.031 C 
ATOM     62  C   UNL A   1      42.666  29.417  34.488  1.00  0.00     0.037 A 
BRANCH  49  63
ATOM     63  C   UNL A   1      40.259  27.943  28.991  1.00  0.00     0.064 A 
ATOM     64  C   UNL A   1      40.983  28.279  27.837  1.00  0.00     0.173 A 
ATOM     65  C   UNL A   1      39.581  26.715  29.005  1.00  0.00     0.173 A 
ATOM     66  F   UNL A   1      41.639  29.448  27.767  1.00  0.00    -0.203 F 
ATOM     67  C   UNL A   1      41.002  27.434  26.730  1.00  0.00     0.198 A 
ATOM     68  C   UNL A   1      39.628  25.858  27.909  1.00  0.00     0.198 A 
ATOM     69  F   UNL A   1      38.877  26.343  30.085  1.00  0.00    -0.203 F 
ATOM     70  F   UNL A   1      41.656  27.802  25.620  1.00  0.00    -0.200 F 
ATOM     71  C   UNL A   1      40.330  26.222  26.770  1.00  0.00     0.200 A 
ATOM     72  F   UNL A   1      38.989  24.681  27.954  1.00  0.00    -0.200 F 
ATOM     73  F   UNL A   1      40.354  25.407  25.707  1.00  0.00    -0.200 F 
ENDBRANCH  49  63
BRANCH  50  74
ATOM     74  C   UNL A   1      39.498  33.968  36.926  1.00  0.00     0.064 A 
ATOM     75  C   UNL A   1      38.769  33.556  38.050  1.00  0.00     0.173 A 
ATOM     76  C   UNL A   1      40.107  35.230  36.969  1.00  0.00     0.173 A 
ATOM     77  F   UNL A   1      38.152  32.366  38.048  1.00  0.00    -0.203 F 
ATOM     78  C   UNL A   1      38.636  34.382  39.164  1.00  0.00     0.198 A 
ATOM     79  C   UNL A   1      39.998  36.044  38.095  1.00  0.00     0.198 A 
ATOM     80  F   UNL A   1      40.822  35.668  35.923  1.00  0.00    -0.203 F 
ATOM     81  F   UNL A   1      37.896  33.982  40.208  1.00  0.00    -0.200 F 
ATOM     82  C   UNL A   1      39.255  35.623  39.188  1.00  0.00     0.200 A 
ATOM     83  F   UNL A   1      40.610  37.235  38.121  1.00  0.00    -0.200 F 
ATOM     84  F   UNL A   1      39.132  36.414  40.263  1.00  0.00    -0.200 F 
ENDBRANCH  50  74
BRANCH  62  85
ATOM     85  C   UNL A   1      43.850  28.808  35.182  1.00  0.00     0.064 A 
ATOM     86  C   UNL A   1      43.716  27.703  36.034  1.00  0.00     0.173 A 
ATOM     87  C   UNL A   1      45.140  29.310  34.952  1.00  0.00     0.173 A 
ATOM     88  F   UNL A   1      42.503  27.196  36.297  1.00  0.00    -0.203 F 
ATOM     89  C   UNL A   1      44.829  27.135  36.648  1.00  0.00     0.198 A 
ATOM     90  C   UNL A   1      46.254  28.721  35.544  1.00  0.00     0.198 A 
ATOM     91  F   UNL A   1      45.322  30.362  34.140  1.00  0.00    -0.203 F 
ATOM     92  F   UNL A   1      44.674  26.106  37.493  1.00  0.00    -0.200 F 
ATOM     93  C   UNL A   1      46.097  27.639  36.397  1.00  0.00     0.200 A 
ATOM     94  F   UNL A   1      47.479  29.200  35.287  1.00  0.00    -0.200 F 
ATOM     95  F   UNL A   1      47.169  27.084  36.980  1.00  0.00    -0.200 F 
ENDBRANCH  62  85
ENDBRANCH  36  37
ENDBRANCH  28  31
ENDBRANCH  26  27
ENDBRANCH  25  26
ENDBRANCH   1  25
TORSDOF 14
ENDMDL
MODEL 2
REMARK VINA RESULT:     -12.5      0.969      7.433
REMARK SMILES CC1CCN(C(=O)N[C@]2(C(=O)NCCCCCCNC(=O)c3ccc(-c4c5nc(c(-c6c(F)c(F)c(F)c(F)c6F)c6ccc([nH]6)c(-c6c(F)c(F)c(F)c(F)c6F)c6nc(c(-c7c(F)c(F)c(F)c(F)c7F)c7ccc4[nH]7)C=C6)C=C5)cc3)CCSC2)CC1
REMARK SMILES IDX 16 1 15 2 14 3 13 4 12 5 10 6 11 7 9 9 85 10 88 11 86 12
REMARK SMILES IDX 87 13 8 14 1 15 2 16 3 17 90 18 4 19 89 20 5 21 6 22 7 23
REMARK SMILES IDX 17 25 18 26 19 27 20 28 21 30 22 31 23 32 84 33 24 34 83 35
REMARK SMILES IDX 25 36 26 37 27 38 77 39 28 40 82 41 76 42 78 43 29 44 81 45
REMARK SMILES IDX 75 46 74 47 30 49 62 50 42 51 61 52 43 53 46 54 60 55 79 56
REMARK SMILES IDX 44 57 45 58 59 60 80 61 47 62 31 63 32 64 40 65 33 66 34 67
REMARK SMILES IDX 38 68 41 69 35 70 36 71 39 72 37 73 63 74 64 75 72 76 65 77
REMARK SMILES IDX 66 78 70 79 73 80 67 81 68 82 71 83 69 84 48 85 49 86 57 87
REMARK SMILES IDX 50 88 51 89 55 90 58 91 52 92 53 93 56 94 54 95
REMARK H PARENT 12 8 8 24 19 29 78 48 46 59
REMARK Flexibility Score: inf
ROOT
ATOM      1  C   UNL A   1      31.624  30.810  26.194  1.00  0.00     0.002 C 
ENDROOT
BRANCH   1   2
ATOM      2  C   UNL A   1      32.443  30.033  27.221  1.00  0.00     0.002 C 
BRANCH   2   3
ATOM      3  C   UNL A   1      31.987  28.614  27.570  1.00  0.00     0.021 C 
BRANCH   3   4
ATOM      4  C   UNL A   1      32.401  27.441  26.667  1.00  0.00     0.116 C 
BRANCH   4   5
ATOM      5  N   UNL A   1      33.330  27.746  25.598  1.00  0.00    -0.354 N 
ATOM      6  C   UNL A   1      33.210  27.895  24.252  1.00  0.00     0.246 C 
ATOM      7  O   UNL A   1      34.132  28.536  23.726  1.00  0.00    -0.272 OA
ATOM      8  H   UNL A   1      34.252  27.875  25.916  1.00  0.00     0.163 HD
BRANCH   6   9
ATOM      9  C   UNL A   1      32.025  27.385  23.375  1.00  0.00     0.130 C 
ATOM     10  C   UNL A   1      30.840  26.606  23.982  1.00  0.00     0.050 C 
ATOM     11  C   UNL A   1      31.466  28.710  22.764  1.00  0.00     0.108 C 
ATOM     12  C   UNL A   1      29.509  27.180  23.517  1.00  0.00     0.072 C 
ATOM     13  S   UNL A   1      29.807  28.944  23.441  1.00  0.00    -0.159 SA
BRANCH   9  14
ATOM     14  N   UNL A   1      32.614  26.553  22.277  1.00  0.00    -0.323 N 
ATOM     15  C   UNL A   1      36.621  23.577  25.851  1.00  0.00     0.008 C 
ATOM     16  C   UNL A   1      35.324  23.428  25.058  1.00  0.00    -0.011 C 
ATOM     17  C   UNL A   1      35.573  23.261  23.551  1.00  0.00     0.025 C 
ATOM     18  C   UNL A   1      34.438  24.652  25.281  1.00  0.00     0.025 C 
ATOM     19  C   UNL A   1      34.261  23.272  22.744  1.00  0.00     0.121 C 
ATOM     20  C   UNL A   1      33.134  24.498  24.501  1.00  0.00     0.121 C 
ATOM     21  N   UNL A   1      33.430  24.440  23.081  1.00  0.00    -0.325 N 
ATOM     22  C   UNL A   1      33.133  25.327  22.090  1.00  0.00     0.318 C 
ATOM     23  O   UNL A   1      33.364  25.064  20.903  1.00  0.00    -0.249 OA
ATOM     24  H   UNL A   1      32.624  27.060  21.434  1.00  0.00     0.166 HD
ENDBRANCH   9  14
ENDBRANCH   6   9
ENDBRANCH   4   5
ENDBRANCH   3   4
ENDBRANCH   2   3
ENDBRANCH   1   2
BRANCH   1  25
ATOM     25  C   UNL A   1      31.432  32.288  26.518  1.00  0.00     0.021 C 
BRANCH  25  26
ATOM     26  C   UNL A   1      32.545  32.898  27.354  1.00  0.00     0.116 C 
BRANCH  26  27
ATOM     27  N   UNL A   1      32.316  34.302  27.656  1.00  0.00    -0.352 N 
ATOM     28  C   UNL A   1      32.968  35.081  28.586  1.00  0.00     0.251 C 
ATOM     29  H   UNL A   1      31.613  34.748  27.134  1.00  0.00     0.163 HD
ATOM     30  O   UNL A   1      32.583  36.208  28.848  1.00  0.00    -0.269 OA
BRANCH  28  31
ATOM     31  C   UNL A   1      34.132  34.505  29.291  1.00  0.00     0.039 A 
ATOM     32  C   UNL A   1      33.929  33.833  30.497  1.00  0.00     0.014 A 
ATOM     33  C   UNL A   1      35.408  34.574  28.720  1.00  0.00     0.014 A 
ATOM     34  C   UNL A   1      35.000  33.175  31.104  1.00  0.00     0.010 A 
ATOM     35  C   UNL A   1      36.453  33.853  29.285  1.00  0.00     0.010 A 
ATOM     36  C   UNL A   1      36.261  33.150  30.484  1.00  0.00    -0.014 A 
BRANCH  36  37
ATOM     37  C   UNL A   1      37.394  32.400  31.079  1.00  0.00     0.031 A 
ATOM     38  C   UNL A   1      37.891  32.757  32.452  1.00  0.00     0.074 A 
ATOM     39  C   UNL A   1      38.014  31.444  30.361  1.00  0.00     0.049 A 
ATOM     40  N   UNL A   1      38.899  32.260  33.123  1.00  0.00    -0.248 NA
ATOM     41  C   UNL A   1      37.179  33.837  33.152  1.00  0.00     0.031 C 
ATOM     42  C   UNL A   1      37.660  31.046  28.998  1.00  0.00     0.029 A 
ATOM     43  N   UNL A   1      39.080  30.638  30.675  1.00  0.00    -0.354 N 
ATOM     44  C   UNL A   1      38.948  32.974  34.312  1.00  0.00     0.074 A 
ATOM     45  C   UNL A   1      37.909  33.978  34.249  1.00  0.00     0.031 C 
ATOM     46  C   UNL A   1      38.475  30.055  28.603  1.00  0.00     0.029 A 
ATOM     47  C   UNL A   1      39.432  29.772  29.670  1.00  0.00     0.049 A 
ATOM     48  H   UNL A   1      39.548  30.677  31.540  1.00  0.00     0.167 HD
ATOM     49  C   UNL A   1      39.768  32.791  35.374  1.00  0.00     0.037 A 
ATOM     50  C   UNL A   1      40.417  28.855  29.613  1.00  0.00     0.037 A 
ATOM     51  C   UNL A   1      40.781  31.773  35.445  1.00  0.00     0.049 A 
ATOM     52  C   UNL A   1      41.314  28.670  30.807  1.00  0.00     0.074 A 
ATOM     53  C   UNL A   1      41.621  31.461  36.500  1.00  0.00     0.029 A 
ATOM     54  N   UNL A   1      41.095  30.899  34.413  1.00  0.00    -0.354 N 
ATOM     55  N   UNL A   1      41.301  29.299  31.957  1.00  0.00    -0.248 NA
ATOM     56  C   UNL A   1      42.358  27.641  30.698  1.00  0.00     0.031 C 
ATOM     57  C   UNL A   1      42.474  30.431  36.091  1.00  0.00     0.029 A 
ATOM     58  C   UNL A   1      42.131  30.064  34.800  1.00  0.00     0.049 A 
ATOM     59  H   UNL A   1      40.647  30.876  33.536  1.00  0.00     0.167 HD
ATOM     60  C   UNL A   1      42.311  28.725  32.718  1.00  0.00     0.074 A 
ATOM     61  C   UNL A   1      42.909  27.688  31.903  1.00  0.00     0.031 C 
ATOM     62  C   UNL A   1      42.707  29.030  33.978  1.00  0.00     0.037 A 
BRANCH  49  63
ATOM     63  C   UNL A   1      39.597  33.709  36.549  1.00  0.00     0.064 A 
ATOM     64  C   UNL A   1      40.210  34.970  36.593  1.00  0.00     0.173 A 
ATOM     65  C   UNL A   1      38.787  33.337  37.633  1.00  0.00     0.173 A 
ATOM     66  F   UNL A   1      41.005  35.370  35.589  1.00  0.00    -0.203 F 
ATOM     67  C   UNL A   1      40.045  35.812  37.690  1.00  0.00     0.198 A 
ATOM     68  C   UNL A   1      38.598  34.194  38.714  1.00  0.00     0.198 A 
ATOM     69  F   UNL A   1      38.174  32.144  37.641  1.00  0.00    -0.203 F 
ATOM     70  F   UNL A   1      40.684  36.989  37.732  1.00  0.00    -0.200 F 
ATOM     71  C   UNL A   1      39.233  35.426  38.746  1.00  0.00     0.200 A 
ATOM     72  F   UNL A   1      37.803  33.824  39.728  1.00  0.00    -0.200 F 
ATOM     73  F   UNL A   1      39.070  36.239  39.799  1.00  0.00    -0.200 F 
ENDBRANCH  49  63
BRANCH  50  74
ATOM     74  C   UNL A   1      40.586  28.020  28.396  1.00  0.00     0.064 A 
ATOM     75  C   UNL A   1      41.363  28.467  27.318  1.00  0.00     0.173 A 
ATOM     76  C   UNL A   1      39.977  26.762  28.283  1.00  0.00     0.173 A 
ATOM     77  F   UNL A   1      41.948  29.672  27.371  1.00  0.00    -0.203 F 
ATOM     78  C   UNL A   1      41.509  27.697  26.167  1.00  0.00     0.198 A 
ATOM     79  C   UNL A   1      40.146  25.979  27.142  1.00  0.00     0.198 A 
ATOM     80  F   UNL A   1      39.228  26.285  29.288  1.00  0.00    -0.203 F 
ATOM     81  F   UNL A   1      42.222  28.168  25.134  1.00  0.00    -0.200 F 
ATOM     82  C   UNL A   1      40.905  26.451  26.082  1.00  0.00     0.200 A 
ATOM     83  F   UNL A   1      39.574  24.770  27.071  1.00  0.00    -0.200 F 
ATOM     84  F   UNL A   1      41.051  25.709  24.976  1.00  0.00    -0.200 F 
ENDBRANCH  50  74
BRANCH  62  85
ATOM     85  C   UNL A   1      43.816  28.211  34.570  1.00  0.00     0.064 A 
ATOM     86  C   UNL A   1      45.153  28.628  34.512  1.00  0.00     0.173 A 
ATOM     87  C   UNL A   1      43.530  27.014  35.245  1.00  0.00     0.173 A 
ATOM     88  F   UNL A   1      45.481  29.757  33.865  1.00  0.00    -0.203 F 
ATOM     89  C   UNL A   1      46.166  27.867  35.089  1.00  0.00     0.198 A 
ATOM     90  C   UNL A   1      44.541  26.271  35.848  1.00  0.00     0.198 A 
ATOM     91  F   UNL A   1      42.265  26.574  35.335  1.00  0.00    -0.203 F 
ATOM     92  F   UNL A   1      47.442  28.264  34.984  1.00  0.00    -0.200 F 
ATOM     93  C   UNL A   1      45.859  26.694  35.764  1.00  0.00     0.200 A 
ATOM     94  F   UNL A   1      44.239  25.147  36.512  1.00  0.00    -0.200 F 
ATOM     95  F   UNL A   1      46.834  25.969  36.329  1.00  0.00    -0.200 F 
ENDBRANCH  62  85
ENDBRANCH  36  37
ENDBRANCH  28  31
ENDBRANCH  26  27
ENDBRANCH  25  26
ENDBRANCH   1  25
TORSDOF 14
ENDMDL
MODEL 3
REMARK VINA RESULT:     -12.5      0.988      7.441
REMARK SMILES CC1CCN(C(=O)N[C@]2(C(=O)NCCCCCCNC(=O)c3ccc(-c4c5nc(c(-c6c(F)c(F)c(F)c(F)c6F)c6ccc([nH]6)c(-c6c(F)c(F)c(F)c(F)c6F)c6nc(c(-c7c(F)c(F)c(F)c(F)c7F)c7ccc4[nH]7)C=C6)C=C5)cc3)CCSC2)CC1
REMARK SMILES IDX 16 1 15 2 14 3 13 4 12 5 10 6 11 7 9 9 85 10 88 11 86 12
REMARK SMILES IDX 87 13 8 14 1 15 2 16 3 17 90 18 4 19 89 20 5 21 6 22 7 23
REMARK SMILES IDX 17 25 18 26 19 27 20 28 21 30 22 31 23 32 84 33 24 34 83 35
REMARK SMILES IDX 25 36 26 37 27 38 77 39 28 40 82 41 76 42 78 43 29 44 81 45
REMARK SMILES IDX 75 46 74 47 30 49 62 50 42 51 61 52 43 53 46 54 60 55 79 56
REMARK SMILES IDX 44 57 45 58 59 60 80 61 47 62 31 63 32 64 40 65 33 66 34 67
REMARK SMILES IDX 38 68 41 69 35 70 36 71 39 72 37 73 63 74 64 75 72 76 65 77
REMARK SMILES IDX 66 78 70 79 73 80 67 81 68 82 71 83 69 84 48 85 49 86 57 87
REMARK SMILES IDX 50 88 51 89 55 90 58 91 52 92 53 93 56 94 54 95
REMARK H PARENT 12 8 8 24 19 29 78 48 46 59
REMARK Flexibility Score: inf
ROOT
ATOM      1  C   UNL A   1      31.673  30.726  26.182  1.00  0.00     0.002 C 
ENDROOT
BRANCH   1   2
ATOM      2  C   UNL A   1      32.408  29.931  27.258  1.00  0.00     0.002 C 
BRANCH   2   3
ATOM      3  C   UNL A   1      31.916  28.512  27.557  1.00  0.00     0.021 C 
BRANCH   3   4
ATOM      4  C   UNL A   1      32.270  27.369  26.592  1.00  0.00     0.116 C 
BRANCH   4   5
ATOM      5  N   UNL A   1      33.247  27.669  25.565  1.00  0.00    -0.354 N 
ATOM      6  C   UNL A   1      33.178  27.884  24.226  1.00  0.00     0.246 C 
ATOM      7  O   UNL A   1      34.150  28.495  23.757  1.00  0.00    -0.272 OA
ATOM      8  H   UNL A   1      34.165  27.732  25.916  1.00  0.00     0.163 HD
BRANCH   6   9
ATOM      9  C   UNL A   1      31.996  27.481  23.292  1.00  0.00     0.130 C 
ATOM     10  C   UNL A   1      30.754  26.738  23.826  1.00  0.00     0.050 C 
ATOM     11  C   UNL A   1      31.525  28.861  22.731  1.00  0.00     0.108 C 
ATOM     12  C   UNL A   1      29.470  27.403  23.352  1.00  0.00     0.072 C 
ATOM     13  S   UNL A   1      29.862  29.151  23.371  1.00  0.00    -0.159 SA
BRANCH   9  14
ATOM     14  N   UNL A   1      32.574  26.671  22.171  1.00  0.00    -0.323 N 
ATOM     15  C   UNL A   1      36.199  23.217  25.724  1.00  0.00     0.008 C 
ATOM     16  C   UNL A   1      34.932  23.206  24.871  1.00  0.00    -0.011 C 
ATOM     17  C   UNL A   1      35.235  23.106  23.369  1.00  0.00     0.025 C 
ATOM     18  C   UNL A   1      34.124  24.477  25.130  1.00  0.00     0.025 C 
ATOM     19  C   UNL A   1      33.965  23.258  22.510  1.00  0.00     0.121 C 
ATOM     20  C   UNL A   1      32.849  24.462  24.290  1.00  0.00     0.121 C 
ATOM     21  N   UNL A   1      33.203  24.462  22.882  1.00  0.00    -0.325 N 
ATOM     22  C   UNL A   1      33.014  25.422  21.934  1.00  0.00     0.318 C 
ATOM     23  O   UNL A   1      33.279  25.211  20.744  1.00  0.00    -0.249 OA
ATOM     24  H   UNL A   1      32.658  27.222  21.360  1.00  0.00     0.166 HD
ENDBRANCH   9  14
ENDBRANCH   6   9
ENDBRANCH   4   5
ENDBRANCH   3   4
ENDBRANCH   2   3
ENDBRANCH   1   2
BRANCH   1  25
ATOM     25  C   UNL A   1      31.451  32.197  26.516  1.00  0.00     0.021 C 
BRANCH  25  26
ATOM     26  C   UNL A   1      32.603  32.855  27.257  1.00  0.00     0.116 C 
BRANCH  26  27
ATOM     27  N   UNL A   1      32.335  34.242  27.596  1.00  0.00    -0.352 N 
ATOM     28  C   UNL A   1      32.946  35.007  28.565  1.00  0.00     0.251 C 
ATOM     29  H   UNL A   1      31.634  34.689  27.070  1.00  0.00     0.163 HD
ATOM     30  O   UNL A   1      32.528  36.116  28.852  1.00  0.00    -0.269 OA
BRANCH  28  31
ATOM     31  C   UNL A   1      34.105  34.435  29.281  1.00  0.00     0.039 A 
ATOM     32  C   UNL A   1      33.884  33.670  30.427  1.00  0.00     0.014 A 
ATOM     33  C   UNL A   1      35.399  34.604  28.776  1.00  0.00     0.014 A 
ATOM     34  C   UNL A   1      34.958  33.020  31.035  1.00  0.00     0.010 A 
ATOM     35  C   UNL A   1      36.453  33.892  29.337  1.00  0.00     0.010 A 
ATOM     36  C   UNL A   1      36.244  33.097  30.474  1.00  0.00    -0.014 A 
BRANCH  36  37
ATOM     37  C   UNL A   1      37.385  32.358  31.067  1.00  0.00     0.031 A 
ATOM     38  C   UNL A   1      37.885  32.723  32.438  1.00  0.00     0.074 A 
ATOM     39  C   UNL A   1      38.012  31.406  30.350  1.00  0.00     0.049 A 
ATOM     40  N   UNL A   1      38.899  32.236  33.106  1.00  0.00    -0.248 NA
ATOM     41  C   UNL A   1      37.165  33.798  33.138  1.00  0.00     0.031 C 
ATOM     42  C   UNL A   1      37.657  31.001  28.989  1.00  0.00     0.029 A 
ATOM     43  N   UNL A   1      39.086  30.610  30.662  1.00  0.00    -0.354 N 
ATOM     44  C   UNL A   1      38.945  32.953  34.294  1.00  0.00     0.074 A 
ATOM     45  C   UNL A   1      37.897  33.948  34.231  1.00  0.00     0.031 C 
ATOM     46  C   UNL A   1      38.479  30.016  28.594  1.00  0.00     0.029 A 
ATOM     47  C   UNL A   1      39.442  29.744  29.658  1.00  0.00     0.049 A 
ATOM     48  H   UNL A   1      39.557  30.656  31.526  1.00  0.00     0.167 HD
ATOM     49  C   UNL A   1      39.770  32.780  35.353  1.00  0.00     0.037 A 
ATOM     50  C   UNL A   1      40.435  28.837  29.600  1.00  0.00     0.037 A 
ATOM     51  C   UNL A   1      40.793  31.771  35.423  1.00  0.00     0.049 A 
ATOM     52  C   UNL A   1      41.338  28.662  30.792  1.00  0.00     0.074 A 
ATOM     53  C   UNL A   1      41.639  31.470  36.477  1.00  0.00     0.029 A 
ATOM     54  N   UNL A   1      41.111  30.898  34.393  1.00  0.00    -0.354 N 
ATOM     55  N   UNL A   1      41.323  29.294  31.940  1.00  0.00    -0.248 NA
ATOM     56  C   UNL A   1      42.391  27.642  30.681  1.00  0.00     0.031 C 
ATOM     57  C   UNL A   1      42.499  30.446  36.067  1.00  0.00     0.029 A 
ATOM     58  C   UNL A   1      42.156  30.073  34.778  1.00  0.00     0.049 A 
ATOM     59  H   UNL A   1      40.660  30.869  33.518  1.00  0.00     0.167 HD
ATOM     60  C   UNL A   1      42.341  28.731  32.699  1.00  0.00     0.074 A 
ATOM     61  C   UNL A   1      42.945  27.697  31.884  1.00  0.00     0.031 C 
ATOM     62  C   UNL A   1      42.738  29.043  33.957  1.00  0.00     0.037 A 
BRANCH  49  63
ATOM     63  C   UNL A   1      39.595  33.700  36.527  1.00  0.00     0.064 A 
ATOM     64  C   UNL A   1      38.794  33.349  37.624  1.00  0.00     0.173 A 
ATOM     65  C   UNL A   1      40.259  34.936  36.569  1.00  0.00     0.173 A 
ATOM     66  F   UNL A   1      38.128  32.185  37.629  1.00  0.00    -0.203 F 
ATOM     67  C   UNL A   1      38.639  34.213  38.706  1.00  0.00     0.198 A 
ATOM     68  C   UNL A   1      40.127  35.783  37.667  1.00  0.00     0.198 A 
ATOM     69  F   UNL A   1      41.040  35.320  35.549  1.00  0.00    -0.203 F 
ATOM     70  F   UNL A   1      37.827  33.878  39.717  1.00  0.00    -0.200 F 
ATOM     71  C   UNL A   1      39.311  35.425  38.729  1.00  0.00     0.200 A 
ATOM     72  F   UNL A   1      40.788  36.949  37.693  1.00  0.00    -0.200 F 
ATOM     73  F   UNL A   1      39.166  36.253  39.773  1.00  0.00    -0.200 F 
ENDBRANCH  49  63
BRANCH  50  74
ATOM     74  C   UNL A   1      40.607  28.000  28.384  1.00  0.00     0.064 A 
ATOM     75  C   UNL A   1      39.994  26.743  28.281  1.00  0.00     0.173 A 
ATOM     76  C   UNL A   1      41.385  28.437  27.302  1.00  0.00     0.173 A 
ATOM     77  F   UNL A   1      39.258  26.274  29.299  1.00  0.00    -0.203 F 
ATOM     78  C   UNL A   1      40.169  25.947  27.152  1.00  0.00     0.198 A 
ATOM     79  C   UNL A   1      41.536  27.651  26.160  1.00  0.00     0.198 A 
ATOM     80  F   UNL A   1      41.987  29.634  27.346  1.00  0.00    -0.203 F 
ATOM     81  F   UNL A   1      39.607  24.731  27.099  1.00  0.00    -0.200 F 
ATOM     82  C   UNL A   1      40.934  26.404  26.090  1.00  0.00     0.200 A 
ATOM     83  F   UNL A   1      42.264  28.103  25.130  1.00  0.00    -0.200 F 
ATOM     84  F   UNL A   1      41.097  25.640  25.002  1.00  0.00    -0.200 F 
ENDBRANCH  50  74
BRANCH  62  85
ATOM     85  C   UNL A   1      43.857  28.234  34.547  1.00  0.00     0.064 A 
ATOM     86  C   UNL A   1      45.190  28.663  34.482  1.00  0.00     0.173 A 
ATOM     87  C   UNL A   1      43.583  27.037  35.226  1.00  0.00     0.173 A 
ATOM     88  F   UNL A   1      45.505  29.793  33.831  1.00  0.00    -0.203 F 
ATOM     89  C   UNL A   1      46.211  27.913  35.059  1.00  0.00     0.198 A 
ATOM     90  C   UNL A   1      44.603  26.305  35.828  1.00  0.00     0.198 A 
ATOM     91  F   UNL A   1      42.323  26.587  35.322  1.00  0.00    -0.203 F 
ATOM     92  F   UNL A   1      47.483  28.320  34.948  1.00  0.00    -0.200 F 
ATOM     93  C   UNL A   1      45.916  26.739  35.738  1.00  0.00     0.200 A 
ATOM     94  F   UNL A   1      44.313  25.179  36.496  1.00  0.00    -0.200 F 
ATOM     95  F   UNL A   1      46.900  26.024  36.301  1.00  0.00    -0.200 F 
ENDBRANCH  62  85
ENDBRANCH  36  37
ENDBRANCH  28  31
ENDBRANCH  26  27
ENDBRANCH  25  26
ENDBRANCH   1  25
TORSDOF 14
ENDMDL
