MODEL 1
REMARK VINA RESULT:     -12.9      0.000      0.000
REMARK SMILES C[C@H]1CCCC[C@H]1[N@H+]1[C@@H](C(=O)NCCCCCCNC(=O)c2ccc(-c3c4nc(c(-c5c(F)c(F)c(F)c(F)c5F)c5ccc([nH]5)c(-c5c(F)c(F)c(F)c(F)c5F)c5nc(c(-c6c(F)c(F)c(F)c(F)c6F)c6ccc3[nH]6)C=C5)C=C4)cc2)CC[C@@H]2CCCC[C@@H]21
REMARK SMILES IDX 16 1 15 2 14 3 13 4 12 5 10 6 11 7 9 9 8 10 92 11 85 13
REMARK SMILES IDX 87 14 91 15 86 16 88 17 90 18 89 19 7 20 1 21 2 22 3 23 4 24
REMARK SMILES IDX 6 25 5 26 17 27 18 28 19 29 20 30 21 32 22 33 23 34 84 35
REMARK SMILES IDX 24 36 83 37 25 38 26 39 27 40 77 41 28 42 82 43 76 44 78 45
REMARK SMILES IDX 29 46 81 47 75 48 74 49 30 51 62 52 42 53 61 54 43 55 46 56
REMARK SMILES IDX 60 57 79 58 44 59 45 60 59 62 80 63 47 64 31 65 32 66 40 67
REMARK SMILES IDX 33 68 34 69 38 70 41 71 35 72 36 73 39 74 37 75 63 76 64 77
REMARK SMILES IDX 72 78 65 79 66 80 70 81 73 82 67 83 68 84 71 85 69 86 48 87
REMARK SMILES IDX 49 88 57 89 50 90 51 91 55 92 58 93 52 94 53 95 56 96 54 97
REMARK H PARENT 12 8 8 12 19 31 78 50 46 61
REMARK Flexibility Score: inf
ROOT
ATOM      1  C   UNL A   1      31.863  29.912  26.455  1.00  0.00     0.002 C 
ENDROOT
BRANCH   1   2
ATOM      2  C   UNL A   1      31.494  29.251  25.124  1.00  0.00     0.002 C 
BRANCH   2   3
ATOM      3  C   UNL A   1      32.568  29.328  24.038  1.00  0.00     0.021 C 
BRANCH   3   4
ATOM      4  C   UNL A   1      33.726  28.346  24.199  1.00  0.00     0.116 C 
BRANCH   4   5
ATOM      5  N   UNL A   1      34.028  27.581  22.996  1.00  0.00    -0.351 N 
ATOM      6  C   UNL A   1      33.363  26.514  22.435  1.00  0.00     0.278 C 
ATOM      7  O   UNL A   1      33.653  26.196  21.279  1.00  0.00    -0.268 OA
ATOM      8  H   UNL A   1      34.833  27.873  22.509  1.00  0.00     0.163 HD
BRANCH   6   9
ATOM      9  C   UNL A   1      32.231  25.840  23.197  1.00  0.00     0.274 C 
ATOM     10  N   UNL A   1      32.347  24.434  23.693  1.00  0.00    -0.319 N 
ATOM     11  C   UNL A   1      31.020  23.956  24.215  1.00  0.00     0.188 C 
ATOM     12  H   UNL A   1      33.040  24.569  24.429  1.00  0.00     0.349 HD
ATOM     13  C   UNL A   1      30.850  26.174  22.626  1.00  0.00     0.076 C 
ATOM     14  C   UNL A   1      30.182  25.106  24.843  1.00  0.00     0.048 C 
ATOM     15  C   UNL A   1      31.028  22.793  25.242  1.00  0.00     0.065 C 
ATOM     16  C   UNL A   1      29.839  26.172  23.783  1.00  0.00     0.016 C 
ATOM     17  C   UNL A   1      30.852  25.665  26.127  1.00  0.00     0.010 C 
ATOM     18  C   UNL A   1      31.044  23.230  26.709  1.00  0.00     0.006 C 
ATOM     19  C   UNL A   1      31.668  24.604  26.878  1.00  0.00     0.001 C 
BRANCH  10  20
ATOM     20  C   UNL A   1      33.186  23.390  23.038  1.00  0.00     0.187 C 
ATOM     21  C   UNL A   1      35.577  23.747  24.101  1.00  0.00     0.014 C 
ATOM     22  C   UNL A   1      34.471  22.787  23.676  1.00  0.00     0.044 C 
ATOM     23  C   UNL A   1      34.114  21.811  24.788  1.00  0.00     0.009 C 
ATOM     24  C   UNL A   1      33.372  20.600  24.233  1.00  0.00     0.001 C 
ATOM     25  C   UNL A   1      32.439  22.203  22.375  1.00  0.00     0.065 C 
ATOM     26  C   UNL A   1      32.353  20.870  23.127  1.00  0.00     0.006 C 
ENDBRANCH  10  20
ENDBRANCH   6   9
ENDBRANCH   4   5
ENDBRANCH   3   4
ENDBRANCH   2   3
ENDBRANCH   1   2
BRANCH   1  27
ATOM     27  C   UNL A   1      31.712  31.435  26.502  1.00  0.00     0.021 C 
BRANCH  27  28
ATOM     28  C   UNL A   1      32.820  32.174  27.249  1.00  0.00     0.116 C 
BRANCH  28  29
ATOM     29  N   UNL A   1      32.502  33.577  27.467  1.00  0.00    -0.352 N 
ATOM     30  C   UNL A   1      33.035  34.469  28.365  1.00  0.00     0.251 C 
ATOM     31  H   UNL A   1      31.799  33.942  26.882  1.00  0.00     0.163 HD
ATOM     32  O   UNL A   1      32.515  35.570  28.526  1.00  0.00    -0.269 OA
BRANCH  30  33
ATOM     33  C   UNL A   1      34.219  34.096  29.169  1.00  0.00     0.039 A 
ATOM     34  C   UNL A   1      34.028  33.409  30.372  1.00  0.00     0.014 A 
ATOM     35  C   UNL A   1      35.511  34.410  28.738  1.00  0.00     0.014 A 
ATOM     36  C   UNL A   1      35.135  32.955  31.093  1.00  0.00     0.010 A 
ATOM     37  C   UNL A   1      36.613  33.899  29.422  1.00  0.00     0.010 A 
ATOM     38  C   UNL A   1      36.434  33.148  30.595  1.00  0.00    -0.014 A 
BRANCH  38  39
ATOM     39  C   UNL A   1      37.610  32.514  31.246  1.00  0.00     0.031 A 
ATOM     40  C   UNL A   1      38.348  31.390  30.575  1.00  0.00     0.074 A 
ATOM     41  C   UNL A   1      37.959  32.898  32.490  1.00  0.00     0.049 A 
ATOM     42  N   UNL A   1      39.338  30.663  31.028  1.00  0.00    -0.248 NA
ATOM     43  C   UNL A   1      37.900  31.021  29.224  1.00  0.00     0.031 C 
ATOM     44  C   UNL A   1      37.299  33.954  33.262  1.00  0.00     0.029 A 
ATOM     45  N   UNL A   1      38.943  32.440  33.331  1.00  0.00    -0.354 N 
ATOM     46  C   UNL A   1      39.623  29.744  30.027  1.00  0.00     0.074 A 
ATOM     47  C   UNL A   1      38.674  29.978  28.960  1.00  0.00     0.031 C 
ATOM     48  C   UNL A   1      37.912  34.078  34.449  1.00  0.00     0.029 A 
ATOM     49  C   UNL A   1      38.970  33.078  34.547  1.00  0.00     0.049 A 
ATOM     50  H   UNL A   1      39.569  31.721  33.085  1.00  0.00     0.167 HD
ATOM     51  C   UNL A   1      40.596  28.802  30.000  1.00  0.00     0.037 A 
ATOM     52  C   UNL A   1      39.748  32.871  35.627  1.00  0.00     0.037 A 
ATOM     53  C   UNL A   1      41.546  28.585  31.061  1.00  0.00     0.049 A 
ATOM     54  C   UNL A   1      40.787  31.783  35.586  1.00  0.00     0.074 A 
ATOM     55  C   UNL A   1      42.617  27.709  31.092  1.00  0.00     0.029 A 
ATOM     56  N   UNL A   1      41.529  29.236  32.286  1.00  0.00    -0.354 N 
ATOM     57  N   UNL A   1      41.102  30.977  34.603  1.00  0.00    -0.248 NA
ATOM     58  C   UNL A   1      41.575  31.575  36.808  1.00  0.00     0.031 C 
ATOM     59  C   UNL A   1      43.203  27.779  32.361  1.00  0.00     0.029 A 
ATOM     60  C   UNL A   1      42.540  28.745  33.098  1.00  0.00     0.049 A 
ATOM     61  H   UNL A   1      40.892  29.943  32.541  1.00  0.00     0.167 HD
ATOM     62  C   UNL A   1      42.138  30.184  35.077  1.00  0.00     0.074 A 
ATOM     63  C   UNL A   1      42.411  30.619  36.431  1.00  0.00     0.031 C 
ATOM     64  C   UNL A   1      42.802  29.184  34.446  1.00  0.00     0.037 A 
BRANCH  51  65
ATOM     65  C   UNL A   1      40.678  27.916  28.788  1.00  0.00     0.064 A 
ATOM     66  C   UNL A   1      39.958  26.715  28.699  1.00  0.00     0.173 A 
ATOM     67  C   UNL A   1      41.451  28.299  27.682  1.00  0.00     0.173 A 
ATOM     68  F   UNL A   1      39.207  26.297  29.729  1.00  0.00    -0.203 F 
ATOM     69  C   UNL A   1      40.035  25.916  27.561  1.00  0.00     0.198 A 
ATOM     70  C   UNL A   1      41.500  27.515  26.532  1.00  0.00     0.198 A 
ATOM     71  F   UNL A   1      42.153  29.443  27.709  1.00  0.00    -0.203 F 
ATOM     72  F   UNL A   1      39.379  24.748  27.517  1.00  0.00    -0.200 F 
ATOM     73  C   UNL A   1      40.800  26.320  26.476  1.00  0.00     0.200 A 
ATOM     74  F   UNL A   1      42.225  27.916  25.480  1.00  0.00    -0.200 F 
ATOM     75  F   UNL A   1      40.865  25.555  25.377  1.00  0.00    -0.200 F 
ENDBRANCH  51  65
BRANCH  52  76
ATOM     76  C   UNL A   1      39.580  33.717  36.838  1.00  0.00     0.064 A 
ATOM     77  C   UNL A   1      40.254  34.941  36.956  1.00  0.00     0.173 A 
ATOM     78  C   UNL A   1      38.752  33.324  37.900  1.00  0.00     0.173 A 
ATOM     79  F   UNL A   1      41.076  35.349  35.978  1.00  0.00    -0.203 F 
ATOM     80  C   UNL A   1      40.122  35.729  38.097  1.00  0.00     0.198 A 
ATOM     81  C   UNL A   1      38.594  34.130  39.026  1.00  0.00     0.198 A 
ATOM     82  F   UNL A   1      38.081  32.164  37.837  1.00  0.00    -0.203 F 
ATOM     83  F   UNL A   1      40.815  36.871  38.204  1.00  0.00    -0.200 F 
ATOM     84  C   UNL A   1      39.286  35.327  39.128  1.00  0.00     0.200 A 
ATOM     85  F   UNL A   1      37.773  33.744  40.013  1.00  0.00    -0.200 F 
ATOM     86  F   UNL A   1      39.153  36.089  40.222  1.00  0.00    -0.200 F 
ENDBRANCH  52  76
BRANCH  64  87
ATOM     87  C   UNL A   1      43.904  28.500  35.204  1.00  0.00     0.064 A 
ATOM     88  C   UNL A   1      45.222  28.980  35.179  1.00  0.00     0.173 A 
ATOM     89  C   UNL A   1      43.630  27.378  36.003  1.00  0.00     0.173 A 
ATOM     90  F   UNL A   1      45.540  30.037  34.417  1.00  0.00    -0.203 F 
ATOM     91  C   UNL A   1      46.227  28.350  35.908  1.00  0.00     0.198 A 
ATOM     92  C   UNL A   1      44.630  26.772  36.758  1.00  0.00     0.198 A 
ATOM     93  F   UNL A   1      42.385  26.881  36.066  1.00  0.00    -0.203 F 
ATOM     94  F   UNL A   1      47.488  28.798  35.833  1.00  0.00    -0.200 F 
ATOM     95  C   UNL A   1      45.929  27.254  36.705  1.00  0.00     0.200 A 
ATOM     96  F   UNL A   1      44.336  25.724  37.538  1.00  0.00    -0.200 F 
ATOM     97  F   UNL A   1      46.895  26.659  37.417  1.00  0.00    -0.200 F 
ENDBRANCH  64  87
ENDBRANCH  38  39
ENDBRANCH  30  33
ENDBRANCH  28  29
ENDBRANCH  27  28
ENDBRANCH   1  27
TORSDOF 14
ENDMDL
MODEL 2
REMARK VINA RESULT:     -12.9      0.157      1.923
REMARK SMILES C[C@H]1CCCC[C@H]1[N@H+]1[C@@H](C(=O)NCCCCCCNC(=O)c2ccc(-c3c4nc(c(-c5c(F)c(F)c(F)c(F)c5F)c5ccc([nH]5)c(-c5c(F)c(F)c(F)c(F)c5F)c5nc(c(-c6c(F)c(F)c(F)c(F)c6F)c6ccc3[nH]6)C=C5)C=C4)cc2)CC[C@@H]2CCCC[C@@H]21
REMARK SMILES IDX 16 1 15 2 14 3 13 4 12 5 10 6 11 7 9 9 8 10 92 11 85 13
REMARK SMILES IDX 87 14 91 15 86 16 88 17 90 18 89 19 7 20 1 21 2 22 3 23 4 24
REMARK SMILES IDX 6 25 5 26 17 27 18 28 19 29 20 30 21 32 22 33 23 34 84 35
REMARK SMILES IDX 24 36 83 37 25 38 26 39 27 40 77 41 28 42 82 43 76 44 78 45
REMARK SMILES IDX 29 46 81 47 75 48 74 49 30 51 62 52 42 53 61 54 43 55 46 56
REMARK SMILES IDX 60 57 79 58 44 59 45 60 59 62 80 63 47 64 31 65 32 66 40 67
REMARK SMILES IDX 33 68 34 69 38 70 41 71 35 72 36 73 39 74 37 75 63 76 64 77
REMARK SMILES IDX 72 78 65 79 66 80 70 81 73 82 67 83 68 84 71 85 69 86 48 87
REMARK SMILES IDX 49 88 57 89 50 90 51 91 55 92 58 93 52 94 53 95 56 96 54 97
REMARK H PARENT 12 8 8 12 19 31 78 50 46 61
REMARK Flexibility Score: inf
ROOT
ATOM      1  C   UNL A   1      31.906  29.888  26.429  1.00  0.00     0.002 C 
ENDROOT
BRANCH   1   2
ATOM      2  C   UNL A   1      31.600  29.252  25.070  1.00  0.00     0.002 C 
BRANCH   2   3
ATOM      3  C   UNL A   1      32.733  29.328  24.046  1.00  0.00     0.021 C 
BRANCH   3   4
ATOM      4  C   UNL A   1      33.818  28.265  24.199  1.00  0.00     0.116 C 
BRANCH   4   5
ATOM      5  N   UNL A   1      34.085  27.509  22.981  1.00  0.00    -0.351 N 
ATOM      6  C   UNL A   1      33.388  26.463  22.418  1.00  0.00     0.278 C 
ATOM      7  O   UNL A   1      33.653  26.153  21.254  1.00  0.00    -0.268 OA
ATOM      8  H   UNL A   1      34.889  27.789  22.485  1.00  0.00     0.163 HD
BRANCH   6   9
ATOM      9  C   UNL A   1      32.254  25.805  23.190  1.00  0.00     0.274 C 
ATOM     10  N   UNL A   1      32.356  24.398  23.686  1.00  0.00    -0.319 N 
ATOM     11  C   UNL A   1      31.027  23.937  24.220  1.00  0.00     0.188 C 
ATOM     12  H   UNL A   1      33.056  24.525  24.417  1.00  0.00     0.349 HD
ATOM     13  C   UNL A   1      30.873  26.155  22.629  1.00  0.00     0.076 C 
ATOM     14  C   UNL A   1      30.208  25.098  24.852  1.00  0.00     0.048 C 
ATOM     15  C   UNL A   1      31.029  22.775  25.247  1.00  0.00     0.065 C 
ATOM     16  C   UNL A   1      29.870  26.167  23.793  1.00  0.00     0.016 C 
ATOM     17  C   UNL A   1      30.895  25.651  26.131  1.00  0.00     0.010 C 
ATOM     18  C   UNL A   1      31.062  23.214  26.714  1.00  0.00     0.006 C 
ATOM     19  C   UNL A   1      31.703  24.580  26.876  1.00  0.00     0.001 C 
BRANCH  10  20
ATOM     20  C   UNL A   1      33.177  23.342  23.027  1.00  0.00     0.187 C 
ATOM     21  C   UNL A   1      35.591  23.702  24.035  1.00  0.00     0.014 C 
ATOM     22  C   UNL A   1      34.472  22.741  23.645  1.00  0.00     0.044 C 
ATOM     23  C   UNL A   1      34.136  21.780  24.776  1.00  0.00     0.009 C 
ATOM     24  C   UNL A   1      33.377  20.567  24.251  1.00  0.00     0.001 C 
ATOM     25  C   UNL A   1      32.411  22.151  22.394  1.00  0.00     0.065 C 
ATOM     26  C   UNL A   1      32.336  20.827  23.164  1.00  0.00     0.006 C 
ENDBRANCH  10  20
ENDBRANCH   6   9
ENDBRANCH   4   5
ENDBRANCH   3   4
ENDBRANCH   2   3
ENDBRANCH   1   2
BRANCH   1  27
ATOM     27  C   UNL A   1      31.738  31.408  26.501  1.00  0.00     0.021 C 
BRANCH  27  28
ATOM     28  C   UNL A   1      32.847  32.149  27.246  1.00  0.00     0.116 C 
BRANCH  28  29
ATOM     29  N   UNL A   1      32.526  33.550  27.469  1.00  0.00    -0.352 N 
ATOM     30  C   UNL A   1      33.051  34.438  28.376  1.00  0.00     0.251 C 
ATOM     31  H   UNL A   1      31.826  33.918  26.881  1.00  0.00     0.163 HD
ATOM     32  O   UNL A   1      32.528  35.538  28.538  1.00  0.00    -0.269 OA
BRANCH  30  33
ATOM     33  C   UNL A   1      34.230  34.062  29.186  1.00  0.00     0.039 A 
ATOM     34  C   UNL A   1      34.029  33.394  30.398  1.00  0.00     0.014 A 
ATOM     35  C   UNL A   1      35.526  34.355  28.753  1.00  0.00     0.014 A 
ATOM     36  C   UNL A   1      35.130  32.937  31.127  1.00  0.00     0.010 A 
ATOM     37  C   UNL A   1      36.620  33.840  29.445  1.00  0.00     0.010 A 
ATOM     38  C   UNL A   1      36.432  33.108  30.628  1.00  0.00    -0.014 A 
BRANCH  38  39
ATOM     39  C   UNL A   1      37.599  32.468  31.289  1.00  0.00     0.031 A 
ATOM     40  C   UNL A   1      38.318  31.321  30.639  1.00  0.00     0.074 A 
ATOM     41  C   UNL A   1      37.958  32.873  32.524  1.00  0.00     0.049 A 
ATOM     42  N   UNL A   1      39.298  30.588  31.105  1.00  0.00    -0.248 NA
ATOM     43  C   UNL A   1      37.861  30.931  29.297  1.00  0.00     0.031 C 
ATOM     44  C   UNL A   1      37.316  33.954  33.276  1.00  0.00     0.029 A 
ATOM     45  N   UNL A   1      38.936  32.416  33.372  1.00  0.00    -0.354 N 
ATOM     46  C   UNL A   1      39.566  29.644  30.122  1.00  0.00     0.074 A 
ATOM     47  C   UNL A   1      38.618  29.871  29.052  1.00  0.00     0.031 C 
ATOM     48  C   UNL A   1      37.934  34.093  34.459  1.00  0.00     0.029 A 
ATOM     49  C   UNL A   1      38.976  33.079  34.575  1.00  0.00     0.049 A 
ATOM     50  H   UNL A   1      39.551  31.683  33.140  1.00  0.00     0.167 HD
ATOM     51  C   UNL A   1      40.524  28.687  30.112  1.00  0.00     0.037 A 
ATOM     52  C   UNL A   1      39.753  32.882  35.657  1.00  0.00     0.037 A 
ATOM     53  C   UNL A   1      41.473  28.476  31.175  1.00  0.00     0.049 A 
ATOM     54  C   UNL A   1      40.776  31.777  35.636  1.00  0.00     0.074 A 
ATOM     55  C   UNL A   1      42.531  27.585  31.222  1.00  0.00     0.029 A 
ATOM     56  N   UNL A   1      41.470  29.153  32.386  1.00  0.00    -0.354 N 
ATOM     57  N   UNL A   1      41.076  30.946  34.668  1.00  0.00    -0.248 NA
ATOM     58  C   UNL A   1      41.563  31.581  36.860  1.00  0.00     0.031 C 
ATOM     59  C   UNL A   1      43.122  27.671  32.487  1.00  0.00     0.029 A 
ATOM     60  C   UNL A   1      42.475  28.663  33.206  1.00  0.00     0.049 A 
ATOM     61  H   UNL A   1      40.845  29.874  32.628  1.00  0.00     0.167 HD
ATOM     62  C   UNL A   1      42.101  30.147  35.156  1.00  0.00     0.074 A 
ATOM     63  C   UNL A   1      42.384  30.605  36.500  1.00  0.00     0.031 C 
ATOM     64  C   UNL A   1      42.747  29.124  34.545  1.00  0.00     0.037 A 
BRANCH  51  65
ATOM     65  C   UNL A   1      40.590  27.775  28.918  1.00  0.00     0.064 A 
ATOM     66  C   UNL A   1      41.455  28.023  27.842  1.00  0.00     0.173 A 
ATOM     67  C   UNL A   1      39.808  26.611  28.874  1.00  0.00     0.173 A 
ATOM     68  F   UNL A   1      42.221  29.124  27.830  1.00  0.00    -0.203 F 
ATOM     69  C   UNL A   1      41.512  27.157  26.753  1.00  0.00     0.198 A 
ATOM     70  C   UNL A   1      39.891  25.729  27.799  1.00  0.00     0.198 A 
ATOM     71  F   UNL A   1      38.969  26.319  29.880  1.00  0.00    -0.203 F 
ATOM     72  F   UNL A   1      42.309  27.440  25.714  1.00  0.00    -0.200 F 
ATOM     73  C   UNL A   1      40.736  26.007  26.736  1.00  0.00     0.200 A 
ATOM     74  F   UNL A   1      39.153  24.610  27.793  1.00  0.00    -0.200 F 
ATOM     75  F   UNL A   1      40.799  25.169  25.692  1.00  0.00    -0.200 F 
ENDBRANCH  51  65
BRANCH  52  76
ATOM     76  C   UNL A   1      39.602  33.754  36.851  1.00  0.00     0.064 A 
ATOM     77  C   UNL A   1      38.773  33.374  37.916  1.00  0.00     0.173 A 
ATOM     78  C   UNL A   1      40.272  34.982  36.953  1.00  0.00     0.173 A 
ATOM     79  F   UNL A   1      38.092  32.219  37.855  1.00  0.00    -0.203 F 
ATOM     80  C   UNL A   1      38.607  34.195  39.029  1.00  0.00     0.198 A 
ATOM     81  C   UNL A   1      40.131  35.788  38.082  1.00  0.00     0.198 A 
ATOM     82  F   UNL A   1      41.079  35.393  35.964  1.00  0.00    -0.203 F 
ATOM     83  F   UNL A   1      37.772  33.829  40.011  1.00  0.00    -0.200 F 
ATOM     84  C   UNL A   1      39.292  35.398  39.114  1.00  0.00     0.200 A 
ATOM     85  F   UNL A   1      40.807  36.942  38.167  1.00  0.00    -0.200 F 
ATOM     86  F   UNL A   1      39.136  36.185  40.188  1.00  0.00    -0.200 F 
ENDBRANCH  52  76
BRANCH  64  87
ATOM     87  C   UNL A   1      43.840  28.439  35.314  1.00  0.00     0.064 A 
ATOM     88  C   UNL A   1      43.586  27.307  36.103  1.00  0.00     0.173 A 
ATOM     89  C   UNL A   1      45.166  28.890  35.223  1.00  0.00     0.173 A 
ATOM     90  F   UNL A   1      42.334  26.846  36.238  1.00  0.00    -0.203 F 
ATOM     91  C   UNL A   1      44.615  26.666  36.789  1.00  0.00     0.198 A 
ATOM     92  C   UNL A   1      46.198  28.226  35.882  1.00  0.00     0.198 A 
ATOM     93  F   UNL A   1      45.465  29.965  34.478  1.00  0.00    -0.203 F 
ATOM     94  F   UNL A   1      44.341  25.615  37.573  1.00  0.00    -0.200 F 
ATOM     95  C   UNL A   1      45.920  27.119  36.669  1.00  0.00     0.200 A 
ATOM     96  F   UNL A   1      47.460  28.657  35.752  1.00  0.00    -0.200 F 
ATOM     97  F   UNL A   1      46.911  26.493  37.318  1.00  0.00    -0.200 F 
ENDBRANCH  64  87
ENDBRANCH  38  39
ENDBRANCH  30  33
ENDBRANCH  28  29
ENDBRANCH  27  28
ENDBRANCH   1  27
TORSDOF 14
ENDMDL
MODEL 3
REMARK VINA RESULT:     -12.9      5.491     10.848
REMARK SMILES C[C@H]1CCCC[C@H]1[N@H+]1[C@@H](C(=O)NCCCCCCNC(=O)c2ccc(-c3c4nc(c(-c5c(F)c(F)c(F)c(F)c5F)c5ccc([nH]5)c(-c5c(F)c(F)c(F)c(F)c5F)c5nc(c(-c6c(F)c(F)c(F)c(F)c6F)c6ccc3[nH]6)C=C5)C=C4)cc2)CC[C@@H]2CCCC[C@@H]21
REMARK SMILES IDX 16 1 15 2 14 3 13 4 12 5 10 6 11 7 9 9 8 10 92 11 85 13
REMARK SMILES IDX 87 14 91 15 86 16 88 17 90 18 89 19 7 20 1 21 2 22 3 23 4 24
REMARK SMILES IDX 6 25 5 26 17 27 18 28 19 29 20 30 21 32 22 33 23 34 84 35
REMARK SMILES IDX 24 36 83 37 25 38 26 39 27 40 77 41 28 42 82 43 76 44 78 45
REMARK SMILES IDX 29 46 81 47 75 48 74 49 30 51 62 52 42 53 61 54 43 55 46 56
REMARK SMILES IDX 60 57 79 58 44 59 45 60 59 62 80 63 47 64 31 65 32 66 40 67
REMARK SMILES IDX 33 68 34 69 38 70 41 71 35 72 36 73 39 74 37 75 63 76 64 77
REMARK SMILES IDX 72 78 65 79 66 80 70 81 73 82 67 83 68 84 71 85 69 86 48 87
REMARK SMILES IDX 49 88 57 89 50 90 51 91 55 92 58 93 52 94 53 95 56 96 54 97
REMARK H PARENT 12 8 8 12 19 31 78 50 46 61
REMARK Flexibility Score: inf
ROOT
ATOM      1  C   UNL A   1      36.920  21.236  24.582  1.00  0.00     0.002 C 
ENDROOT
BRANCH   1   2
ATOM      2  C   UNL A   1      35.442  21.155  24.972  1.00  0.00     0.002 C 
BRANCH   2   3
ATOM      3  C   UNL A   1      35.138  21.463  26.439  1.00  0.00     0.021 C 
BRANCH   3   4
ATOM      4  C   UNL A   1      34.908  22.938  26.758  1.00  0.00     0.116 C 
BRANCH   4   5
ATOM      5  N   UNL A   1      33.632  23.214  27.406  1.00  0.00    -0.351 N 
ATOM      6  C   UNL A   1      32.375  23.357  26.861  1.00  0.00     0.278 C 
ATOM      7  O   UNL A   1      31.408  23.329  27.626  1.00  0.00    -0.268 OA
ATOM      8  H   UNL A   1      33.676  23.315  28.385  1.00  0.00     0.163 HD
BRANCH   6   9
ATOM      9  C   UNL A   1      32.207  23.430  25.351  1.00  0.00     0.274 C 
ATOM     10  N   UNL A   1      31.757  24.684  24.671  1.00  0.00    -0.319 N 
ATOM     11  C   UNL A   1      31.473  24.414  23.218  1.00  0.00     0.188 C 
ATOM     12  H   UNL A   1      32.585  25.262  24.814  1.00  0.00     0.349 HD
ATOM     13  C   UNL A   1      31.587  22.160  24.760  1.00  0.00     0.076 C 
ATOM     14  C   UNL A   1      32.393  23.306  22.630  1.00  0.00     0.048 C 
ATOM     15  C   UNL A   1      31.533  25.616  22.239  1.00  0.00     0.065 C 
ATOM     16  C   UNL A   1      32.153  21.962  23.346  1.00  0.00     0.016 C 
ATOM     17  C   UNL A   1      33.878  23.759  22.591  1.00  0.00     0.010 C 
ATOM     18  C   UNL A   1      32.892  25.828  21.565  1.00  0.00     0.006 C 
ATOM     19  C   UNL A   1      34.028  25.275  22.406  1.00  0.00     0.001 C 
BRANCH  10  20
ATOM     20  C   UNL A   1      30.881  25.707  25.311  1.00  0.00     0.187 C 
ATOM     21  C   UNL A   1      32.557  27.162  26.741  1.00  0.00     0.014 C 
ATOM     22  C   UNL A   1      31.381  27.106  25.772  1.00  0.00     0.044 C 
ATOM     23  C   UNL A   1      31.591  28.026  24.578  1.00  0.00     0.009 C 
ATOM     24  C   UNL A   1      30.269  28.316  23.875  1.00  0.00     0.001 C 
ATOM     25  C   UNL A   1      29.489  25.938  24.669  1.00  0.00     0.065 C 
ATOM     26  C   UNL A   1      29.289  27.150  23.752  1.00  0.00     0.006 C 
ENDBRANCH  10  20
ENDBRANCH   6   9
ENDBRANCH   4   5
ENDBRANCH   3   4
ENDBRANCH   2   3
ENDBRANCH   1   2
BRANCH   1  27
ATOM     27  C   UNL A   1      37.782  20.042  25.001  1.00  0.00     0.021 C 
BRANCH  27  28
ATOM     28  C   UNL A   1      39.052  20.399  25.771  1.00  0.00     0.116 C 
BRANCH  28  29
ATOM     29  N   UNL A   1      39.984  19.284  25.851  1.00  0.00    -0.352 N 
ATOM     30  C   UNL A   1      41.344  19.288  26.044  1.00  0.00     0.251 C 
ATOM     31  H   UNL A   1      39.578  18.391  25.753  1.00  0.00     0.163 HD
ATOM     32  O   UNL A   1      41.991  18.253  25.905  1.00  0.00    -0.269 OA
BRANCH  30  33
ATOM     33  C   UNL A   1      42.042  20.545  26.388  1.00  0.00     0.039 A 
ATOM     34  C   UNL A   1      42.575  21.324  25.356  1.00  0.00     0.014 A 
ATOM     35  C   UNL A   1      42.163  20.963  27.716  1.00  0.00     0.014 A 
ATOM     36  C   UNL A   1      43.144  22.566  25.648  1.00  0.00     0.010 A 
ATOM     37  C   UNL A   1      42.669  22.230  28.000  1.00  0.00     0.010 A 
ATOM     38  C   UNL A   1      43.146  23.053  26.966  1.00  0.00    -0.014 A 
BRANCH  38  39
ATOM     39  C   UNL A   1      43.573  24.442  27.273  1.00  0.00     0.031 A 
ATOM     40  C   UNL A   1      42.584  25.463  27.758  1.00  0.00     0.074 A 
ATOM     41  C   UNL A   1      44.848  24.806  27.027  1.00  0.00     0.049 A 
ATOM     42  N   UNL A   1      42.758  26.739  27.993  1.00  0.00    -0.248 NA
ATOM     43  C   UNL A   1      41.210  24.991  27.991  1.00  0.00     0.031 C 
ATOM     44  C   UNL A   1      45.896  23.917  26.522  1.00  0.00     0.029 A 
ATOM     45  N   UNL A   1      45.478  26.020  27.155  1.00  0.00    -0.354 N 
ATOM     46  C   UNL A   1      41.519  27.226  28.387  1.00  0.00     0.074 A 
ATOM     47  C   UNL A   1      40.592  26.116  28.319  1.00  0.00     0.031 C 
ATOM     48  C   UNL A   1      47.041  24.607  26.407  1.00  0.00     0.029 A 
ATOM     49  C   UNL A   1      46.799  25.997  26.777  1.00  0.00     0.049 A 
ATOM     50  H   UNL A   1      45.025  26.829  27.485  1.00  0.00     0.167 HD
ATOM     51  C   UNL A   1      41.192  28.480  28.780  1.00  0.00     0.037 A 
ATOM     52  C   UNL A   1      47.709  26.988  26.717  1.00  0.00     0.037 A 
ATOM     53  C   UNL A   1      42.125  29.576  28.857  1.00  0.00     0.049 A 
ATOM     54  C   UNL A   1      47.303  28.383  27.113  1.00  0.00     0.074 A 
ATOM     55  C   UNL A   1      41.906  30.861  29.320  1.00  0.00     0.029 A 
ATOM     56  N   UNL A   1      43.449  29.521  28.446  1.00  0.00    -0.354 N 
ATOM     57  N   UNL A   1      46.150  28.813  27.563  1.00  0.00    -0.248 NA
ATOM     58  C   UNL A   1      48.325  29.430  26.985  1.00  0.00     0.031 C 
ATOM     59  C   UNL A   1      43.075  31.603  29.121  1.00  0.00     0.029 A 
ATOM     60  C   UNL A   1      44.044  30.764  28.597  1.00  0.00     0.049 A 
ATOM     61  H   UNL A   1      43.899  28.717  28.098  1.00  0.00     0.167 HD
ATOM     62  C   UNL A   1      46.314  30.172  27.796  1.00  0.00     0.074 A 
ATOM     63  C   UNL A   1      47.684  30.492  27.455  1.00  0.00     0.031 C 
ATOM     64  C   UNL A   1      45.409  31.072  28.251  1.00  0.00     0.037 A 
BRANCH  51  65
ATOM     65  C   UNL A   1      39.758  28.748  29.144  1.00  0.00     0.064 A 
ATOM     66  C   UNL A   1      39.288  28.609  30.458  1.00  0.00     0.173 A 
ATOM     67  C   UNL A   1      38.853  29.196  28.170  1.00  0.00     0.173 A 
ATOM     68  F   UNL A   1      40.109  28.178  31.428  1.00  0.00    -0.203 F 
ATOM     69  C   UNL A   1      37.960  28.877  30.777  1.00  0.00     0.198 A 
ATOM     70  C   UNL A   1      37.533  29.496  28.498  1.00  0.00     0.198 A 
ATOM     71  F   UNL A   1      39.250  29.356  26.898  1.00  0.00    -0.203 F 
ATOM     72  F   UNL A   1      37.521  28.689  32.030  1.00  0.00    -0.200 F 
ATOM     73  C   UNL A   1      37.085  29.328  29.799  1.00  0.00     0.200 A 
ATOM     74  F   UNL A   1      36.696  29.947  27.555  1.00  0.00    -0.200 F 
ATOM     75  F   UNL A   1      35.810  29.596  30.109  1.00  0.00    -0.200 F 
ENDBRANCH  51  65
BRANCH  52  76
ATOM     76  C   UNL A   1      49.097  26.698  26.273  1.00  0.00     0.064 A 
ATOM     77  C   UNL A   1      49.472  26.869  24.933  1.00  0.00     0.173 A 
ATOM     78  C   UNL A   1      50.075  26.242  27.170  1.00  0.00     0.173 A 
ATOM     79  F   UNL A   1      48.566  27.280  24.033  1.00  0.00    -0.203 F 
ATOM     80  C   UNL A   1      50.764  26.577  24.503  1.00  0.00     0.198 A 
ATOM     81  C   UNL A   1      51.377  25.982  26.745  1.00  0.00     0.198 A 
ATOM     82  F   UNL A   1      49.771  26.064  28.464  1.00  0.00    -0.203 F 
ATOM     83  F   UNL A   1      51.082  26.704  23.208  1.00  0.00    -0.200 F 
ATOM     84  C   UNL A   1      51.718  26.142  25.411  1.00  0.00     0.200 A 
ATOM     85  F   UNL A   1      52.299  25.576  27.629  1.00  0.00    -0.200 F 
ATOM     86  F   UNL A   1      52.963  25.867  24.998  1.00  0.00    -0.200 F 
ENDBRANCH  52  76
BRANCH  64  87
ATOM     87  C   UNL A   1      45.872  32.491  28.426  1.00  0.00     0.064 A 
ATOM     88  C   UNL A   1      45.751  33.436  27.397  1.00  0.00     0.173 A 
ATOM     89  C   UNL A   1      46.401  32.921  29.653  1.00  0.00     0.173 A 
ATOM     90  F   UNL A   1      45.269  33.072  26.199  1.00  0.00    -0.203 F 
ATOM     91  C   UNL A   1      46.161  34.754  27.583  1.00  0.00     0.198 A 
ATOM     92  C   UNL A   1      46.777  34.248  29.847  1.00  0.00     0.198 A 
ATOM     93  F   UNL A   1      46.535  32.059  30.672  1.00  0.00    -0.203 F 
ATOM     94  F   UNL A   1      46.078  35.629  26.572  1.00  0.00    -0.200 F 
ATOM     95  C   UNL A   1      46.663  35.161  28.810  1.00  0.00     0.200 A 
ATOM     96  F   UNL A   1      47.248  34.641  31.038  1.00  0.00    -0.200 F 
ATOM     97  F   UNL A   1      47.044  36.433  28.992  1.00  0.00    -0.200 F 
ENDBRANCH  64  87
ENDBRANCH  38  39
ENDBRANCH  30  33
ENDBRANCH  28  29
ENDBRANCH  27  28
ENDBRANCH   1  27
TORSDOF 14
ENDMDL
