MODEL 1
REMARK VINA RESULT:     -10.8      0.000      0.000
REMARK SMILES CC(C)C[C@H](NC(=O)CNC(=O)[C@@H](NC(=O)OCc1ccccc1)C(C)C)C(=O)N[C@@H](C)C(=O)NCCCCCCNC(=O)c1ccc(-c2c3nc(c(-c4c(F)c(F)c(F)c(F)c4F)c4ccc([nH]4)c(-c4c(F)c(F)c(F)c(F)c4F)c4nc(c(-c5c(F)c(F)c(F)c(F)c5F)c5ccc2[nH]5)C=C4)C=C3)cc1
REMARK SMILES IDX 31 1 32 2 30 3 28 4 29 5 5 7 4 8 2 9 1 10 3 11 6 12 7 13
REMARK SMILES IDX 8 15 9 16 10 17 11 18 12 20 13 21 14 22 15 23 16 25 17 26
REMARK SMILES IDX 18 27 19 28 20 29 24 30 21 31 23 32 22 33 25 34 26 35 27 36
REMARK SMILES IDX 33 37 34 38 35 39 36 41 37 42 38 43 39 44 40 45 41 46 42 47
REMARK SMILES IDX 43 48 44 50 45 51 46 52 107 53 47 54 106 55 48 56 49 57
REMARK SMILES IDX 50 58 100 59 51 60 105 61 99 62 101 63 52 64 104 65 98 66
REMARK SMILES IDX 97 67 53 69 85 70 65 71 84 72 66 73 69 74 83 75 102 76 67 77
REMARK SMILES IDX 68 78 82 80 103 81 70 82 54 83 55 84 63 85 56 86 57 87 61 88
REMARK SMILES IDX 64 89 58 90 59 91 62 92 60 93 86 94 87 95 95 96 88 97 89 98
REMARK SMILES IDX 93 99 96 100 90 101 91 102 94 103 92 104 71 105 72 106
REMARK SMILES IDX 80 107 73 108 74 109 78 110 81 111 75 112 76 113 79 114
REMARK SMILES IDX 77 115
REMARK H PARENT 30 6 6 14 10 19 14 24 35 40 42 49 101 68 69 79
REMARK Flexibility Score: inf
ROOT
ATOM      1  C   UNL A   1      32.968  25.722  24.846  1.00  0.00     0.168 C 
ATOM      2  C   UNL A   1      33.526  24.890  23.703  1.00  0.00     0.041 C 
ENDROOT
BRANCH   1   3
ATOM      3  N   UNL A   1      33.712  26.980  24.980  1.00  0.00    -0.343 N 
ATOM      4  C   UNL A   1      33.251  28.259  25.084  1.00  0.00     0.243 C 
ATOM      5  O   UNL A   1      34.057  29.133  25.408  1.00  0.00    -0.273 OA
ATOM      6  H   UNL A   1      34.692  26.886  24.997  1.00  0.00     0.164 HD
BRANCH   4   7
ATOM      7  C   UNL A   1      31.757  28.560  24.885  1.00  0.00     0.171 C 
BRANCH   7   8
ATOM      8  C   UNL A   1      31.378  28.397  23.417  1.00  0.00     0.038 C 
BRANCH   8   9
ATOM      9  C   UNL A   1      30.007  27.803  23.052  1.00  0.00    -0.015 C 
ATOM     10  C   UNL A   1      29.554  26.714  24.027  1.00  0.00     0.007 C 
ATOM     11  C   UNL A   1      28.977  28.942  23.066  1.00  0.00     0.007 C 
ENDBRANCH   8   9
ENDBRANCH   7   8
BRANCH   7  12
ATOM     12  N   UNL A   1      31.517  29.901  25.464  1.00  0.00    -0.343 N 
ATOM     13  C   UNL A   1      32.029  30.709  26.416  1.00  0.00     0.240 C 
ATOM     14  H   UNL A   1      30.752  30.335  25.021  1.00  0.00     0.164 HD
ATOM     15  O   UNL A   1      31.532  31.846  26.449  1.00  0.00    -0.273 OA
BRANCH  13  16
ATOM     16  C   UNL A   1      33.215  30.406  27.339  1.00  0.00     0.216 C 
BRANCH  16  17
ATOM     17  N   UNL A   1      34.400  31.226  27.262  1.00  0.00    -0.345 N 
ATOM     18  C   UNL A   1      34.877  32.218  28.058  1.00  0.00     0.243 C 
ATOM     19  H   UNL A   1      34.970  31.031  26.484  1.00  0.00     0.164 HD
ATOM     20  O   UNL A   1      36.028  32.599  27.812  1.00  0.00    -0.273 OA
BRANCH  18  21
ATOM     21  C   UNL A   1      34.087  32.860  29.242  1.00  0.00     0.177 C 
BRANCH  21  22
ATOM     22  N   UNL A   1      34.422  32.298  30.560  1.00  0.00    -0.309 N 
ATOM     23  C   UNL A   1      35.578  32.194  31.264  1.00  0.00     0.408 C 
ATOM     24  H   UNL A   1      33.644  31.919  31.030  1.00  0.00     0.167 HD
ATOM     25  O   UNL A   1      35.664  31.415  32.198  1.00  0.00    -0.225 OA
BRANCH  23  26
ATOM     26  O   UNL A   1      36.538  33.054  30.869  1.00  0.00    -0.445 OA
BRANCH  26  27
ATOM     27  C   UNL A   1      37.762  32.988  31.611  1.00  0.00     0.270 C 
BRANCH  27  28
ATOM     28  C   UNL A   1      38.976  33.611  30.943  1.00  0.00    -0.011 A 
ATOM     29  C   UNL A   1      40.189  33.614  31.646  1.00  0.00     0.007 A 
ATOM     30  C   UNL A   1      38.939  34.238  29.687  1.00  0.00     0.007 A 
ATOM     31  C   UNL A   1      41.316  34.253  31.124  1.00  0.00     0.000 A 
ATOM     32  C   UNL A   1      40.057  34.895  29.175  1.00  0.00     0.000 A 
ATOM     33  C   UNL A   1      41.246  34.906  29.896  1.00  0.00     0.000 A 
ENDBRANCH  27  28
ENDBRANCH  26  27
ENDBRANCH  23  26
ENDBRANCH  21  22
BRANCH  21  34
ATOM     34  C   UNL A   1      33.986  34.393  29.131  1.00  0.00     0.015 C 
ATOM     35  C   UNL A   1      32.907  34.821  28.126  1.00  0.00     0.010 C 
ATOM     36  C   UNL A   1      33.627  35.026  30.482  1.00  0.00     0.010 C 
ENDBRANCH  21  34
ENDBRANCH  18  21
ENDBRANCH  16  17
ENDBRANCH  13  16
ENDBRANCH   7  12
ENDBRANCH   4   7
ENDBRANCH   1   3
BRANCH   1  37
ATOM     37  C   UNL A   1      32.865  24.893  26.142  1.00  0.00     0.242 C 
ATOM     38  O   UNL A   1      31.930  25.072  26.929  1.00  0.00    -0.273 OA
ATOM     39  N   UNL A   1      33.713  23.869  26.409  1.00  0.00    -0.354 N 
ATOM     40  H   UNL A   1      33.562  23.422  27.273  1.00  0.00     0.163 HD
BRANCH  39  41
ATOM     41  C   UNL A   1      34.799  23.329  25.628  1.00  0.00     0.116 C 
BRANCH  41  42
ATOM     42  C   UNL A   1      35.003  21.848  25.921  1.00  0.00     0.021 C 
BRANCH  42  43
ATOM     43  C   UNL A   1      35.761  21.107  24.813  1.00  0.00     0.002 C 
BRANCH  43  44
ATOM     44  C   UNL A   1      37.268  21.388  24.771  1.00  0.00     0.002 C 
BRANCH  44  45
ATOM     45  C   UNL A   1      38.154  20.155  24.975  1.00  0.00     0.021 C 
BRANCH  45  46
ATOM     46  C   UNL A   1      39.243  20.341  26.025  1.00  0.00     0.116 C 
BRANCH  46  47
ATOM     47  N   UNL A   1      40.245  19.291  25.944  1.00  0.00    -0.352 N 
ATOM     48  C   UNL A   1      41.611  19.392  25.993  1.00  0.00     0.251 C 
ATOM     49  H   UNL A   1      39.892  18.378  25.841  1.00  0.00     0.163 HD
ATOM     50  O   UNL A   1      42.315  18.444  25.665  1.00  0.00    -0.269 OA
BRANCH  48  51
ATOM     51  C   UNL A   1      42.232  20.661  26.423  1.00  0.00     0.039 A 
ATOM     52  C   UNL A   1      42.701  21.545  25.450  1.00  0.00     0.014 A 
ATOM     53  C   UNL A   1      42.348  20.979  27.780  1.00  0.00     0.014 A 
ATOM     54  C   UNL A   1      43.227  22.778  25.835  1.00  0.00     0.010 A 
ATOM     55  C   UNL A   1      42.803  22.239  28.159  1.00  0.00     0.010 A 
ATOM     56  C   UNL A   1      43.242  23.152  27.189  1.00  0.00    -0.014 A 
BRANCH  56  57
ATOM     57  C   UNL A   1      43.679  24.512  27.599  1.00  0.00     0.031 A 
ATOM     58  C   UNL A   1      42.667  25.558  27.971  1.00  0.00     0.074 A 
ATOM     59  C   UNL A   1      44.992  24.814  27.573  1.00  0.00     0.049 A 
ATOM     60  N   UNL A   1      42.860  26.811  28.300  1.00  0.00    -0.248 NA
ATOM     61  C   UNL A   1      41.251  25.156  27.951  1.00  0.00     0.031 C 
ATOM     62  C   UNL A   1      46.062  23.897  27.176  1.00  0.00     0.029 A 
ATOM     63  N   UNL A   1      45.651  25.982  27.870  1.00  0.00    -0.354 N 
ATOM     64  C   UNL A   1      41.596  27.346  28.513  1.00  0.00     0.074 A 
ATOM     65  C   UNL A   1      40.639  26.297  28.235  1.00  0.00     0.031 C 
ATOM     66  C   UNL A   1      47.243  24.529  27.270  1.00  0.00     0.029 A 
ATOM     67  C   UNL A   1      47.011  25.907  27.688  1.00  0.00     0.049 A 
ATOM     68  H   UNL A   1      45.192  26.794  28.185  1.00  0.00     0.167 HD
ATOM     69  C   UNL A   1      41.269  28.596  28.918  1.00  0.00     0.037 A 
ATOM     70  C   UNL A   1      47.963  26.852  27.822  1.00  0.00     0.037 A 
ATOM     71  C   UNL A   1      42.228  29.626  29.221  1.00  0.00     0.049 A 
ATOM     72  C   UNL A   1      47.563  28.235  28.265  1.00  0.00     0.074 A 
ATOM     73  C   UNL A   1      41.997  30.896  29.722  1.00  0.00     0.029 A 
ATOM     74  N   UNL A   1      43.598  29.512  29.039  1.00  0.00    -0.354 N 
ATOM     75  N   UNL A   1      46.371  28.698  28.558  1.00  0.00    -0.248 NA
ATOM     76  C   UNL A   1      48.640  29.225  28.401  1.00  0.00     0.031 C 
ATOM     77  C   UNL A   1      43.218  31.572  29.778  1.00  0.00     0.029 A 
ATOM     78  C   UNL A   1      44.219  30.704  29.378  1.00  0.00     0.049 A 
ATOM     79  H   UNL A   1      44.061  28.705  28.716  1.00  0.00     0.167 HD
ATOM     80  C   UNL A   1      46.560  30.021  28.935  1.00  0.00     0.074 A 
ATOM     81  C   UNL A   1      47.982  30.278  28.862  1.00  0.00     0.031 C 
ATOM     82  C   UNL A   1      45.637  30.944  29.302  1.00  0.00     0.037 A 
BRANCH  69  83
ATOM     83  C   UNL A   1      39.815  28.937  29.066  1.00  0.00     0.064 A 
ATOM     84  C   UNL A   1      39.023  29.287  27.962  1.00  0.00     0.173 A 
ATOM     85  C   UNL A   1      39.185  28.819  30.314  1.00  0.00     0.173 A 
ATOM     86  F   UNL A   1      39.578  29.423  26.748  1.00  0.00    -0.203 F 
ATOM     87  C   UNL A   1      37.656  29.512  28.104  1.00  0.00     0.198 A 
ATOM     88  C   UNL A   1      37.813  29.016  30.447  1.00  0.00     0.198 A 
ATOM     89  F   UNL A   1      39.895  28.482  31.401  1.00  0.00    -0.203 F 
ATOM     90  F   UNL A   1      36.924  29.870  27.041  1.00  0.00    -0.200 F 
ATOM     91  C   UNL A   1      37.051  29.364  29.343  1.00  0.00     0.200 A 
ATOM     92  F   UNL A   1      37.228  28.855  31.642  1.00  0.00    -0.200 F 
ATOM     93  F   UNL A   1      35.731  29.556  29.473  1.00  0.00    -0.200 F 
ENDBRANCH  69  83
BRANCH  70  94
ATOM     94  C   UNL A   1      49.384  26.536  27.517  1.00  0.00     0.064 A 
ATOM     95  C   UNL A   1      50.302  26.256  28.540  1.00  0.00     0.173 A 
ATOM     96  C   UNL A   1      49.867  26.553  26.199  1.00  0.00     0.173 A 
ATOM     97  F   UNL A   1      49.896  26.247  29.818  1.00  0.00    -0.203 F 
ATOM     98  C   UNL A   1      51.652  26.049  28.262  1.00  0.00     0.198 A 
ATOM     99  C   UNL A   1      51.209  26.306  25.918  1.00  0.00     0.198 A 
ATOM    100  F   UNL A   1      49.032  26.806  25.180  1.00  0.00    -0.203 F 
ATOM    101  F   UNL A   1      52.518  25.856  29.265  1.00  0.00    -0.200 F 
ATOM    102  C   UNL A   1      52.104  26.070  26.951  1.00  0.00     0.200 A 
ATOM    103  F   UNL A   1      51.636  26.310  24.648  1.00  0.00    -0.200 F 
ATOM    104  F   UNL A   1      53.402  25.877  26.684  1.00  0.00    -0.200 F 
ENDBRANCH  70  94
BRANCH  82 105
ATOM    105  C   UNL A   1      46.140  32.308  29.680  1.00  0.00     0.064 A 
ATOM    106  C   UNL A   1      46.238  33.343  28.738  1.00  0.00     0.173 A 
ATOM    107  C   UNL A   1      46.492  32.594  31.009  1.00  0.00     0.173 A 
ATOM    108  F   UNL A   1      45.929  33.118  27.452  1.00  0.00    -0.203 F 
ATOM    109  C   UNL A   1      46.702  34.603  29.105  1.00  0.00     0.198 A 
ATOM    110  C   UNL A   1      46.918  33.866  31.378  1.00  0.00     0.198 A 
ATOM    111  F   UNL A   1      46.408  31.643  31.951  1.00  0.00    -0.203 F 
ATOM    112  F   UNL A   1      46.842  35.560  28.177  1.00  0.00    -0.200 F 
ATOM    113  C   UNL A   1      47.032  34.867  30.426  1.00  0.00     0.200 A 
ATOM    114  F   UNL A   1      47.220  34.123  32.659  1.00  0.00    -0.200 F 
ATOM    115  F   UNL A   1      47.469  36.083  30.779  1.00  0.00    -0.200 F 
ENDBRANCH  82 105
ENDBRANCH  56  57
ENDBRANCH  48  51
ENDBRANCH  46  47
ENDBRANCH  45  46
ENDBRANCH  44  45
ENDBRANCH  43  44
ENDBRANCH  42  43
ENDBRANCH  41  42
ENDBRANCH  39  41
ENDBRANCH   1  37
TORSDOF 26
ENDMDL
MODEL 2
REMARK VINA RESULT:     -10.2      4.142     11.129
REMARK SMILES CC(C)C[C@H](NC(=O)CNC(=O)[C@@H](NC(=O)OCc1ccccc1)C(C)C)C(=O)N[C@@H](C)C(=O)NCCCCCCNC(=O)c1ccc(-c2c3nc(c(-c4c(F)c(F)c(F)c(F)c4F)c4ccc([nH]4)c(-c4c(F)c(F)c(F)c(F)c4F)c4nc(c(-c5c(F)c(F)c(F)c(F)c5F)c5ccc2[nH]5)C=C4)C=C3)cc1
REMARK SMILES IDX 31 1 32 2 30 3 28 4 29 5 5 7 4 8 2 9 1 10 3 11 6 12 7 13
REMARK SMILES IDX 8 15 9 16 10 17 11 18 12 20 13 21 14 22 15 23 16 25 17 26
REMARK SMILES IDX 18 27 19 28 20 29 24 30 21 31 23 32 22 33 25 34 26 35 27 36
REMARK SMILES IDX 33 37 34 38 35 39 36 41 37 42 38 43 39 44 40 45 41 46 42 47
REMARK SMILES IDX 43 48 44 50 45 51 46 52 107 53 47 54 106 55 48 56 49 57
REMARK SMILES IDX 50 58 100 59 51 60 105 61 99 62 101 63 52 64 104 65 98 66
REMARK SMILES IDX 97 67 53 69 85 70 65 71 84 72 66 73 69 74 83 75 102 76 67 77
REMARK SMILES IDX 68 78 82 80 103 81 70 82 54 83 55 84 63 85 56 86 57 87 61 88
REMARK SMILES IDX 64 89 58 90 59 91 62 92 60 93 86 94 87 95 95 96 88 97 89 98
REMARK SMILES IDX 93 99 96 100 90 101 91 102 94 103 92 104 71 105 72 106
REMARK SMILES IDX 80 107 73 108 74 109 78 110 81 111 75 112 76 113 79 114
REMARK SMILES IDX 77 115
REMARK H PARENT 30 6 6 14 10 19 14 24 35 40 42 49 101 68 69 79
REMARK Flexibility Score: inf
ROOT
ATOM      1  C   UNL A   1      37.892  33.170  31.585  1.00  0.00     0.168 C 
ATOM      2  C   UNL A   1      38.415  34.582  31.792  1.00  0.00     0.041 C 
ENDROOT
BRANCH   1   3
ATOM      3  N   UNL A   1      36.504  33.060  32.052  1.00  0.00    -0.343 N 
ATOM      4  C   UNL A   1      35.391  32.643  31.384  1.00  0.00     0.243 C 
ATOM      5  O   UNL A   1      34.375  32.427  32.047  1.00  0.00    -0.273 OA
ATOM      6  H   UNL A   1      36.356  33.328  32.987  1.00  0.00     0.164 HD
BRANCH   4   7
ATOM      7  C   UNL A   1      35.451  32.375  29.873  1.00  0.00     0.171 C 
BRANCH   7   8
ATOM      8  C   UNL A   1      34.081  32.603  29.243  1.00  0.00     0.038 C 
BRANCH   8   9
ATOM      9  C   UNL A   1      33.786  33.939  28.538  1.00  0.00    -0.015 C 
ATOM     10  C   UNL A   1      32.601  33.850  27.574  1.00  0.00     0.007 C 
ATOM     11  C   UNL A   1      33.473  34.986  29.615  1.00  0.00     0.007 C 
ENDBRANCH   8   9
ENDBRANCH   7   8
BRANCH   7  12
ATOM     12  N   UNL A   1      36.015  31.017  29.706  1.00  0.00    -0.343 N 
ATOM     13  C   UNL A   1      35.977  29.996  28.824  1.00  0.00     0.240 C 
ATOM     14  H   UNL A   1      36.592  30.788  30.470  1.00  0.00     0.164 HD
ATOM     15  O   UNL A   1      36.753  29.063  29.081  1.00  0.00    -0.273 OA
BRANCH  13  16
ATOM     16  C   UNL A   1      35.189  29.946  27.509  1.00  0.00     0.216 C 
BRANCH  16  17
ATOM     17  N   UNL A   1      34.733  28.673  27.005  1.00  0.00    -0.345 N 
ATOM     18  C   UNL A   1      34.045  28.328  25.886  1.00  0.00     0.243 C 
ATOM     19  H   UNL A   1      34.962  27.910  27.583  1.00  0.00     0.164 HD
ATOM     20  O   UNL A   1      33.970  27.115  25.654  1.00  0.00    -0.273 OA
BRANCH  18  21
ATOM     21  C   UNL A   1      33.390  29.346  24.900  1.00  0.00     0.177 C 
BRANCH  21  22
ATOM     22  N   UNL A   1      33.816  29.184  23.501  1.00  0.00    -0.309 N 
ATOM     23  C   UNL A   1      33.501  28.292  22.527  1.00  0.00     0.408 C 
ATOM     24  H   UNL A   1      34.465  29.865  23.211  1.00  0.00     0.167 HD
ATOM     25  O   UNL A   1      34.213  28.175  21.545  1.00  0.00    -0.225 OA
BRANCH  23  26
ATOM     26  O   UNL A   1      32.340  27.641  22.737  1.00  0.00    -0.445 OA
BRANCH  26  27
ATOM     27  C   UNL A   1      32.115  26.504  21.894  1.00  0.00     0.270 C 
BRANCH  27  28
ATOM     28  C   UNL A   1      32.047  25.160  22.599  1.00  0.00    -0.011 A 
ATOM     29  C   UNL A   1      33.023  24.201  22.292  1.00  0.00     0.007 A 
ATOM     30  C   UNL A   1      31.028  24.800  23.496  1.00  0.00     0.007 A 
ATOM     31  C   UNL A   1      32.961  22.917  22.837  1.00  0.00     0.000 A 
ATOM     32  C   UNL A   1      30.952  23.512  24.023  1.00  0.00     0.000 A 
ATOM     33  C   UNL A   1      31.917  22.568  23.691  1.00  0.00     0.000 A 
ENDBRANCH  27  28
ENDBRANCH  26  27
ENDBRANCH  23  26
ENDBRANCH  21  22
BRANCH  21  34
ATOM     34  C   UNL A   1      31.886  29.549  25.163  1.00  0.00     0.015 C 
ATOM     35  C   UNL A   1      31.210  28.252  25.630  1.00  0.00     0.010 C 
ATOM     36  C   UNL A   1      31.648  30.604  26.252  1.00  0.00     0.010 C 
ENDBRANCH  21  34
ENDBRANCH  18  21
ENDBRANCH  16  17
ENDBRANCH  13  16
ENDBRANCH   7  12
ENDBRANCH   4   7
ENDBRANCH   1   3
BRANCH   1  37
ATOM     37  C   UNL A   1      38.856  32.125  32.180  1.00  0.00     0.242 C 
ATOM     38  O   UNL A   1      39.843  31.746  31.542  1.00  0.00    -0.273 OA
ATOM     39  N   UNL A   1      38.732  31.675  33.453  1.00  0.00    -0.354 N 
ATOM     40  H   UNL A   1      39.395  30.997  33.719  1.00  0.00     0.163 HD
BRANCH  39  41
ATOM     41  C   UNL A   1      37.785  32.032  34.482  1.00  0.00     0.116 C 
BRANCH  41  42
ATOM     42  C   UNL A   1      38.236  31.522  35.845  1.00  0.00     0.021 C 
BRANCH  42  43
ATOM     43  C   UNL A   1      37.762  32.400  37.010  1.00  0.00     0.002 C 
BRANCH  43  44
ATOM     44  C   UNL A   1      38.733  32.470  38.194  1.00  0.00     0.002 C 
BRANCH  44  45
ATOM     45  C   UNL A   1      38.368  33.507  39.260  1.00  0.00     0.021 C 
BRANCH  45  46
ATOM     46  C   UNL A   1      39.570  34.202  39.888  1.00  0.00     0.116 C 
BRANCH  46  47
ATOM     47  N   UNL A   1      39.517  35.641  39.692  1.00  0.00    -0.352 N 
ATOM     48  C   UNL A   1      40.043  36.397  38.677  1.00  0.00     0.251 C 
ATOM     49  H   UNL A   1      39.034  36.143  40.387  1.00  0.00     0.163 HD
ATOM     50  O   UNL A   1      40.122  37.615  38.789  1.00  0.00    -0.269 OA
BRANCH  48  51
ATOM     51  C   UNL A   1      40.537  35.732  37.455  1.00  0.00     0.039 A 
ATOM     52  C   UNL A   1      41.872  35.330  37.399  1.00  0.00     0.014 A 
ATOM     53  C   UNL A   1      39.685  35.503  36.369  1.00  0.00     0.014 A 
ATOM     54  C   UNL A   1      42.338  34.639  36.281  1.00  0.00     0.010 A 
ATOM     55  C   UNL A   1      40.131  34.748  35.288  1.00  0.00     0.010 A 
ATOM     56  C   UNL A   1      41.460  34.304  35.236  1.00  0.00    -0.014 A 
BRANCH  56  57
ATOM     57  C   UNL A   1      41.913  33.458  34.103  1.00  0.00     0.031 A 
ATOM     58  C   UNL A   1      42.118  31.981  34.288  1.00  0.00     0.074 A 
ATOM     59  C   UNL A   1      42.197  34.041  32.921  1.00  0.00     0.049 A 
ATOM     60  N   UNL A   1      42.560  31.096  33.429  1.00  0.00    -0.248 NA
ATOM     61  C   UNL A   1      41.809  31.425  35.615  1.00  0.00     0.031 C 
ATOM     62  C   UNL A   1      42.088  35.474  32.638  1.00  0.00     0.029 A 
ATOM     63  N   UNL A   1      42.651  33.506  31.741  1.00  0.00    -0.354 N 
ATOM     64  C   UNL A   1      42.594  29.888  34.113  1.00  0.00     0.074 A 
ATOM     65  C   UNL A   1      42.168  30.157  35.470  1.00  0.00     0.031 C 
ATOM     66  C   UNL A   1      42.448  35.701  31.366  1.00  0.00     0.029 A 
ATOM     67  C   UNL A   1      42.857  34.441  30.755  1.00  0.00     0.049 A 
ATOM     68  H   UNL A   1      42.812  32.543  31.613  1.00  0.00     0.167 HD
ATOM     69  C   UNL A   1      42.933  28.665  33.643  1.00  0.00     0.037 A 
ATOM     70  C   UNL A   1      43.342  34.301  29.506  1.00  0.00     0.037 A 
ATOM     71  C   UNL A   1      43.328  28.400  32.284  1.00  0.00     0.049 A 
ATOM     72  C   UNL A   1      43.720  32.926  29.019  1.00  0.00     0.074 A 
ATOM     73  C   UNL A   1      43.606  27.180  31.692  1.00  0.00     0.029 A 
ATOM     74  N   UNL A   1      43.512  29.369  31.310  1.00  0.00    -0.354 N 
ATOM     75  N   UNL A   1      43.652  31.777  29.648  1.00  0.00    -0.248 NA
ATOM     76  C   UNL A   1      44.238  32.829  27.648  1.00  0.00     0.031 C 
ATOM     77  C   UNL A   1      44.025  27.417  30.380  1.00  0.00     0.029 A 
ATOM     78  C   UNL A   1      43.942  28.776  30.132  1.00  0.00     0.049 A 
ATOM     79  H   UNL A   1      43.361  30.333  31.435  1.00  0.00     0.167 HD
ATOM     80  C   UNL A   1      44.094  30.822  28.742  1.00  0.00     0.074 A 
ATOM     81  C   UNL A   1      44.398  31.521  27.512  1.00  0.00     0.031 C 
ATOM     82  C   UNL A   1      44.240  29.485  28.915  1.00  0.00     0.037 A 
BRANCH  69  83
ATOM     83  C   UNL A   1      42.899  27.504  34.594  1.00  0.00     0.064 A 
ATOM     84  C   UNL A   1      41.758  26.701  34.739  1.00  0.00     0.173 A 
ATOM     85  C   UNL A   1      44.055  27.133  35.298  1.00  0.00     0.173 A 
ATOM     86  F   UNL A   1      40.623  27.017  34.095  1.00  0.00    -0.203 F 
ATOM     87  C   UNL A   1      41.774  25.575  35.557  1.00  0.00     0.198 A 
ATOM     88  C   UNL A   1      44.076  25.990  36.092  1.00  0.00     0.198 A 
ATOM     89  F   UNL A   1      45.176  27.863  35.191  1.00  0.00    -0.203 F 
ATOM     90  F   UNL A   1      40.664  24.837  35.700  1.00  0.00    -0.200 F 
ATOM     91  C   UNL A   1      42.936  25.214  36.223  1.00  0.00     0.200 A 
ATOM     92  F   UNL A   1      45.205  25.633  36.720  1.00  0.00    -0.200 F 
ATOM     93  F   UNL A   1      42.956  24.115  36.990  1.00  0.00    -0.200 F 
ENDBRANCH  69  83
BRANCH  70  94
ATOM     94  C   UNL A   1      43.519  35.490  28.630  1.00  0.00     0.064 A 
ATOM     95  C   UNL A   1      44.766  36.118  28.500  1.00  0.00     0.173 A 
ATOM     96  C   UNL A   1      42.435  36.052  27.938  1.00  0.00     0.173 A 
ATOM     97  F   UNL A   1      45.831  35.632  29.155  1.00  0.00    -0.203 F 
ATOM     98  C   UNL A   1      44.913  37.283  27.750  1.00  0.00     0.198 A 
ATOM     99  C   UNL A   1      42.591  37.194  27.156  1.00  0.00     0.198 A 
ATOM    100  F   UNL A   1      41.220  35.488  28.019  1.00  0.00    -0.203 F 
ATOM    101  F   UNL A   1      46.100  37.902  27.704  1.00  0.00    -0.200 F 
ATOM    102  C   UNL A   1      43.826  37.819  27.076  1.00  0.00     0.200 A 
ATOM    103  F   UNL A   1      41.541  37.697  26.493  1.00  0.00    -0.200 F 
ATOM    104  F   UNL A   1      43.965  38.942  26.360  1.00  0.00    -0.200 F 
ENDBRANCH  70  94
BRANCH  82 105
ATOM    105  C   UNL A   1      44.726  28.687  27.738  1.00  0.00     0.064 A 
ATOM    106  C   UNL A   1      46.087  28.405  27.553  1.00  0.00     0.173 A 
ATOM    107  C   UNL A   1      43.815  28.169  26.805  1.00  0.00     0.173 A 
ATOM    108  F   UNL A   1      47.001  28.890  28.408  1.00  0.00    -0.203 F 
ATOM    109  C   UNL A   1      46.522  27.660  26.460  1.00  0.00     0.198 A 
ATOM    110  C   UNL A   1      44.250  27.393  25.734  1.00  0.00     0.198 A 
ATOM    111  F   UNL A   1      42.501  28.403  26.939  1.00  0.00    -0.203 F 
ATOM    112  F   UNL A   1      47.832  27.450  26.272  1.00  0.00    -0.200 F 
ATOM    113  C   UNL A   1      45.603  27.147  25.557  1.00  0.00     0.200 A 
ATOM    114  F   UNL A   1      43.358  26.884  24.873  1.00  0.00    -0.200 F 
ATOM    115  F   UNL A   1      46.021  26.423  24.511  1.00  0.00    -0.200 F 
ENDBRANCH  82 105
ENDBRANCH  56  57
ENDBRANCH  48  51
ENDBRANCH  46  47
ENDBRANCH  45  46
ENDBRANCH  44  45
ENDBRANCH  43  44
ENDBRANCH  42  43
ENDBRANCH  41  42
ENDBRANCH  39  41
ENDBRANCH   1  37
TORSDOF 26
ENDMDL
MODEL 3
REMARK VINA RESULT:     -10.1      2.019      3.150
REMARK SMILES CC(C)C[C@H](NC(=O)CNC(=O)[C@@H](NC(=O)OCc1ccccc1)C(C)C)C(=O)N[C@@H](C)C(=O)NCCCCCCNC(=O)c1ccc(-c2c3nc(c(-c4c(F)c(F)c(F)c(F)c4F)c4ccc([nH]4)c(-c4c(F)c(F)c(F)c(F)c4F)c4nc(c(-c5c(F)c(F)c(F)c(F)c5F)c5ccc2[nH]5)C=C4)C=C3)cc1
REMARK SMILES IDX 31 1 32 2 30 3 28 4 29 5 5 7 4 8 2 9 1 10 3 11 6 12 7 13
REMARK SMILES IDX 8 15 9 16 10 17 11 18 12 20 13 21 14 22 15 23 16 25 17 26
REMARK SMILES IDX 18 27 19 28 20 29 24 30 21 31 23 32 22 33 25 34 26 35 27 36
REMARK SMILES IDX 33 37 34 38 35 39 36 41 37 42 38 43 39 44 40 45 41 46 42 47
REMARK SMILES IDX 43 48 44 50 45 51 46 52 107 53 47 54 106 55 48 56 49 57
REMARK SMILES IDX 50 58 100 59 51 60 105 61 99 62 101 63 52 64 104 65 98 66
REMARK SMILES IDX 97 67 53 69 85 70 65 71 84 72 66 73 69 74 83 75 102 76 67 77
REMARK SMILES IDX 68 78 82 80 103 81 70 82 54 83 55 84 63 85 56 86 57 87 61 88
REMARK SMILES IDX 64 89 58 90 59 91 62 92 60 93 86 94 87 95 95 96 88 97 89 98
REMARK SMILES IDX 93 99 96 100 90 101 91 102 94 103 92 104 71 105 72 106
REMARK SMILES IDX 80 107 73 108 74 109 78 110 81 111 75 112 76 113 79 114
REMARK SMILES IDX 77 115
REMARK H PARENT 30 6 6 14 10 19 14 24 35 40 42 49 101 68 69 79
REMARK Flexibility Score: inf
ROOT
ATOM      1  C   UNL A   1      31.625  26.594  25.546  1.00  0.00     0.168 C 
ATOM      2  C   UNL A   1      32.165  25.683  26.637  1.00  0.00     0.041 C 
ENDROOT
BRANCH   1   3
ATOM      3  N   UNL A   1      31.301  27.917  26.092  1.00  0.00    -0.343 N 
ATOM      4  C   UNL A   1      31.971  29.098  25.969  1.00  0.00     0.243 C 
ATOM      5  O   UNL A   1      31.391  30.124  26.330  1.00  0.00    -0.273 OA
ATOM      6  H   UNL A   1      30.476  27.958  26.626  1.00  0.00     0.164 HD
BRANCH   4   7
ATOM      7  C   UNL A   1      33.362  29.134  25.319  1.00  0.00     0.171 C 
BRANCH   7   8
ATOM      8  C   UNL A   1      33.532  27.949  24.374  1.00  0.00     0.038 C 
BRANCH   8   9
ATOM      9  C   UNL A   1      33.432  28.173  22.855  1.00  0.00    -0.015 C 
ATOM     10  C   UNL A   1      33.596  26.879  22.054  1.00  0.00     0.007 C 
ATOM     11  C   UNL A   1      32.052  28.773  22.553  1.00  0.00     0.007 C 
ENDBRANCH   8   9
ENDBRANCH   7   8
BRANCH   7  12
ATOM     12  N   UNL A   1      34.343  29.219  26.424  1.00  0.00    -0.343 N 
ATOM     13  C   UNL A   1      34.748  30.097  27.365  1.00  0.00     0.240 C 
ATOM     14  H   UNL A   1      34.854  28.381  26.495  1.00  0.00     0.164 HD
ATOM     15  O   UNL A   1      35.562  29.640  28.182  1.00  0.00    -0.273 OA
BRANCH  13  16
ATOM     16  C   UNL A   1      34.214  31.518  27.587  1.00  0.00     0.216 C 
BRANCH  16  17
ATOM     17  N   UNL A   1      35.133  32.574  27.936  1.00  0.00    -0.345 N 
ATOM     18  C   UNL A   1      34.999  33.683  28.707  1.00  0.00     0.243 C 
ATOM     19  H   UNL A   1      36.028  32.471  27.538  1.00  0.00     0.164 HD
ATOM     20  O   UNL A   1      36.045  34.296  28.955  1.00  0.00    -0.273 OA
BRANCH  18  21
ATOM     21  C   UNL A   1      33.646  34.193  29.296  1.00  0.00     0.177 C 
BRANCH  21  22
ATOM     22  N   UNL A   1      33.447  33.862  30.715  1.00  0.00    -0.309 N 
ATOM     23  C   UNL A   1      34.226  33.984  31.820  1.00  0.00     0.408 C 
ATOM     24  H   UNL A   1      32.564  33.469  30.903  1.00  0.00     0.167 HD
ATOM     25  O   UNL A   1      33.965  33.357  32.832  1.00  0.00    -0.225 OA
BRANCH  23  26
ATOM     26  O   UNL A   1      35.225  34.879  31.688  1.00  0.00    -0.445 OA
BRANCH  26  27
ATOM     27  C   UNL A   1      35.895  35.232  32.905  1.00  0.00     0.270 C 
BRANCH  27  28
ATOM     28  C   UNL A   1      37.280  34.639  33.094  1.00  0.00    -0.011 A 
ATOM     29  C   UNL A   1      37.665  34.254  34.387  1.00  0.00     0.007 A 
ATOM     30  C   UNL A   1      38.221  34.509  32.060  1.00  0.00     0.007 A 
ATOM     31  C   UNL A   1      38.957  33.789  34.640  1.00  0.00     0.000 A 
ATOM     32  C   UNL A   1      39.519  34.066  32.316  1.00  0.00     0.000 A 
ATOM     33  C   UNL A   1      39.888  33.709  33.607  1.00  0.00     0.000 A 
ENDBRANCH  27  28
ENDBRANCH  26  27
ENDBRANCH  23  26
ENDBRANCH  21  22
BRANCH  21  34
ATOM     34  C   UNL A   1      33.303  35.628  28.850  1.00  0.00     0.015 C 
ATOM     35  C   UNL A   1      32.982  36.534  30.047  1.00  0.00     0.010 C 
ATOM     36  C   UNL A   1      34.473  36.270  28.093  1.00  0.00     0.010 C 
ENDBRANCH  21  34
ENDBRANCH  18  21
ENDBRANCH  16  17
ENDBRANCH  13  16
ENDBRANCH   7  12
ENDBRANCH   4   7
ENDBRANCH   1   3
BRANCH   1  37
ATOM     37  C   UNL A   1      30.477  25.917  24.772  1.00  0.00     0.242 C 
ATOM     38  O   UNL A   1      29.458  26.551  24.479  1.00  0.00    -0.273 OA
ATOM     39  N   UNL A   1      30.585  24.657  24.283  1.00  0.00    -0.354 N 
ATOM     40  H   UNL A   1      29.783  24.323  23.819  1.00  0.00     0.163 HD
BRANCH  39  41
ATOM     41  C   UNL A   1      31.687  23.727  24.332  1.00  0.00     0.116 C 
BRANCH  41  42
ATOM     42  C   UNL A   1      32.373  23.616  22.976  1.00  0.00     0.021 C 
BRANCH  42  43
ATOM     43  C   UNL A   1      33.633  22.742  23.001  1.00  0.00     0.002 C 
BRANCH  43  44
ATOM     44  C   UNL A   1      34.705  23.193  24.000  1.00  0.00     0.002 C 
BRANCH  44  45
ATOM     45  C   UNL A   1      35.958  22.313  24.035  1.00  0.00     0.021 C 
BRANCH  45  46
ATOM     46  C   UNL A   1      36.623  22.234  25.404  1.00  0.00     0.116 C 
BRANCH  46  47
ATOM     47  N   UNL A   1      37.512  21.089  25.499  1.00  0.00    -0.352 N 
ATOM     48  C   UNL A   1      38.842  21.049  25.828  1.00  0.00     0.251 C 
ATOM     49  H   UNL A   1      37.099  20.217  25.301  1.00  0.00     0.163 HD
ATOM     50  O   UNL A   1      39.501  20.036  25.622  1.00  0.00    -0.269 OA
BRANCH  48  51
ATOM     51  C   UNL A   1      39.483  22.244  26.411  1.00  0.00     0.039 A 
ATOM     52  C   UNL A   1      40.566  22.072  27.275  1.00  0.00     0.014 A 
ATOM     53  C   UNL A   1      39.022  23.528  26.104  1.00  0.00     0.014 A 
ATOM     54  C   UNL A   1      41.229  23.191  27.780  1.00  0.00     0.010 A 
ATOM     55  C   UNL A   1      39.730  24.642  26.548  1.00  0.00     0.010 A 
ATOM     56  C   UNL A   1      40.844  24.483  27.386  1.00  0.00    -0.014 A 
BRANCH  56  57
ATOM     57  C   UNL A   1      41.622  25.674  27.813  1.00  0.00     0.031 A 
ATOM     58  C   UNL A   1      41.007  26.702  28.720  1.00  0.00     0.074 A 
ATOM     59  C   UNL A   1      42.866  25.853  27.327  1.00  0.00     0.049 A 
ATOM     60  N   UNL A   1      41.515  27.830  29.152  1.00  0.00    -0.248 NA
ATOM     61  C   UNL A   1      39.636  26.446  29.187  1.00  0.00     0.031 C 
ATOM     62  C   UNL A   1      43.548  24.950  26.397  1.00  0.00     0.029 A 
ATOM     63  N   UNL A   1      43.775  26.861  27.533  1.00  0.00    -0.354 N 
ATOM     64  C   UNL A   1      40.526  28.419  29.927  1.00  0.00     0.074 A 
ATOM     65  C   UNL A   1      39.371  27.549  29.874  1.00  0.00     0.031 C 
ATOM     66  C   UNL A   1      44.770  25.435  26.126  1.00  0.00     0.029 A 
ATOM     67  C   UNL A   1      44.943  26.704  26.825  1.00  0.00     0.049 A 
ATOM     68  H   UNL A   1      43.607  27.624  28.133  1.00  0.00     0.167 HD
ATOM     69  C   UNL A   1      40.585  29.574  30.630  1.00  0.00     0.037 A 
ATOM     70  C   UNL A   1      46.022  27.504  26.732  1.00  0.00     0.037 A 
ATOM     71  C   UNL A   1      41.747  30.421  30.702  1.00  0.00     0.049 A 
ATOM     72  C   UNL A   1      46.051  28.788  27.520  1.00  0.00     0.074 A 
ATOM     73  C   UNL A   1      41.932  31.566  31.458  1.00  0.00     0.029 A 
ATOM     74  N   UNL A   1      42.916  30.224  29.983  1.00  0.00    -0.354 N 
ATOM     75  N   UNL A   1      45.144  29.283  28.328  1.00  0.00    -0.248 NA
ATOM     76  C   UNL A   1      47.253  29.620  27.388  1.00  0.00     0.031 C 
ATOM     77  C   UNL A   1      43.186  32.098  31.145  1.00  0.00     0.029 A 
ATOM     78  C   UNL A   1      43.810  31.250  30.246  1.00  0.00     0.049 A 
ATOM     79  H   UNL A   1      43.086  29.468  29.375  1.00  0.00     0.167 HD
ATOM     80  C   UNL A   1      45.677  30.469  28.817  1.00  0.00     0.074 A 
ATOM     81  C   UNL A   1      46.997  30.603  28.238  1.00  0.00     0.031 C 
ATOM     82  C   UNL A   1      45.122  31.369  29.664  1.00  0.00     0.037 A 
BRANCH  69  83
ATOM     83  C   UNL A   1      39.364  30.008  31.389  1.00  0.00     0.064 A 
ATOM     84  C   UNL A   1      39.267  29.859  32.780  1.00  0.00     0.173 A 
ATOM     85  C   UNL A   1      38.318  30.668  30.725  1.00  0.00     0.173 A 
ATOM     86  F   UNL A   1      40.236  29.227  33.461  1.00  0.00    -0.203 F 
ATOM     87  C   UNL A   1      38.166  30.349  33.478  1.00  0.00     0.198 A 
ATOM     88  C   UNL A   1      37.233  31.182  31.429  1.00  0.00     0.198 A 
ATOM     89  F   UNL A   1      38.363  30.841  29.395  1.00  0.00    -0.203 F 
ATOM     90  F   UNL A   1      38.083  30.174  34.803  1.00  0.00    -0.200 F 
ATOM     91  C   UNL A   1      37.157  31.021  32.803  1.00  0.00     0.200 A 
ATOM     92  F   UNL A   1      36.268  31.846  30.778  1.00  0.00    -0.200 F 
ATOM     93  F   UNL A   1      36.110  31.514  33.480  1.00  0.00    -0.200 F 
ENDBRANCH  69  83
BRANCH  70  94
ATOM     94  C   UNL A   1      47.160  27.133  25.848  1.00  0.00     0.064 A 
ATOM     95  C   UNL A   1      48.229  26.361  26.325  1.00  0.00     0.173 A 
ATOM     96  C   UNL A   1      47.226  27.582  24.520  1.00  0.00     0.173 A 
ATOM     97  F   UNL A   1      48.225  25.924  27.593  1.00  0.00    -0.203 F 
ATOM     98  C   UNL A   1      49.337  26.089  25.525  1.00  0.00     0.198 A 
ATOM     99  C   UNL A   1      48.315  27.276  23.707  1.00  0.00     0.198 A 
ATOM    100  F   UNL A   1      46.227  28.317  24.008  1.00  0.00    -0.203 F 
ATOM    101  F   UNL A   1      50.376  25.411  26.030  1.00  0.00    -0.200 F 
ATOM    102  C   UNL A   1      49.378  26.544  24.215  1.00  0.00     0.200 A 
ATOM    103  F   UNL A   1      48.341  27.702  22.437  1.00  0.00    -0.200 F 
ATOM    104  F   UNL A   1      50.445  26.288  23.447  1.00  0.00    -0.200 F 
ENDBRANCH  70  94
BRANCH  82 105
ATOM    105  C   UNL A   1      45.950  32.566  30.038  1.00  0.00     0.064 A 
ATOM    106  C   UNL A   1      46.832  32.539  31.128  1.00  0.00     0.173 A 
ATOM    107  C   UNL A   1      45.887  33.741  29.273  1.00  0.00     0.173 A 
ATOM    108  F   UNL A   1      46.918  31.445  31.901  1.00  0.00    -0.203 F 
ATOM    109  C   UNL A   1      47.595  33.655  31.459  1.00  0.00     0.198 A 
ATOM    110  C   UNL A   1      46.681  34.841  29.584  1.00  0.00     0.198 A 
ATOM    111  F   UNL A   1      45.066  33.818  28.214  1.00  0.00    -0.203 F 
ATOM    112  F   UNL A   1      48.389  33.625  32.539  1.00  0.00    -0.200 F 
ATOM    113  C   UNL A   1      47.527  34.801  30.682  1.00  0.00     0.200 A 
ATOM    114  F   UNL A   1      46.625  35.942  28.821  1.00  0.00    -0.200 F 
ATOM    115  F   UNL A   1      48.269  35.871  30.995  1.00  0.00    -0.200 F 
ENDBRANCH  82 105
ENDBRANCH  56  57
ENDBRANCH  48  51
ENDBRANCH  46  47
ENDBRANCH  45  46
ENDBRANCH  44  45
ENDBRANCH  43  44
ENDBRANCH  42  43
ENDBRANCH  41  42
ENDBRANCH  39  41
ENDBRANCH   1  37
TORSDOF 26
ENDMDL
