MODEL 1
REMARK VINA RESULT:     -12.9      0.000      0.000
REMARK SMILES C[C@H]1CCCCN1c1nc2nc(CC(=O)NCCCCCCNC(=O)c3ccc(-c4c5nc(c(-c6c(F)c(F)c(F)c(F)c6F)c6ccc([nH]6)c(-c6c(F)c(F)c(F)c(F)c6F)c6nc(c(-c7c(F)c(F)c(F)c(F)c7F)c7ccc4[nH]7)C=C6)C=C5)cc3)cc(O)n2n1
REMARK SMILES IDX 19 1 18 2 17 3 16 4 14 5 15 6 13 8 12 9 8 10 9 11 93 12
REMARK SMILES IDX 10 13 92 14 11 15 90 16 89 17 7 18 1 19 2 20 3 21 4 22 6 23
REMARK SMILES IDX 5 24 91 25 20 27 21 28 22 29 23 30 24 31 25 33 26 34 27 35
REMARK SMILES IDX 88 36 28 37 87 38 29 39 30 40 31 41 81 42 32 43 86 44 80 45
REMARK SMILES IDX 82 46 33 47 85 48 79 49 78 50 34 52 66 53 46 54 65 55 47 56
REMARK SMILES IDX 50 57 64 58 83 59 48 60 49 61 63 63 84 64 51 65 35 66 36 67
REMARK SMILES IDX 44 68 37 69 38 70 42 71 45 72 39 73 40 74 43 75 41 76 67 77
REMARK SMILES IDX 68 78 76 79 69 80 70 81 74 82 77 83 71 84 72 85 75 86 73 87
REMARK SMILES IDX 52 88 53 89 61 90 54 91 55 92 59 93 62 94 56 95 57 96 60 97
REMARK SMILES IDX 58 98
REMARK H PARENT 16 7 91 26 23 32 82 51 50 62
REMARK Flexibility Score: inf
ROOT
ATOM      1  C   UNL A   1      36.175  22.996  25.543  1.00  0.00     0.002 C 
ENDROOT
BRANCH   1   2
ATOM      2  C   UNL A   1      35.564  21.688  26.060  1.00  0.00     0.021 C 
BRANCH   2   3
ATOM      3  C   UNL A   1      35.351  20.644  24.964  1.00  0.00     0.116 C 
BRANCH   3   4
ATOM      4  N   UNL A   1      34.255  19.755  25.287  1.00  0.00    -0.356 N 
ATOM      5  C   UNL A   1      32.932  19.850  24.971  1.00  0.00     0.226 C 
ATOM      6  O   UNL A   1      32.172  18.967  25.370  1.00  0.00    -0.275 OA
ATOM      7  H   UNL A   1      34.502  18.961  25.816  1.00  0.00     0.163 HD
BRANCH   5   8
ATOM      8  C   UNL A   1      32.453  20.944  24.048  1.00  0.00     0.156 C 
BRANCH   8   9
ATOM      9  C   UNL A   1      32.164  22.270  24.714  1.00  0.00     0.059 A 
ATOM     10  C   UNL A   1      32.352  26.485  25.648  1.00  0.00     0.247 A 
ATOM     11  N   UNL A   1      32.946  25.715  24.690  1.00  0.00    -0.173 NA
ATOM     12  N   UNL A   1      31.454  25.851  26.395  1.00  0.00    -0.123 NA
ATOM     13  C   UNL A   1      32.475  24.511  24.914  1.00  0.00     0.257 A 
ATOM     14  N   UNL A   1      31.540  24.581  25.948  1.00  0.00    -0.161 N 
ATOM     15  N   UNL A   1      32.776  23.334  24.290  1.00  0.00    -0.215 NA
ATOM     16  C   UNL A   1      30.861  23.435  26.388  1.00  0.00     0.217 A 
ATOM     17  C   UNL A   1      31.164  22.250  25.838  1.00  0.00     0.092 A 
BRANCH  10  18
ATOM     18  N   UNL A   1      32.725  27.775  25.754  1.00  0.00    -0.337 N 
ATOM     19  C   UNL A   1      30.793  28.556  24.308  1.00  0.00     0.031 C 
ATOM     20  C   UNL A   1      32.110  28.884  25.016  1.00  0.00     0.082 C 
ATOM     21  C   UNL A   1      31.842  30.026  26.020  1.00  0.00     0.025 C 
ATOM     22  C   UNL A   1      33.111  30.430  26.769  1.00  0.00     0.004 C 
ATOM     23  C   UNL A   1      33.965  28.080  26.462  1.00  0.00     0.120 C 
ATOM     24  C   UNL A   1      33.748  29.222  27.448  1.00  0.00     0.022 C 
ENDBRANCH  10  18
BRANCH  16  25
ATOM     25  O   UNL A   1      29.895  23.558  27.374  1.00  0.00    -0.493 OA
ATOM     26  H   UNL A   1      30.056  23.218  28.232  1.00  0.00     0.295 HD
ENDBRANCH  16  25
ENDBRANCH   8   9
ENDBRANCH   5   8
ENDBRANCH   3   4
ENDBRANCH   2   3
ENDBRANCH   1   2
BRANCH   1  27
ATOM     27  C   UNL A   1      37.640  23.236  25.942  1.00  0.00     0.002 C 
BRANCH  27  28
ATOM     28  C   UNL A   1      38.577  22.029  25.791  1.00  0.00     0.021 C 
BRANCH  28  29
ATOM     29  C   UNL A   1      39.666  21.994  26.850  1.00  0.00     0.116 C 
BRANCH  29  30
ATOM     30  N   UNL A   1      40.988  21.820  26.253  1.00  0.00    -0.352 N 
ATOM     31  C   UNL A   1      41.908  22.786  25.928  1.00  0.00     0.251 C 
ATOM     32  H   UNL A   1      41.254  20.893  26.059  1.00  0.00     0.163 HD
ATOM     33  O   UNL A   1      42.811  22.553  25.122  1.00  0.00    -0.269 OA
BRANCH  31  34
ATOM     34  C   UNL A   1      41.826  24.100  26.578  1.00  0.00     0.039 A 
ATOM     35  C   UNL A   1      41.082  25.142  26.012  1.00  0.00     0.014 A 
ATOM     36  C   UNL A   1      42.556  24.294  27.750  1.00  0.00     0.014 A 
ATOM     37  C   UNL A   1      41.058  26.376  26.654  1.00  0.00     0.010 A 
ATOM     38  C   UNL A   1      42.423  25.458  28.453  1.00  0.00     0.010 A 
ATOM     39  C   UNL A   1      41.741  26.518  27.867  1.00  0.00    -0.014 A 
BRANCH  39  40
ATOM     40  C   UNL A   1      41.718  27.761  28.617  1.00  0.00     0.031 A 
ATOM     41  C   UNL A   1      42.831  28.692  28.290  1.00  0.00     0.074 A 
ATOM     42  C   UNL A   1      40.615  28.115  29.310  1.00  0.00     0.049 A 
ATOM     43  N   UNL A   1      43.734  29.154  29.089  1.00  0.00    -0.248 NA
ATOM     44  C   UNL A   1      43.049  29.050  26.877  1.00  0.00     0.031 C 
ATOM     45  C   UNL A   1      39.342  27.391  29.420  1.00  0.00     0.029 A 
ATOM     46  N   UNL A   1      40.351  29.275  29.966  1.00  0.00    -0.354 N 
ATOM     47  C   UNL A   1      44.518  30.013  28.322  1.00  0.00     0.074 A 
ATOM     48  C   UNL A   1      44.176  29.760  26.948  1.00  0.00     0.031 C 
ATOM     49  C   UNL A   1      38.388  28.219  29.900  1.00  0.00     0.029 A 
ATOM     50  C   UNL A   1      39.005  29.481  30.260  1.00  0.00     0.049 A 
ATOM     51  H   UNL A   1      41.055  29.918  30.215  1.00  0.00     0.167 HD
ATOM     52  C   UNL A   1      45.204  31.038  28.896  1.00  0.00     0.037 A 
ATOM     53  C   UNL A   1      38.455  30.639  30.708  1.00  0.00     0.037 A 
ATOM     54  C   UNL A   1      45.312  30.857  30.320  1.00  0.00     0.049 A 
ATOM     55  C   UNL A   1      39.568  31.463  31.250  1.00  0.00     0.074 A 
ATOM     56  C   UNL A   1      45.876  29.884  31.123  1.00  0.00     0.029 A 
ATOM     57  N   UNL A   1      44.435  31.544  31.124  1.00  0.00    -0.354 N 
ATOM     58  N   UNL A   1      40.244  31.139  32.320  1.00  0.00    -0.248 NA
ATOM     59  C   UNL A   1      40.254  32.351  30.321  1.00  0.00     0.031 C 
ATOM     60  C   UNL A   1      44.953  29.715  32.194  1.00  0.00     0.029 A 
ATOM     61  C   UNL A   1      43.929  30.650  32.034  1.00  0.00     0.049 A 
ATOM     62  H   UNL A   1      44.211  32.500  31.060  1.00  0.00     0.167 HD
ATOM     63  C   UNL A   1      41.564  31.421  32.003  1.00  0.00     0.074 A 
ATOM     64  C   UNL A   1      41.503  32.218  30.778  1.00  0.00     0.031 C 
ATOM     65  C   UNL A   1      42.594  30.731  32.576  1.00  0.00     0.037 A 
BRANCH  52  66
ATOM     66  C   UNL A   1      45.458  32.372  28.238  1.00  0.00     0.064 A 
ATOM     67  C   UNL A   1      44.366  33.211  27.944  1.00  0.00     0.173 A 
ATOM     68  C   UNL A   1      46.681  32.728  27.629  1.00  0.00     0.173 A 
ATOM     69  F   UNL A   1      43.151  32.954  28.450  1.00  0.00    -0.203 F 
ATOM     70  C   UNL A   1      44.477  34.281  27.052  1.00  0.00     0.198 A 
ATOM     71  C   UNL A   1      46.801  33.830  26.785  1.00  0.00     0.198 A 
ATOM     72  F   UNL A   1      47.777  31.967  27.728  1.00  0.00    -0.203 F 
ATOM     73  F   UNL A   1      43.385  34.975  26.707  1.00  0.00    -0.200 F 
ATOM     74  C   UNL A   1      45.694  34.588  26.471  1.00  0.00     0.200 A 
ATOM     75  F   UNL A   1      47.985  34.097  26.217  1.00  0.00    -0.200 F 
ATOM     76  F   UNL A   1      45.791  35.576  25.574  1.00  0.00    -0.200 F 
ENDBRANCH  52  66
BRANCH  53  77
ATOM     77  C   UNL A   1      37.110  31.195  30.412  1.00  0.00     0.064 A 
ATOM     78  C   UNL A   1      36.224  31.560  31.441  1.00  0.00     0.173 A 
ATOM     79  C   UNL A   1      36.761  31.617  29.115  1.00  0.00     0.173 A 
ATOM     80  F   UNL A   1      36.500  31.242  32.714  1.00  0.00    -0.203 F 
ATOM     81  C   UNL A   1      35.070  32.315  31.187  1.00  0.00     0.198 A 
ATOM     82  C   UNL A   1      35.603  32.355  28.862  1.00  0.00     0.198 A 
ATOM     83  F   UNL A   1      37.578  31.402  28.075  1.00  0.00    -0.203 F 
ATOM     84  F   UNL A   1      34.279  32.692  32.201  1.00  0.00    -0.200 F 
ATOM     85  C   UNL A   1      34.766  32.719  29.898  1.00  0.00     0.200 A 
ATOM     86  F   UNL A   1      35.332  32.757  27.614  1.00  0.00    -0.200 F 
ATOM     87  F   UNL A   1      33.694  33.488  29.658  1.00  0.00    -0.200 F 
ENDBRANCH  53  77
BRANCH  65  88
ATOM     88  C   UNL A   1      42.282  29.791  33.711  1.00  0.00     0.064 A 
ATOM     89  C   UNL A   1      41.986  28.426  33.540  1.00  0.00     0.173 A 
ATOM     90  C   UNL A   1      42.498  30.239  35.020  1.00  0.00     0.173 A 
ATOM     91  F   UNL A   1      41.860  27.896  32.318  1.00  0.00    -0.203 F 
ATOM     92  C   UNL A   1      41.894  27.561  34.629  1.00  0.00     0.198 A 
ATOM     93  C   UNL A   1      42.441  29.367  36.103  1.00  0.00     0.198 A 
ATOM     94  F   UNL A   1      42.838  31.519  35.241  1.00  0.00    -0.203 F 
ATOM     95  F   UNL A   1      41.620  26.262  34.435  1.00  0.00    -0.200 F 
ATOM     96  C   UNL A   1      42.134  28.030  35.909  1.00  0.00     0.200 A 
ATOM     97  F   UNL A   1      42.726  29.815  37.333  1.00  0.00    -0.200 F 
ATOM     98  F   UNL A   1      42.103  27.188  36.951  1.00  0.00    -0.200 F 
ENDBRANCH  65  88
ENDBRANCH  39  40
ENDBRANCH  31  34
ENDBRANCH  29  30
ENDBRANCH  28  29
ENDBRANCH  27  28
ENDBRANCH   1  27
TORSDOF 16
ENDMDL
MODEL 2
REMARK VINA RESULT:     -12.3      3.118      8.775
REMARK SMILES C[C@H]1CCCCN1c1nc2nc(CC(=O)NCCCCCCNC(=O)c3ccc(-c4c5nc(c(-c6c(F)c(F)c(F)c(F)c6F)c6ccc([nH]6)c(-c6c(F)c(F)c(F)c(F)c6F)c6nc(c(-c7c(F)c(F)c(F)c(F)c7F)c7ccc4[nH]7)C=C6)C=C5)cc3)cc(O)n2n1
REMARK SMILES IDX 19 1 18 2 17 3 16 4 14 5 15 6 13 8 12 9 8 10 9 11 93 12
REMARK SMILES IDX 10 13 92 14 11 15 90 16 89 17 7 18 1 19 2 20 3 21 4 22 6 23
REMARK SMILES IDX 5 24 91 25 20 27 21 28 22 29 23 30 24 31 25 33 26 34 27 35
REMARK SMILES IDX 88 36 28 37 87 38 29 39 30 40 31 41 81 42 32 43 86 44 80 45
REMARK SMILES IDX 82 46 33 47 85 48 79 49 78 50 34 52 66 53 46 54 65 55 47 56
REMARK SMILES IDX 50 57 64 58 83 59 48 60 49 61 63 63 84 64 51 65 35 66 36 67
REMARK SMILES IDX 44 68 37 69 38 70 42 71 45 72 39 73 40 74 43 75 41 76 67 77
REMARK SMILES IDX 68 78 76 79 69 80 70 81 74 82 77 83 71 84 72 85 75 86 73 87
REMARK SMILES IDX 52 88 53 89 61 90 54 91 55 92 59 93 62 94 56 95 57 96 60 97
REMARK SMILES IDX 58 98
REMARK H PARENT 16 7 91 26 23 32 82 51 50 62
REMARK Flexibility Score: inf
ROOT
ATOM      1  C   UNL A   1      33.514  28.355  25.889  1.00  0.00     0.002 C 
ENDROOT
BRANCH   1   2
ATOM      2  C   UNL A   1      32.813  29.322  24.927  1.00  0.00     0.021 C 
BRANCH   2   3
ATOM      3  C   UNL A   1      33.032  28.979  23.454  1.00  0.00     0.116 C 
BRANCH   3   4
ATOM      4  N   UNL A   1      31.890  29.352  22.649  1.00  0.00    -0.356 N 
ATOM      5  C   UNL A   1      30.722  28.684  22.427  1.00  0.00     0.226 C 
ATOM      6  O   UNL A   1      29.887  29.199  21.685  1.00  0.00    -0.275 OA
ATOM      7  H   UNL A   1      31.967  30.220  22.190  1.00  0.00     0.163 HD
BRANCH   5   8
ATOM      8  C   UNL A   1      30.425  27.412  23.183  1.00  0.00     0.156 C 
BRANCH   8   9
ATOM      9  C   UNL A   1      31.455  26.315  23.030  1.00  0.00     0.059 A 
ATOM     10  C   UNL A   1      34.326  23.252  24.053  1.00  0.00     0.247 A 
ATOM     11  N   UNL A   1      33.488  24.031  24.798  1.00  0.00    -0.173 NA
ATOM     12  N   UNL A   1      34.177  23.372  22.738  1.00  0.00    -0.123 NA
ATOM     13  C   UNL A   1      32.852  24.754  23.907  1.00  0.00     0.257 A 
ATOM     14  N   UNL A   1      33.250  24.347  22.633  1.00  0.00    -0.161 N 
ATOM     15  N   UNL A   1      31.934  25.747  24.095  1.00  0.00    -0.215 NA
ATOM     16  C   UNL A   1      32.713  24.944  21.482  1.00  0.00     0.217 A 
ATOM     17  C   UNL A   1      31.847  25.958  21.622  1.00  0.00     0.092 A 
BRANCH  10  18
ATOM     18  N   UNL A   1      35.209  22.464  24.697  1.00  0.00    -0.337 N 
ATOM     19  C   UNL A   1      33.576  20.525  24.770  1.00  0.00     0.031 C 
ATOM     20  C   UNL A   1      34.903  21.133  25.232  1.00  0.00     0.082 C 
ATOM     21  C   UNL A   1      36.041  20.181  24.806  1.00  0.00     0.025 C 
ATOM     22  C   UNL A   1      37.409  20.705  25.238  1.00  0.00     0.004 C 
ATOM     23  C   UNL A   1      36.487  23.045  25.102  1.00  0.00     0.120 C 
ATOM     24  C   UNL A   1      37.637  22.121  24.719  1.00  0.00     0.022 C 
ENDBRANCH  10  18
BRANCH  16  25
ATOM     25  O   UNL A   1      33.088  24.468  20.236  1.00  0.00    -0.493 OA
ATOM     26  H   UNL A   1      33.792  24.875  19.772  1.00  0.00     0.295 HD
ENDBRANCH  16  25
ENDBRANCH   8   9
ENDBRANCH   5   8
ENDBRANCH   3   4
ENDBRANCH   2   3
ENDBRANCH   1   2
BRANCH   1  27
ATOM     27  C   UNL A   1      34.075  28.996  27.169  1.00  0.00     0.002 C 
BRANCH  27  28
ATOM     28  C   UNL A   1      33.581  30.418  27.471  1.00  0.00     0.021 C 
BRANCH  28  29
ATOM     29  C   UNL A   1      34.719  31.409  27.656  1.00  0.00     0.116 C 
BRANCH  29  30
ATOM     30  N   UNL A   1      34.579  32.159  28.901  1.00  0.00    -0.352 N 
ATOM     31  C   UNL A   1      35.215  31.946  30.099  1.00  0.00     0.251 C 
ATOM     32  H   UNL A   1      33.947  32.914  28.880  1.00  0.00     0.163 HD
ATOM     33  O   UNL A   1      34.758  32.407  31.147  1.00  0.00    -0.269 OA
BRANCH  31  34
ATOM     34  C   UNL A   1      36.471  31.187  30.117  1.00  0.00     0.039 A 
ATOM     35  C   UNL A   1      36.471  29.789  30.193  1.00  0.00     0.014 A 
ATOM     36  C   UNL A   1      37.666  31.905  30.109  1.00  0.00     0.014 A 
ATOM     37  C   UNL A   1      37.689  29.119  30.234  1.00  0.00     0.010 A 
ATOM     38  C   UNL A   1      38.859  31.246  30.010  1.00  0.00     0.010 A 
ATOM     39  C   UNL A   1      38.871  29.862  30.150  1.00  0.00    -0.014 A 
BRANCH  39  40
ATOM     40  C   UNL A   1      40.176  29.227  30.137  1.00  0.00     0.031 A 
ATOM     41  C   UNL A   1      40.798  29.079  31.478  1.00  0.00     0.074 A 
ATOM     42  C   UNL A   1      40.606  28.584  29.029  1.00  0.00     0.049 A 
ATOM     43  N   UNL A   1      41.923  29.565  31.886  1.00  0.00    -0.248 NA
ATOM     44  C   UNL A   1      40.015  28.424  32.543  1.00  0.00     0.031 C 
ATOM     45  C   UNL A   1      39.903  28.409  27.751  1.00  0.00     0.029 A 
ATOM     46  N   UNL A   1      41.725  27.834  28.854  1.00  0.00    -0.354 N 
ATOM     47  C   UNL A   1      42.082  29.116  33.195  1.00  0.00     0.074 A 
ATOM     48  C   UNL A   1      40.806  28.591  33.604  1.00  0.00     0.031 C 
ATOM     49  C   UNL A   1      40.500  27.432  27.034  1.00  0.00     0.029 A 
ATOM     50  C   UNL A   1      41.700  27.011  27.731  1.00  0.00     0.049 A 
ATOM     51  H   UNL A   1      42.492  27.869  29.471  1.00  0.00     0.167 HD
ATOM     52  C   UNL A   1      43.318  28.984  33.748  1.00  0.00     0.037 A 
ATOM     53  C   UNL A   1      42.582  26.017  27.451  1.00  0.00     0.037 A 
ATOM     54  C   UNL A   1      44.305  29.706  32.987  1.00  0.00     0.049 A 
ATOM     55  C   UNL A   1      43.792  26.269  28.280  1.00  0.00     0.074 A 
ATOM     56  C   UNL A   1      44.474  31.036  32.652  1.00  0.00     0.029 A 
ATOM     57  N   UNL A   1      45.081  28.995  32.103  1.00  0.00    -0.354 N 
ATOM     58  N   UNL A   1      44.582  27.293  28.101  1.00  0.00    -0.248 NA
ATOM     59  C   UNL A   1      43.819  25.681  29.613  1.00  0.00     0.031 C 
ATOM     60  C   UNL A   1      44.922  31.017  31.300  1.00  0.00     0.029 A 
ATOM     61  C   UNL A   1      45.084  29.685  30.917  1.00  0.00     0.049 A 
ATOM     62  H   UNL A   1      45.548  28.148  32.287  1.00  0.00     0.167 HD
ATOM     63  C   UNL A   1      44.878  27.739  29.381  1.00  0.00     0.074 A 
ATOM     64  C   UNL A   1      44.424  26.674  30.274  1.00  0.00     0.031 C 
ATOM     65  C   UNL A   1      45.173  29.050  29.623  1.00  0.00     0.037 A 
BRANCH  52  66
ATOM     66  C   UNL A   1      43.699  27.923  34.749  1.00  0.00     0.064 A 
ATOM     67  C   UNL A   1      43.478  26.569  34.432  1.00  0.00     0.173 A 
ATOM     68  C   UNL A   1      43.997  28.190  36.103  1.00  0.00     0.173 A 
ATOM     69  F   UNL A   1      43.164  26.202  33.180  1.00  0.00    -0.203 F 
ATOM     70  C   UNL A   1      43.484  25.571  35.410  1.00  0.00     0.198 A 
ATOM     71  C   UNL A   1      44.060  27.185  37.066  1.00  0.00     0.198 A 
ATOM     72  F   UNL A   1      44.126  29.436  36.574  1.00  0.00    -0.203 F 
ATOM     73  F   UNL A   1      43.146  24.317  35.084  1.00  0.00    -0.200 F 
ATOM     74  C   UNL A   1      43.773  25.881  36.727  1.00  0.00     0.200 A 
ATOM     75  F   UNL A   1      44.321  27.510  38.339  1.00  0.00    -0.200 F 
ATOM     76  F   UNL A   1      43.724  24.937  37.676  1.00  0.00    -0.200 F 
ENDBRANCH  52  66
BRANCH  53  77
ATOM     77  C   UNL A   1      42.327  24.723  26.769  1.00  0.00     0.064 A 
ATOM     78  C   UNL A   1      43.133  24.281  25.705  1.00  0.00     0.173 A 
ATOM     79  C   UNL A   1      41.442  23.772  27.311  1.00  0.00     0.173 A 
ATOM     80  F   UNL A   1      44.039  25.106  25.158  1.00  0.00    -0.203 F 
ATOM     81  C   UNL A   1      43.069  22.965  25.227  1.00  0.00     0.198 A 
ATOM     82  C   UNL A   1      41.368  22.466  26.823  1.00  0.00     0.198 A 
ATOM     83  F   UNL A   1      40.694  24.057  28.385  1.00  0.00    -0.203 F 
ATOM     84  F   UNL A   1      43.892  22.565  24.248  1.00  0.00    -0.200 F 
ATOM     85  C   UNL A   1      42.191  22.057  25.793  1.00  0.00     0.200 A 
ATOM     86  F   UNL A   1      40.530  21.592  27.394  1.00  0.00    -0.200 F 
ATOM     87  F   UNL A   1      42.164  20.782  25.377  1.00  0.00    -0.200 F 
ENDBRANCH  53  77
BRANCH  65  88
ATOM     88  C   UNL A   1      45.370  29.969  28.447  1.00  0.00     0.064 A 
ATOM     89  C   UNL A   1      44.336  30.715  27.852  1.00  0.00     0.173 A 
ATOM     90  C   UNL A   1      46.681  30.263  28.050  1.00  0.00     0.173 A 
ATOM     91  F   UNL A   1      43.066  30.564  28.242  1.00  0.00    -0.203 F 
ATOM     92  C   UNL A   1      44.604  31.691  26.893  1.00  0.00     0.198 A 
ATOM     93  C   UNL A   1      46.948  31.263  27.120  1.00  0.00     0.198 A 
ATOM     94  F   UNL A   1      47.713  29.624  28.623  1.00  0.00    -0.203 F 
ATOM     95  F   UNL A   1      43.598  32.393  26.350  1.00  0.00    -0.200 F 
ATOM     96  C   UNL A   1      45.911  31.974  26.538  1.00  0.00     0.200 A 
ATOM     97  F   UNL A   1      48.218  31.569  26.819  1.00  0.00    -0.200 F 
ATOM     98  F   UNL A   1      46.174  32.952  25.660  1.00  0.00    -0.200 F 
ENDBRANCH  65  88
ENDBRANCH  39  40
ENDBRANCH  31  34
ENDBRANCH  29  30
ENDBRANCH  28  29
ENDBRANCH  27  28
ENDBRANCH   1  27
TORSDOF 16
ENDMDL
MODEL 3
REMARK VINA RESULT:     -12.3      1.283      2.188
REMARK SMILES C[C@H]1CCCCN1c1nc2nc(CC(=O)NCCCCCCNC(=O)c3ccc(-c4c5nc(c(-c6c(F)c(F)c(F)c(F)c6F)c6ccc([nH]6)c(-c6c(F)c(F)c(F)c(F)c6F)c6nc(c(-c7c(F)c(F)c(F)c(F)c7F)c7ccc4[nH]7)C=C6)C=C5)cc3)cc(O)n2n1
REMARK SMILES IDX 19 1 18 2 17 3 16 4 14 5 15 6 13 8 12 9 8 10 9 11 93 12
REMARK SMILES IDX 10 13 92 14 11 15 90 16 89 17 7 18 1 19 2 20 3 21 4 22 6 23
REMARK SMILES IDX 5 24 91 25 20 27 21 28 22 29 23 30 24 31 25 33 26 34 27 35
REMARK SMILES IDX 88 36 28 37 87 38 29 39 30 40 31 41 81 42 32 43 86 44 80 45
REMARK SMILES IDX 82 46 33 47 85 48 79 49 78 50 34 52 66 53 46 54 65 55 47 56
REMARK SMILES IDX 50 57 64 58 83 59 48 60 49 61 63 63 84 64 51 65 35 66 36 67
REMARK SMILES IDX 44 68 37 69 38 70 42 71 45 72 39 73 40 74 43 75 41 76 67 77
REMARK SMILES IDX 68 78 76 79 69 80 70 81 74 82 77 83 71 84 72 85 75 86 73 87
REMARK SMILES IDX 52 88 53 89 61 90 54 91 55 92 59 93 62 94 56 95 57 96 60 97
REMARK SMILES IDX 58 98
REMARK H PARENT 16 7 91 26 23 32 82 51 50 62
REMARK Flexibility Score: inf
ROOT
ATOM      1  C   UNL A   1      35.419  23.329  26.127  1.00  0.00     0.002 C 
ENDROOT
BRANCH   1   2
ATOM      2  C   UNL A   1      34.697  22.299  27.004  1.00  0.00     0.021 C 
BRANCH   2   3
ATOM      3  C   UNL A   1      33.979  21.215  26.201  1.00  0.00     0.116 C 
BRANCH   3   4
ATOM      4  N   UNL A   1      32.543  21.310  26.351  1.00  0.00    -0.356 N 
ATOM      5  C   UNL A   1      31.606  21.797  25.489  1.00  0.00     0.226 C 
ATOM      6  O   UNL A   1      30.427  21.785  25.842  1.00  0.00    -0.275 OA
ATOM      7  H   UNL A   1      32.188  20.972  27.206  1.00  0.00     0.163 HD
BRANCH   5   8
ATOM      8  C   UNL A   1      32.006  22.213  24.095  1.00  0.00     0.156 C 
BRANCH   8   9
ATOM      9  C   UNL A   1      32.420  23.659  23.947  1.00  0.00     0.059 A 
ATOM     10  C   UNL A   1      33.342  27.756  24.967  1.00  0.00     0.247 A 
ATOM     11  N   UNL A   1      33.000  26.664  25.712  1.00  0.00    -0.173 NA
ATOM     12  N   UNL A   1      33.533  27.512  23.674  1.00  0.00    -0.123 NA
ATOM     13  C   UNL A   1      32.866  25.706  24.826  1.00  0.00     0.257 A 
ATOM     14  N   UNL A   1      33.210  26.206  23.569  1.00  0.00    -0.161 N 
ATOM     15  N   UNL A   1      32.477  24.410  25.006  1.00  0.00    -0.215 NA
ATOM     16  C   UNL A   1      33.174  25.388  22.430  1.00  0.00     0.217 A 
ATOM     17  C   UNL A   1      32.746  24.123  22.553  1.00  0.00     0.092 A 
BRANCH  10  18
ATOM     18  N   UNL A   1      33.443  28.948  25.587  1.00  0.00    -0.337 N 
ATOM     19  C   UNL A   1      31.119  29.642  24.844  1.00  0.00     0.031 C 
ATOM     20  C   UNL A   1      32.457  30.029  25.479  1.00  0.00     0.082 C 
ATOM     21  C   UNL A   1      32.176  30.554  26.904  1.00  0.00     0.025 C 
ATOM     22  C   UNL A   1      33.460  30.977  27.614  1.00  0.00     0.004 C 
ATOM     23  C   UNL A   1      34.712  29.293  26.221  1.00  0.00     0.120 C 
ATOM     24  C   UNL A   1      34.475  29.839  27.624  1.00  0.00     0.022 C 
ENDBRANCH  10  18
BRANCH  16  25
ATOM     25  O   UNL A   1      33.583  25.907  21.212  1.00  0.00    -0.493 OA
ATOM     26  H   UNL A   1      34.348  26.444  21.165  1.00  0.00     0.295 HD
ENDBRANCH  16  25
ENDBRANCH   8   9
ENDBRANCH   5   8
ENDBRANCH   3   4
ENDBRANCH   2   3
ENDBRANCH   1   2
BRANCH   1  27
ATOM     27  C   UNL A   1      35.968  22.787  24.798  1.00  0.00     0.002 C 
BRANCH  27  28
ATOM     28  C   UNL A   1      37.396  22.225  24.848  1.00  0.00     0.021 C 
BRANCH  28  29
ATOM     29  C   UNL A   1      38.184  22.730  26.045  1.00  0.00     0.116 C 
BRANCH  29  30
ATOM     30  N   UNL A   1      39.486  22.075  26.144  1.00  0.00    -0.352 N 
ATOM     31  C   UNL A   1      40.718  22.653  26.328  1.00  0.00     0.251 C 
ATOM     32  H   UNL A   1      39.481  21.094  26.069  1.00  0.00     0.163 HD
ATOM     33  O   UNL A   1      41.751  22.044  26.042  1.00  0.00    -0.269 OA
BRANCH  31  34
ATOM     34  C   UNL A   1      40.796  24.001  26.903  1.00  0.00     0.039 A 
ATOM     35  C   UNL A   1      39.970  25.034  26.444  1.00  0.00     0.014 A 
ATOM     36  C   UNL A   1      41.758  24.236  27.885  1.00  0.00     0.014 A 
ATOM     37  C   UNL A   1      40.102  26.300  27.004  1.00  0.00     0.010 A 
ATOM     38  C   UNL A   1      41.796  25.439  28.531  1.00  0.00     0.010 A 
ATOM     39  C   UNL A   1      41.025  26.486  28.039  1.00  0.00    -0.014 A 
BRANCH  39  40
ATOM     40  C   UNL A   1      41.182  27.767  28.703  1.00  0.00     0.031 A 
ATOM     41  C   UNL A   1      42.287  28.604  28.166  1.00  0.00     0.074 A 
ATOM     42  C   UNL A   1      40.211  28.231  29.520  1.00  0.00     0.049 A 
ATOM     43  N   UNL A   1      43.321  29.049  28.799  1.00  0.00    -0.248 NA
ATOM     44  C   UNL A   1      42.320  28.868  26.716  1.00  0.00     0.031 C 
ATOM     45  C   UNL A   1      38.928  27.599  29.854  1.00  0.00     0.029 A 
ATOM     46  N   UNL A   1      40.111  29.440  30.132  1.00  0.00    -0.354 N 
ATOM     47  C   UNL A   1      44.034  29.811  27.877  1.00  0.00     0.074 A 
ATOM     48  C   UNL A   1      43.484  29.506  26.583  1.00  0.00     0.031 C 
ATOM     49  C   UNL A   1      38.102  28.512  30.409  1.00  0.00     0.029 A 
ATOM     50  C   UNL A   1      38.836  29.749  30.597  1.00  0.00     0.049 A 
ATOM     51  H   UNL A   1      40.879  30.048  30.238  1.00  0.00     0.167 HD
ATOM     52  C   UNL A   1      44.853  30.819  28.282  1.00  0.00     0.037 A 
ATOM     53  C   UNL A   1      38.422  30.964  31.043  1.00  0.00     0.037 A 
ATOM     54  C   UNL A   1      45.154  30.710  29.686  1.00  0.00     0.049 A 
ATOM     55  C   UNL A   1      39.648  31.742  31.371  1.00  0.00     0.074 A 
ATOM     56  C   UNL A   1      45.771  29.747  30.462  1.00  0.00     0.029 A 
ATOM     57  N   UNL A   1      44.442  31.496  30.559  1.00  0.00    -0.354 N 
ATOM     58  N   UNL A   1      40.450  31.433  32.354  1.00  0.00    -0.248 NA
ATOM     59  C   UNL A   1      40.242  32.530  30.300  1.00  0.00     0.031 C 
ATOM     60  C   UNL A   1      45.003  29.699  31.661  1.00  0.00     0.029 A 
ATOM     61  C   UNL A   1      44.022  30.689  31.586  1.00  0.00     0.049 A 
ATOM     62  H   UNL A   1      44.266  32.460  30.466  1.00  0.00     0.167 HD
ATOM     63  C   UNL A   1      41.726  31.611  31.838  1.00  0.00     0.074 A 
ATOM     64  C   UNL A   1      41.535  32.341  30.585  1.00  0.00     0.031 C 
ATOM     65  C   UNL A   1      42.786  30.887  32.304  1.00  0.00     0.037 A 
BRANCH  52  66
ATOM     66  C   UNL A   1      45.086  32.095  27.512  1.00  0.00     0.064 A 
ATOM     67  C   UNL A   1      46.329  32.300  26.883  1.00  0.00     0.173 A 
ATOM     68  C   UNL A   1      44.258  33.234  27.608  1.00  0.00     0.173 A 
ATOM     69  F   UNL A   1      47.206  31.292  26.757  1.00  0.00    -0.203 F 
ATOM     70  C   UNL A   1      46.738  33.564  26.450  1.00  0.00     0.198 A 
ATOM     71  C   UNL A   1      44.645  34.482  27.123  1.00  0.00     0.198 A 
ATOM     72  F   UNL A   1      43.096  33.219  28.273  1.00  0.00    -0.203 F 
ATOM     73  F   UNL A   1      47.978  33.735  25.971  1.00  0.00    -0.200 F 
ATOM     74  C   UNL A   1      45.897  34.654  26.573  1.00  0.00     0.200 A 
ATOM     75  F   UNL A   1      43.822  35.529  27.271  1.00  0.00    -0.200 F 
ATOM     76  F   UNL A   1      46.307  35.877  26.211  1.00  0.00    -0.200 F 
ENDBRANCH  52  66
BRANCH  53  77
ATOM     77  C   UNL A   1      37.083  31.589  30.904  1.00  0.00     0.064 A 
ATOM     78  C   UNL A   1      36.248  31.793  32.017  1.00  0.00     0.173 A 
ATOM     79  C   UNL A   1      36.695  32.233  29.713  1.00  0.00     0.173 A 
ATOM     80  F   UNL A   1      36.565  31.257  33.205  1.00  0.00    -0.203 F 
ATOM     81  C   UNL A   1      35.107  32.604  31.945  1.00  0.00     0.198 A 
ATOM     82  C   UNL A   1      35.550  33.028  29.639  1.00  0.00     0.198 A 
ATOM     83  F   UNL A   1      37.465  32.182  28.618  1.00  0.00    -0.203 F 
ATOM     84  F   UNL A   1      34.366  32.819  33.040  1.00  0.00    -0.200 F 
ATOM     85  C   UNL A   1      34.764  33.227  30.757  1.00  0.00     0.200 A 
ATOM     86  F   UNL A   1      35.242  33.641  28.490  1.00  0.00    -0.200 F 
ATOM     87  F   UNL A   1      33.705  34.048  30.697  1.00  0.00    -0.200 F 
ENDBRANCH  53  77
BRANCH  65  88
ATOM     88  C   UNL A   1      42.587  30.033  33.528  1.00  0.00     0.064 A 
ATOM     89  C   UNL A   1      42.630  30.527  34.845  1.00  0.00     0.173 A 
ATOM     90  C   UNL A   1      42.129  28.721  33.352  1.00  0.00     0.173 A 
ATOM     91  F   UNL A   1      42.963  31.798  35.093  1.00  0.00    -0.203 F 
ATOM     92  C   UNL A   1      42.251  29.737  35.929  1.00  0.00     0.198 A 
ATOM     93  C   UNL A   1      41.718  27.946  34.433  1.00  0.00     0.198 A 
ATOM     94  F   UNL A   1      42.013  28.213  32.114  1.00  0.00    -0.203 F 
ATOM     95  F   UNL A   1      42.293  30.239  37.173  1.00  0.00    -0.200 F 
ATOM     96  C   UNL A   1      41.783  28.452  35.721  1.00  0.00     0.200 A 
ATOM     97  F   UNL A   1      41.216  26.722  34.220  1.00  0.00    -0.200 F 
ATOM     98  F   UNL A   1      41.363  27.712  36.757  1.00  0.00    -0.200 F 
ENDBRANCH  65  88
ENDBRANCH  39  40
ENDBRANCH  31  34
ENDBRANCH  29  30
ENDBRANCH  28  29
ENDBRANCH  27  28
ENDBRANCH   1  27
TORSDOF 16
ENDMDL
