MODEL 1
REMARK VINA RESULT:     -12.1      0.000      0.000
REMARK SMILES C[C@]1(C(=O)Nc2ccc(C(=O)NCCCCCCNC(=O)c3ccc(-c4c5nc(c(-c6c(F)c(F)c(F)c(F)c6F)c6ccc([nH]6)c(-c6c(F)c(F)c(F)c(F)c6F)c6nc(c(-c7c(F)c(F)c(F)c(F)c7F)c7ccc4[nH]7)C=C6)C=C5)cc3)c(O)c2)CCCO1
REMARK SMILES IDX 15 1 14 2 13 3 12 4 10 5 11 6 9 8 6 9 7 10 87 11 8 12 85 13
REMARK SMILES IDX 5 14 3 15 4 16 2 18 1 19 88 20 91 21 89 22 90 23 86 24 16 26
REMARK SMILES IDX 17 27 18 28 19 29 20 30 21 32 22 33 23 34 84 35 24 36 83 37
REMARK SMILES IDX 25 38 26 39 27 40 77 41 28 42 82 43 76 44 78 45 29 46 81 47
REMARK SMILES IDX 75 48 74 49 30 51 62 52 42 53 61 54 43 55 46 56 60 57 79 58
REMARK SMILES IDX 44 59 45 60 59 62 80 63 47 64 31 65 32 66 40 67 33 68 34 69
REMARK SMILES IDX 38 70 41 71 35 72 36 73 39 74 37 75 63 76 64 77 72 78 65 79
REMARK SMILES IDX 66 80 70 81 73 82 67 83 68 84 71 85 69 86 48 87 49 88 57 89
REMARK SMILES IDX 50 90 51 91 55 92 58 93 52 94 53 95 56 96 54 97
REMARK H PARENT 12 7 5 17 86 25 19 31 78 50 46 61
REMARK Flexibility Score: inf
ROOT
ATOM      1  C   UNL A   1      35.880  21.332  24.797  1.00  0.00     0.002 C 
ENDROOT
BRANCH   1   2
ATOM      2  C   UNL A   1      35.496  22.075  26.081  1.00  0.00     0.021 C 
BRANCH   2   3
ATOM      3  C   UNL A   1      34.490  21.384  26.998  1.00  0.00     0.116 C 
BRANCH   3   4
ATOM      4  N   UNL A   1      33.643  20.408  26.342  1.00  0.00    -0.352 N 
ATOM      5  C   UNL A   1      32.558  20.573  25.513  1.00  0.00     0.255 C 
ATOM      6  O   UNL A   1      32.011  19.564  25.069  1.00  0.00    -0.269 OA
ATOM      7  H   UNL A   1      33.884  19.470  26.520  1.00  0.00     0.163 HD
BRANCH   5   8
ATOM      8  C   UNL A   1      31.976  21.908  25.202  1.00  0.00     0.081 A 
ATOM      9  C   UNL A   1      30.601  24.168  24.252  1.00  0.00     0.045 A 
ATOM     10  C   UNL A   1      31.538  23.527  23.452  1.00  0.00     0.027 A 
ATOM     11  C   UNL A   1      30.535  23.826  25.602  1.00  0.00     0.073 A 
ATOM     12  C   UNL A   1      32.182  22.374  23.900  1.00  0.00     0.020 A 
ATOM     13  C   UNL A   1      31.256  22.725  26.078  1.00  0.00     0.130 A 
BRANCH   9  14
ATOM     14  N   UNL A   1      29.783  25.195  23.769  1.00  0.00    -0.323 N 
ATOM     15  C   UNL A   1      29.796  26.541  24.023  1.00  0.00     0.256 C 
ATOM     16  O   UNL A   1      28.780  27.178  23.710  1.00  0.00    -0.271 OA
ATOM     17  H   UNL A   1      29.081  24.900  23.143  1.00  0.00     0.170 HD
BRANCH  15  18
ATOM     18  C   UNL A   1      31.094  27.311  24.469  1.00  0.00     0.144 C 
ATOM     19  C   UNL A   1      30.895  28.768  24.015  1.00  0.00     0.053 C 
ATOM     20  C   UNL A   1      31.212  27.220  25.997  1.00  0.00     0.048 C 
ATOM     21  O   UNL A   1      32.383  26.956  23.968  1.00  0.00    -0.365 OA
ATOM     22  C   UNL A   1      32.685  27.405  26.255  1.00  0.00     0.032 C 
ATOM     23  C   UNL A   1      33.294  26.739  25.052  1.00  0.00     0.162 C 
ENDBRANCH  15  18
ENDBRANCH   9  14
BRANCH  13  24
ATOM     24  O   UNL A   1      31.237  22.550  27.434  1.00  0.00    -0.507 OA
ATOM     25  H   UNL A   1      32.009  22.262  27.880  1.00  0.00     0.293 HD
ENDBRANCH  13  24
ENDBRANCH   5   8
ENDBRANCH   3   4
ENDBRANCH   2   3
ENDBRANCH   1   2
BRANCH   1  26
ATOM     26  C   UNL A   1      37.373  21.212  24.480  1.00  0.00     0.002 C 
BRANCH  26  27
ATOM     27  C   UNL A   1      38.076  19.937  24.949  1.00  0.00     0.021 C 
BRANCH  27  28
ATOM     28  C   UNL A   1      39.092  20.107  26.072  1.00  0.00     0.116 C 
BRANCH  28  29
ATOM     29  N   UNL A   1      40.205  19.178  25.981  1.00  0.00    -0.352 N 
ATOM     30  C   UNL A   1      41.553  19.417  26.064  1.00  0.00     0.251 C 
ATOM     31  H   UNL A   1      39.954  18.236  25.838  1.00  0.00     0.163 HD
ATOM     32  O   UNL A   1      42.354  18.512  25.835  1.00  0.00    -0.269 OA
BRANCH  30  33
ATOM     33  C   UNL A   1      42.055  20.768  26.399  1.00  0.00     0.039 A 
ATOM     34  C   UNL A   1      42.291  21.672  25.360  1.00  0.00     0.014 A 
ATOM     35  C   UNL A   1      42.297  21.147  27.722  1.00  0.00     0.014 A 
ATOM     36  C   UNL A   1      42.706  22.974  25.651  1.00  0.00     0.010 A 
ATOM     37  C   UNL A   1      42.638  22.466  28.016  1.00  0.00     0.010 A 
ATOM     38  C   UNL A   1      42.846  23.394  26.984  1.00  0.00    -0.014 A 
BRANCH  38  39
ATOM     39  C   UNL A   1      43.206  24.798  27.312  1.00  0.00     0.031 A 
ATOM     40  C   UNL A   1      44.614  25.287  27.113  1.00  0.00     0.074 A 
ATOM     41  C   UNL A   1      42.275  25.620  27.837  1.00  0.00     0.049 A 
ATOM     42  N   UNL A   1      45.136  26.453  27.405  1.00  0.00    -0.248 NA
ATOM     43  C   UNL A   1      45.570  24.334  26.529  1.00  0.00     0.031 C 
ATOM     44  C   UNL A   1      40.884  25.254  28.114  1.00  0.00     0.029 A 
ATOM     45  N   UNL A   1      42.359  26.929  28.243  1.00  0.00    -0.354 N 
ATOM     46  C   UNL A   1      46.474  26.370  27.045  1.00  0.00     0.074 A 
ATOM     47  C   UNL A   1      46.702  25.023  26.568  1.00  0.00     0.031 C 
ATOM     48  C   UNL A   1      40.242  26.318  28.624  1.00  0.00     0.029 A 
ATOM     49  C   UNL A   1      41.183  27.426  28.752  1.00  0.00     0.049 A 
ATOM     50  H   UNL A   1      43.185  27.461  28.176  1.00  0.00     0.167 HD
ATOM     51  C   UNL A   1      47.422  27.337  27.082  1.00  0.00     0.037 A 
ATOM     52  C   UNL A   1      40.900  28.635  29.277  1.00  0.00     0.037 A 
ATOM     53  C   UNL A   1      47.190  28.682  27.542  1.00  0.00     0.049 A 
ATOM     54  C   UNL A   1      41.984  29.680  29.337  1.00  0.00     0.074 A 
ATOM     55  C   UNL A   1      48.076  29.743  27.583  1.00  0.00     0.029 A 
ATOM     56  N   UNL A   1      45.983  29.150  28.040  1.00  0.00    -0.354 N 
ATOM     57  N   UNL A   1      43.230  29.607  28.935  1.00  0.00    -0.248 NA
ATOM     58  C   UNL A   1      41.620  30.979  29.919  1.00  0.00     0.031 C 
ATOM     59  C   UNL A   1      47.423  30.839  28.155  1.00  0.00     0.029 A 
ATOM     60  C   UNL A   1      46.109  30.478  28.411  1.00  0.00     0.049 A 
ATOM     61  H   UNL A   1      45.159  28.617  28.119  1.00  0.00     0.167 HD
ATOM     62  C   UNL A   1      43.784  30.856  29.181  1.00  0.00     0.074 A 
ATOM     63  C   UNL A   1      42.735  31.674  29.749  1.00  0.00     0.031 C 
ATOM     64  C   UNL A   1      45.049  31.287  28.957  1.00  0.00     0.037 A 
BRANCH  51  65
ATOM     65  C   UNL A   1      48.800  26.987  26.601  1.00  0.00     0.064 A 
ATOM     66  C   UNL A   1      49.767  26.453  27.467  1.00  0.00     0.173 A 
ATOM     67  C   UNL A   1      49.140  27.122  25.245  1.00  0.00     0.173 A 
ATOM     68  F   UNL A   1      49.497  26.312  28.773  1.00  0.00    -0.203 F 
ATOM     69  C   UNL A   1      51.026  26.086  26.999  1.00  0.00     0.198 A 
ATOM     70  C   UNL A   1      50.389  26.724  24.775  1.00  0.00     0.198 A 
ATOM     71  F   UNL A   1      48.251  27.621  24.372  1.00  0.00    -0.203 F 
ATOM     72  F   UNL A   1      51.944  25.615  27.853  1.00  0.00    -0.200 F 
ATOM     73  C   UNL A   1      51.331  26.212  25.652  1.00  0.00     0.200 A 
ATOM     74  F   UNL A   1      50.677  26.832  23.470  1.00  0.00    -0.200 F 
ATOM     75  F   UNL A   1      52.538  25.842  25.201  1.00  0.00    -0.200 F 
ENDBRANCH  51  65
BRANCH  52  76
ATOM     76  C   UNL A   1      39.534  28.935  29.785  1.00  0.00     0.064 A 
ATOM     77  C   UNL A   1      38.576  29.550  28.966  1.00  0.00     0.173 A 
ATOM     78  C   UNL A   1      39.172  28.656  31.112  1.00  0.00     0.173 A 
ATOM     79  F   UNL A   1      38.879  29.856  27.696  1.00  0.00    -0.203 F 
ATOM     80  C   UNL A   1      37.325  29.909  29.463  1.00  0.00     0.198 A 
ATOM     81  C   UNL A   1      37.907  28.983  31.598  1.00  0.00     0.198 A 
ATOM     82  F   UNL A   1      40.047  28.064  31.938  1.00  0.00    -0.203 F 
ATOM     83  F   UNL A   1      36.456  30.558  28.677  1.00  0.00    -0.200 F 
ATOM     84  C   UNL A   1      36.990  29.623  30.778  1.00  0.00     0.200 A 
ATOM     85  F   UNL A   1      37.582  28.690  32.864  1.00  0.00    -0.200 F 
ATOM     86  F   UNL A   1      35.790  29.975  31.258  1.00  0.00    -0.200 F 
ENDBRANCH  52  76
BRANCH  64  87
ATOM     87  C   UNL A   1      45.359  32.722  29.278  1.00  0.00     0.064 A 
ATOM     88  C   UNL A   1      45.876  33.106  30.523  1.00  0.00     0.173 A 
ATOM     89  C   UNL A   1      45.169  33.719  28.310  1.00  0.00     0.173 A 
ATOM     90  F   UNL A   1      46.063  32.194  31.489  1.00  0.00    -0.203 F 
ATOM     91  C   UNL A   1      46.162  34.441  30.798  1.00  0.00     0.198 A 
ATOM     92  C   UNL A   1      45.490  35.048  28.575  1.00  0.00     0.198 A 
ATOM     93  F   UNL A   1      44.684  33.404  27.099  1.00  0.00    -0.203 F 
ATOM     94  F   UNL A   1      46.604  34.794  32.013  1.00  0.00    -0.200 F 
ATOM     95  C   UNL A   1      45.977  35.409  29.822  1.00  0.00     0.200 A 
ATOM     96  F   UNL A   1      45.326  35.978  27.625  1.00  0.00    -0.200 F 
ATOM     97  F   UNL A   1      46.261  36.692  30.084  1.00  0.00    -0.200 F 
ENDBRANCH  64  87
ENDBRANCH  38  39
ENDBRANCH  30  33
ENDBRANCH  28  29
ENDBRANCH  27  28
ENDBRANCH  26  27
ENDBRANCH   1  26
TORSDOF 16
ENDMDL
MODEL 2
REMARK VINA RESULT:     -12.1      0.420      7.243
REMARK SMILES C[C@]1(C(=O)Nc2ccc(C(=O)NCCCCCCNC(=O)c3ccc(-c4c5nc(c(-c6c(F)c(F)c(F)c(F)c6F)c6ccc([nH]6)c(-c6c(F)c(F)c(F)c(F)c6F)c6nc(c(-c7c(F)c(F)c(F)c(F)c7F)c7ccc4[nH]7)C=C6)C=C5)cc3)c(O)c2)CCCO1
REMARK SMILES IDX 15 1 14 2 13 3 12 4 10 5 11 6 9 8 6 9 7 10 87 11 8 12 85 13
REMARK SMILES IDX 5 14 3 15 4 16 2 18 1 19 88 20 91 21 89 22 90 23 86 24 16 26
REMARK SMILES IDX 17 27 18 28 19 29 20 30 21 32 22 33 23 34 84 35 24 36 83 37
REMARK SMILES IDX 25 38 26 39 27 40 77 41 28 42 82 43 76 44 78 45 29 46 81 47
REMARK SMILES IDX 75 48 74 49 30 51 62 52 42 53 61 54 43 55 46 56 60 57 79 58
REMARK SMILES IDX 44 59 45 60 59 62 80 63 47 64 31 65 32 66 40 67 33 68 34 69
REMARK SMILES IDX 38 70 41 71 35 72 36 73 39 74 37 75 63 76 64 77 72 78 65 79
REMARK SMILES IDX 66 80 70 81 73 82 67 83 68 84 71 85 69 86 48 87 49 88 57 89
REMARK SMILES IDX 50 90 51 91 55 92 58 93 52 94 53 95 56 96 54 97
REMARK H PARENT 12 7 5 17 86 25 19 31 78 50 46 61
REMARK Flexibility Score: inf
ROOT
ATOM      1  C   UNL A   1      35.897  21.406  24.892  1.00  0.00     0.002 C 
ENDROOT
BRANCH   1   2
ATOM      2  C   UNL A   1      35.508  22.120  26.191  1.00  0.00     0.021 C 
BRANCH   2   3
ATOM      3  C   UNL A   1      34.463  21.433  27.065  1.00  0.00     0.116 C 
BRANCH   3   4
ATOM      4  N   UNL A   1      33.644  20.454  26.376  1.00  0.00    -0.352 N 
ATOM      5  C   UNL A   1      32.574  20.616  25.529  1.00  0.00     0.255 C 
ATOM      6  O   UNL A   1      32.053  19.606  25.056  1.00  0.00    -0.269 OA
ATOM      7  H   UNL A   1      33.898  19.518  26.543  1.00  0.00     0.163 HD
BRANCH   5   8
ATOM      8  C   UNL A   1      31.976  21.946  25.229  1.00  0.00     0.081 A 
ATOM      9  C   UNL A   1      30.587  24.201  24.287  1.00  0.00     0.045 A 
ATOM     10  C   UNL A   1      31.559  23.595  23.501  1.00  0.00     0.027 A 
ATOM     11  C   UNL A   1      30.487  23.829  25.626  1.00  0.00     0.073 A 
ATOM     12  C   UNL A   1      32.211  22.445  23.944  1.00  0.00     0.020 A 
ATOM     13  C   UNL A   1      31.214  22.730  26.100  1.00  0.00     0.130 A 
BRANCH   9  14
ATOM     14  N   UNL A   1      29.764  25.223  23.801  1.00  0.00    -0.323 N 
ATOM     15  C   UNL A   1      29.801  26.576  24.015  1.00  0.00     0.256 C 
ATOM     16  O   UNL A   1      28.781  27.216  23.717  1.00  0.00    -0.271 OA
ATOM     17  H   UNL A   1      29.039  24.919  23.208  1.00  0.00     0.170 HD
BRANCH  15  18
ATOM     18  C   UNL A   1      31.121  27.344  24.395  1.00  0.00     0.144 C 
ATOM     19  C   UNL A   1      30.876  28.815  24.014  1.00  0.00     0.053 C 
ATOM     20  C   UNL A   1      31.350  27.196  25.906  1.00  0.00     0.048 C 
ATOM     21  O   UNL A   1      32.373  27.022  23.788  1.00  0.00    -0.365 OA
ATOM     22  C   UNL A   1      32.837  27.388  26.063  1.00  0.00     0.032 C 
ATOM     23  C   UNL A   1      33.362  26.775  24.794  1.00  0.00     0.162 C 
ENDBRANCH  15  18
ENDBRANCH   9  14
BRANCH  13  24
ATOM     24  O   UNL A   1      31.158  22.526  27.451  1.00  0.00    -0.507 OA
ATOM     25  H   UNL A   1      30.329  22.408  27.872  1.00  0.00     0.293 HD
ENDBRANCH  13  24
ENDBRANCH   5   8
ENDBRANCH   3   4
ENDBRANCH   2   3
ENDBRANCH   1   2
BRANCH   1  26
ATOM     26  C   UNL A   1      37.389  21.323  24.560  1.00  0.00     0.002 C 
BRANCH  26  27
ATOM     27  C   UNL A   1      38.108  20.028  24.942  1.00  0.00     0.021 C 
BRANCH  27  28
ATOM     28  C   UNL A   1      39.133  20.139  26.065  1.00  0.00     0.116 C 
BRANCH  28  29
ATOM     29  N   UNL A   1      40.188  19.144  25.975  1.00  0.00    -0.352 N 
ATOM     30  C   UNL A   1      41.548  19.300  26.067  1.00  0.00     0.251 C 
ATOM     31  H   UNL A   1      39.882  18.220  25.825  1.00  0.00     0.163 HD
ATOM     32  O   UNL A   1      42.294  18.349  25.837  1.00  0.00    -0.269 OA
BRANCH  30  33
ATOM     33  C   UNL A   1      42.129  20.616  26.413  1.00  0.00     0.039 A 
ATOM     34  C   UNL A   1      42.486  21.484  25.377  1.00  0.00     0.014 A 
ATOM     35  C   UNL A   1      42.326  20.998  27.743  1.00  0.00     0.014 A 
ATOM     36  C   UNL A   1      42.980  22.757  25.675  1.00  0.00     0.010 A 
ATOM     37  C   UNL A   1      42.748  22.293  28.038  1.00  0.00     0.010 A 
ATOM     38  C   UNL A   1      43.078  23.187  27.008  1.00  0.00    -0.014 A 
BRANCH  38  39
ATOM     39  C   UNL A   1      43.521  24.566  27.339  1.00  0.00     0.031 A 
ATOM     40  C   UNL A   1      42.538  25.573  27.870  1.00  0.00     0.074 A 
ATOM     41  C   UNL A   1      44.800  24.928  27.113  1.00  0.00     0.049 A 
ATOM     42  N   UNL A   1      42.718  26.840  28.151  1.00  0.00    -0.248 NA
ATOM     43  C   UNL A   1      41.163  25.100  28.096  1.00  0.00     0.031 C 
ATOM     44  C   UNL A   1      45.841  24.057  26.565  1.00  0.00     0.029 A 
ATOM     45  N   UNL A   1      45.442  26.127  27.306  1.00  0.00    -0.354 N 
ATOM     46  C   UNL A   1      41.484  27.312  28.580  1.00  0.00     0.074 A 
ATOM     47  C   UNL A   1      40.549  26.214  28.468  1.00  0.00     0.031 C 
ATOM     48  C   UNL A   1      46.993  24.742  26.486  1.00  0.00     0.029 A 
ATOM     49  C   UNL A   1      46.765  26.112  26.933  1.00  0.00     0.049 A 
ATOM     50  H   UNL A   1      44.995  26.923  27.675  1.00  0.00     0.167 HD
ATOM     51  C   UNL A   1      41.167  28.541  29.051  1.00  0.00     0.037 A 
ATOM     52  C   UNL A   1      47.684  27.097  26.937  1.00  0.00     0.037 A 
ATOM     53  C   UNL A   1      42.103  29.628  29.177  1.00  0.00     0.049 A 
ATOM     54  C   UNL A   1      47.292  28.464  27.434  1.00  0.00     0.074 A 
ATOM     55  C   UNL A   1      41.885  30.900  29.677  1.00  0.00     0.029 A 
ATOM     56  N   UNL A   1      43.436  29.571  28.798  1.00  0.00    -0.354 N 
ATOM     57  N   UNL A   1      46.138  28.879  27.896  1.00  0.00    -0.248 NA
ATOM     58  C   UNL A   1      48.335  29.500  27.417  1.00  0.00     0.031 C 
ATOM     59  C   UNL A   1      43.072  31.629  29.553  1.00  0.00     0.029 A 
ATOM     60  C   UNL A   1      44.046  30.792  29.034  1.00  0.00     0.049 A 
ATOM     61  H   UNL A   1      43.882  28.780  28.417  1.00  0.00     0.167 HD
ATOM     62  C   UNL A   1      46.326  30.207  28.256  1.00  0.00     0.074 A 
ATOM     63  C   UNL A   1      47.710  30.523  27.978  1.00  0.00     0.031 C 
ATOM     64  C   UNL A   1      45.432  31.086  28.771  1.00  0.00     0.037 A 
BRANCH  51  65
ATOM     65  C   UNL A   1      39.748  28.782  29.481  1.00  0.00     0.064 A 
ATOM     66  C   UNL A   1      39.327  28.527  30.796  1.00  0.00     0.173 A 
ATOM     67  C   UNL A   1      38.816  29.337  28.591  1.00  0.00     0.173 A 
ATOM     68  F   UNL A   1      40.176  27.988  31.683  1.00  0.00    -0.203 F 
ATOM     69  C   UNL A   1      38.022  28.800  31.196  1.00  0.00     0.198 A 
ATOM     70  C   UNL A   1      37.520  29.638  29.004  1.00  0.00     0.198 A 
ATOM     71  F   UNL A   1      39.167  29.606  27.324  1.00  0.00    -0.203 F 
ATOM     72  F   UNL A   1      37.633  28.512  32.446  1.00  0.00    -0.200 F 
ATOM     73  C   UNL A   1      37.124  29.365  30.304  1.00  0.00     0.200 A 
ATOM     74  F   UNL A   1      36.658  30.198  28.145  1.00  0.00    -0.200 F 
ATOM     75  F   UNL A   1      35.873  29.642  30.697  1.00  0.00    -0.200 F 
ENDBRANCH  51  65
BRANCH  52  76
ATOM     76  C   UNL A   1      49.071  26.836  26.462  1.00  0.00     0.064 A 
ATOM     77  C   UNL A   1      49.418  27.007  25.115  1.00  0.00     0.173 A 
ATOM     78  C   UNL A   1      50.064  26.365  27.334  1.00  0.00     0.173 A 
ATOM     79  F   UNL A   1      48.499  27.436  24.236  1.00  0.00    -0.203 F 
ATOM     80  C   UNL A   1      50.690  26.683  24.650  1.00  0.00     0.198 A 
ATOM     81  C   UNL A   1      51.348  26.075  26.875  1.00  0.00     0.198 A 
ATOM     82  F   UNL A   1      49.789  26.187  28.634  1.00  0.00    -0.203 F 
ATOM     83  F   UNL A   1      50.972  26.791  23.345  1.00  0.00    -0.200 F 
ATOM     84  C   UNL A   1      51.655  26.220  25.531  1.00  0.00     0.200 A 
ATOM     85  F   UNL A   1      52.282  25.643  27.733  1.00  0.00    -0.200 F 
ATOM     86  F   UNL A   1      52.878  25.901  25.084  1.00  0.00    -0.200 F 
ENDBRANCH  52  76
BRANCH  64  87
ATOM     87  C   UNL A   1      45.933  32.461  29.115  1.00  0.00     0.064 A 
ATOM     88  C   UNL A   1      45.857  33.525  28.206  1.00  0.00     0.173 A 
ATOM     89  C   UNL A   1      46.461  32.721  30.389  1.00  0.00     0.173 A 
ATOM     90  F   UNL A   1      45.372  33.327  26.971  1.00  0.00    -0.203 F 
ATOM     91  C   UNL A   1      46.320  34.793  28.549  1.00  0.00     0.198 A 
ATOM     92  C   UNL A   1      46.891  33.998  30.740  1.00  0.00     0.198 A 
ATOM     93  F   UNL A   1      46.549  31.739  31.299  1.00  0.00    -0.203 F 
ATOM     94  F   UNL A   1      46.288  35.783  27.646  1.00  0.00    -0.200 F 
ATOM     95  C   UNL A   1      46.829  35.030  29.817  1.00  0.00     0.200 A 
ATOM     96  F   UNL A   1      47.366  34.228  31.971  1.00  0.00    -0.200 F 
ATOM     97  F   UNL A   1      47.267  36.253  30.148  1.00  0.00    -0.200 F 
ENDBRANCH  64  87
ENDBRANCH  38  39
ENDBRANCH  30  33
ENDBRANCH  28  29
ENDBRANCH  27  28
ENDBRANCH  26  27
ENDBRANCH   1  26
TORSDOF 16
ENDMDL
MODEL 3
REMARK VINA RESULT:     -12.1      5.097     10.743
REMARK SMILES C[C@]1(C(=O)Nc2ccc(C(=O)NCCCCCCNC(=O)c3ccc(-c4c5nc(c(-c6c(F)c(F)c(F)c(F)c6F)c6ccc([nH]6)c(-c6c(F)c(F)c(F)c(F)c6F)c6nc(c(-c7c(F)c(F)c(F)c(F)c7F)c7ccc4[nH]7)C=C6)C=C5)cc3)c(O)c2)CCCO1
REMARK SMILES IDX 15 1 14 2 13 3 12 4 10 5 11 6 9 8 6 9 7 10 87 11 8 12 85 13
REMARK SMILES IDX 5 14 3 15 4 16 2 18 1 19 88 20 91 21 89 22 90 23 86 24 16 26
REMARK SMILES IDX 17 27 18 28 19 29 20 30 21 32 22 33 23 34 84 35 24 36 83 37
REMARK SMILES IDX 25 38 26 39 27 40 77 41 28 42 82 43 76 44 78 45 29 46 81 47
REMARK SMILES IDX 75 48 74 49 30 51 62 52 42 53 61 54 43 55 46 56 60 57 79 58
REMARK SMILES IDX 44 59 45 60 59 62 80 63 47 64 31 65 32 66 40 67 33 68 34 69
REMARK SMILES IDX 38 70 41 71 35 72 36 73 39 74 37 75 63 76 64 77 72 78 65 79
REMARK SMILES IDX 66 80 70 81 73 82 67 83 68 84 71 85 69 86 48 87 49 88 57 89
REMARK SMILES IDX 50 90 51 91 55 92 58 93 52 94 53 95 56 96 54 97
REMARK H PARENT 12 7 5 17 86 25 19 31 78 50 46 61
REMARK Flexibility Score: inf
ROOT
ATOM      1  C   UNL A   1      32.686  30.043  26.276  1.00  0.00     0.002 C 
ENDROOT
BRANCH   1   2
ATOM      2  C   UNL A   1      33.077  28.885  25.352  1.00  0.00     0.021 C 
BRANCH   2   3
ATOM      3  C   UNL A   1      33.264  29.219  23.875  1.00  0.00     0.116 C 
BRANCH   3   4
ATOM      4  N   UNL A   1      32.033  29.313  23.114  1.00  0.00    -0.352 N 
ATOM      5  C   UNL A   1      31.196  28.333  22.637  1.00  0.00     0.255 C 
ATOM      6  O   UNL A   1      30.189  28.682  22.021  1.00  0.00    -0.269 OA
ATOM      7  H   UNL A   1      31.751  30.232  22.904  1.00  0.00     0.163 HD
BRANCH   5   8
ATOM      8  C   UNL A   1      31.499  26.880  22.763  1.00  0.00     0.081 A 
ATOM      9  C   UNL A   1      31.569  24.072  22.862  1.00  0.00     0.045 A 
ATOM     10  C   UNL A   1      30.821  24.790  23.786  1.00  0.00     0.027 A 
ATOM     11  C   UNL A   1      32.466  24.765  22.052  1.00  0.00     0.073 A 
ATOM     12  C   UNL A   1      30.741  26.179  23.706  1.00  0.00     0.020 A 
ATOM     13  C   UNL A   1      32.456  26.165  22.038  1.00  0.00     0.130 A 
BRANCH   9  14
ATOM     14  N   UNL A   1      31.510  22.677  22.775  1.00  0.00    -0.323 N 
ATOM     15  C   UNL A   1      32.401  21.719  23.180  1.00  0.00     0.256 C 
ATOM     16  O   UNL A   1      32.249  20.581  22.711  1.00  0.00    -0.271 OA
ATOM     17  H   UNL A   1      30.693  22.327  22.351  1.00  0.00     0.170 HD
BRANCH  15  18
ATOM     18  C   UNL A   1      33.428  21.950  24.350  1.00  0.00     0.144 C 
ATOM     19  C   UNL A   1      33.770  20.551  24.892  1.00  0.00     0.053 C 
ATOM     20  C   UNL A   1      34.674  22.638  23.773  1.00  0.00     0.048 C 
ATOM     21  O   UNL A   1      33.081  22.706  25.510  1.00  0.00    -0.365 OA
ATOM     22  C   UNL A   1      35.275  23.346  24.960  1.00  0.00     0.032 C 
ATOM     23  C   UNL A   1      34.048  23.738  25.738  1.00  0.00     0.162 C 
ENDBRANCH  15  18
ENDBRANCH   9  14
BRANCH  13  24
ATOM     24  O   UNL A   1      33.459  26.754  21.320  1.00  0.00    -0.507 OA
ATOM     25  H   UNL A   1      33.286  27.533  20.827  1.00  0.00     0.293 HD
ENDBRANCH  13  24
ENDBRANCH   5   8
ENDBRANCH   3   4
ENDBRANCH   2   3
ENDBRANCH   1   2
BRANCH   1  26
ATOM     26  C   UNL A   1      31.425  30.832  25.911  1.00  0.00     0.002 C 
BRANCH  26  27
ATOM     27  C   UNL A   1      31.257  32.203  26.568  1.00  0.00     0.021 C 
BRANCH  27  28
ATOM     28  C   UNL A   1      32.522  32.828  27.143  1.00  0.00     0.116 C 
BRANCH  28  29
ATOM     29  N   UNL A   1      32.333  34.201  27.579  1.00  0.00    -0.352 N 
ATOM     30  C   UNL A   1      32.997  34.910  28.548  1.00  0.00     0.251 C 
ATOM     31  H   UNL A   1      31.623  34.696  27.110  1.00  0.00     0.163 HD
ATOM     32  O   UNL A   1      32.608  36.033  28.864  1.00  0.00    -0.269 OA
BRANCH  30  33
ATOM     33  C   UNL A   1      34.165  34.321  29.240  1.00  0.00     0.039 A 
ATOM     34  C   UNL A   1      33.946  33.546  30.382  1.00  0.00     0.014 A 
ATOM     35  C   UNL A   1      35.467  34.529  28.777  1.00  0.00     0.014 A 
ATOM     36  C   UNL A   1      35.024  32.927  31.020  1.00  0.00     0.010 A 
ATOM     37  C   UNL A   1      36.531  33.851  29.369  1.00  0.00     0.010 A 
ATOM     38  C   UNL A   1      36.322  33.042  30.496  1.00  0.00    -0.014 A 
BRANCH  38  39
ATOM     39  C   UNL A   1      37.466  32.323  31.114  1.00  0.00     0.031 A 
ATOM     40  C   UNL A   1      37.965  32.719  32.476  1.00  0.00     0.074 A 
ATOM     41  C   UNL A   1      38.088  31.344  30.427  1.00  0.00     0.049 A 
ATOM     42  N   UNL A   1      38.990  32.259  33.150  1.00  0.00    -0.248 NA
ATOM     43  C   UNL A   1      37.230  33.790  33.166  1.00  0.00     0.031 C 
ATOM     44  C   UNL A   1      37.724  30.893  29.082  1.00  0.00     0.029 A 
ATOM     45  N   UNL A   1      39.165  30.559  30.758  1.00  0.00    -0.354 N 
ATOM     46  C   UNL A   1      39.023  32.984  34.334  1.00  0.00     0.074 A 
ATOM     47  C   UNL A   1      37.953  33.955  34.264  1.00  0.00     0.031 C 
ATOM     48  C   UNL A   1      38.549  29.899  28.713  1.00  0.00     0.029 A 
ATOM     49  C   UNL A   1      39.526  29.672  29.772  1.00  0.00     0.049 A 
ATOM     50  H   UNL A   1      39.635  30.627  31.621  1.00  0.00     0.167 HD
ATOM     51  C   UNL A   1      39.852  32.835  35.394  1.00  0.00     0.037 A 
ATOM     52  C   UNL A   1      40.541  28.786  29.723  1.00  0.00     0.037 A 
ATOM     53  C   UNL A   1      40.906  31.857  35.469  1.00  0.00     0.049 A 
ATOM     54  C   UNL A   1      41.468  28.668  30.904  1.00  0.00     0.074 A 
ATOM     55  C   UNL A   1      41.775  31.604  36.515  1.00  0.00     0.029 A 
ATOM     56  N   UNL A   1      41.233  30.970  34.454  1.00  0.00    -0.354 N 
ATOM     57  N   UNL A   1      41.448  29.317  32.043  1.00  0.00    -0.248 NA
ATOM     58  C   UNL A   1      42.557  27.686  30.796  1.00  0.00     0.031 C 
ATOM     59  C   UNL A   1      42.662  30.600  36.115  1.00  0.00     0.029 A 
ATOM     60  C   UNL A   1      42.306  30.183  34.843  1.00  0.00     0.049 A 
ATOM     61  H   UNL A   1      40.773  30.908  33.585  1.00  0.00     0.167 HD
ATOM     62  C   UNL A   1      42.493  28.799  32.796  1.00  0.00     0.074 A 
ATOM     63  C   UNL A   1      43.115  27.768  31.994  1.00  0.00     0.031 C 
ATOM     64  C   UNL A   1      42.902  29.146  34.041  1.00  0.00     0.037 A 
BRANCH  51  65
ATOM     65  C   UNL A   1      39.650  33.741  36.574  1.00  0.00     0.064 A 
ATOM     66  C   UNL A   1      38.818  33.378  37.644  1.00  0.00     0.173 A 
ATOM     67  C   UNL A   1      40.347  34.956  36.670  1.00  0.00     0.173 A 
ATOM     68  F   UNL A   1      38.121  32.232  37.599  1.00  0.00    -0.203 F 
ATOM     69  C   UNL A   1      38.676  34.205  38.756  1.00  0.00     0.198 A 
ATOM     70  C   UNL A   1      40.227  35.765  37.797  1.00  0.00     0.198 A 
ATOM     71  F   UNL A   1      41.160  35.349  35.678  1.00  0.00    -0.203 F 
ATOM     72  F   UNL A   1      37.846  33.854  39.747  1.00  0.00    -0.200 F 
ATOM     73  C   UNL A   1      39.389  35.392  38.836  1.00  0.00     0.200 A 
ATOM     74  F   UNL A   1      40.929  36.904  37.880  1.00  0.00    -0.200 F 
ATOM     75  F   UNL A   1      39.264  36.177  39.914  1.00  0.00    -0.200 F 
ENDBRANCH  51  65
BRANCH  52  76
ATOM     76  C   UNL A   1      40.739  27.933  28.519  1.00  0.00     0.064 A 
ATOM     77  C   UNL A   1      41.474  28.396  27.418  1.00  0.00     0.173 A 
ATOM     78  C   UNL A   1      40.160  26.659  28.424  1.00  0.00     0.173 A 
ATOM     79  F   UNL A   1      42.031  29.616  27.450  1.00  0.00    -0.203 F 
ATOM     80  C   UNL A   1      41.590  27.635  26.257  1.00  0.00     0.198 A 
ATOM     81  C   UNL A   1      40.307  25.883  27.276  1.00  0.00     0.198 A 
ATOM     82  F   UNL A   1      39.451  26.165  29.449  1.00  0.00    -0.203 F 
ATOM     83  F   UNL A   1      42.240  28.132  25.196  1.00  0.00    -0.200 F 
ATOM     84  C   UNL A   1      41.010  26.378  26.188  1.00  0.00     0.200 A 
ATOM     85  F   UNL A   1      39.758  24.662  27.220  1.00  0.00    -0.200 F 
ATOM     86  F   UNL A   1      41.115  25.649  25.068  1.00  0.00    -0.200 F 
ENDBRANCH  52  76
BRANCH  64  87
ATOM     87  C   UNL A   1      44.045  28.372  34.635  1.00  0.00     0.064 A 
ATOM     88  C   UNL A   1      45.375  28.793  34.497  1.00  0.00     0.173 A 
ATOM     89  C   UNL A   1      43.798  27.212  35.385  1.00  0.00     0.173 A 
ATOM     90  F   UNL A   1      45.667  29.888  33.778  1.00  0.00    -0.203 F 
ATOM     91  C   UNL A   1      46.418  28.064  35.062  1.00  0.00     0.198 A 
ATOM     92  C   UNL A   1      44.840  26.505  35.979  1.00  0.00     0.198 A 
ATOM     93  F   UNL A   1      42.542  26.769  35.555  1.00  0.00    -0.203 F 
ATOM     94  F   UNL A   1      47.686  28.455  34.872  1.00  0.00    -0.200 F 
ATOM     95  C   UNL A   1      46.150  26.927  35.809  1.00  0.00     0.200 A 
ATOM     96  F   UNL A   1      44.576  25.416  36.713  1.00  0.00    -0.200 F 
ATOM     97  F   UNL A   1      47.154  26.231  36.360  1.00  0.00    -0.200 F 
ENDBRANCH  64  87
ENDBRANCH  38  39
ENDBRANCH  30  33
ENDBRANCH  28  29
ENDBRANCH  27  28
ENDBRANCH  26  27
ENDBRANCH   1  26
TORSDOF 16
ENDMDL
