MODEL 1
REMARK VINA RESULT:     -12.8      0.000      0.000
REMARK SMILES Cc1ccc(S(=O)(=O)Nc2ccccc2/C=C/C(=O)NCCCCCCNC(=O)c2ccc(-c3c4nc(c(-c5c(F)c(F)c(F)c(F)c5F)c5ccc([nH]5)c(-c5c(F)c(F)c(F)c(F)c5F)c5nc(c(-c6c(F)c(F)c(F)c(F)c6F)c6ccc3[nH]6)C=C5)C=C4)cc2)cc1
REMARK SMILES IDX 22 1 21 2 20 3 18 4 19 5 17 7 16 8 15 9 10 10 11 11 12 12
REMARK SMILES IDX 14 13 13 14 9 15 6 17 7 18 8 19 5 20 1 21 2 22 3 23 94 24
REMARK SMILES IDX 4 25 93 26 23 27 24 28 25 29 26 30 27 31 28 32 29 34 30 35
REMARK SMILES IDX 31 36 92 37 32 38 91 39 33 40 34 41 35 42 85 43 36 44 90 45
REMARK SMILES IDX 84 46 86 47 37 48 89 49 83 50 82 51 38 53 70 54 50 55 69 56
REMARK SMILES IDX 51 57 54 58 68 59 87 60 52 61 53 62 67 64 88 65 55 66 39 67
REMARK SMILES IDX 40 68 48 69 41 70 42 71 46 72 49 73 43 74 44 75 47 76 45 77
REMARK SMILES IDX 71 78 72 79 80 80 73 81 74 82 78 83 81 84 75 85 76 86 79 87
REMARK SMILES IDX 77 88 56 89 57 90 65 91 58 92 59 93 63 94 66 95 60 96 61 97
REMARK SMILES IDX 64 98 62 99
REMARK H PARENT 20 6 9 16 27 33 86 52 54 63
REMARK Flexibility Score: inf
ROOT
ATOM      1  C   UNL A   1      35.560  23.098  23.812  1.00  0.00     0.021 C 
ENDROOT
BRANCH   1   2
ATOM      2  C   UNL A   1      35.248  24.234  24.784  1.00  0.00     0.116 C 
BRANCH   2   3
ATOM      3  N   UNL A   1      34.107  23.921  25.617  1.00  0.00    -0.353 N 
ATOM      4  C   UNL A   1      33.144  24.727  26.125  1.00  0.00     0.244 C 
ATOM      5  O   UNL A   1      32.120  24.232  26.590  1.00  0.00    -0.270 OA
ATOM      6  H   UNL A   1      34.015  22.969  25.851  1.00  0.00     0.163 HD
BRANCH   4   7
ATOM      7  C   UNL A   1      33.286  26.200  26.129  1.00  0.00     0.072 C 
ATOM      8  C   UNL A   1      32.333  27.010  26.607  1.00  0.00     0.016 C 
BRANCH   8   9
ATOM      9  C   UNL A   1      32.247  28.455  26.383  1.00  0.00    -0.001 A 
ATOM     10  C   UNL A   1      31.395  28.985  25.394  1.00  0.00     0.056 A 
ATOM     11  C   UNL A   1      31.168  30.361  25.335  1.00  0.00     0.027 A 
ATOM     12  C   UNL A   1      31.784  31.210  26.259  1.00  0.00     0.002 A 
ATOM     13  C   UNL A   1      32.850  29.313  27.310  1.00  0.00     0.010 A 
ATOM     14  C   UNL A   1      32.621  30.688  27.246  1.00  0.00     0.001 A 
BRANCH  10  15
ATOM     15  N   UNL A   1      30.680  28.114  24.519  1.00  0.00    -0.279 N 
ATOM     16  H   UNL A   1      29.825  27.731  24.817  1.00  0.00     0.180 HD
BRANCH  15  17
ATOM     17  S   UNL A   1      31.269  27.727  22.981  1.00  0.00     0.261 S 
ATOM     18  O   UNL A   1      32.591  28.334  22.946  1.00  0.00    -0.201 OA
ATOM     19  O   UNL A   1      30.270  28.073  22.002  1.00  0.00    -0.201 OA
BRANCH  17  20
ATOM     20  C   UNL A   1      31.505  25.959  22.884  1.00  0.00     0.087 A 
ATOM     21  C   UNL A   1      32.150  21.698  22.662  1.00  0.00     0.044 C 
ATOM     22  C   UNL A   1      31.917  23.181  22.731  1.00  0.00    -0.051 A 
ATOM     23  C   UNL A   1      30.829  23.701  23.448  1.00  0.00     0.005 A 
ATOM     24  C   UNL A   1      32.824  24.066  22.140  1.00  0.00     0.005 A 
ATOM     25  C   UNL A   1      30.607  25.084  23.506  1.00  0.00     0.022 A 
ATOM     26  C   UNL A   1      32.640  25.448  22.248  1.00  0.00     0.022 A 
ENDBRANCH  17  20
ENDBRANCH  15  17
ENDBRANCH  10  15
ENDBRANCH   8   9
ENDBRANCH   4   7
ENDBRANCH   2   3
ENDBRANCH   1   2
BRANCH   1  27
ATOM     27  C   UNL A   1      37.025  22.655  23.817  1.00  0.00     0.002 C 
BRANCH  27  28
ATOM     28  C   UNL A   1      37.313  21.361  24.593  1.00  0.00     0.002 C 
BRANCH  28  29
ATOM     29  C   UNL A   1      38.417  21.460  25.643  1.00  0.00     0.021 C 
BRANCH  29  30
ATOM     30  C   UNL A   1      38.674  22.874  26.121  1.00  0.00     0.116 C 
BRANCH  30  31
ATOM     31  N   UNL A   1      39.987  23.015  26.726  1.00  0.00    -0.352 N 
ATOM     32  C   UNL A   1      40.723  24.148  27.001  1.00  0.00     0.251 C 
ATOM     33  H   UNL A   1      40.420  22.168  26.980  1.00  0.00     0.163 HD
ATOM     34  O   UNL A   1      41.912  24.051  27.278  1.00  0.00    -0.269 OA
BRANCH  32  35
ATOM     35  C   UNL A   1      40.022  25.439  27.199  1.00  0.00     0.039 A 
ATOM     36  C   UNL A   1      40.526  26.508  26.444  1.00  0.00     0.014 A 
ATOM     37  C   UNL A   1      39.277  25.671  28.347  1.00  0.00     0.014 A 
ATOM     38  C   UNL A   1      40.577  27.767  27.015  1.00  0.00     0.010 A 
ATOM     39  C   UNL A   1      39.464  26.866  28.985  1.00  0.00     0.010 A 
ATOM     40  C   UNL A   1      40.174  27.880  28.337  1.00  0.00    -0.014 A 
BRANCH  40  41
ATOM     41  C   UNL A   1      40.376  29.051  29.148  1.00  0.00     0.031 A 
ATOM     42  C   UNL A   1      39.293  30.039  29.145  1.00  0.00     0.074 A 
ATOM     43  C   UNL A   1      41.429  29.073  29.992  1.00  0.00     0.049 A 
ATOM     44  N   UNL A   1      39.434  31.247  29.541  1.00  0.00    -0.248 NA
ATOM     45  C   UNL A   1      37.956  29.761  28.619  1.00  0.00     0.031 C 
ATOM     46  C   UNL A   1      41.661  29.952  31.131  1.00  0.00     0.029 A 
ATOM     47  N   UNL A   1      42.635  28.365  29.855  1.00  0.00    -0.354 N 
ATOM     48  C   UNL A   1      38.173  31.784  29.658  1.00  0.00     0.074 A 
ATOM     49  C   UNL A   1      37.320  30.899  28.913  1.00  0.00     0.031 C 
ATOM     50  C   UNL A   1      42.980  29.981  31.396  1.00  0.00     0.029 A 
ATOM     51  C   UNL A   1      43.638  29.242  30.332  1.00  0.00     0.049 A 
ATOM     52  H   UNL A   1      42.757  27.454  29.503  1.00  0.00     0.167 HD
ATOM     53  C   UNL A   1      38.018  32.818  30.527  1.00  0.00     0.037 A 
ATOM     54  C   UNL A   1      44.554  29.772  29.466  1.00  0.00     0.037 A 
ATOM     55  C   UNL A   1      39.336  33.264  30.987  1.00  0.00     0.049 A 
ATOM     56  C   UNL A   1      44.447  31.278  29.365  1.00  0.00     0.074 A 
ATOM     57  C   UNL A   1      40.045  33.068  32.160  1.00  0.00     0.029 A 
ATOM     58  N   UNL A   1      40.250  33.717  30.042  1.00  0.00    -0.354 N 
ATOM     59  N   UNL A   1      43.356  31.950  29.620  1.00  0.00    -0.248 NA
ATOM     60  C   UNL A   1      45.569  32.143  29.020  1.00  0.00     0.031 C 
ATOM     61  C   UNL A   1      41.413  33.353  31.889  1.00  0.00     0.029 A 
ATOM     62  C   UNL A   1      41.524  33.755  30.567  1.00  0.00     0.049 A 
ATOM     63  H   UNL A   1      40.018  33.975  29.121  1.00  0.00     0.167 HD
ATOM     64  C   UNL A   1      43.607  33.297  29.514  1.00  0.00     0.074 A 
ATOM     65  C   UNL A   1      45.008  33.360  29.138  1.00  0.00     0.031 C 
ATOM     66  C   UNL A   1      42.639  34.235  29.759  1.00  0.00     0.037 A 
BRANCH  53  67
ATOM     67  C   UNL A   1      36.728  33.293  31.160  1.00  0.00     0.064 A 
ATOM     68  C   UNL A   1      35.779  33.977  30.364  1.00  0.00     0.173 A 
ATOM     69  C   UNL A   1      36.393  33.220  32.528  1.00  0.00     0.173 A 
ATOM     70  F   UNL A   1      35.945  34.108  29.041  1.00  0.00    -0.203 F 
ATOM     71  C   UNL A   1      34.630  34.569  30.898  1.00  0.00     0.198 A 
ATOM     72  C   UNL A   1      35.227  33.784  33.055  1.00  0.00     0.198 A 
ATOM     73  F   UNL A   1      37.183  32.637  33.432  1.00  0.00    -0.203 F 
ATOM     74  F   UNL A   1      33.801  35.250  30.096  1.00  0.00    -0.200 F 
ATOM     75  C   UNL A   1      34.353  34.471  32.244  1.00  0.00     0.200 A 
ATOM     76  F   UNL A   1      34.976  33.672  34.369  1.00  0.00    -0.200 F 
ATOM     77  F   UNL A   1      33.256  35.041  32.760  1.00  0.00    -0.200 F 
ENDBRANCH  53  67
BRANCH  54  78
ATOM     78  C   UNL A   1      44.878  28.824  28.356  1.00  0.00     0.064 A 
ATOM     79  C   UNL A   1      45.447  27.584  28.719  1.00  0.00     0.173 A 
ATOM     80  C   UNL A   1      44.232  28.894  27.116  1.00  0.00     0.173 A 
ATOM     81  F   UNL A   1      46.096  27.463  29.889  1.00  0.00    -0.203 F 
ATOM     82  C   UNL A   1      45.211  26.431  27.974  1.00  0.00     0.198 A 
ATOM     83  C   UNL A   1      44.033  27.740  26.351  1.00  0.00     0.198 A 
ATOM     84  F   UNL A   1      43.677  30.043  26.703  1.00  0.00    -0.203 F 
ATOM     85  F   UNL A   1      45.613  25.239  28.441  1.00  0.00    -0.200 F 
ATOM     86  C   UNL A   1      44.471  26.504  26.808  1.00  0.00     0.200 A 
ATOM     87  F   UNL A   1      43.318  27.808  25.218  1.00  0.00    -0.200 F 
ATOM     88  F   UNL A   1      44.143  25.383  26.150  1.00  0.00    -0.200 F 
ENDBRANCH  54  78
BRANCH  66  89
ATOM     89  C   UNL A   1      42.644  35.706  29.357  1.00  0.00     0.064 A 
ATOM     90  C   UNL A   1      43.388  36.709  29.996  1.00  0.00     0.173 A 
ATOM     91  C   UNL A   1      41.978  36.132  28.173  1.00  0.00     0.173 A 
ATOM     92  F   UNL A   1      44.177  36.448  31.043  1.00  0.00    -0.203 F 
ATOM     93  C   UNL A   1      43.405  38.034  29.539  1.00  0.00     0.198 A 
ATOM     94  C   UNL A   1      42.068  37.431  27.673  1.00  0.00     0.198 A 
ATOM     95  F   UNL A   1      41.237  35.301  27.428  1.00  0.00    -0.203 F 
ATOM     96  F   UNL A   1      44.087  38.959  30.228  1.00  0.00    -0.200 F 
ATOM     97  C   UNL A   1      42.762  38.390  28.370  1.00  0.00     0.200 A 
ATOM     98  F   UNL A   1      41.494  37.733  26.500  1.00  0.00    -0.200 F 
ATOM     99  F   UNL A   1      42.830  39.645  27.909  1.00  0.00    -0.200 F 
ENDBRANCH  66  89
ENDBRANCH  40  41
ENDBRANCH  32  35
ENDBRANCH  30  31
ENDBRANCH  29  30
ENDBRANCH  28  29
ENDBRANCH  27  28
ENDBRANCH   1  27
TORSDOF 17
ENDMDL
MODEL 2
REMARK VINA RESULT:     -12.6      1.604      2.644
REMARK SMILES Cc1ccc(S(=O)(=O)Nc2ccccc2/C=C/C(=O)NCCCCCCNC(=O)c2ccc(-c3c4nc(c(-c5c(F)c(F)c(F)c(F)c5F)c5ccc([nH]5)c(-c5c(F)c(F)c(F)c(F)c5F)c5nc(c(-c6c(F)c(F)c(F)c(F)c6F)c6ccc3[nH]6)C=C5)C=C4)cc2)cc1
REMARK SMILES IDX 22 1 21 2 20 3 18 4 19 5 17 7 16 8 15 9 10 10 11 11 12 12
REMARK SMILES IDX 14 13 13 14 9 15 6 17 7 18 8 19 5 20 1 21 2 22 3 23 94 24
REMARK SMILES IDX 4 25 93 26 23 27 24 28 25 29 26 30 27 31 28 32 29 34 30 35
REMARK SMILES IDX 31 36 92 37 32 38 91 39 33 40 34 41 35 42 85 43 36 44 90 45
REMARK SMILES IDX 84 46 86 47 37 48 89 49 83 50 82 51 38 53 70 54 50 55 69 56
REMARK SMILES IDX 51 57 54 58 68 59 87 60 52 61 53 62 67 64 88 65 55 66 39 67
REMARK SMILES IDX 40 68 48 69 41 70 42 71 46 72 49 73 43 74 44 75 47 76 45 77
REMARK SMILES IDX 71 78 72 79 80 80 73 81 74 82 78 83 81 84 75 85 76 86 79 87
REMARK SMILES IDX 77 88 56 89 57 90 65 91 58 92 59 93 63 94 66 95 60 96 61 97
REMARK SMILES IDX 64 98 62 99
REMARK H PARENT 20 6 9 16 27 33 86 52 54 63
REMARK Flexibility Score: inf
ROOT
ATOM      1  C   UNL A   1      34.369  22.520  24.460  1.00  0.00     0.021 C 
ENDROOT
BRANCH   1   2
ATOM      2  C   UNL A   1      34.371  23.287  25.780  1.00  0.00     0.116 C 
BRANCH   2   3
ATOM      3  N   UNL A   1      33.197  22.987  26.570  1.00  0.00    -0.353 N 
ATOM      4  C   UNL A   1      32.050  23.690  26.740  1.00  0.00     0.244 C 
ATOM      5  O   UNL A   1      31.071  23.142  27.242  1.00  0.00    -0.270 OA
ATOM      6  H   UNL A   1      33.236  22.134  27.061  1.00  0.00     0.163 HD
BRANCH   4   7
ATOM      7  C   UNL A   1      31.940  25.107  26.329  1.00  0.00     0.072 C 
ATOM      8  C   UNL A   1      32.952  25.972  26.469  1.00  0.00     0.016 C 
BRANCH   8   9
ATOM      9  C   UNL A   1      32.847  27.431  26.378  1.00  0.00    -0.001 A 
ATOM     10  C   UNL A   1      33.310  28.121  25.241  1.00  0.00     0.056 A 
ATOM     11  C   UNL A   1      33.014  29.476  25.079  1.00  0.00     0.027 A 
ATOM     12  C   UNL A   1      32.258  30.145  26.046  1.00  0.00     0.002 A 
ATOM     13  C   UNL A   1      32.080  28.107  27.335  1.00  0.00     0.010 A 
ATOM     14  C   UNL A   1      31.789  29.462  27.170  1.00  0.00     0.001 A 
BRANCH  10  15
ATOM     15  N   UNL A   1      33.988  27.419  24.201  1.00  0.00    -0.279 N 
ATOM     16  H   UNL A   1      34.902  27.091  24.359  1.00  0.00     0.180 HD
BRANCH  15  17
ATOM     17  S   UNL A   1      33.256  27.134  22.702  1.00  0.00     0.261 S 
ATOM     18  O   UNL A   1      33.288  25.686  22.563  1.00  0.00    -0.201 OA
ATOM     19  O   UNL A   1      33.872  27.985  21.716  1.00  0.00    -0.201 OA
BRANCH  17  20
ATOM     20  C   UNL A   1      31.537  27.609  22.803  1.00  0.00     0.087 A 
ATOM     21  C   UNL A   1      27.382  28.728  23.117  1.00  0.00     0.044 C 
ATOM     22  C   UNL A   1      28.827  28.337  22.996  1.00  0.00    -0.051 A 
ATOM     23  C   UNL A   1      29.764  29.221  22.442  1.00  0.00     0.005 A 
ATOM     24  C   UNL A   1      29.270  27.110  23.501  1.00  0.00     0.005 A 
ATOM     25  C   UNL A   1      31.111  28.852  22.322  1.00  0.00     0.022 A 
ATOM     26  C   UNL A   1      30.623  26.764  23.439  1.00  0.00     0.022 A 
ENDBRANCH  17  20
ENDBRANCH  15  17
ENDBRANCH  10  15
ENDBRANCH   8   9
ENDBRANCH   4   7
ENDBRANCH   2   3
ENDBRANCH   1   2
BRANCH   1  27
ATOM     27  C   UNL A   1      35.504  22.907  23.509  1.00  0.00     0.002 C 
BRANCH  27  28
ATOM     28  C   UNL A   1      36.837  23.250  24.190  1.00  0.00     0.002 C 
BRANCH  28  29
ATOM     29  C   UNL A   1      37.669  22.051  24.638  1.00  0.00     0.021 C 
BRANCH  29  30
ATOM     30  C   UNL A   1      37.839  21.958  26.140  1.00  0.00     0.116 C 
BRANCH  30  31
ATOM     31  N   UNL A   1      39.237  21.953  26.532  1.00  0.00    -0.352 N 
ATOM     32  C   UNL A   1      40.147  22.987  26.597  1.00  0.00     0.251 C 
ATOM     33  H   UNL A   1      39.592  21.072  26.793  1.00  0.00     0.163 HD
ATOM     34  O   UNL A   1      41.343  22.743  26.706  1.00  0.00    -0.269 OA
BRANCH  32  35
ATOM     35  C   UNL A   1      39.657  24.373  26.783  1.00  0.00     0.039 A 
ATOM     36  C   UNL A   1      40.381  25.355  26.088  1.00  0.00     0.014 A 
ATOM     37  C   UNL A   1      38.887  24.711  27.887  1.00  0.00     0.014 A 
ATOM     38  C   UNL A   1      40.601  26.579  26.693  1.00  0.00     0.010 A 
ATOM     39  C   UNL A   1      39.226  25.849  28.565  1.00  0.00     0.010 A 
ATOM     40  C   UNL A   1      40.136  26.739  27.989  1.00  0.00    -0.014 A 
BRANCH  40  41
ATOM     41  C   UNL A   1      40.475  27.848  28.840  1.00  0.00     0.031 A 
ATOM     42  C   UNL A   1      39.571  29.001  28.797  1.00  0.00     0.074 A 
ATOM     43  C   UNL A   1      41.462  27.683  29.746  1.00  0.00     0.049 A 
ATOM     44  N   UNL A   1      39.881  30.164  29.232  1.00  0.00    -0.248 NA
ATOM     45  C   UNL A   1      38.242  28.955  28.184  1.00  0.00     0.031 C 
ATOM     46  C   UNL A   1      41.762  28.495  30.919  1.00  0.00     0.029 A 
ATOM     47  N   UNL A   1      42.542  26.789  29.664  1.00  0.00    -0.354 N 
ATOM     48  C   UNL A   1      38.721  30.898  29.285  1.00  0.00     0.074 A 
ATOM     49  C   UNL A   1      37.784  30.177  28.468  1.00  0.00     0.031 C 
ATOM     50  C   UNL A   1      43.049  28.302  31.263  1.00  0.00     0.029 A 
ATOM     51  C   UNL A   1      43.643  27.481  30.222  1.00  0.00     0.049 A 
ATOM     52  H   UNL A   1      42.535  25.876  29.297  1.00  0.00     0.167 HD
ATOM     53  C   UNL A   1      38.682  31.931  30.170  1.00  0.00     0.037 A 
ATOM     54  C   UNL A   1      44.686  27.866  29.426  1.00  0.00     0.037 A 
ATOM     55  C   UNL A   1      40.024  32.147  30.720  1.00  0.00     0.049 A 
ATOM     56  C   UNL A   1      44.834  29.371  29.358  1.00  0.00     0.074 A 
ATOM     57  C   UNL A   1      40.615  31.819  31.927  1.00  0.00     0.029 A 
ATOM     58  N   UNL A   1      41.057  32.458  29.842  1.00  0.00    -0.354 N 
ATOM     59  N   UNL A   1      43.853  30.209  29.564  1.00  0.00    -0.248 NA
ATOM     60  C   UNL A   1      46.101  30.044  29.103  1.00  0.00     0.031 C 
ATOM     61  C   UNL A   1      42.025  31.879  31.746  1.00  0.00     0.029 A 
ATOM     62  C   UNL A   1      42.284  32.277  30.444  1.00  0.00     0.049 A 
ATOM     63  H   UNL A   1      40.929  32.764  28.916  1.00  0.00     0.167 HD
ATOM     64  C   UNL A   1      44.327  31.498  29.506  1.00  0.00     0.074 A 
ATOM     65  C   UNL A   1      45.740  31.335  29.217  1.00  0.00     0.031 C 
ATOM     66  C   UNL A   1      43.511  32.579  29.717  1.00  0.00     0.037 A 
BRANCH  53  67
ATOM     67  C   UNL A   1      37.449  32.603  30.735  1.00  0.00     0.064 A 
ATOM     68  C   UNL A   1      37.028  32.282  32.047  1.00  0.00     0.173 A 
ATOM     69  C   UNL A   1      36.579  33.469  30.040  1.00  0.00     0.173 A 
ATOM     70  F   UNL A   1      37.761  31.490  32.840  1.00  0.00    -0.203 F 
ATOM     71  C   UNL A   1      35.827  32.750  32.591  1.00  0.00     0.198 A 
ATOM     72  C   UNL A   1      35.395  33.962  30.598  1.00  0.00     0.198 A 
ATOM     73  F   UNL A   1      36.801  33.856  28.784  1.00  0.00    -0.203 F 
ATOM     74  F   UNL A   1      35.460  32.362  33.820  1.00  0.00    -0.200 F 
ATOM     75  C   UNL A   1      35.011  33.591  31.866  1.00  0.00     0.200 A 
ATOM     76  F   UNL A   1      34.618  34.783  29.876  1.00  0.00    -0.200 F 
ATOM     77  F   UNL A   1      33.857  34.036  32.382  1.00  0.00    -0.200 F 
ENDBRANCH  53  67
BRANCH  54  78
ATOM     78  C   UNL A   1      44.921  26.895  28.315  1.00  0.00     0.064 A 
ATOM     79  C   UNL A   1      45.297  25.583  28.678  1.00  0.00     0.173 A 
ATOM     80  C   UNL A   1      44.341  27.068  27.051  1.00  0.00     0.173 A 
ATOM     81  F   UNL A   1      45.874  25.361  29.870  1.00  0.00    -0.203 F 
ATOM     82  C   UNL A   1      44.933  24.483  27.906  1.00  0.00     0.198 A 
ATOM     83  C   UNL A   1      44.016  25.961  26.260  1.00  0.00     0.198 A 
ATOM     84  F   UNL A   1      43.968  28.287  26.637  1.00  0.00    -0.203 F 
ATOM     85  F   UNL A   1      45.147  23.241  28.368  1.00  0.00    -0.200 F 
ATOM     86  C   UNL A   1      44.259  24.671  26.713  1.00  0.00     0.200 A 
ATOM     87  F   UNL A   1      43.364  26.140  25.102  1.00  0.00    -0.200 F 
ATOM     88  F   UNL A   1      43.806  23.614  26.025  1.00  0.00    -0.200 F 
ENDBRANCH  54  78
BRANCH  66  89
ATOM     89  C   UNL A   1      43.783  34.034  29.353  1.00  0.00     0.064 A 
ATOM     90  C   UNL A   1      43.832  34.539  28.045  1.00  0.00     0.173 A 
ATOM     91  C   UNL A   1      43.863  35.029  30.369  1.00  0.00     0.173 A 
ATOM     92  F   UNL A   1      43.638  33.758  26.978  1.00  0.00    -0.203 F 
ATOM     93  C   UNL A   1      44.019  35.901  27.775  1.00  0.00     0.198 A 
ATOM     94  C   UNL A   1      43.963  36.393  30.095  1.00  0.00     0.198 A 
ATOM     95  F   UNL A   1      43.815  34.727  31.674  1.00  0.00    -0.203 F 
ATOM     96  F   UNL A   1      44.117  36.312  26.503  1.00  0.00    -0.200 F 
ATOM     97  C   UNL A   1      44.067  36.828  28.797  1.00  0.00     0.200 A 
ATOM     98  F   UNL A   1      43.935  37.276  31.103  1.00  0.00    -0.200 F 
ATOM     99  F   UNL A   1      44.188  38.134  28.529  1.00  0.00    -0.200 F 
ENDBRANCH  66  89
ENDBRANCH  40  41
ENDBRANCH  32  35
ENDBRANCH  30  31
ENDBRANCH  29  30
ENDBRANCH  28  29
ENDBRANCH  27  28
ENDBRANCH   1  27
TORSDOF 17
ENDMDL
MODEL 3
REMARK VINA RESULT:     -12.5      2.357      3.756
REMARK SMILES Cc1ccc(S(=O)(=O)Nc2ccccc2/C=C/C(=O)NCCCCCCNC(=O)c2ccc(-c3c4nc(c(-c5c(F)c(F)c(F)c(F)c5F)c5ccc([nH]5)c(-c5c(F)c(F)c(F)c(F)c5F)c5nc(c(-c6c(F)c(F)c(F)c(F)c6F)c6ccc3[nH]6)C=C5)C=C4)cc2)cc1
REMARK SMILES IDX 22 1 21 2 20 3 18 4 19 5 17 7 16 8 15 9 10 10 11 11 12 12
REMARK SMILES IDX 14 13 13 14 9 15 6 17 7 18 8 19 5 20 1 21 2 22 3 23 94 24
REMARK SMILES IDX 4 25 93 26 23 27 24 28 25 29 26 30 27 31 28 32 29 34 30 35
REMARK SMILES IDX 31 36 92 37 32 38 91 39 33 40 34 41 35 42 85 43 36 44 90 45
REMARK SMILES IDX 84 46 86 47 37 48 89 49 83 50 82 51 38 53 70 54 50 55 69 56
REMARK SMILES IDX 51 57 54 58 68 59 87 60 52 61 53 62 67 64 88 65 55 66 39 67
REMARK SMILES IDX 40 68 48 69 41 70 42 71 46 72 49 73 43 74 44 75 47 76 45 77
REMARK SMILES IDX 71 78 72 79 80 80 73 81 74 82 78 83 81 84 75 85 76 86 79 87
REMARK SMILES IDX 77 88 56 89 57 90 65 91 58 92 59 93 63 94 66 95 60 96 61 97
REMARK SMILES IDX 64 98 62 99
REMARK H PARENT 20 6 9 16 27 33 86 52 54 63
REMARK Flexibility Score: inf
ROOT
ATOM      1  C   UNL A   1      34.580  22.350  25.395  1.00  0.00     0.021 C 
ENDROOT
BRANCH   1   2
ATOM      2  C   UNL A   1      33.902  21.891  26.684  1.00  0.00     0.116 C 
BRANCH   2   3
ATOM      3  N   UNL A   1      32.461  21.921  26.565  1.00  0.00    -0.353 N 
ATOM      4  C   UNL A   1      31.606  22.971  26.505  1.00  0.00     0.244 C 
ATOM      5  O   UNL A   1      30.446  22.790  26.143  1.00  0.00    -0.270 OA
ATOM      6  H   UNL A   1      32.031  21.035  26.518  1.00  0.00     0.163 HD
BRANCH   4   7
ATOM      7  C   UNL A   1      32.036  24.342  26.858  1.00  0.00     0.072 C 
ATOM      8  C   UNL A   1      31.610  25.420  26.187  1.00  0.00     0.016 C 
BRANCH   8   9
ATOM      9  C   UNL A   1      32.198  26.759  26.260  1.00  0.00    -0.001 A 
ATOM     10  C   UNL A   1      33.105  27.206  25.279  1.00  0.00     0.056 A 
ATOM     11  C   UNL A   1      33.492  28.547  25.245  1.00  0.00     0.027 A 
ATOM     12  C   UNL A   1      32.975  29.445  26.185  1.00  0.00     0.002 A 
ATOM     13  C   UNL A   1      31.678  27.670  27.188  1.00  0.00     0.010 A 
ATOM     14  C   UNL A   1      32.069  29.009  27.152  1.00  0.00     0.001 A 
BRANCH  10  15
ATOM     15  N   UNL A   1      33.550  26.319  24.254  1.00  0.00    -0.279 N 
ATOM     16  H   UNL A   1      34.370  25.794  24.396  1.00  0.00     0.180 HD
BRANCH  15  17
ATOM     17  S   UNL A   1      32.699  26.148  22.802  1.00  0.00     0.261 S 
ATOM     18  O   UNL A   1      32.209  24.778  22.840  1.00  0.00    -0.201 OA
ATOM     19  O   UNL A   1      33.533  26.605  21.719  1.00  0.00    -0.201 OA
BRANCH  17  20
ATOM     20  C   UNL A   1      31.268  27.215  22.845  1.00  0.00     0.087 A 
ATOM     21  C   UNL A   1      27.791  29.765  23.018  1.00  0.00     0.044 C 
ATOM     22  C   UNL A   1      29.000  28.877  22.946  1.00  0.00    -0.051 A 
ATOM     23  C   UNL A   1      30.234  29.380  22.506  1.00  0.00     0.005 A 
ATOM     24  C   UNL A   1      28.929  27.551  23.386  1.00  0.00     0.005 A 
ATOM     25  C   UNL A   1      31.359  28.549  22.431  1.00  0.00     0.022 A 
ATOM     26  C   UNL A   1      30.064  26.736  23.372  1.00  0.00     0.022 A 
ENDBRANCH  17  20
ENDBRANCH  15  17
ENDBRANCH  10  15
ENDBRANCH   8   9
ENDBRANCH   4   7
ENDBRANCH   2   3
ENDBRANCH   1   2
BRANCH   1  27
ATOM     27  C   UNL A   1      35.656  23.419  25.600  1.00  0.00     0.002 C 
BRANCH  27  28
ATOM     28  C   UNL A   1      37.094  22.888  25.695  1.00  0.00     0.002 C 
BRANCH  28  29
ATOM     29  C   UNL A   1      38.157  23.932  26.028  1.00  0.00     0.021 C 
BRANCH  29  30
ATOM     30  C   UNL A   1      39.177  23.458  27.042  1.00  0.00     0.116 C 
BRANCH  30  31
ATOM     31  N   UNL A   1      39.841  22.239  26.618  1.00  0.00    -0.352 N 
ATOM     32  C   UNL A   1      41.171  21.999  26.344  1.00  0.00     0.251 C 
ATOM     33  H   UNL A   1      39.249  21.460  26.508  1.00  0.00     0.163 HD
ATOM     34  O   UNL A   1      41.499  20.975  25.756  1.00  0.00    -0.269 OA
BRANCH  32  35
ATOM     35  C   UNL A   1      42.207  22.851  26.975  1.00  0.00     0.039 A 
ATOM     36  C   UNL A   1      42.263  22.776  28.375  1.00  0.00     0.014 A 
ATOM     37  C   UNL A   1      42.726  23.949  26.303  1.00  0.00     0.014 A 
ATOM     38  C   UNL A   1      42.519  23.927  29.098  1.00  0.00     0.010 A 
ATOM     39  C   UNL A   1      42.822  25.123  26.998  1.00  0.00     0.010 A 
ATOM     40  C   UNL A   1      42.648  25.108  28.384  1.00  0.00    -0.014 A 
BRANCH  40  41
ATOM     41  C   UNL A   1      42.685  26.416  28.983  1.00  0.00     0.031 A 
ATOM     42  C   UNL A   1      41.475  27.232  28.837  1.00  0.00     0.074 A 
ATOM     43  C   UNL A   1      43.723  26.723  29.790  1.00  0.00     0.049 A 
ATOM     44  N   UNL A   1      41.446  28.498  29.024  1.00  0.00    -0.248 NA
ATOM     45  C   UNL A   1      40.191  26.689  28.393  1.00  0.00     0.031 C 
ATOM     46  C   UNL A   1      43.828  27.805  30.761  1.00  0.00     0.029 A 
ATOM     47  N   UNL A   1      45.015  26.174  29.748  1.00  0.00    -0.354 N 
ATOM     48  C   UNL A   1      40.124  28.868  29.075  1.00  0.00     0.074 A 
ATOM     49  C   UNL A   1      39.403  27.762  28.506  1.00  0.00     0.031 C 
ATOM     50  C   UNL A   1      45.130  28.058  30.989  1.00  0.00     0.029 A 
ATOM     51  C   UNL A   1      45.886  27.248  30.051  1.00  0.00     0.049 A 
ATOM     52  H   UNL A   1      45.262  25.242  29.551  1.00  0.00     0.167 HD
ATOM     53  C   UNL A   1      39.825  30.004  29.762  1.00  0.00     0.037 A 
ATOM     54  C   UNL A   1      46.722  27.744  29.089  1.00  0.00     0.037 A 
ATOM     55  C   UNL A   1      41.068  30.697  30.114  1.00  0.00     0.049 A 
ATOM     56  C   UNL A   1      46.408  29.183  28.741  1.00  0.00     0.074 A 
ATOM     57  C   UNL A   1      41.794  30.799  31.288  1.00  0.00     0.029 A 
ATOM     58  N   UNL A   1      41.912  31.105  29.087  1.00  0.00    -0.354 N 
ATOM     59  N   UNL A   1      45.234  29.733  28.902  1.00  0.00    -0.248 NA
ATOM     60  C   UNL A   1      47.400  30.122  28.233  1.00  0.00     0.031 C 
ATOM     61  C   UNL A   1      43.110  31.219  30.944  1.00  0.00     0.029 A 
ATOM     62  C   UNL A   1      43.167  31.404  29.572  1.00  0.00     0.049 A 
ATOM     63  H   UNL A   1      41.649  31.170  28.141  1.00  0.00     0.167 HD
ATOM     64  C   UNL A   1      45.296  31.064  28.567  1.00  0.00     0.074 A 
ATOM     65  C   UNL A   1      46.676  31.254  28.157  1.00  0.00     0.031 C 
ATOM     66  C   UNL A   1      44.207  31.889  28.672  1.00  0.00     0.037 A 
BRANCH  53  67
ATOM     67  C   UNL A   1      38.480  30.397  30.333  1.00  0.00     0.064 A 
ATOM     68  C   UNL A   1      37.464  30.850  29.459  1.00  0.00     0.173 A 
ATOM     69  C   UNL A   1      38.142  30.465  31.701  1.00  0.00     0.173 A 
ATOM     70  F   UNL A   1      37.627  30.824  28.129  1.00  0.00    -0.203 F 
ATOM     71  C   UNL A   1      36.245  31.363  29.916  1.00  0.00     0.198 A 
ATOM     72  C   UNL A   1      36.910  30.948  32.155  1.00  0.00     0.198 A 
ATOM     73  F   UNL A   1      38.986  30.108  32.669  1.00  0.00    -0.203 F 
ATOM     74  F   UNL A   1      35.349  31.826  29.035  1.00  0.00    -0.200 F 
ATOM     75  C   UNL A   1      35.968  31.411  31.265  1.00  0.00     0.200 A 
ATOM     76  F   UNL A   1      36.660  30.981  33.473  1.00  0.00    -0.200 F 
ATOM     77  F   UNL A   1      34.805  31.906  31.706  1.00  0.00    -0.200 F 
ENDBRANCH  53  67
BRANCH  54  78
ATOM     78  C   UNL A   1      47.177  26.676  28.147  1.00  0.00     0.064 A 
ATOM     79  C   UNL A   1      46.579  26.652  26.869  1.00  0.00     0.173 A 
ATOM     80  C   UNL A   1      48.429  26.062  28.281  1.00  0.00     0.173 A 
ATOM     81  F   UNL A   1      45.371  27.210  26.686  1.00  0.00    -0.203 F 
ATOM     82  C   UNL A   1      47.279  26.215  25.747  1.00  0.00     0.198 A 
ATOM     83  C   UNL A   1      49.111  25.586  27.157  1.00  0.00     0.198 A 
ATOM     84  F   UNL A   1      49.051  26.040  29.469  1.00  0.00    -0.203 F 
ATOM     85  F   UNL A   1      46.750  26.373  24.524  1.00  0.00    -0.200 F 
ATOM     86  C   UNL A   1      48.561  25.715  25.888  1.00  0.00     0.200 A 
ATOM     87  F   UNL A   1      50.354  25.099  27.289  1.00  0.00    -0.200 F 
ATOM     88  F   UNL A   1      49.282  25.401  24.802  1.00  0.00    -0.200 F 
ENDBRANCH  54  78
BRANCH  66  89
ATOM     89  C   UNL A   1      44.011  33.258  28.030  1.00  0.00     0.064 A 
ATOM     90  C   UNL A   1      43.819  33.480  26.658  1.00  0.00     0.173 A 
ATOM     91  C   UNL A   1      43.862  34.420  28.839  1.00  0.00     0.173 A 
ATOM     92  F   UNL A   1      43.793  32.477  25.775  1.00  0.00    -0.203 F 
ATOM     93  C   UNL A   1      43.576  34.756  26.134  1.00  0.00     0.198 A 
ATOM     94  C   UNL A   1      43.535  35.673  28.322  1.00  0.00     0.198 A 
ATOM     95  F   UNL A   1      43.995  34.387  30.172  1.00  0.00    -0.203 F 
ATOM     96  F   UNL A   1      43.462  34.913  24.807  1.00  0.00    -0.200 F 
ATOM     97  C   UNL A   1      43.417  35.847  26.965  1.00  0.00     0.200 A 
ATOM     98  F   UNL A   1      43.316  36.699  29.156  1.00  0.00    -0.200 F 
ATOM     99  F   UNL A   1      43.128  37.053  26.460  1.00  0.00    -0.200 F 
ENDBRANCH  66  89
ENDBRANCH  40  41
ENDBRANCH  32  35
ENDBRANCH  30  31
ENDBRANCH  29  30
ENDBRANCH  28  29
ENDBRANCH  27  28
ENDBRANCH   1  27
TORSDOF 17
ENDMDL
