MODEL 1
REMARK VINA RESULT:     -13.5      0.000      0.000
REMARK SMILES NS(=O)(=O)c1ccc(-n2nc(C(=O)NCCCCCCNC(=O)c3ccc(-c4c5nc(c(-c6c(F)c(F)c(F)c(F)c6F)c6ccc([nH]6)c(-c6c(F)c(F)c(F)c(F)c6F)c6nc(c(-c7c(F)c(F)c(F)c(F)c7F)c7ccc4[nH]7)C=C6)C=C5)cc3)cc2-c2cc3ccccc3s2)cc1
REMARK SMILES IDX 17 1 16 2 15 3 14 4 12 5 13 6 11 8 9 9 10 10 88 11 87 12
REMARK SMILES IDX 8 13 5 14 6 15 99 16 7 17 98 18 2 19 3 20 4 21 1 22 89 25
REMARK SMILES IDX 90 26 97 27 91 28 96 29 92 30 95 31 93 32 94 33 18 34 19 35
REMARK SMILES IDX 20 36 21 37 22 38 23 40 24 41 25 42 86 43 26 44 85 45 27 46
REMARK SMILES IDX 28 47 29 48 79 49 30 50 84 51 78 52 80 53 31 54 83 55 77 56
REMARK SMILES IDX 76 57 32 59 64 60 44 61 63 62 45 63 48 64 62 65 81 66 46 67
REMARK SMILES IDX 47 68 61 70 82 71 49 72 33 73 34 74 42 75 35 76 36 77 40 78
REMARK SMILES IDX 43 79 37 80 38 81 41 82 39 83 65 84 66 85 74 86 67 87 68 88
REMARK SMILES IDX 72 89 75 90 69 91 70 92 73 93 71 94 50 95 51 96 59 97 52 98
REMARK SMILES IDX 53 99 57 100 60 101 54 102 55 103 58 104 56 105
REMARK H PARENT 14 7 1 23 1 24 21 39 80 58 48 69
REMARK Flexibility Score: inf
ROOT
ATOM      1  C   UNL A   1      32.812  28.009  26.944  1.00  0.00     0.002 C 
ENDROOT
BRANCH   1   2
ATOM      2  C   UNL A   1      31.361  27.530  26.791  1.00  0.00     0.021 C 
BRANCH   2   3
ATOM      3  C   UNL A   1      31.225  26.196  26.053  1.00  0.00     0.116 C 
BRANCH   3   4
ATOM      4  N   UNL A   1      30.380  25.267  26.787  1.00  0.00    -0.351 N 
ATOM      5  C   UNL A   1      30.263  23.889  26.780  1.00  0.00     0.271 C 
ATOM      6  O   UNL A   1      29.508  23.405  27.626  1.00  0.00    -0.267 OA
ATOM      7  H   UNL A   1      29.766  25.711  27.418  1.00  0.00     0.163 HD
BRANCH   5   8
ATOM      8  C   UNL A   1      31.051  23.055  25.851  1.00  0.00     0.151 A 
ATOM      9  N   UNL A   1      32.505  21.582  25.268  1.00  0.00    -0.231 N 
ATOM     10  N   UNL A   1      31.612  21.892  26.242  1.00  0.00    -0.162 NA
ATOM     11  C   UNL A   1      32.502  22.528  24.271  1.00  0.00     0.085 A 
ATOM     12  C   UNL A   1      31.356  23.270  24.492  1.00  0.00     0.066 A 
BRANCH   9  13
ATOM     13  C   UNL A   1      33.040  20.282  25.170  1.00  0.00     0.065 A 
ATOM     14  C   UNL A   1      33.932  17.697  24.752  1.00  0.00     0.082 A 
ATOM     15  C   UNL A   1      34.830  18.765  24.627  1.00  0.00     0.024 A 
ATOM     16  C   UNL A   1      32.594  17.912  25.097  1.00  0.00     0.024 A 
ATOM     17  C   UNL A   1      34.375  20.072  24.812  1.00  0.00     0.030 A 
ATOM     18  C   UNL A   1      32.153  19.208  25.335  1.00  0.00     0.030 A 
BRANCH  14  19
ATOM     19  S   UNL A   1      34.489  16.044  24.475  1.00  0.00     0.238 S 
ATOM     20  O   UNL A   1      35.564  15.740  25.381  1.00  0.00    -0.207 OA
ATOM     21  O   UNL A   1      34.585  15.829  23.045  1.00  0.00    -0.207 OA
BRANCH  19  22
ATOM     22  N   UNL A   1      33.180  15.136  25.004  1.00  0.00    -0.225 NA
ATOM     23  H   UNL A   1      33.065  14.321  24.401  1.00  0.00     0.137 HD
ATOM     24  H   UNL A   1      32.334  15.706  24.969  1.00  0.00     0.137 HD
ENDBRANCH  19  22
ENDBRANCH  14  19
ENDBRANCH   9  13
BRANCH  11  25
ATOM     25  C   UNL A   1      33.515  22.841  23.299  1.00  0.00     0.054 A 
ATOM     26  C   UNL A   1      33.274  23.293  22.006  1.00  0.00     0.031 A 
ATOM     27  S   UNL A   1      34.852  23.807  23.862  1.00  0.00    -0.134 S 
ATOM     28  C   UNL A   1      33.252  24.745  22.103  1.00  0.00    -0.007 A 
ATOM     29  C   UNL A   1      34.022  25.178  23.194  1.00  0.00     0.035 A 
ATOM     30  C   UNL A   1      32.493  25.704  21.398  1.00  0.00     0.009 A 
ATOM     31  C   UNL A   1      34.028  26.509  23.631  1.00  0.00     0.019 A 
ATOM     32  C   UNL A   1      32.441  27.021  21.867  1.00  0.00     0.001 A 
ATOM     33  C   UNL A   1      33.192  27.413  22.972  1.00  0.00     0.001 A 
ENDBRANCH  11  25
ENDBRANCH   5   8
ENDBRANCH   3   4
ENDBRANCH   2   3
ENDBRANCH   1   2
BRANCH   1  34
ATOM     34  C   UNL A   1      33.145  29.376  26.315  1.00  0.00     0.002 C 
BRANCH  34  35
ATOM     35  C   UNL A   1      33.079  30.593  27.246  1.00  0.00     0.021 C 
BRANCH  35  36
ATOM     36  C   UNL A   1      34.436  31.075  27.728  1.00  0.00     0.116 C 
BRANCH  36  37
ATOM     37  N   UNL A   1      34.371  31.791  29.005  1.00  0.00    -0.352 N 
ATOM     38  C   UNL A   1      35.214  31.648  30.094  1.00  0.00     0.251 C 
ATOM     39  H   UNL A   1      33.646  32.449  29.099  1.00  0.00     0.163 HD
ATOM     40  O   UNL A   1      34.880  31.994  31.219  1.00  0.00    -0.269 OA
BRANCH  38  41
ATOM     41  C   UNL A   1      36.553  31.086  29.853  1.00  0.00     0.039 A 
ATOM     42  C   UNL A   1      37.673  31.881  29.596  1.00  0.00     0.014 A 
ATOM     43  C   UNL A   1      36.663  29.702  29.950  1.00  0.00     0.014 A 
ATOM     44  C   UNL A   1      38.918  31.262  29.505  1.00  0.00     0.010 A 
ATOM     45  C   UNL A   1      37.895  29.134  30.079  1.00  0.00     0.010 A 
ATOM     46  C   UNL A   1      39.017  29.885  29.764  1.00  0.00    -0.014 A 
BRANCH  46  47
ATOM     47  C   UNL A   1      40.299  29.199  29.848  1.00  0.00     0.031 A 
ATOM     48  C   UNL A   1      40.798  29.055  31.239  1.00  0.00     0.074 A 
ATOM     49  C   UNL A   1      40.828  28.546  28.787  1.00  0.00     0.049 A 
ATOM     50  N   UNL A   1      41.847  29.602  31.754  1.00  0.00    -0.248 NA
ATOM     51  C   UNL A   1      39.945  28.368  32.225  1.00  0.00     0.031 C 
ATOM     52  C   UNL A   1      40.255  28.387  27.442  1.00  0.00     0.029 A 
ATOM     53  N   UNL A   1      41.961  27.792  28.707  1.00  0.00    -0.354 N 
ATOM     54  C   UNL A   1      41.915  29.134  33.064  1.00  0.00     0.074 A 
ATOM     55  C   UNL A   1      40.626  28.569  33.355  1.00  0.00     0.031 C 
ATOM     56  C   UNL A   1      40.912  27.417  26.769  1.00  0.00     0.029 A 
ATOM     57  C   UNL A   1      42.057  27.007  27.556  1.00  0.00     0.049 A 
ATOM     58  H   UNL A   1      42.655  27.801  29.404  1.00  0.00     0.167 HD
ATOM     59  C   UNL A   1      43.125  28.983  33.670  1.00  0.00     0.037 A 
ATOM     60  C   UNL A   1      43.010  26.083  27.275  1.00  0.00     0.037 A 
ATOM     61  C   UNL A   1      44.134  29.745  32.970  1.00  0.00     0.049 A 
ATOM     62  C   UNL A   1      44.171  26.384  28.145  1.00  0.00     0.074 A 
ATOM     63  C   UNL A   1      44.332  31.081  32.689  1.00  0.00     0.029 A 
ATOM     64  N   UNL A   1      44.932  29.055  32.092  1.00  0.00    -0.354 N 
ATOM     65  N   UNL A   1      44.886  27.470  28.036  1.00  0.00    -0.248 NA
ATOM     66  C   UNL A   1      44.224  25.726  29.438  1.00  0.00     0.031 C 
ATOM     67  C   UNL A   1      44.875  31.107  31.368  1.00  0.00     0.029 A 
ATOM     68  C   UNL A   1      45.064  29.791  30.945  1.00  0.00     0.049 A 
ATOM     69  H   UNL A   1      45.341  28.176  32.258  1.00  0.00     0.167 HD
ATOM     70  C   UNL A   1      45.107  27.876  29.344  1.00  0.00     0.074 A 
ATOM     71  C   UNL A   1      44.750  26.718  30.163  1.00  0.00     0.031 C 
ATOM     72  C   UNL A   1      45.265  29.200  29.641  1.00  0.00     0.037 A 
BRANCH  59  73
ATOM     73  C   UNL A   1      43.487  27.817  34.570  1.00  0.00     0.064 A 
ATOM     74  C   UNL A   1      43.381  26.508  34.049  1.00  0.00     0.173 A 
ATOM     75  C   UNL A   1      43.611  27.893  35.975  1.00  0.00     0.173 A 
ATOM     76  F   UNL A   1      43.254  26.308  32.728  1.00  0.00    -0.203 F 
ATOM     77  C   UNL A   1      43.294  25.385  34.876  1.00  0.00     0.198 A 
ATOM     78  C   UNL A   1      43.574  26.765  36.793  1.00  0.00     0.198 A 
ATOM     79  F   UNL A   1      43.663  29.054  36.635  1.00  0.00    -0.203 F 
ATOM     80  F   UNL A   1      43.049  24.182  34.339  1.00  0.00    -0.200 F 
ATOM     81  C   UNL A   1      43.378  25.515  36.248  1.00  0.00     0.200 A 
ATOM     82  F   UNL A   1      43.640  26.917  38.124  1.00  0.00    -0.200 F 
ATOM     83  F   UNL A   1      43.223  24.452  37.047  1.00  0.00    -0.200 F 
ENDBRANCH  59  73
BRANCH  60  84
ATOM     84  C   UNL A   1      42.861  24.787  26.565  1.00  0.00     0.064 A 
ATOM     85  C   UNL A   1      43.589  24.499  25.397  1.00  0.00     0.173 A 
ATOM     86  C   UNL A   1      42.215  23.697  27.180  1.00  0.00     0.173 A 
ATOM     87  F   UNL A   1      44.284  25.465  24.780  1.00  0.00    -0.203 F 
ATOM     88  C   UNL A   1      43.673  23.197  24.884  1.00  0.00     0.198 A 
ATOM     89  C   UNL A   1      42.298  22.400  26.668  1.00  0.00     0.198 A 
ATOM     90  F   UNL A   1      41.573  23.853  28.347  1.00  0.00    -0.203 F 
ATOM     91  F   UNL A   1      44.422  22.951  23.800  1.00  0.00    -0.200 F 
ATOM     92  C   UNL A   1      43.035  22.148  25.525  1.00  0.00     0.200 A 
ATOM     93  F   UNL A   1      41.715  21.388  27.326  1.00  0.00    -0.200 F 
ATOM     94  F   UNL A   1      43.164  20.894  25.071  1.00  0.00    -0.200 F 
ENDBRANCH  60  84
BRANCH  72  95
ATOM     95  C   UNL A   1      45.473  30.151  28.489  1.00  0.00     0.064 A 
ATOM     96  C   UNL A   1      44.440  30.823  27.812  1.00  0.00     0.173 A 
ATOM     97  C   UNL A   1      46.787  30.493  28.147  1.00  0.00     0.173 A 
ATOM     98  F   UNL A   1      43.158  30.626  28.139  1.00  0.00    -0.203 F 
ATOM     99  C   UNL A   1      44.711  31.759  26.814  1.00  0.00     0.198 A 
ATOM    100  C   UNL A   1      47.057  31.454  27.176  1.00  0.00     0.198 A 
ATOM    101  F   UNL A   1      47.817  29.925  28.794  1.00  0.00    -0.203 F 
ATOM    102  F   UNL A   1      43.704  32.376  26.177  1.00  0.00    -0.200 F 
ATOM    103  C   UNL A   1      46.021  32.079  26.503  1.00  0.00     0.200 A 
ATOM    104  F   UNL A   1      48.327  31.795  26.914  1.00  0.00    -0.200 F 
ATOM    105  F   UNL A   1      46.286  33.008  25.573  1.00  0.00    -0.200 F 
ENDBRANCH  72  95
ENDBRANCH  46  47
ENDBRANCH  38  41
ENDBRANCH  36  37
ENDBRANCH  35  36
ENDBRANCH  34  35
ENDBRANCH   1  34
TORSDOF 17
ENDMDL
MODEL 2
REMARK VINA RESULT:     -13.3      3.064      9.041
REMARK SMILES NS(=O)(=O)c1ccc(-n2nc(C(=O)NCCCCCCNC(=O)c3ccc(-c4c5nc(c(-c6c(F)c(F)c(F)c(F)c6F)c6ccc([nH]6)c(-c6c(F)c(F)c(F)c(F)c6F)c6nc(c(-c7c(F)c(F)c(F)c(F)c7F)c7ccc4[nH]7)C=C6)C=C5)cc3)cc2-c2cc3ccccc3s2)cc1
REMARK SMILES IDX 17 1 16 2 15 3 14 4 12 5 13 6 11 8 9 9 10 10 88 11 87 12
REMARK SMILES IDX 8 13 5 14 6 15 99 16 7 17 98 18 2 19 3 20 4 21 1 22 89 25
REMARK SMILES IDX 90 26 97 27 91 28 96 29 92 30 95 31 93 32 94 33 18 34 19 35
REMARK SMILES IDX 20 36 21 37 22 38 23 40 24 41 25 42 86 43 26 44 85 45 27 46
REMARK SMILES IDX 28 47 29 48 79 49 30 50 84 51 78 52 80 53 31 54 83 55 77 56
REMARK SMILES IDX 76 57 32 59 64 60 44 61 63 62 45 63 48 64 62 65 81 66 46 67
REMARK SMILES IDX 47 68 61 70 82 71 49 72 33 73 34 74 42 75 35 76 36 77 40 78
REMARK SMILES IDX 43 79 37 80 38 81 41 82 39 83 65 84 66 85 74 86 67 87 68 88
REMARK SMILES IDX 72 89 75 90 69 91 70 92 73 93 71 94 50 95 51 96 59 97 52 98
REMARK SMILES IDX 53 99 57 100 60 101 54 102 55 103 58 104 56 105
REMARK H PARENT 14 7 1 23 1 24 21 39 80 58 48 69
REMARK Flexibility Score: inf
ROOT
ATOM      1  C   UNL A   1      41.138  22.889  26.928  1.00  0.00     0.002 C 
ENDROOT
BRANCH   1   2
ATOM      2  C   UNL A   1      39.690  23.306  27.224  1.00  0.00     0.021 C 
BRANCH   2   3
ATOM      3  C   UNL A   1      38.755  23.193  26.016  1.00  0.00     0.116 C 
BRANCH   3   4
ATOM      4  N   UNL A   1      38.539  21.805  25.640  1.00  0.00    -0.351 N 
ATOM      5  C   UNL A   1      37.508  21.153  24.989  1.00  0.00     0.271 C 
ATOM      6  O   UNL A   1      37.699  19.964  24.727  1.00  0.00    -0.267 OA
ATOM      7  H   UNL A   1      39.279  21.209  25.901  1.00  0.00     0.163 HD
BRANCH   5   8
ATOM      8  C   UNL A   1      36.282  21.868  24.582  1.00  0.00     0.151 A 
ATOM      9  N   UNL A   1      34.712  23.332  24.714  1.00  0.00    -0.231 N 
ATOM     10  N   UNL A   1      36.027  23.130  24.986  1.00  0.00    -0.162 NA
ATOM     11  C   UNL A   1      34.147  22.220  24.136  1.00  0.00     0.085 A 
ATOM     12  C   UNL A   1      35.221  21.432  23.764  1.00  0.00     0.066 A 
BRANCH   9  13
ATOM     13  C   UNL A   1      34.173  24.634  24.698  1.00  0.00     0.065 A 
ATOM     14  C   UNL A   1      33.348  27.273  24.791  1.00  0.00     0.082 A 
ATOM     15  C   UNL A   1      33.585  26.667  23.551  1.00  0.00     0.024 A 
ATOM     16  C   UNL A   1      33.509  26.564  25.986  1.00  0.00     0.024 A 
ATOM     17  C   UNL A   1      34.026  25.344  23.503  1.00  0.00     0.030 A 
ATOM     18  C   UNL A   1      33.896  25.230  25.937  1.00  0.00     0.030 A 
BRANCH  14  19
ATOM     19  S   UNL A   1      32.832  28.960  24.861  1.00  0.00     0.238 S 
ATOM     20  O   UNL A   1      33.545  29.639  25.909  1.00  0.00    -0.207 OA
ATOM     21  O   UNL A   1      31.388  29.001  24.742  1.00  0.00    -0.207 OA
BRANCH  19  22
ATOM     22  N   UNL A   1      33.443  29.577  23.424  1.00  0.00    -0.225 NA
ATOM     23  H   UNL A   1      34.340  30.030  23.602  1.00  0.00     0.137 HD
ATOM     24  H   UNL A   1      32.789  30.259  23.041  1.00  0.00     0.137 HD
ENDBRANCH  19  22
ENDBRANCH  14  19
ENDBRANCH   9  13
BRANCH  11  25
ATOM     25  C   UNL A   1      32.766  21.826  24.064  1.00  0.00     0.054 A 
ATOM     26  C   UNL A   1      32.197  21.082  23.036  1.00  0.00     0.031 A 
ATOM     27  S   UNL A   1      32.076  21.163  25.521  1.00  0.00    -0.134 S 
ATOM     28  C   UNL A   1      32.330  19.692  23.445  1.00  0.00    -0.007 A 
ATOM     29  C   UNL A   1      32.389  19.594  24.844  1.00  0.00     0.035 A 
ATOM     30  C   UNL A   1      32.547  18.523  22.684  1.00  0.00     0.009 A 
ATOM     31  C   UNL A   1      32.699  18.397  25.503  1.00  0.00     0.019 A 
ATOM     32  C   UNL A   1      32.921  17.340  23.329  1.00  0.00     0.001 A 
ATOM     33  C   UNL A   1      33.003  17.283  24.719  1.00  0.00     0.001 A 
ENDBRANCH  11  25
ENDBRANCH   5   8
ENDBRANCH   3   4
ENDBRANCH   2   3
ENDBRANCH   1   2
BRANCH   1  34
ATOM     34  C   UNL A   1      41.787  21.928  27.942  1.00  0.00     0.002 C 
BRANCH  34  35
ATOM     35  C   UNL A   1      42.319  20.601  27.386  1.00  0.00     0.021 C 
BRANCH  35  36
ATOM     36  C   UNL A   1      42.765  20.674  25.937  1.00  0.00     0.116 C 
BRANCH  36  37
ATOM     37  N   UNL A   1      44.174  20.322  25.750  1.00  0.00    -0.352 N 
ATOM     38  C   UNL A   1      45.228  21.179  25.482  1.00  0.00     0.251 C 
ATOM     39  H   UNL A   1      44.399  19.366  25.824  1.00  0.00     0.163 HD
ATOM     40  O   UNL A   1      46.273  20.782  24.984  1.00  0.00    -0.269 OA
BRANCH  38  41
ATOM     41  C   UNL A   1      45.066  22.596  25.844  1.00  0.00     0.039 A 
ATOM     42  C   UNL A   1      44.347  23.501  25.057  1.00  0.00     0.014 A 
ATOM     43  C   UNL A   1      45.626  22.988  27.056  1.00  0.00     0.014 A 
ATOM     44  C   UNL A   1      44.145  24.790  25.546  1.00  0.00     0.010 A 
ATOM     45  C   UNL A   1      45.242  24.166  27.623  1.00  0.00     0.010 A 
ATOM     46  C   UNL A   1      44.587  25.106  26.842  1.00  0.00    -0.014 A 
BRANCH  46  47
ATOM     47  C   UNL A   1      44.272  26.375  27.484  1.00  0.00     0.031 A 
ATOM     48  C   UNL A   1      45.144  27.491  27.037  1.00  0.00     0.074 A 
ATOM     49  C   UNL A   1      43.141  26.546  28.206  1.00  0.00     0.049 A 
ATOM     50  N   UNL A   1      46.002  28.145  27.744  1.00  0.00    -0.248 NA
ATOM     51  C   UNL A   1      45.200  27.807  25.598  1.00  0.00     0.031 C 
ATOM     52  C   UNL A   1      42.069  25.570  28.455  1.00  0.00     0.029 A 
ATOM     53  N   UNL A   1      42.651  27.670  28.800  1.00  0.00    -0.354 N 
ATOM     54  C   UNL A   1      46.534  29.114  26.897  1.00  0.00     0.074 A 
ATOM     55  C   UNL A   1      46.173  28.721  25.562  1.00  0.00     0.031 C 
ATOM     56  C   UNL A   1      40.974  26.198  28.938  1.00  0.00     0.029 A 
ATOM     57  C   UNL A   1      41.316  27.581  29.200  1.00  0.00     0.049 A 
ATOM     58  H   UNL A   1      43.194  28.479  28.938  1.00  0.00     0.167 HD
ATOM     59  C   UNL A   1      46.954  30.305  27.406  1.00  0.00     0.037 A 
ATOM     60  C   UNL A   1      40.547  28.579  29.705  1.00  0.00     0.037 A 
ATOM     61  C   UNL A   1      47.160  30.196  28.832  1.00  0.00     0.049 A 
ATOM     62  C   UNL A   1      41.471  29.623  30.207  1.00  0.00     0.074 A 
ATOM     63  C   UNL A   1      47.982  29.446  29.648  1.00  0.00     0.029 A 
ATOM     64  N   UNL A   1      46.150  30.657  29.640  1.00  0.00    -0.354 N 
ATOM     65  N   UNL A   1      42.277  29.440  31.216  1.00  0.00    -0.248 NA
ATOM     66  C   UNL A   1      41.849  30.678  29.284  1.00  0.00     0.031 C 
ATOM     67  C   UNL A   1      47.181  29.120  30.784  1.00  0.00     0.029 A 
ATOM     68  C   UNL A   1      45.946  29.756  30.650  1.00  0.00     0.049 A 
ATOM     69  H   UNL A   1      45.654  31.498  29.513  1.00  0.00     0.167 HD
ATOM     70  C   UNL A   1      43.471  30.027  30.821  1.00  0.00     0.074 A 
ATOM     71  C   UNL A   1      43.120  30.847  29.660  1.00  0.00     0.031 C 
ATOM     72  C   UNL A   1      44.664  29.552  31.285  1.00  0.00     0.037 A 
BRANCH  59  73
ATOM     73  C   UNL A   1      46.728  31.645  26.732  1.00  0.00     0.064 A 
ATOM     74  C   UNL A   1      47.794  32.571  26.703  1.00  0.00     0.173 A 
ATOM     75  C   UNL A   1      45.461  32.182  26.414  1.00  0.00     0.173 A 
ATOM     76  F   UNL A   1      49.045  32.181  26.990  1.00  0.00    -0.203 F 
ATOM     77  C   UNL A   1      47.586  33.936  26.484  1.00  0.00     0.198 A 
ATOM     78  C   UNL A   1      45.265  33.536  26.148  1.00  0.00     0.198 A 
ATOM     79  F   UNL A   1      44.338  31.458  26.452  1.00  0.00    -0.203 F 
ATOM     80  F   UNL A   1      48.609  34.792  26.610  1.00  0.00    -0.200 F 
ATOM     81  C   UNL A   1      46.320  34.419  26.219  1.00  0.00     0.200 A 
ATOM     82  F   UNL A   1      44.024  33.986  25.910  1.00  0.00    -0.200 F 
ATOM     83  F   UNL A   1      46.104  35.734  26.082  1.00  0.00    -0.200 F 
ENDBRANCH  59  73
BRANCH  60  84
ATOM     84  C   UNL A   1      39.101  28.834  29.484  1.00  0.00     0.064 A 
ATOM     85  C   UNL A   1      38.212  29.018  30.559  1.00  0.00     0.173 A 
ATOM     86  C   UNL A   1      38.616  29.187  28.210  1.00  0.00     0.173 A 
ATOM     87  F   UNL A   1      38.610  28.766  31.814  1.00  0.00    -0.203 F 
ATOM     88  C   UNL A   1      36.923  29.535  30.368  1.00  0.00     0.198 A 
ATOM     89  C   UNL A   1      37.331  29.700  28.020  1.00  0.00     0.198 A 
ATOM     90  F   UNL A   1      39.417  29.135  27.135  1.00  0.00    -0.203 F 
ATOM     91  F   UNL A   1      36.123  29.749  31.422  1.00  0.00    -0.200 F 
ATOM     92  C   UNL A   1      36.487  29.883  29.100  1.00  0.00     0.200 A 
ATOM     93  F   UNL A   1      36.942  30.077  26.794  1.00  0.00    -0.200 F 
ATOM     94  F   UNL A   1      35.278  30.432  28.923  1.00  0.00    -0.200 F 
ENDBRANCH  60  84
BRANCH  72  95
ATOM     95  C   UNL A   1      44.624  28.580  32.437  1.00  0.00     0.064 A 
ATOM     96  C   UNL A   1      44.475  28.949  33.787  1.00  0.00     0.173 A 
ATOM     97  C   UNL A   1      44.603  27.211  32.145  1.00  0.00     0.173 A 
ATOM     98  F   UNL A   1      44.392  30.234  34.146  1.00  0.00    -0.203 F 
ATOM     99  C   UNL A   1      44.355  27.991  34.794  1.00  0.00     0.198 A 
ATOM    100  C   UNL A   1      44.446  26.257  33.147  1.00  0.00     0.198 A 
ATOM    101  F   UNL A   1      44.688  26.798  30.871  1.00  0.00    -0.203 F 
ATOM    102  F   UNL A   1      44.226  28.373  36.074  1.00  0.00    -0.200 F 
ATOM    103  C   UNL A   1      44.333  26.646  34.472  1.00  0.00     0.200 A 
ATOM    104  F   UNL A   1      44.376  24.959  32.823  1.00  0.00    -0.200 F 
ATOM    105  F   UNL A   1      44.176  25.724  35.432  1.00  0.00    -0.200 F 
ENDBRANCH  72  95
ENDBRANCH  46  47
ENDBRANCH  38  41
ENDBRANCH  36  37
ENDBRANCH  35  36
ENDBRANCH  34  35
ENDBRANCH   1  34
TORSDOF 17
ENDMDL
MODEL 3
REMARK VINA RESULT:     -13.3      5.954     10.580
REMARK SMILES NS(=O)(=O)c1ccc(-n2nc(C(=O)NCCCCCCNC(=O)c3ccc(-c4c5nc(c(-c6c(F)c(F)c(F)c(F)c6F)c6ccc([nH]6)c(-c6c(F)c(F)c(F)c(F)c6F)c6nc(c(-c7c(F)c(F)c(F)c(F)c7F)c7ccc4[nH]7)C=C6)C=C5)cc3)cc2-c2cc3ccccc3s2)cc1
REMARK SMILES IDX 17 1 16 2 15 3 14 4 12 5 13 6 11 8 9 9 10 10 88 11 87 12
REMARK SMILES IDX 8 13 5 14 6 15 99 16 7 17 98 18 2 19 3 20 4 21 1 22 89 25
REMARK SMILES IDX 90 26 97 27 91 28 96 29 92 30 95 31 93 32 94 33 18 34 19 35
REMARK SMILES IDX 20 36 21 37 22 38 23 40 24 41 25 42 86 43 26 44 85 45 27 46
REMARK SMILES IDX 28 47 29 48 79 49 30 50 84 51 78 52 80 53 31 54 83 55 77 56
REMARK SMILES IDX 76 57 32 59 64 60 44 61 63 62 45 63 48 64 62 65 81 66 46 67
REMARK SMILES IDX 47 68 61 70 82 71 49 72 33 73 34 74 42 75 35 76 36 77 40 78
REMARK SMILES IDX 43 79 37 80 38 81 41 82 39 83 65 84 66 85 74 86 67 87 68 88
REMARK SMILES IDX 72 89 75 90 69 91 70 92 73 93 71 94 50 95 51 96 59 97 52 98
REMARK SMILES IDX 53 99 57 100 60 101 54 102 55 103 58 104 56 105
REMARK H PARENT 14 7 1 23 1 24 21 39 80 58 48 69
REMARK Flexibility Score: inf
ROOT
ATOM      1  C   UNL A   1      42.267  28.327  35.503  1.00  0.00     0.002 C 
ENDROOT
BRANCH   1   2
ATOM      2  C   UNL A   1      41.194  29.423  35.571  1.00  0.00     0.021 C 
BRANCH   2   3
ATOM      3  C   UNL A   1      40.553  29.745  34.218  1.00  0.00     0.116 C 
BRANCH   3   4
ATOM      4  N   UNL A   1      39.362  28.942  33.990  1.00  0.00    -0.351 N 
ATOM      5  C   UNL A   1      38.169  29.188  33.335  1.00  0.00     0.271 C 
ATOM      6  O   UNL A   1      37.401  28.230  33.231  1.00  0.00    -0.267 OA
ATOM      7  H   UNL A   1      39.417  28.039  34.381  1.00  0.00     0.163 HD
BRANCH   5   8
ATOM      8  C   UNL A   1      37.874  30.509  32.743  1.00  0.00     0.151 A 
ATOM      9  N   UNL A   1      36.651  32.157  32.103  1.00  0.00    -0.231 N 
ATOM     10  N   UNL A   1      36.750  31.190  33.050  1.00  0.00    -0.162 NA
ATOM     11  C   UNL A   1      37.701  32.097  31.219  1.00  0.00     0.085 A 
ATOM     12  C   UNL A   1      38.627  31.267  31.825  1.00  0.00     0.066 A 
BRANCH   9  13
ATOM     13  C   UNL A   1      35.789  33.257  32.286  1.00  0.00     0.065 A 
ATOM     14  C   UNL A   1      34.242  35.545  32.448  1.00  0.00     0.082 A 
ATOM     15  C   UNL A   1      33.663  34.350  31.999  1.00  0.00     0.024 A 
ATOM     16  C   UNL A   1      35.586  35.600  32.829  1.00  0.00     0.024 A 
ATOM     17  C   UNL A   1      34.449  33.202  31.893  1.00  0.00     0.030 A 
ATOM     18  C   UNL A   1      36.356  34.443  32.775  1.00  0.00     0.030 A 
BRANCH  14  19
ATOM     19  S   UNL A   1      33.265  37.013  32.544  1.00  0.00     0.238 S 
ATOM     20  O   UNL A   1      32.909  37.442  31.219  1.00  0.00    -0.207 OA
ATOM     21  O   UNL A   1      33.869  37.899  33.519  1.00  0.00    -0.207 OA
BRANCH  19  22
ATOM     22  N   UNL A   1      31.843  36.448  33.235  1.00  0.00    -0.225 NA
ATOM     23  H   UNL A   1      31.242  37.237  33.470  1.00  0.00     0.137 HD
ATOM     24  H   UNL A   1      32.061  35.923  34.081  1.00  0.00     0.137 HD
ENDBRANCH  19  22
ENDBRANCH  14  19
ENDBRANCH   9  13
BRANCH  11  25
ATOM     25  C   UNL A   1      37.804  32.611  29.879  1.00  0.00     0.054 A 
ATOM     26  C   UNL A   1      38.032  31.846  28.741  1.00  0.00     0.031 A 
ATOM     27  S   UNL A   1      36.583  33.760  29.399  1.00  0.00    -0.134 S 
ATOM     28  C   UNL A   1      36.713  31.481  28.249  1.00  0.00    -0.007 A 
ATOM     29  C   UNL A   1      35.758  32.429  28.648  1.00  0.00     0.035 A 
ATOM     30  C   UNL A   1      36.261  30.309  27.604  1.00  0.00     0.009 A 
ATOM     31  C   UNL A   1      34.382  32.234  28.471  1.00  0.00     0.019 A 
ATOM     32  C   UNL A   1      34.887  30.076  27.481  1.00  0.00     0.001 A 
ATOM     33  C   UNL A   1      33.963  31.023  27.917  1.00  0.00     0.001 A 
ENDBRANCH  11  25
ENDBRANCH   5   8
ENDBRANCH   3   4
ENDBRANCH   2   3
ENDBRANCH   1   2
BRANCH   1  34
ATOM     34  C   UNL A   1      42.043  27.102  36.411  1.00  0.00     0.002 C 
BRANCH  34  35
ATOM     35  C   UNL A   1      41.373  25.883  35.763  1.00  0.00     0.021 C 
BRANCH  35  36
ATOM     36  C   UNL A   1      42.045  24.562  36.093  1.00  0.00     0.116 C 
BRANCH  36  37
ATOM     37  N   UNL A   1      43.232  24.715  36.937  1.00  0.00    -0.352 N 
ATOM     38  C   UNL A   1      44.554  24.530  36.572  1.00  0.00     0.251 C 
ATOM     39  H   UNL A   1      43.071  24.980  37.871  1.00  0.00     0.163 HD
ATOM     40  O   UNL A   1      45.429  24.316  37.400  1.00  0.00    -0.269 OA
BRANCH  38  41
ATOM     41  C   UNL A   1      44.889  24.626  35.142  1.00  0.00     0.039 A 
ATOM     42  C   UNL A   1      45.045  23.503  34.323  1.00  0.00     0.014 A 
ATOM     43  C   UNL A   1      44.991  25.912  34.620  1.00  0.00     0.014 A 
ATOM     44  C   UNL A   1      45.238  23.700  32.958  1.00  0.00     0.010 A 
ATOM     45  C   UNL A   1      44.958  26.094  33.270  1.00  0.00     0.010 A 
ATOM     46  C   UNL A   1      45.178  25.005  32.440  1.00  0.00    -0.014 A 
BRANCH  46  47
ATOM     47  C   UNL A   1      45.207  25.277  31.010  1.00  0.00     0.031 A 
ATOM     48  C   UNL A   1      46.365  26.111  30.595  1.00  0.00     0.074 A 
ATOM     49  C   UNL A   1      44.405  24.616  30.142  1.00  0.00     0.049 A 
ATOM     50  N   UNL A   1      46.334  27.307  30.113  1.00  0.00    -0.248 NA
ATOM     51  C   UNL A   1      47.724  25.635  30.910  1.00  0.00     0.031 C 
ATOM     52  C   UNL A   1      43.431  23.556  30.438  1.00  0.00     0.029 A 
ATOM     53  N   UNL A   1      44.356  24.682  28.782  1.00  0.00    -0.354 N 
ATOM     54  C   UNL A   1      47.658  27.642  29.842  1.00  0.00     0.074 A 
ATOM     55  C   UNL A   1      48.466  26.682  30.544  1.00  0.00     0.031 C 
ATOM     56  C   UNL A   1      43.066  22.930  29.296  1.00  0.00     0.029 A 
ATOM     57  C   UNL A   1      43.637  23.650  28.176  1.00  0.00     0.049 A 
ATOM     58  H   UNL A   1      44.792  25.400  28.268  1.00  0.00     0.167 HD
ATOM     59  C   UNL A   1      47.949  28.490  28.817  1.00  0.00     0.037 A 
ATOM     60  C   UNL A   1      43.524  23.404  26.846  1.00  0.00     0.037 A 
ATOM     61  C   UNL A   1      46.772  29.238  28.437  1.00  0.00     0.049 A 
ATOM     62  C   UNL A   1      43.877  24.661  26.145  1.00  0.00     0.074 A 
ATOM     63  C   UNL A   1      45.935  30.134  29.071  1.00  0.00     0.029 A 
ATOM     64  N   UNL A   1      46.078  28.786  27.343  1.00  0.00    -0.354 N 
ATOM     65  N   UNL A   1      43.162  25.750  26.224  1.00  0.00    -0.248 NA
ATOM     66  C   UNL A   1      45.267  24.849  25.771  1.00  0.00     0.031 C 
ATOM     67  C   UNL A   1      44.626  29.825  28.588  1.00  0.00     0.029 A 
ATOM     68  C   UNL A   1      44.739  28.823  27.623  1.00  0.00     0.049 A 
ATOM     69  H   UNL A   1      46.477  28.483  26.496  1.00  0.00     0.167 HD
ATOM     70  C   UNL A   1      44.094  26.770  26.357  1.00  0.00     0.074 A 
ATOM     71  C   UNL A   1      45.372  26.164  25.985  1.00  0.00     0.031 C 
ATOM     72  C   UNL A   1      43.780  27.909  27.043  1.00  0.00     0.037 A 
BRANCH  59  73
ATOM     73  C   UNL A   1      49.121  28.311  27.871  1.00  0.00     0.064 A 
ATOM     74  C   UNL A   1      49.948  29.426  27.608  1.00  0.00     0.173 A 
ATOM     75  C   UNL A   1      49.278  27.227  26.981  1.00  0.00     0.173 A 
ATOM     76  F   UNL A   1      49.887  30.519  28.384  1.00  0.00    -0.203 F 
ATOM     77  C   UNL A   1      50.776  29.486  26.484  1.00  0.00     0.198 A 
ATOM     78  C   UNL A   1      50.142  27.272  25.888  1.00  0.00     0.198 A 
ATOM     79  F   UNL A   1      48.533  26.119  27.051  1.00  0.00    -0.203 F 
ATOM     80  F   UNL A   1      51.430  30.621  26.201  1.00  0.00    -0.200 F 
ATOM     81  C   UNL A   1      50.862  28.415  25.617  1.00  0.00     0.200 A 
ATOM     82  F   UNL A   1      50.197  26.227  25.051  1.00  0.00    -0.200 F 
ATOM     83  F   UNL A   1      51.597  28.495  24.501  1.00  0.00    -0.200 F 
ENDBRANCH  59  73
BRANCH  60  84
ATOM     84  C   UNL A   1      43.461  22.094  26.150  1.00  0.00     0.064 A 
ATOM     85  C   UNL A   1      44.624  21.429  25.723  1.00  0.00     0.173 A 
ATOM     86  C   UNL A   1      42.274  21.336  26.146  1.00  0.00     0.173 A 
ATOM     87  F   UNL A   1      45.808  22.057  25.751  1.00  0.00    -0.203 F 
ATOM     88  C   UNL A   1      44.600  20.084  25.329  1.00  0.00     0.198 A 
ATOM     89  C   UNL A   1      42.251  19.996  25.752  1.00  0.00     0.198 A 
ATOM     90  F   UNL A   1      41.131  21.851  26.622  1.00  0.00    -0.203 F 
ATOM     91  F   UNL A   1      45.739  19.468  24.981  1.00  0.00    -0.200 F 
ATOM     92  C   UNL A   1      43.416  19.367  25.352  1.00  0.00     0.200 A 
ATOM     93  F   UNL A   1      41.107  19.302  25.826  1.00  0.00    -0.200 F 
ATOM     94  F   UNL A   1      43.402  18.066  25.032  1.00  0.00    -0.200 F 
ENDBRANCH  60  84
BRANCH  72  95
ATOM     95  C   UNL A   1      42.331  28.134  27.392  1.00  0.00     0.064 A 
ATOM     96  C   UNL A   1      41.385  28.720  26.531  1.00  0.00     0.173 A 
ATOM     97  C   UNL A   1      41.854  27.611  28.601  1.00  0.00     0.173 A 
ATOM     98  F   UNL A   1      41.735  29.161  25.319  1.00  0.00    -0.203 F 
ATOM     99  C   UNL A   1      40.038  28.814  26.884  1.00  0.00     0.198 A 
ATOM    100  C   UNL A   1      40.504  27.673  28.936  1.00  0.00     0.198 A 
ATOM    101  F   UNL A   1      42.698  26.993  29.441  1.00  0.00    -0.203 F 
ATOM    102  F   UNL A   1      39.161  29.389  26.048  1.00  0.00    -0.200 F 
ATOM    103  C   UNL A   1      39.599  28.284  28.084  1.00  0.00     0.200 A 
ATOM    104  F   UNL A   1      40.078  27.114  30.077  1.00  0.00    -0.200 F 
ATOM    105  F   UNL A   1      38.299  28.336  28.409  1.00  0.00    -0.200 F 
ENDBRANCH  72  95
ENDBRANCH  46  47
ENDBRANCH  38  41
ENDBRANCH  36  37
ENDBRANCH  35  36
ENDBRANCH  34  35
ENDBRANCH   1  34
TORSDOF 17
ENDMDL
