MODEL 1
REMARK VINA RESULT:     -13.9      0.000      0.000
REMARK SMILES Cc1cc(F)cc(N[C@](C)(C(=O)NCCCCCCNC(=O)c2ccc(-c3c4nc(c(-c5c(F)c(F)c(F)c(F)c5F)c5ccc([nH]5)c(-c5c(F)c(F)c(F)c(F)c5F)c5nc(c(-c6c(F)c(F)c(F)c(F)c6F)c6ccc3[nH]6)C=C5)C=C4)cc2)c2cccc(F)c2)c1
REMARK SMILES IDX 16 1 15 2 14 3 13 4 11 5 12 6 9 8 10 9 8 10 7 12 1 13 2 14
REMARK SMILES IDX 3 15 93 16 4 17 5 18 6 19 86 20 87 21 92 22 88 23 90 24
REMARK SMILES IDX 89 25 91 26 17 27 18 28 19 29 20 30 21 31 22 33 23 34 24 35
REMARK SMILES IDX 85 36 25 37 84 38 26 39 27 40 28 41 78 42 29 43 83 44 77 45
REMARK SMILES IDX 79 46 30 47 82 48 76 49 75 50 31 52 63 53 43 54 62 55 44 56
REMARK SMILES IDX 47 57 61 58 80 59 45 60 46 61 60 63 81 64 48 65 32 66 33 67
REMARK SMILES IDX 41 68 34 69 35 70 39 71 42 72 36 73 37 74 40 75 38 76 64 77
REMARK SMILES IDX 65 78 73 79 66 80 67 81 71 82 74 83 68 84 69 85 72 86 70 87
REMARK SMILES IDX 49 88 50 89 58 90 51 91 52 92 56 93 59 94 53 95 54 96 57 97
REMARK SMILES IDX 55 98
REMARK H PARENT 13 7 8 11 20 32 79 51 47 62
REMARK Flexibility Score: inf
ROOT
ATOM      1  C   UNL A   1      32.251  27.138  26.419  1.00  0.00     0.002 C 
ENDROOT
BRANCH   1   2
ATOM      2  C   UNL A   1      33.163  26.149  25.694  1.00  0.00     0.021 C 
BRANCH   2   3
ATOM      3  C   UNL A   1      33.287  24.829  26.458  1.00  0.00     0.116 C 
BRANCH   3   4
ATOM      4  N   UNL A   1      32.118  24.034  26.229  1.00  0.00    -0.354 N 
ATOM      5  C   UNL A   1      32.070  22.763  25.752  1.00  0.00     0.250 C 
ATOM      6  O   UNL A   1      31.090  22.506  25.037  1.00  0.00    -0.272 OA
ATOM      7  H   UNL A   1      31.254  24.454  26.442  1.00  0.00     0.163 HD
BRANCH   5   8
ATOM      8  C   UNL A   1      33.173  21.662  26.089  1.00  0.00     0.139 C 
ATOM      9  C   UNL A   1      33.742  21.592  27.531  1.00  0.00     0.051 C 
BRANCH   8  10
ATOM     10  N   UNL A   1      32.475  20.352  25.880  1.00  0.00    -0.368 N 
ATOM     11  H   UNL A   1      31.722  20.143  26.479  1.00  0.00     0.161 HD
BRANCH  10  12
ATOM     12  C   UNL A   1      32.801  19.399  24.905  1.00  0.00     0.038 A 
ATOM     13  C   UNL A   1      34.762  16.105  24.880  1.00  0.00     0.044 C 
ATOM     14  C   UNL A   1      33.921  17.258  24.424  1.00  0.00    -0.046 A 
ATOM     15  C   UNL A   1      33.489  17.321  23.099  1.00  0.00     0.042 A 
ATOM     16  C   UNL A   1      33.556  18.285  25.314  1.00  0.00     0.029 A 
ATOM     17  C   UNL A   1      32.738  18.408  22.684  1.00  0.00     0.125 A 
ATOM     18  F   UNL A   1      32.331  18.479  21.409  1.00  0.00    -0.207 F 
ATOM     19  C   UNL A   1      32.402  19.433  23.565  1.00  0.00     0.065 A 
ENDBRANCH  10  12
ENDBRANCH   8  10
BRANCH   8  20
ATOM     20  C   UNL A   1      34.353  21.865  25.079  1.00  0.00    -0.011 A 
ATOM     21  C   UNL A   1      34.248  22.635  23.906  1.00  0.00     0.007 A 
ATOM     22  C   UNL A   1      35.646  21.366  25.366  1.00  0.00     0.046 A 
ATOM     23  C   UNL A   1      35.368  22.916  23.102  1.00  0.00     0.003 A 
ATOM     24  C   UNL A   1      36.760  21.687  24.592  1.00  0.00     0.123 A 
ATOM     25  C   UNL A   1      36.633  22.463  23.460  1.00  0.00     0.039 A 
ATOM     26  F   UNL A   1      37.967  21.250  24.974  1.00  0.00    -0.207 F 
ENDBRANCH   8  20
ENDBRANCH   5   8
ENDBRANCH   3   4
ENDBRANCH   2   3
ENDBRANCH   1   2
BRANCH   1  27
ATOM     27  C   UNL A   1      32.646  28.603  26.189  1.00  0.00     0.002 C 
BRANCH  27  28
ATOM     28  C   UNL A   1      33.450  29.222  27.343  1.00  0.00     0.021 C 
BRANCH  28  29
ATOM     29  C   UNL A   1      34.923  29.195  27.032  1.00  0.00     0.116 C 
BRANCH  29  30
ATOM     30  N   UNL A   1      35.460  30.540  27.208  1.00  0.00    -0.352 N 
ATOM     31  C   UNL A   1      36.429  30.912  28.101  1.00  0.00     0.251 C 
ATOM     32  H   UNL A   1      35.090  31.247  26.631  1.00  0.00     0.163 HD
ATOM     33  O   UNL A   1      36.499  32.034  28.559  1.00  0.00    -0.269 OA
BRANCH  31  34
ATOM     34  C   UNL A   1      37.433  29.890  28.393  1.00  0.00     0.039 A 
ATOM     35  C   UNL A   1      37.311  29.015  29.473  1.00  0.00     0.014 A 
ATOM     36  C   UNL A   1      38.539  29.875  27.543  1.00  0.00     0.014 A 
ATOM     37  C   UNL A   1      38.357  28.144  29.730  1.00  0.00     0.010 A 
ATOM     38  C   UNL A   1      39.437  28.876  27.649  1.00  0.00     0.010 A 
ATOM     39  C   UNL A   1      39.415  28.127  28.823  1.00  0.00    -0.014 A 
BRANCH  39  40
ATOM     40  C   UNL A   1      40.680  27.468  29.019  1.00  0.00     0.031 A 
ATOM     41  C   UNL A   1      40.767  26.052  28.695  1.00  0.00     0.074 A 
ATOM     42  C   UNL A   1      41.699  28.342  29.178  1.00  0.00     0.049 A 
ATOM     43  N   UNL A   1      41.710  25.285  29.092  1.00  0.00    -0.248 NA
ATOM     44  C   UNL A   1      39.751  25.360  27.905  1.00  0.00     0.031 C 
ATOM     45  C   UNL A   1      43.129  28.216  28.971  1.00  0.00     0.029 A 
ATOM     46  N   UNL A   1      41.558  29.656  29.671  1.00  0.00    -0.354 N 
ATOM     47  C   UNL A   1      41.645  24.150  28.315  1.00  0.00     0.074 A 
ATOM     48  C   UNL A   1      40.321  24.160  27.744  1.00  0.00     0.031 C 
ATOM     49  C   UNL A   1      43.741  29.211  29.647  1.00  0.00     0.029 A 
ATOM     50  C   UNL A   1      42.719  29.914  30.415  1.00  0.00     0.049 A 
ATOM     51  H   UNL A   1      40.799  30.267  29.523  1.00  0.00     0.167 HD
ATOM     52  C   UNL A   1      42.808  23.467  28.101  1.00  0.00     0.037 A 
ATOM     53  C   UNL A   1      42.573  29.899  31.777  1.00  0.00     0.037 A 
ATOM     54  C   UNL A   1      43.904  24.154  28.796  1.00  0.00     0.049 A 
ATOM     55  C   UNL A   1      43.168  28.650  32.396  1.00  0.00     0.074 A 
ATOM     56  C   UNL A   1      44.863  25.075  28.404  1.00  0.00     0.029 A 
ATOM     57  N   UNL A   1      43.849  24.237  30.172  1.00  0.00    -0.354 N 
ATOM     58  N   UNL A   1      43.566  27.611  31.711  1.00  0.00    -0.248 NA
ATOM     59  C   UNL A   1      43.325  28.456  33.833  1.00  0.00     0.031 C 
ATOM     60  C   UNL A   1      45.333  25.747  29.578  1.00  0.00     0.029 A 
ATOM     61  C   UNL A   1      44.662  25.232  30.674  1.00  0.00     0.049 A 
ATOM     62  H   UNL A   1      43.290  23.652  30.734  1.00  0.00     0.167 HD
ATOM     63  C   UNL A   1      44.058  26.659  32.550  1.00  0.00     0.074 A 
ATOM     64  C   UNL A   1      43.841  27.214  33.876  1.00  0.00     0.031 C 
ATOM     65  C   UNL A   1      44.615  25.492  32.105  1.00  0.00     0.037 A 
BRANCH  52  66
ATOM     66  C   UNL A   1      43.038  22.366  27.094  1.00  0.00     0.064 A 
ATOM     67  C   UNL A   1      42.310  21.160  27.203  1.00  0.00     0.173 A 
ATOM     68  C   UNL A   1      43.939  22.407  26.012  1.00  0.00     0.173 A 
ATOM     69  F   UNL A   1      41.349  21.003  28.124  1.00  0.00    -0.203 F 
ATOM     70  C   UNL A   1      42.528  20.066  26.362  1.00  0.00     0.198 A 
ATOM     71  C   UNL A   1      44.177  21.302  25.185  1.00  0.00     0.198 A 
ATOM     72  F   UNL A   1      44.585  23.524  25.667  1.00  0.00    -0.203 F 
ATOM     73  F   UNL A   1      41.807  18.949  26.529  1.00  0.00    -0.200 F 
ATOM     74  C   UNL A   1      43.477  20.128  25.366  1.00  0.00     0.200 A 
ATOM     75  F   UNL A   1      45.084  21.392  24.202  1.00  0.00    -0.200 F 
ATOM     76  F   UNL A   1      43.697  19.076  24.569  1.00  0.00    -0.200 F 
ENDBRANCH  52  66
BRANCH  53  77
ATOM     77  C   UNL A   1      41.276  30.549  32.183  1.00  0.00     0.064 A 
ATOM     78  C   UNL A   1      41.047  31.876  31.750  1.00  0.00     0.173 A 
ATOM     79  C   UNL A   1      40.149  29.793  32.535  1.00  0.00     0.173 A 
ATOM     80  F   UNL A   1      42.085  32.658  31.412  1.00  0.00    -0.203 F 
ATOM     81  C   UNL A   1      39.759  32.355  31.510  1.00  0.00     0.198 A 
ATOM     82  C   UNL A   1      38.857  30.295  32.333  1.00  0.00     0.198 A 
ATOM     83  F   UNL A   1      40.283  28.530  32.963  1.00  0.00    -0.203 F 
ATOM     84  F   UNL A   1      39.588  33.557  30.939  1.00  0.00    -0.200 F 
ATOM     85  C   UNL A   1      38.666  31.551  31.776  1.00  0.00     0.200 A 
ATOM     86  F   UNL A   1      37.794  29.519  32.595  1.00  0.00    -0.200 F 
ATOM     87  F   UNL A   1      37.433  31.975  31.469  1.00  0.00    -0.200 F 
ENDBRANCH  53  77
BRANCH  65  88
ATOM     88  C   UNL A   1      45.173  24.468  33.044  1.00  0.00     0.064 A 
ATOM     89  C   UNL A   1      46.495  24.531  33.500  1.00  0.00     0.173 A 
ATOM     90  C   UNL A   1      44.430  23.333  33.439  1.00  0.00     0.173 A 
ATOM     91  F   UNL A   1      47.312  25.518  33.103  1.00  0.00    -0.203 F 
ATOM     92  C   UNL A   1      47.011  23.572  34.369  1.00  0.00     0.198 A 
ATOM     93  C   UNL A   1      44.973  22.336  34.238  1.00  0.00     0.198 A 
ATOM     94  F   UNL A   1      43.144  23.169  33.096  1.00  0.00    -0.203 F 
ATOM     95  F   UNL A   1      48.247  23.721  34.860  1.00  0.00    -0.200 F 
ATOM     96  C   UNL A   1      46.254  22.470  34.729  1.00  0.00     0.200 A 
ATOM     97  F   UNL A   1      44.238  21.257  34.541  1.00  0.00    -0.200 F 
ATOM     98  F   UNL A   1      46.755  21.544  35.554  1.00  0.00    -0.200 F 
ENDBRANCH  65  88
ENDBRANCH  39  40
ENDBRANCH  31  34
ENDBRANCH  29  30
ENDBRANCH  28  29
ENDBRANCH  27  28
ENDBRANCH   1  27
TORSDOF 16
ENDMDL
MODEL 2
REMARK VINA RESULT:     -13.7      3.762     10.068
REMARK SMILES Cc1cc(F)cc(N[C@](C)(C(=O)NCCCCCCNC(=O)c2ccc(-c3c4nc(c(-c5c(F)c(F)c(F)c(F)c5F)c5ccc([nH]5)c(-c5c(F)c(F)c(F)c(F)c5F)c5nc(c(-c6c(F)c(F)c(F)c(F)c6F)c6ccc3[nH]6)C=C5)C=C4)cc2)c2cccc(F)c2)c1
REMARK SMILES IDX 16 1 15 2 14 3 13 4 11 5 12 6 9 8 10 9 8 10 7 12 1 13 2 14
REMARK SMILES IDX 3 15 93 16 4 17 5 18 6 19 86 20 87 21 92 22 88 23 90 24
REMARK SMILES IDX 89 25 91 26 17 27 18 28 19 29 20 30 21 31 22 33 23 34 24 35
REMARK SMILES IDX 85 36 25 37 84 38 26 39 27 40 28 41 78 42 29 43 83 44 77 45
REMARK SMILES IDX 79 46 30 47 82 48 76 49 75 50 31 52 63 53 43 54 62 55 44 56
REMARK SMILES IDX 47 57 61 58 80 59 45 60 46 61 60 63 81 64 48 65 32 66 33 67
REMARK SMILES IDX 41 68 34 69 35 70 39 71 42 72 36 73 37 74 40 75 38 76 64 77
REMARK SMILES IDX 65 78 73 79 66 80 67 81 71 82 74 83 68 84 69 85 72 86 70 87
REMARK SMILES IDX 49 88 50 89 58 90 51 91 52 92 56 93 59 94 53 95 54 96 57 97
REMARK SMILES IDX 55 98
REMARK H PARENT 13 7 8 11 20 32 79 51 47 62
REMARK Flexibility Score: inf
ROOT
ATOM      1  C   UNL A   1      34.944  21.322  25.790  1.00  0.00     0.002 C 
ENDROOT
BRANCH   1   2
ATOM      2  C   UNL A   1      33.519  21.164  26.319  1.00  0.00     0.021 C 
BRANCH   2   3
ATOM      3  C   UNL A   1      33.066  22.399  27.100  1.00  0.00     0.116 C 
BRANCH   3   4
ATOM      4  N   UNL A   1      31.641  22.518  27.019  1.00  0.00    -0.354 N 
ATOM      5  C   UNL A   1      30.930  23.576  26.552  1.00  0.00     0.250 C 
ATOM      6  O   UNL A   1      29.852  23.783  27.129  1.00  0.00    -0.272 OA
ATOM      7  H   UNL A   1      31.119  21.746  27.336  1.00  0.00     0.163 HD
BRANCH   5   8
ATOM      8  C   UNL A   1      31.420  24.490  25.341  1.00  0.00     0.139 C 
ATOM      9  C   UNL A   1      32.362  23.873  24.274  1.00  0.00     0.051 C 
BRANCH   8  10
ATOM     10  N   UNL A   1      30.164  24.836  24.598  1.00  0.00    -0.368 N 
ATOM     11  H   UNL A   1      29.453  24.156  24.574  1.00  0.00     0.161 HD
BRANCH  10  12
ATOM     12  C   UNL A   1      29.915  26.046  23.935  1.00  0.00     0.038 A 
ATOM     13  C   UNL A   1      26.855  28.312  23.482  1.00  0.00     0.044 C 
ATOM     14  C   UNL A   1      28.259  27.794  23.411  1.00  0.00    -0.046 A 
ATOM     15  C   UNL A   1      29.235  28.525  22.732  1.00  0.00     0.042 A 
ATOM     16  C   UNL A   1      28.614  26.576  24.018  1.00  0.00     0.029 A 
ATOM     17  C   UNL A   1      30.521  28.020  22.648  1.00  0.00     0.125 A 
ATOM     18  F   UNL A   1      31.459  28.712  21.987  1.00  0.00    -0.207 F 
ATOM     19  C   UNL A   1      30.859  26.801  23.232  1.00  0.00     0.065 A 
ENDBRANCH  10  12
ENDBRANCH   8  10
BRANCH   8  20
ATOM     20  C   UNL A   1      32.102  25.756  25.961  1.00  0.00    -0.011 A 
ATOM     21  C   UNL A   1      33.401  26.181  25.627  1.00  0.00     0.007 A 
ATOM     22  C   UNL A   1      31.381  26.619  26.821  1.00  0.00     0.046 A 
ATOM     23  C   UNL A   1      33.923  27.402  26.091  1.00  0.00     0.003 A 
ATOM     24  C   UNL A   1      31.885  27.848  27.239  1.00  0.00     0.123 A 
ATOM     25  C   UNL A   1      33.153  28.252  26.878  1.00  0.00     0.039 A 
ATOM     26  F   UNL A   1      31.112  28.652  27.982  1.00  0.00    -0.207 F 
ENDBRANCH   8  20
ENDBRANCH   5   8
ENDBRANCH   3   4
ENDBRANCH   2   3
ENDBRANCH   1   2
BRANCH   1  27
ATOM     27  C   UNL A   1      35.505  22.738  25.981  1.00  0.00     0.002 C 
BRANCH  27  28
ATOM     28  C   UNL A   1      36.929  22.926  25.434  1.00  0.00     0.021 C 
BRANCH  28  29
ATOM     29  C   UNL A   1      37.663  23.971  26.230  1.00  0.00     0.116 C 
BRANCH  29  30
ATOM     30  N   UNL A   1      38.742  23.322  26.965  1.00  0.00    -0.352 N 
ATOM     31  C   UNL A   1      39.936  23.891  27.318  1.00  0.00     0.251 C 
ATOM     32  H   UNL A   1      38.598  22.385  27.234  1.00  0.00     0.163 HD
ATOM     33  O   UNL A   1      40.951  23.241  27.468  1.00  0.00    -0.269 OA
BRANCH  31  34
ATOM     34  C   UNL A   1      39.886  25.326  27.594  1.00  0.00     0.039 A 
ATOM     35  C   UNL A   1      40.290  26.278  26.657  1.00  0.00     0.014 A 
ATOM     36  C   UNL A   1      39.445  25.676  28.870  1.00  0.00     0.014 A 
ATOM     37  C   UNL A   1      40.298  27.609  27.041  1.00  0.00     0.010 A 
ATOM     38  C   UNL A   1      39.228  26.974  29.159  1.00  0.00     0.010 A 
ATOM     39  C   UNL A   1      39.798  27.916  28.306  1.00  0.00    -0.014 A 
BRANCH  39  40
ATOM     40  C   UNL A   1      39.918  29.186  28.972  1.00  0.00     0.031 A 
ATOM     41  C   UNL A   1      38.869  30.171  28.756  1.00  0.00     0.074 A 
ATOM     42  C   UNL A   1      40.838  29.164  29.963  1.00  0.00     0.049 A 
ATOM     43  N   UNL A   1      38.990  31.415  29.029  1.00  0.00    -0.248 NA
ATOM     44  C   UNL A   1      37.577  29.830  28.165  1.00  0.00     0.031 C 
ATOM     45  C   UNL A   1      41.010  29.984  31.147  1.00  0.00     0.029 A 
ATOM     46  N   UNL A   1      41.941  28.286  30.013  1.00  0.00    -0.354 N 
ATOM     47  C   UNL A   1      37.717  31.940  29.029  1.00  0.00     0.074 A 
ATOM     48  C   UNL A   1      36.915  30.983  28.307  1.00  0.00     0.031 C 
ATOM     49  C   UNL A   1      42.279  29.832  31.582  1.00  0.00     0.029 A 
ATOM     50  C   UNL A   1      42.986  29.016  30.601  1.00  0.00     0.049 A 
ATOM     51  H   UNL A   1      41.971  27.353  29.699  1.00  0.00     0.167 HD
ATOM     52  C   UNL A   1      37.483  33.021  29.828  1.00  0.00     0.037 A 
ATOM     53  C   UNL A   1      43.972  29.440  29.750  1.00  0.00     0.037 A 
ATOM     54  C   UNL A   1      38.723  33.377  30.531  1.00  0.00     0.049 A 
ATOM     55  C   UNL A   1      43.881  30.929  29.478  1.00  0.00     0.074 A 
ATOM     56  C   UNL A   1      39.233  33.086  31.787  1.00  0.00     0.029 A 
ATOM     57  N   UNL A   1      39.803  33.785  29.775  1.00  0.00    -0.354 N 
ATOM     58  N   UNL A   1      42.865  31.676  29.819  1.00  0.00    -0.248 NA
ATOM     59  C   UNL A   1      44.905  31.683  28.764  1.00  0.00     0.031 C 
ATOM     60  C   UNL A   1      40.652  33.276  31.739  1.00  0.00     0.029 A 
ATOM     61  C   UNL A   1      40.995  33.683  30.461  1.00  0.00     0.049 A 
ATOM     62  H   UNL A   1      39.730  34.112  28.849  1.00  0.00     0.167 HD
ATOM     63  C   UNL A   1      43.085  32.965  29.444  1.00  0.00     0.074 A 
ATOM     64  C   UNL A   1      44.358  32.913  28.741  1.00  0.00     0.031 C 
ATOM     65  C   UNL A   1      42.222  33.984  29.738  1.00  0.00     0.037 A 
BRANCH  52  66
ATOM     66  C   UNL A   1      36.138  33.603  30.193  1.00  0.00     0.064 A 
ATOM     67  C   UNL A   1      35.332  34.178  29.184  1.00  0.00     0.173 A 
ATOM     68  C   UNL A   1      35.573  33.642  31.482  1.00  0.00     0.173 A 
ATOM     69  F   UNL A   1      35.690  34.136  27.893  1.00  0.00    -0.203 F 
ATOM     70  C   UNL A   1      34.117  34.810  29.456  1.00  0.00     0.198 A 
ATOM     71  C   UNL A   1      34.368  34.299  31.760  1.00  0.00     0.198 A 
ATOM     72  F   UNL A   1      36.123  33.003  32.518  1.00  0.00    -0.203 F 
ATOM     73  F   UNL A   1      33.409  35.343  28.451  1.00  0.00    -0.200 F 
ATOM     74  C   UNL A   1      33.644  34.891  30.747  1.00  0.00     0.200 A 
ATOM     75  F   UNL A   1      33.910  34.340  33.019  1.00  0.00    -0.200 F 
ATOM     76  F   UNL A   1      32.486  35.509  31.011  1.00  0.00    -0.200 F 
ENDBRANCH  52  66
BRANCH  53  77
ATOM     77  C   UNL A   1      44.294  28.378  28.732  1.00  0.00     0.064 A 
ATOM     78  C   UNL A   1      44.650  27.097  29.215  1.00  0.00     0.173 A 
ATOM     79  C   UNL A   1      43.824  28.450  27.413  1.00  0.00     0.173 A 
ATOM     80  F   UNL A   1      45.121  26.960  30.466  1.00  0.00    -0.203 F 
ATOM     81  C   UNL A   1      44.377  25.939  28.486  1.00  0.00     0.198 A 
ATOM     82  C   UNL A   1      43.592  27.287  26.669  1.00  0.00     0.198 A 
ATOM     83  F   UNL A   1      43.475  29.629  26.879  1.00  0.00    -0.203 F 
ATOM     84  F   UNL A   1      44.570  24.735  29.046  1.00  0.00    -0.200 F 
ATOM     85  C   UNL A   1      43.822  26.036  27.224  1.00  0.00     0.200 A 
ATOM     86  F   UNL A   1      43.059  27.378  25.441  1.00  0.00    -0.200 F 
ATOM     87  F   UNL A   1      43.481  24.926  26.555  1.00  0.00    -0.200 F 
ENDBRANCH  53  77
BRANCH  65  88
ATOM     88  C   UNL A   1      42.496  35.400  29.337  1.00  0.00     0.064 A 
ATOM     89  C   UNL A   1      43.224  36.269  30.159  1.00  0.00     0.173 A 
ATOM     90  C   UNL A   1      41.951  35.962  28.161  1.00  0.00     0.173 A 
ATOM     91  F   UNL A   1      43.700  35.858  31.343  1.00  0.00    -0.203 F 
ATOM     92  C   UNL A   1      43.470  37.588  29.783  1.00  0.00     0.198 A 
ATOM     93  C   UNL A   1      42.128  37.299  27.830  1.00  0.00     0.198 A 
ATOM     94  F   UNL A   1      41.261  35.228  27.276  1.00  0.00    -0.203 F 
ATOM     95  F   UNL A   1      44.254  38.358  30.548  1.00  0.00    -0.200 F 
ATOM     96  C   UNL A   1      42.914  38.105  28.625  1.00  0.00     0.200 A 
ATOM     97  F   UNL A   1      41.547  37.790  26.727  1.00  0.00    -0.200 F 
ATOM     98  F   UNL A   1      43.142  39.375  28.271  1.00  0.00    -0.200 F 
ENDBRANCH  65  88
ENDBRANCH  39  40
ENDBRANCH  31  34
ENDBRANCH  29  30
ENDBRANCH  28  29
ENDBRANCH  27  28
ENDBRANCH   1  27
TORSDOF 16
ENDMDL
MODEL 3
REMARK VINA RESULT:     -13.6      3.979     10.062
REMARK SMILES Cc1cc(F)cc(N[C@](C)(C(=O)NCCCCCCNC(=O)c2ccc(-c3c4nc(c(-c5c(F)c(F)c(F)c(F)c5F)c5ccc([nH]5)c(-c5c(F)c(F)c(F)c(F)c5F)c5nc(c(-c6c(F)c(F)c(F)c(F)c6F)c6ccc3[nH]6)C=C5)C=C4)cc2)c2cccc(F)c2)c1
REMARK SMILES IDX 16 1 15 2 14 3 13 4 11 5 12 6 9 8 10 9 8 10 7 12 1 13 2 14
REMARK SMILES IDX 3 15 93 16 4 17 5 18 6 19 86 20 87 21 92 22 88 23 90 24
REMARK SMILES IDX 89 25 91 26 17 27 18 28 19 29 20 30 21 31 22 33 23 34 24 35
REMARK SMILES IDX 85 36 25 37 84 38 26 39 27 40 28 41 78 42 29 43 83 44 77 45
REMARK SMILES IDX 79 46 30 47 82 48 76 49 75 50 31 52 63 53 43 54 62 55 44 56
REMARK SMILES IDX 47 57 61 58 80 59 45 60 46 61 60 63 81 64 48 65 32 66 33 67
REMARK SMILES IDX 41 68 34 69 35 70 39 71 42 72 36 73 37 74 40 75 38 76 64 77
REMARK SMILES IDX 65 78 73 79 66 80 67 81 71 82 74 83 68 84 69 85 72 86 70 87
REMARK SMILES IDX 49 88 50 89 58 90 51 91 52 92 56 93 59 94 53 95 54 96 57 97
REMARK SMILES IDX 55 98
REMARK H PARENT 13 7 8 11 20 32 79 51 47 62
REMARK Flexibility Score: inf
ROOT
ATOM      1  C   UNL A   1      34.383  22.517  24.218  1.00  0.00     0.002 C 
ENDROOT
BRANCH   1   2
ATOM      2  C   UNL A   1      34.805  23.619  23.246  1.00  0.00     0.021 C 
BRANCH   2   3
ATOM      3  C   UNL A   1      34.040  24.919  23.498  1.00  0.00     0.116 C 
BRANCH   3   4
ATOM      4  N   UNL A   1      32.753  24.844  22.873  1.00  0.00    -0.354 N 
ATOM      5  C   UNL A   1      31.769  25.779  22.904  1.00  0.00     0.250 C 
ATOM      6  O   UNL A   1      30.614  25.328  22.914  1.00  0.00    -0.272 OA
ATOM      7  H   UNL A   1      32.561  24.025  22.363  1.00  0.00     0.163 HD
BRANCH   5   8
ATOM      8  C   UNL A   1      32.055  27.348  22.913  1.00  0.00     0.139 C 
ATOM      9  C   UNL A   1      33.407  27.863  22.351  1.00  0.00     0.051 C 
BRANCH   8  10
ATOM     10  N   UNL A   1      31.010  27.927  22.008  1.00  0.00    -0.368 N 
ATOM     11  H   UNL A   1      31.137  27.807  21.039  1.00  0.00     0.161 HD
BRANCH  10  12
ATOM     12  C   UNL A   1      29.866  28.624  22.422  1.00  0.00     0.038 A 
ATOM     13  C   UNL A   1      28.773  32.299  22.398  1.00  0.00     0.044 C 
ATOM     14  C   UNL A   1      28.745  30.813  22.581  1.00  0.00    -0.046 A 
ATOM     15  C   UNL A   1      27.610  30.200  23.115  1.00  0.00     0.042 A 
ATOM     16  C   UNL A   1      29.849  30.017  22.225  1.00  0.00     0.029 A 
ATOM     17  C   UNL A   1      27.610  28.829  23.308  1.00  0.00     0.125 A 
ATOM     18  F   UNL A   1      26.527  28.238  23.832  1.00  0.00    -0.207 F 
ATOM     19  C   UNL A   1      28.717  28.051  22.974  1.00  0.00     0.065 A 
ENDBRANCH  10  12
ENDBRANCH   8  10
BRANCH   8  20
ATOM     20  C   UNL A   1      31.889  27.841  24.391  1.00  0.00    -0.011 A 
ATOM     21  C   UNL A   1      31.375  27.038  25.425  1.00  0.00     0.007 A 
ATOM     22  C   UNL A   1      32.370  29.112  24.788  1.00  0.00     0.046 A 
ATOM     23  C   UNL A   1      31.380  27.463  26.766  1.00  0.00     0.003 A 
ATOM     24  C   UNL A   1      32.415  29.509  26.123  1.00  0.00     0.123 A 
ATOM     25  C   UNL A   1      31.926  28.693  27.120  1.00  0.00     0.039 A 
ATOM     26  F   UNL A   1      32.963  30.692  26.433  1.00  0.00    -0.207 F 
ENDBRANCH   8  20
ENDBRANCH   5   8
ENDBRANCH   3   4
ENDBRANCH   2   3
ENDBRANCH   1   2
BRANCH   1  27
ATOM     27  C   UNL A   1      35.545  21.988  25.069  1.00  0.00     0.002 C 
BRANCH  27  28
ATOM     28  C   UNL A   1      36.925  22.512  24.640  1.00  0.00     0.021 C 
BRANCH  28  29
ATOM     29  C   UNL A   1      37.539  23.336  25.739  1.00  0.00     0.116 C 
BRANCH  29  30
ATOM     30  N   UNL A   1      38.573  22.542  26.393  1.00  0.00    -0.352 N 
ATOM     31  C   UNL A   1      39.823  22.975  26.744  1.00  0.00     0.251 C 
ATOM     32  H   UNL A   1      38.351  21.606  26.602  1.00  0.00     0.163 HD
ATOM     33  O   UNL A   1      40.778  22.228  26.816  1.00  0.00    -0.269 OA
BRANCH  31  34
ATOM     34  C   UNL A   1      39.912  24.386  27.119  1.00  0.00     0.039 A 
ATOM     35  C   UNL A   1      40.492  25.342  26.284  1.00  0.00     0.014 A 
ATOM     36  C   UNL A   1      39.414  24.703  28.382  1.00  0.00     0.014 A 
ATOM     37  C   UNL A   1      40.619  26.636  26.763  1.00  0.00     0.010 A 
ATOM     38  C   UNL A   1      39.322  25.997  28.748  1.00  0.00     0.010 A 
ATOM     39  C   UNL A   1      40.058  26.918  28.007  1.00  0.00    -0.014 A 
BRANCH  39  40
ATOM     40  C   UNL A   1      40.268  28.121  28.770  1.00  0.00     0.031 A 
ATOM     41  C   UNL A   1      39.270  29.175  28.667  1.00  0.00     0.074 A 
ATOM     42  C   UNL A   1      41.210  27.967  29.728  1.00  0.00     0.049 A 
ATOM     43  N   UNL A   1      39.468  30.384  29.036  1.00  0.00    -0.248 NA
ATOM     44  C   UNL A   1      37.946  28.954  28.090  1.00  0.00     0.031 C 
ATOM     45  C   UNL A   1      41.458  28.675  30.969  1.00  0.00     0.029 A 
ATOM     46  N   UNL A   1      42.263  27.030  29.674  1.00  0.00    -0.354 N 
ATOM     47  C   UNL A   1      38.227  30.975  29.117  1.00  0.00     0.074 A 
ATOM     48  C   UNL A   1      37.354  30.126  28.345  1.00  0.00     0.031 C 
ATOM     49  C   UNL A   1      42.727  28.420  31.352  1.00  0.00     0.029 A 
ATOM     50  C   UNL A   1      43.362  27.650  30.287  1.00  0.00     0.049 A 
ATOM     51  H   UNL A   1      42.232  26.125  29.284  1.00  0.00     0.167 HD
ATOM     52  C   UNL A   1      38.076  31.998  30.008  1.00  0.00     0.037 A 
ATOM     53  C   UNL A   1      44.348  28.089  29.444  1.00  0.00     0.037 A 
ATOM     54  C   UNL A   1      39.351  32.227  30.700  1.00  0.00     0.049 A 
ATOM     55  C   UNL A   1      44.334  29.598  29.296  1.00  0.00     0.074 A 
ATOM     56  C   UNL A   1      39.876  31.806  31.912  1.00  0.00     0.029 A 
ATOM     57  N   UNL A   1      40.432  32.637  29.947  1.00  0.00    -0.354 N 
ATOM     58  N   UNL A   1      43.371  30.368  29.728  1.00  0.00    -0.248 NA
ATOM     59  C   UNL A   1      45.380  30.353  28.615  1.00  0.00     0.031 C 
ATOM     60  C   UNL A   1      41.301  31.922  31.837  1.00  0.00     0.029 A 
ATOM     61  C   UNL A   1      41.634  32.414  30.586  1.00  0.00     0.049 A 
ATOM     62  H   UNL A   1      40.354  33.042  29.054  1.00  0.00     0.167 HD
ATOM     63  C   UNL A   1      43.654  31.671  29.451  1.00  0.00     0.074 A 
ATOM     64  C   UNL A   1      44.903  31.607  28.709  1.00  0.00     0.031 C 
ATOM     65  C   UNL A   1      42.858  32.707  29.854  1.00  0.00     0.037 A 
BRANCH  52  66
ATOM     66  C   UNL A   1      36.775  32.620  30.460  1.00  0.00     0.064 A 
ATOM     67  C   UNL A   1      36.107  33.530  29.609  1.00  0.00     0.173 A 
ATOM     68  C   UNL A   1      36.126  32.387  31.688  1.00  0.00     0.173 A 
ATOM     69  F   UNL A   1      36.550  33.784  28.370  1.00  0.00    -0.203 F 
ATOM     70  C   UNL A   1      34.948  34.209  29.989  1.00  0.00     0.198 A 
ATOM     71  C   UNL A   1      34.979  33.087  32.080  1.00  0.00     0.198 A 
ATOM     72  F   UNL A   1      36.532  31.439  32.537  1.00  0.00    -0.203 F 
ATOM     73  F   UNL A   1      34.372  35.066  29.135  1.00  0.00    -0.200 F 
ATOM     74  C   UNL A   1      34.394  34.004  31.234  1.00  0.00     0.200 A 
ATOM     75  F   UNL A   1      34.439  32.852  33.285  1.00  0.00    -0.200 F 
ATOM     76  F   UNL A   1      33.291  34.665  31.605  1.00  0.00    -0.200 F 
ENDBRANCH  52  66
BRANCH  53  77
ATOM     77  C   UNL A   1      44.583  27.099  28.334  1.00  0.00     0.064 A 
ATOM     78  C   UNL A   1      44.203  27.483  27.026  1.00  0.00     0.173 A 
ATOM     79  C   UNL A   1      45.536  26.077  28.443  1.00  0.00     0.173 A 
ATOM     80  F   UNL A   1      43.284  28.447  26.851  1.00  0.00    -0.203 F 
ATOM     81  C   UNL A   1      44.872  27.002  25.900  1.00  0.00     0.198 A 
ATOM     82  C   UNL A   1      46.174  25.566  27.306  1.00  0.00     0.198 A 
ATOM     83  F   UNL A   1      45.941  25.651  29.647  1.00  0.00    -0.203 F 
ATOM     84  F   UNL A   1      44.601  27.516  24.691  1.00  0.00    -0.200 F 
ATOM     85  C   UNL A   1      45.876  26.063  26.045  1.00  0.00     0.200 A 
ATOM     86  F   UNL A   1      47.145  24.651  27.444  1.00  0.00    -0.200 F 
ATOM     87  F   UNL A   1      46.577  25.661  24.977  1.00  0.00    -0.200 F 
ENDBRANCH  53  77
BRANCH  65  88
ATOM     88  C   UNL A   1      43.200  34.134  29.561  1.00  0.00     0.064 A 
ATOM     89  C   UNL A   1      43.433  35.060  30.585  1.00  0.00     0.173 A 
ATOM     90  C   UNL A   1      43.207  34.645  28.244  1.00  0.00     0.173 A 
ATOM     91  F   UNL A   1      43.352  34.694  31.873  1.00  0.00    -0.203 F 
ATOM     92  C   UNL A   1      43.746  36.388  30.307  1.00  0.00     0.198 A 
ATOM     93  C   UNL A   1      43.437  35.988  27.974  1.00  0.00     0.198 A 
ATOM     94  F   UNL A   1      43.029  33.858  27.173  1.00  0.00    -0.203 F 
ATOM     95  F   UNL A   1      44.059  37.218  31.310  1.00  0.00    -0.200 F 
ATOM     96  C   UNL A   1      43.738  36.854  29.003  1.00  0.00     0.200 A 
ATOM     97  F   UNL A   1      43.383  36.427  26.709  1.00  0.00    -0.200 F 
ATOM     98  F   UNL A   1      44.026  38.134  28.738  1.00  0.00    -0.200 F 
ENDBRANCH  65  88
ENDBRANCH  39  40
ENDBRANCH  31  34
ENDBRANCH  29  30
ENDBRANCH  28  29
ENDBRANCH  27  28
ENDBRANCH   1  27
TORSDOF 16
ENDMDL
