MODEL 1
REMARK VINA RESULT:     -11.6      0.000      0.000
REMARK SMILES Cn1cc(/C=C/C(=O)N(CC(=O)NCCCCCCNC(=O)c2ccc(-c3c4nc(c(-c5c(F)c(F)c(F)c(F)c5F)c5ccc([nH]5)c(-c5c(F)c(F)c(F)c(F)c5F)c5nc(c(-c6c(F)c(F)c(F)c(F)c6F)c6ccc3[nH]6)C=C5)C=C4)cc2)C(C)(C)C)cn1
REMARK SMILES IDX 15 1 14 2 13 3 11 4 12 5 10 7 9 8 7 9 8 10 6 11 5 12 4 13
REMARK SMILES IDX 1 14 2 15 3 16 91 17 90 18 86 19 87 20 88 21 89 22 16 23
REMARK SMILES IDX 17 24 18 25 19 26 20 27 21 28 22 30 23 31 24 32 85 33 25 34
REMARK SMILES IDX 84 35 26 36 27 37 28 38 78 39 29 40 83 41 77 42 79 43 30 44
REMARK SMILES IDX 82 45 76 46 75 47 31 49 63 50 43 51 62 52 44 53 47 54 61 55
REMARK SMILES IDX 80 56 45 57 46 58 60 60 81 61 48 62 32 63 33 64 41 65 34 66
REMARK SMILES IDX 35 67 39 68 42 69 36 70 37 71 40 72 38 73 64 74 65 75 73 76
REMARK SMILES IDX 66 77 67 78 71 79 74 80 68 81 69 82 72 83 70 84 49 85 50 86
REMARK SMILES IDX 58 87 51 88 52 89 56 90 59 91 53 92 54 93 57 94 55 95
REMARK H PARENT 13 6 20 29 79 48 47 59
REMARK Flexibility Score: inf
ROOT
ATOM      1  C   UNL A   1      32.347  28.432  26.512  1.00  0.00     0.021 C 
ENDROOT
BRANCH   1   2
ATOM      2  C   UNL A   1      33.838  28.486  26.215  1.00  0.00     0.116 C 
BRANCH   2   3
ATOM      3  N   UNL A   1      34.152  28.816  24.840  1.00  0.00    -0.355 N 
ATOM      4  C   UNL A   1      34.030  28.121  23.677  1.00  0.00     0.239 C 
ATOM      5  O   UNL A   1      34.158  28.781  22.638  1.00  0.00    -0.273 OA
ATOM      6  H   UNL A   1      34.529  29.718  24.724  1.00  0.00     0.163 HD
BRANCH   4   7
ATOM      7  C   UNL A   1      33.590  26.644  23.577  1.00  0.00     0.220 C 
BRANCH   7   8
ATOM      8  N   UNL A   1      32.157  26.347  23.457  1.00  0.00    -0.325 N 
BRANCH   8   9
ATOM      9  C   UNL A   1      31.302  26.967  22.539  1.00  0.00     0.247 C 
ATOM     10  O   UNL A   1      31.075  26.477  21.428  1.00  0.00    -0.270 OA
BRANCH   9  11
ATOM     11  C   UNL A   1      30.589  28.278  22.776  1.00  0.00     0.072 C 
ATOM     12  C   UNL A   1      29.286  28.581  22.894  1.00  0.00     0.017 C 
BRANCH  12  13
ATOM     13  C   UNL A   1      28.703  29.877  22.988  1.00  0.00     0.013 A 
ATOM     14  C   UNL A   1      28.857  33.469  23.083  1.00  0.00     0.173 C 
ATOM     15  N   UNL A   1      28.550  32.059  23.076  1.00  0.00    -0.275 N 
ATOM     16  C   UNL A   1      29.419  31.041  22.821  1.00  0.00     0.116 A 
ATOM     17  N   UNL A   1      27.311  31.636  23.388  1.00  0.00    -0.181 NA
ATOM     18  C   UNL A   1      27.404  30.302  23.328  1.00  0.00     0.143 A 
ENDBRANCH  12  13
ENDBRANCH   9  11
ENDBRANCH   8   9
BRANCH   8  19
ATOM     19  C   UNL A   1      31.605  25.233  24.347  1.00  0.00     0.035 C 
ATOM     20  C   UNL A   1      30.234  25.596  24.948  1.00  0.00     0.034 C 
ATOM     21  C   UNL A   1      31.483  23.914  23.549  1.00  0.00     0.034 C 
ATOM     22  C   UNL A   1      32.503  24.890  25.573  1.00  0.00     0.034 C 
ENDBRANCH   8  19
ENDBRANCH   7   8
ENDBRANCH   4   7
ENDBRANCH   2   3
ENDBRANCH   1   2
BRANCH   1  23
ATOM     23  C   UNL A   1      31.761  29.730  27.060  1.00  0.00     0.002 C 
BRANCH  23  24
ATOM     24  C   UNL A   1      31.539  30.818  26.008  1.00  0.00     0.002 C 
BRANCH  24  25
ATOM     25  C   UNL A   1      31.337  32.227  26.570  1.00  0.00     0.021 C 
BRANCH  25  26
ATOM     26  C   UNL A   1      32.560  32.811  27.269  1.00  0.00     0.116 C 
BRANCH  26  27
ATOM     27  N   UNL A   1      32.381  34.217  27.594  1.00  0.00    -0.352 N 
ATOM     28  C   UNL A   1      32.993  34.964  28.568  1.00  0.00     0.251 C 
ATOM     29  H   UNL A   1      31.728  34.699  27.038  1.00  0.00     0.163 HD
ATOM     30  O   UNL A   1      32.573  36.078  28.855  1.00  0.00    -0.269 OA
BRANCH  28  31
ATOM     31  C   UNL A   1      34.161  34.409  29.283  1.00  0.00     0.039 A 
ATOM     32  C   UNL A   1      33.956  33.721  30.480  1.00  0.00     0.014 A 
ATOM     33  C   UNL A   1      35.451  34.570  28.771  1.00  0.00     0.014 A 
ATOM     34  C   UNL A   1      35.045  33.148  31.140  1.00  0.00     0.010 A 
ATOM     35  C   UNL A   1      36.523  33.932  29.387  1.00  0.00     0.010 A 
ATOM     36  C   UNL A   1      36.333  33.224  30.583  1.00  0.00    -0.014 A 
BRANCH  36  37
ATOM     37  C   UNL A   1      37.494  32.579  31.247  1.00  0.00     0.031 A 
ATOM     38  C   UNL A   1      38.220  31.451  30.569  1.00  0.00     0.074 A 
ATOM     39  C   UNL A   1      37.859  32.973  32.483  1.00  0.00     0.049 A 
ATOM     40  N   UNL A   1      39.220  30.728  31.005  1.00  0.00    -0.248 NA
ATOM     41  C   UNL A   1      37.742  31.067  29.232  1.00  0.00     0.031 C 
ATOM     42  C   UNL A   1      37.204  34.024  33.262  1.00  0.00     0.029 A 
ATOM     43  N   UNL A   1      38.867  32.530  33.303  1.00  0.00    -0.354 N 
ATOM     44  C   UNL A   1      39.480  29.801  30.005  1.00  0.00     0.074 A 
ATOM     45  C   UNL A   1      38.496  30.011  28.966  1.00  0.00     0.031 C 
ATOM     46  C   UNL A   1      37.841  34.162  34.436  1.00  0.00     0.029 A 
ATOM     47  C   UNL A   1      38.922  33.183  34.510  1.00  0.00     0.049 A 
ATOM     48  H   UNL A   1      39.491  31.812  33.049  1.00  0.00     0.167 HD
ATOM     49  C   UNL A   1      40.468  28.875  29.946  1.00  0.00     0.037 A 
ATOM     50  C   UNL A   1      39.746  33.005  35.560  1.00  0.00     0.037 A 
ATOM     51  C   UNL A   1      41.455  28.683  30.974  1.00  0.00     0.049 A 
ATOM     52  C   UNL A   1      40.822  31.956  35.477  1.00  0.00     0.074 A 
ATOM     53  C   UNL A   1      42.531  27.813  30.985  1.00  0.00     0.029 A 
ATOM     54  N   UNL A   1      41.484  29.369  32.181  1.00  0.00    -0.354 N 
ATOM     55  N   UNL A   1      41.107  31.137  34.494  1.00  0.00    -0.248 NA
ATOM     56  C   UNL A   1      41.694  31.809  36.651  1.00  0.00     0.031 C 
ATOM     57  C   UNL A   1      43.176  27.930  32.220  1.00  0.00     0.029 A 
ATOM     58  C   UNL A   1      42.541  28.919  32.955  1.00  0.00     0.049 A 
ATOM     59  H   UNL A   1      40.846  30.070  32.447  1.00  0.00     0.167 HD
ATOM     60  C   UNL A   1      42.207  30.401  34.916  1.00  0.00     0.074 A 
ATOM     61  C   UNL A   1      42.548  30.883  36.238  1.00  0.00     0.031 C 
ATOM     62  C   UNL A   1      42.873  29.415  34.267  1.00  0.00     0.037 A 
BRANCH  49  63
ATOM     63  C   UNL A   1      40.527  27.997  28.728  1.00  0.00     0.064 A 
ATOM     64  C   UNL A   1      41.276  28.357  27.597  1.00  0.00     0.173 A 
ATOM     65  C   UNL A   1      39.858  26.764  28.704  1.00  0.00     0.173 A 
ATOM     66  F   UNL A   1      41.928  29.529  27.561  1.00  0.00    -0.203 F 
ATOM     67  C   UNL A   1      41.325  27.531  26.476  1.00  0.00     0.198 A 
ATOM     68  C   UNL A   1      39.937  25.925  27.595  1.00  0.00     0.198 A 
ATOM     69  F   UNL A   1      39.132  26.368  29.761  1.00  0.00    -0.203 F 
ATOM     70  F   UNL A   1      42.002  27.922  25.387  1.00  0.00    -0.200 F 
ATOM     71  C   UNL A   1      40.662  26.314  26.479  1.00  0.00     0.200 A 
ATOM     72  F   UNL A   1      39.309  24.742  27.607  1.00  0.00    -0.200 F 
ATOM     73  F   UNL A   1      40.717  25.516  25.403  1.00  0.00    -0.200 F 
ENDBRANCH  49  63
BRANCH  50  74
ATOM     74  C   UNL A   1      39.599  33.853  36.773  1.00  0.00     0.064 A 
ATOM     75  C   UNL A   1      38.825  33.425  37.862  1.00  0.00     0.173 A 
ATOM     76  C   UNL A   1      40.217  35.109  36.867  1.00  0.00     0.173 A 
ATOM     77  F   UNL A   1      38.198  32.241  37.813  1.00  0.00    -0.203 F 
ATOM     78  C   UNL A   1      38.653  34.232  38.985  1.00  0.00     0.198 A 
ATOM     79  C   UNL A   1      40.070  35.901  38.004  1.00  0.00     0.198 A 
ATOM     80  F   UNL A   1      40.972  35.563  35.857  1.00  0.00    -0.203 F 
ATOM     81  F   UNL A   1      37.864  33.821  39.987  1.00  0.00    -0.200 F 
ATOM     82  C   UNL A   1      39.280  35.466  39.058  1.00  0.00     0.200 A 
ATOM     83  F   UNL A   1      40.691  37.085  38.077  1.00  0.00    -0.200 F 
ATOM     84  F   UNL A   1      39.117  36.241  40.139  1.00  0.00    -0.200 F 
ENDBRANCH  50  74
BRANCH  62  85
ATOM     85  C   UNL A   1      44.064  28.815  34.959  1.00  0.00     0.064 A 
ATOM     86  C   UNL A   1      43.949  27.682  35.778  1.00  0.00     0.173 A 
ATOM     87  C   UNL A   1      45.344  29.355  34.762  1.00  0.00     0.173 A 
ATOM     88  F   UNL A   1      42.746  27.135  36.010  1.00  0.00    -0.203 F 
ATOM     89  C   UNL A   1      45.068  27.128  36.395  1.00  0.00     0.198 A 
ATOM     90  C   UNL A   1      46.465  28.778  35.354  1.00  0.00     0.198 A 
ATOM     91  F   UNL A   1      45.511  30.434  33.982  1.00  0.00    -0.203 F 
ATOM     92  F   UNL A   1      44.927  26.076  37.213  1.00  0.00    -0.200 F 
ATOM     93  C   UNL A   1      46.325  27.671  36.175  1.00  0.00     0.200 A 
ATOM     94  F   UNL A   1      47.681  29.294  35.125  1.00  0.00    -0.200 F 
ATOM     95  F   UNL A   1      47.402  27.130  36.762  1.00  0.00    -0.200 F 
ENDBRANCH  62  85
ENDBRANCH  36  37
ENDBRANCH  28  31
ENDBRANCH  26  27
ENDBRANCH  25  26
ENDBRANCH  24  25
ENDBRANCH  23  24
ENDBRANCH   1  23
TORSDOF 18
ENDMDL
MODEL 2
REMARK VINA RESULT:     -11.5      1.084      7.375
REMARK SMILES Cn1cc(/C=C/C(=O)N(CC(=O)NCCCCCCNC(=O)c2ccc(-c3c4nc(c(-c5c(F)c(F)c(F)c(F)c5F)c5ccc([nH]5)c(-c5c(F)c(F)c(F)c(F)c5F)c5nc(c(-c6c(F)c(F)c(F)c(F)c6F)c6ccc3[nH]6)C=C5)C=C4)cc2)C(C)(C)C)cn1
REMARK SMILES IDX 15 1 14 2 13 3 11 4 12 5 10 7 9 8 7 9 8 10 6 11 5 12 4 13
REMARK SMILES IDX 1 14 2 15 3 16 91 17 90 18 86 19 87 20 88 21 89 22 16 23
REMARK SMILES IDX 17 24 18 25 19 26 20 27 21 28 22 30 23 31 24 32 85 33 25 34
REMARK SMILES IDX 84 35 26 36 27 37 28 38 78 39 29 40 83 41 77 42 79 43 30 44
REMARK SMILES IDX 82 45 76 46 75 47 31 49 63 50 43 51 62 52 44 53 47 54 61 55
REMARK SMILES IDX 80 56 45 57 46 58 60 60 81 61 48 62 32 63 33 64 41 65 34 66
REMARK SMILES IDX 35 67 39 68 42 69 36 70 37 71 40 72 38 73 64 74 65 75 73 76
REMARK SMILES IDX 66 77 67 78 71 79 74 80 68 81 69 82 72 83 70 84 49 85 50 86
REMARK SMILES IDX 58 87 51 88 52 89 56 90 59 91 53 92 54 93 57 94 55 95
REMARK H PARENT 13 6 20 29 79 48 47 59
REMARK Flexibility Score: inf
ROOT
ATOM      1  C   UNL A   1      32.854  28.765  27.233  1.00  0.00     0.021 C 
ENDROOT
BRANCH   1   2
ATOM      2  C   UNL A   1      31.445  28.195  27.290  1.00  0.00     0.116 C 
BRANCH   2   3
ATOM      3  N   UNL A   1      31.397  26.747  27.292  1.00  0.00    -0.355 N 
ATOM      4  C   UNL A   1      31.050  25.837  26.342  1.00  0.00     0.239 C 
ATOM      5  O   UNL A   1      31.356  24.662  26.582  1.00  0.00    -0.273 OA
ATOM      6  H   UNL A   1      31.667  26.342  28.148  1.00  0.00     0.163 HD
BRANCH   4   7
ATOM      7  C   UNL A   1      30.470  26.191  24.955  1.00  0.00     0.220 C 
BRANCH   7   8
ATOM      8  N   UNL A   1      31.400  26.547  23.876  1.00  0.00    -0.325 N 
BRANCH   8   9
ATOM      9  C   UNL A   1      31.905  27.836  23.671  1.00  0.00     0.247 C 
ATOM     10  O   UNL A   1      33.098  28.103  23.850  1.00  0.00    -0.270 OA
BRANCH   9  11
ATOM     11  C   UNL A   1      31.081  29.025  23.237  1.00  0.00     0.072 C 
ATOM     12  C   UNL A   1      29.873  29.467  23.622  1.00  0.00     0.017 C 
BRANCH  12  13
ATOM     13  C   UNL A   1      29.119  30.534  23.055  1.00  0.00     0.013 A 
ATOM     14  C   UNL A   1      27.886  32.484  20.296  1.00  0.00     0.173 C 
ATOM     15  N   UNL A   1      28.256  31.864  21.545  1.00  0.00    -0.275 N 
ATOM     16  C   UNL A   1      28.942  30.697  21.700  1.00  0.00     0.116 A 
ATOM     17  N   UNL A   1      27.964  32.469  22.712  1.00  0.00    -0.181 NA
ATOM     18  C   UNL A   1      28.487  31.652  23.634  1.00  0.00     0.143 A 
ENDBRANCH  12  13
ENDBRANCH   9  11
ENDBRANCH   8   9
BRANCH   8  19
ATOM     19  C   UNL A   1      31.891  25.407  22.983  1.00  0.00     0.035 C 
ATOM     20  C   UNL A   1      33.293  24.915  23.392  1.00  0.00     0.034 C 
ATOM     21  C   UNL A   1      30.898  24.222  23.025  1.00  0.00     0.034 C 
ATOM     22  C   UNL A   1      32.020  25.784  21.478  1.00  0.00     0.034 C 
ENDBRANCH   8  19
ENDBRANCH   7   8
ENDBRANCH   4   7
ENDBRANCH   2   3
ENDBRANCH   1   2
BRANCH   1  23
ATOM     23  C   UNL A   1      32.923  30.258  26.926  1.00  0.00     0.002 C 
BRANCH  23  24
ATOM     24  C   UNL A   1      31.598  30.872  26.471  1.00  0.00     0.002 C 
BRANCH  24  25
ATOM     25  C   UNL A   1      31.437  32.362  26.784  1.00  0.00     0.021 C 
BRANCH  25  26
ATOM     26  C   UNL A   1      32.740  33.086  27.106  1.00  0.00     0.116 C 
BRANCH  26  27
ATOM     27  N   UNL A   1      32.504  34.401  27.679  1.00  0.00    -0.352 N 
ATOM     28  C   UNL A   1      33.056  34.968  28.799  1.00  0.00     0.251 C 
ATOM     29  H   UNL A   1      31.856  34.962  27.195  1.00  0.00     0.163 HD
ATOM     30  O   UNL A   1      32.590  35.998  29.270  1.00  0.00    -0.269 OA
BRANCH  28  31
ATOM     31  C   UNL A   1      34.214  34.318  29.447  1.00  0.00     0.039 A 
ATOM     32  C   UNL A   1      33.989  33.432  30.502  1.00  0.00     0.014 A 
ATOM     33  C   UNL A   1      35.515  34.585  29.012  1.00  0.00     0.014 A 
ATOM     34  C   UNL A   1      35.071  32.772  31.089  1.00  0.00     0.010 A 
ATOM     35  C   UNL A   1      36.581  33.868  29.545  1.00  0.00     0.010 A 
ATOM     36  C   UNL A   1      36.372  32.963  30.596  1.00  0.00    -0.014 A 
BRANCH  36  37
ATOM     37  C   UNL A   1      37.526  32.234  31.178  1.00  0.00     0.031 A 
ATOM     38  C   UNL A   1      38.030  32.591  32.549  1.00  0.00     0.074 A 
ATOM     39  C   UNL A   1      38.154  31.288  30.452  1.00  0.00     0.049 A 
ATOM     40  N   UNL A   1      39.053  32.108  33.208  1.00  0.00    -0.248 NA
ATOM     41  C   UNL A   1      37.304  33.651  33.265  1.00  0.00     0.031 C 
ATOM     42  C   UNL A   1      37.787  30.886  29.094  1.00  0.00     0.029 A 
ATOM     43  N   UNL A   1      39.236  30.499  30.752  1.00  0.00    -0.354 N 
ATOM     44  C   UNL A   1      39.098  32.811  34.404  1.00  0.00     0.074 A 
ATOM     45  C   UNL A   1      38.039  33.795  34.357  1.00  0.00     0.031 C 
ATOM     46  C   UNL A   1      38.614  29.909  28.687  1.00  0.00     0.029 A 
ATOM     47  C   UNL A   1      39.594  29.645  29.738  1.00  0.00     0.049 A 
ATOM     48  H   UNL A   1      39.712  30.542  31.613  1.00  0.00     0.167 HD
ATOM     49  C   UNL A   1      39.930  32.634  35.459  1.00  0.00     0.037 A 
ATOM     50  C   UNL A   1      40.602  28.756  29.662  1.00  0.00     0.037 A 
ATOM     51  C   UNL A   1      40.969  31.640  35.507  1.00  0.00     0.049 A 
ATOM     52  C   UNL A   1      41.525  28.594  30.839  1.00  0.00     0.074 A 
ATOM     53  C   UNL A   1      41.828  31.341  36.551  1.00  0.00     0.029 A 
ATOM     54  N   UNL A   1      41.297  30.787  34.463  1.00  0.00    -0.354 N 
ATOM     55  N   UNL A   1      41.510  29.210  31.996  1.00  0.00    -0.248 NA
ATOM     56  C   UNL A   1      42.605  27.606  30.701  1.00  0.00     0.031 C 
ATOM     57  C   UNL A   1      42.712  30.348  36.118  1.00  0.00     0.029 A 
ATOM     58  C   UNL A   1      42.365  29.983  34.827  1.00  0.00     0.049 A 
ATOM     59  H   UNL A   1      40.840  30.759  33.592  1.00  0.00     0.167 HD
ATOM     60  C   UNL A   1      42.553  28.667  32.733  1.00  0.00     0.074 A 
ATOM     61  C   UNL A   1      43.171  27.657  31.899  1.00  0.00     0.031 C 
ATOM     62  C   UNL A   1      42.964  28.976  33.988  1.00  0.00     0.037 A 
BRANCH  49  63
ATOM     63  C   UNL A   1      39.750  33.536  36.647  1.00  0.00     0.064 A 
ATOM     64  C   UNL A   1      40.442  34.753  36.760  1.00  0.00     0.173 A 
ATOM     65  C   UNL A   1      38.847  33.201  37.667  1.00  0.00     0.173 A 
ATOM     66  F   UNL A   1      41.325  35.118  35.818  1.00  0.00    -0.203 F 
ATOM     67  C   UNL A   1      40.261  35.580  37.865  1.00  0.00     0.198 A 
ATOM     68  C   UNL A   1      38.644  34.047  38.754  1.00  0.00     0.198 A 
ATOM     69  F   UNL A   1      38.154  32.053  37.607  1.00  0.00    -0.203 F 
ATOM     70  F   UNL A   1      40.975  36.710  37.977  1.00  0.00    -0.200 F 
ATOM     71  C   UNL A   1      39.358  35.231  38.856  1.00  0.00     0.200 A 
ATOM     72  F   UNL A   1      37.757  33.716  39.702  1.00  0.00    -0.200 F 
ATOM     73  F   UNL A   1      39.179  36.034  39.915  1.00  0.00    -0.200 F 
ENDBRANCH  49  63
BRANCH  50  74
ATOM     74  C   UNL A   1      40.781  27.937  28.433  1.00  0.00     0.064 A 
ATOM     75  C   UNL A   1      40.185  26.673  28.317  1.00  0.00     0.173 A 
ATOM     76  C   UNL A   1      41.559  28.391  27.358  1.00  0.00     0.173 A 
ATOM     77  F   UNL A   1      39.449  26.185  29.326  1.00  0.00    -0.203 F 
ATOM     78  C   UNL A   1      40.381  25.885  27.185  1.00  0.00     0.198 A 
ATOM     79  C   UNL A   1      41.728  27.616  26.212  1.00  0.00     0.198 A 
ATOM     80  F   UNL A   1      42.146  29.595  27.415  1.00  0.00    -0.203 F 
ATOM     81  F   UNL A   1      39.843  24.659  27.123  1.00  0.00    -0.200 F 
ATOM     82  C   UNL A   1      41.147  26.359  26.131  1.00  0.00     0.200 A 
ATOM     83  F   UNL A   1      42.455  28.086  25.190  1.00  0.00    -0.200 F 
ATOM     84  F   UNL A   1      41.334  25.603  25.041  1.00  0.00    -0.200 F 
ENDBRANCH  50  74
BRANCH  62  85
ATOM     85  C   UNL A   1      44.112  28.188  34.553  1.00  0.00     0.064 A 
ATOM     86  C   UNL A   1      45.436  28.639  34.454  1.00  0.00     0.173 A 
ATOM     87  C   UNL A   1      43.877  26.989  35.243  1.00  0.00     0.173 A 
ATOM     88  F   UNL A   1      45.716  29.772  33.791  1.00  0.00    -0.203 F 
ATOM     89  C   UNL A   1      46.486  27.905  35.001  1.00  0.00     0.198 A 
ATOM     90  C   UNL A   1      44.925  26.276  35.819  1.00  0.00     0.198 A 
ATOM     91  F   UNL A   1      42.628  26.517  35.375  1.00  0.00    -0.203 F 
ATOM     92  F   UNL A   1      47.747  28.330  34.850  1.00  0.00    -0.200 F 
ATOM     93  C   UNL A   1      46.228  26.730  35.691  1.00  0.00     0.200 A 
ATOM     94  F   UNL A   1      44.671  25.150  36.501  1.00  0.00    -0.200 F 
ATOM     95  F   UNL A   1      47.238  26.030  36.226  1.00  0.00    -0.200 F 
ENDBRANCH  62  85
ENDBRANCH  36  37
ENDBRANCH  28  31
ENDBRANCH  26  27
ENDBRANCH  25  26
ENDBRANCH  24  25
ENDBRANCH  23  24
ENDBRANCH   1  23
TORSDOF 18
ENDMDL
MODEL 3
REMARK VINA RESULT:     -11.1      1.948      8.220
REMARK SMILES Cn1cc(/C=C/C(=O)N(CC(=O)NCCCCCCNC(=O)c2ccc(-c3c4nc(c(-c5c(F)c(F)c(F)c(F)c5F)c5ccc([nH]5)c(-c5c(F)c(F)c(F)c(F)c5F)c5nc(c(-c6c(F)c(F)c(F)c(F)c6F)c6ccc3[nH]6)C=C5)C=C4)cc2)C(C)(C)C)cn1
REMARK SMILES IDX 15 1 14 2 13 3 11 4 12 5 10 7 9 8 7 9 8 10 6 11 5 12 4 13
REMARK SMILES IDX 1 14 2 15 3 16 91 17 90 18 86 19 87 20 88 21 89 22 16 23
REMARK SMILES IDX 17 24 18 25 19 26 20 27 21 28 22 30 23 31 24 32 85 33 25 34
REMARK SMILES IDX 84 35 26 36 27 37 28 38 78 39 29 40 83 41 77 42 79 43 30 44
REMARK SMILES IDX 82 45 76 46 75 47 31 49 63 50 43 51 62 52 44 53 47 54 61 55
REMARK SMILES IDX 80 56 45 57 46 58 60 60 81 61 48 62 32 63 33 64 41 65 34 66
REMARK SMILES IDX 35 67 39 68 42 69 36 70 37 71 40 72 38 73 64 74 65 75 73 76
REMARK SMILES IDX 66 77 67 78 71 79 74 80 68 81 69 82 72 83 70 84 49 85 50 86
REMARK SMILES IDX 58 87 51 88 52 89 56 90 59 91 53 92 54 93 57 94 55 95
REMARK H PARENT 13 6 20 29 79 48 47 59
REMARK Flexibility Score: inf
ROOT
ATOM      1  C   UNL A   1      34.269  31.423  27.511  1.00  0.00     0.021 C 
ENDROOT
BRANCH   1   2
ATOM      2  C   UNL A   1      34.407  29.909  27.444  1.00  0.00     0.116 C 
BRANCH   2   3
ATOM      3  N   UNL A   1      33.227  29.191  27.878  1.00  0.00    -0.355 N 
ATOM      4  C   UNL A   1      32.089  28.817  27.232  1.00  0.00     0.239 C 
ATOM      5  O   UNL A   1      31.378  27.994  27.824  1.00  0.00    -0.273 OA
ATOM      6  H   UNL A   1      33.251  28.922  28.825  1.00  0.00     0.163 HD
BRANCH   4   7
ATOM      7  C   UNL A   1      31.728  29.215  25.785  1.00  0.00     0.220 C 
BRANCH   7   8
ATOM      8  N   UNL A   1      32.091  28.300  24.695  1.00  0.00    -0.325 N 
BRANCH   8   9
ATOM      9  C   UNL A   1      33.394  27.854  24.448  1.00  0.00     0.247 C 
ATOM     10  O   UNL A   1      34.176  28.492  23.737  1.00  0.00    -0.270 OA
BRANCH   9  11
ATOM     11  C   UNL A   1      33.982  26.570  24.987  1.00  0.00     0.072 C 
ATOM     12  C   UNL A   1      33.922  25.303  24.548  1.00  0.00     0.017 C 
BRANCH  12  13
ATOM     13  C   UNL A   1      34.405  24.134  25.203  1.00  0.00     0.013 A 
ATOM     14  C   UNL A   1      36.277  21.065  25.331  1.00  0.00     0.173 C 
ATOM     15  N   UNL A   1      35.462  22.242  25.514  1.00  0.00    -0.275 N 
ATOM     16  C   UNL A   1      35.323  23.277  24.638  1.00  0.00     0.116 A 
ATOM     17  N   UNL A   1      34.704  22.373  26.618  1.00  0.00    -0.181 NA
ATOM     18  C   UNL A   1      34.063  23.533  26.429  1.00  0.00     0.143 A 
ENDBRANCH  12  13
ENDBRANCH   9  11
ENDBRANCH   8   9
BRANCH   8  19
ATOM     19  C   UNL A   1      30.946  27.753  23.842  1.00  0.00     0.035 C 
ATOM     20  C   UNL A   1      30.194  26.608  24.547  1.00  0.00     0.034 C 
ATOM     21  C   UNL A   1      29.950  28.882  23.488  1.00  0.00     0.034 C 
ATOM     22  C   UNL A   1      31.396  27.157  22.475  1.00  0.00     0.034 C 
ENDBRANCH   8  19
ENDBRANCH   7   8
ENDBRANCH   4   7
ENDBRANCH   2   3
ENDBRANCH   1   2
BRANCH   1  23
ATOM     23  C   UNL A   1      34.402  32.012  28.912  1.00  0.00     0.002 C 
BRANCH  23  24
ATOM     24  C   UNL A   1      34.565  33.532  28.946  1.00  0.00     0.002 C 
BRANCH  24  25
ATOM     25  C   UNL A   1      33.254  34.322  28.903  1.00  0.00     0.021 C 
BRANCH  25  26
ATOM     26  C   UNL A   1      33.385  35.789  29.296  1.00  0.00     0.116 C 
BRANCH  26  27
ATOM     27  N   UNL A   1      32.516  36.133  30.410  1.00  0.00    -0.352 N 
ATOM     28  C   UNL A   1      32.585  35.726  31.718  1.00  0.00     0.251 C 
ATOM     29  H   UNL A   1      31.775  36.743  30.194  1.00  0.00     0.163 HD
ATOM     30  O   UNL A   1      31.651  35.931  32.484  1.00  0.00    -0.269 OA
BRANCH  28  31
ATOM     31  C   UNL A   1      33.792  35.022  32.197  1.00  0.00     0.039 A 
ATOM     32  C   UNL A   1      33.664  33.727  32.704  1.00  0.00     0.014 A 
ATOM     33  C   UNL A   1      35.044  35.641  32.146  1.00  0.00     0.014 A 
ATOM     34  C   UNL A   1      34.804  33.033  33.113  1.00  0.00     0.010 A 
ATOM     35  C   UNL A   1      36.185  34.919  32.480  1.00  0.00     0.010 A 
ATOM     36  C   UNL A   1      36.076  33.612  32.977  1.00  0.00    -0.014 A 
BRANCH  36  37
ATOM     37  C   UNL A   1      37.302  32.868  33.363  1.00  0.00     0.031 A 
ATOM     38  C   UNL A   1      37.997  33.182  34.659  1.00  0.00     0.074 A 
ATOM     39  C   UNL A   1      37.818  31.950  32.523  1.00  0.00     0.049 A 
ATOM     40  N   UNL A   1      39.103  32.681  35.148  1.00  0.00    -0.248 NA
ATOM     41  C   UNL A   1      37.381  34.215  35.506  1.00  0.00     0.031 C 
ATOM     42  C   UNL A   1      37.260  31.591  31.219  1.00  0.00     0.029 A 
ATOM     43  N   UNL A   1      38.932  31.156  32.639  1.00  0.00    -0.354 N 
ATOM     44  C   UNL A   1      39.319  33.345  36.348  1.00  0.00     0.074 A 
ATOM     45  C   UNL A   1      38.265  34.325  36.486  1.00  0.00     0.031 C 
ATOM     46  C   UNL A   1      38.020  30.632  30.665  1.00  0.00     0.029 A 
ATOM     47  C   UNL A   1      39.139  30.338  31.556  1.00  0.00     0.049 A 
ATOM     48  H   UNL A   1      39.526  31.173  33.424  1.00  0.00     0.167 HD
ATOM     49  C   UNL A   1      40.294  33.136  37.266  1.00  0.00     0.037 A 
ATOM     50  C   UNL A   1      40.126  29.456  31.306  1.00  0.00     0.037 A 
ATOM     51  C   UNL A   1      41.329  32.146  37.132  1.00  0.00     0.049 A 
ATOM     52  C   UNL A   1      41.208  29.258  32.333  1.00  0.00     0.074 A 
ATOM     53  C   UNL A   1      42.328  31.815  38.032  1.00  0.00     0.029 A 
ATOM     54  N   UNL A   1      41.503  31.329  36.024  1.00  0.00    -0.354 N 
ATOM     55  N   UNL A   1      41.359  29.835  33.500  1.00  0.00    -0.248 NA
ATOM     56  C   UNL A   1      42.256  28.280  32.009  1.00  0.00     0.031 C 
ATOM     57  C   UNL A   1      43.140  30.841  37.444  1.00  0.00     0.029 A 
ATOM     58  C   UNL A   1      42.611  30.517  36.204  1.00  0.00     0.049 A 
ATOM     59  H   UNL A   1      40.925  31.328  35.227  1.00  0.00     0.167 HD
ATOM     60  C   UNL A   1      42.497  29.272  34.062  1.00  0.00     0.074 A 
ATOM     61  C   UNL A   1      42.988  28.294  33.115  1.00  0.00     0.031 C 
ATOM     62  C   UNL A   1      43.083  29.542  35.255  1.00  0.00     0.037 A 
BRANCH  49  63
ATOM     63  C   UNL A   1      40.286  33.998  38.497  1.00  0.00     0.064 A 
ATOM     64  C   UNL A   1      39.550  33.645  39.639  1.00  0.00     0.173 A 
ATOM     65  C   UNL A   1      41.053  35.171  38.551  1.00  0.00     0.173 A 
ATOM     66  F   UNL A   1      38.791  32.538  39.639  1.00  0.00    -0.203 F 
ATOM     67  C   UNL A   1      39.556  34.452  40.774  1.00  0.00     0.198 A 
ATOM     68  C   UNL A   1      41.084  35.958  39.700  1.00  0.00     0.198 A 
ATOM     69  F   UNL A   1      41.781  35.553  37.491  1.00  0.00    -0.203 F 
ATOM     70  F   UNL A   1      38.801  34.122  41.832  1.00  0.00    -0.200 F 
ATOM     71  C   UNL A   1      40.328  35.602  40.806  1.00  0.00     0.200 A 
ATOM     72  F   UNL A   1      41.844  37.060  39.735  1.00  0.00    -0.200 F 
ATOM     73  F   UNL A   1      40.339  36.373  41.903  1.00  0.00    -0.200 F 
ENDBRANCH  49  63
BRANCH  50  74
ATOM     74  C   UNL A   1      40.127  28.678  30.038  1.00  0.00     0.064 A 
ATOM     75  C   UNL A   1      40.770  29.170  28.893  1.00  0.00     0.173 A 
ATOM     76  C   UNL A   1      39.477  27.439  29.939  1.00  0.00     0.173 A 
ATOM     77  F   UNL A   1      41.388  30.359  28.930  1.00  0.00    -0.203 F 
ATOM     78  C   UNL A   1      40.741  28.464  27.692  1.00  0.00     0.198 A 
ATOM     79  C   UNL A   1      39.477  26.719  28.746  1.00  0.00     0.198 A 
ATOM     80  F   UNL A   1      38.852  26.922  31.006  1.00  0.00    -0.203 F 
ATOM     81  F   UNL A   1      41.319  28.982  26.599  1.00  0.00    -0.200 F 
ATOM     82  C   UNL A   1      40.100  27.236  27.621  1.00  0.00     0.200 A 
ATOM     83  F   UNL A   1      38.870  25.526  28.687  1.00  0.00    -0.200 F 
ATOM     84  F   UNL A   1      40.074  26.557  26.467  1.00  0.00    -0.200 F 
ENDBRANCH  50  74
BRANCH  62  85
ATOM     85  C   UNL A   1      44.300  28.741  35.623  1.00  0.00     0.064 A 
ATOM     86  C   UNL A   1      44.202  27.526  36.317  1.00  0.00     0.173 A 
ATOM     87  C   UNL A   1      45.577  29.173  35.234  1.00  0.00     0.173 A 
ATOM     88  F   UNL A   1      43.006  27.075  36.724  1.00  0.00    -0.203 F 
ATOM     89  C   UNL A   1      45.340  26.787  36.631  1.00  0.00     0.198 A 
ATOM     90  C   UNL A   1      46.709  28.415  35.520  1.00  0.00     0.198 A 
ATOM     91  F   UNL A   1      45.726  30.324  34.561  1.00  0.00    -0.203 F 
ATOM     92  F   UNL A   1      45.226  25.655  37.339  1.00  0.00    -0.200 F 
ATOM     93  C   UNL A   1      46.591  27.228  36.225  1.00  0.00     0.200 A 
ATOM     94  F   UNL A   1      47.915  28.834  35.111  1.00  0.00    -0.200 F 
ATOM     95  F   UNL A   1      47.683  26.510  36.520  1.00  0.00    -0.200 F 
ENDBRANCH  62  85
ENDBRANCH  36  37
ENDBRANCH  28  31
ENDBRANCH  26  27
ENDBRANCH  25  26
ENDBRANCH  24  25
ENDBRANCH  23  24
ENDBRANCH   1  23
TORSDOF 18
ENDMDL
