MODEL 1
REMARK VINA RESULT:     -11.6      0.000      0.000
REMARK SMILES O=C(C[N@@H+](C[C@@H]1COc2ccccc2O1)CC(F)(F)F)NCCCCCCNC(=O)c1ccc(-c2c3nc(c(-c4c(F)c(F)c(F)c(F)c4F)c4ccc([nH]4)c(-c4c(F)c(F)c(F)c(F)c4F)c4nc(c(-c5c(F)c(F)c(F)c(F)c5F)c5ccc2[nH]5)C=C4)C=C3)cc1
REMARK SMILES IDX 24 1 23 2 22 3 21 4 1 5 2 6 3 8 4 9 5 11 6 12 7 13 15 14
REMARK SMILES IDX 8 15 14 16 9 17 13 18 10 19 12 20 11 21 16 22 17 23 18 24
REMARK SMILES IDX 19 25 20 26 25 27 26 28 27 29 28 30 29 31 30 33 31 34 32 35
REMARK SMILES IDX 93 36 33 37 92 38 34 39 35 40 36 41 86 42 37 43 91 44 85 45
REMARK SMILES IDX 87 46 38 47 90 48 84 49 83 50 39 52 71 53 51 54 70 55 52 56
REMARK SMILES IDX 55 57 69 58 88 59 53 60 54 61 68 63 89 64 56 65 40 66 41 67
REMARK SMILES IDX 49 68 42 69 43 70 47 71 50 72 44 73 45 74 48 75 46 76 72 77
REMARK SMILES IDX 73 78 81 79 74 80 75 81 79 82 82 83 76 84 77 85 80 86 78 87
REMARK SMILES IDX 57 88 58 89 66 90 59 91 60 92 64 93 67 94 61 95 62 96 65 97
REMARK SMILES IDX 63 98
REMARK H PARENT 21 7 4 10 28 32 87 51 55 62
REMARK Flexibility Score: inf
ROOT
ATOM      1  C   UNL A   1      37.506  22.502  25.196  1.00  0.00     0.002 C 
ENDROOT
BRANCH   1   2
ATOM      2  C   UNL A   1      36.522  23.623  24.839  1.00  0.00     0.021 C 
BRANCH   2   3
ATOM      3  C   UNL A   1      35.059  23.184  24.798  1.00  0.00     0.116 C 
BRANCH   3   4
ATOM      4  N   UNL A   1      34.200  24.060  25.565  1.00  0.00    -0.351 N 
ATOM      5  O   UNL A   1      33.929  25.609  23.897  1.00  0.00    -0.269 OA
ATOM      6  C   UNL A   1      33.655  25.203  25.024  1.00  0.00     0.275 C 
ATOM      7  H   UNL A   1      33.998  23.832  26.501  1.00  0.00     0.163 HD
BRANCH   6   8
ATOM      8  C   UNL A   1      32.729  25.993  25.957  1.00  0.00     0.363 C 
BRANCH   8   9
ATOM      9  N   UNL A   1      31.888  26.995  25.261  1.00  0.00    -0.316 N 
ATOM     10  H   UNL A   1      32.229  27.025  24.300  1.00  0.00     0.348 HD
BRANCH   9  11
ATOM     11  C   UNL A   1      30.459  26.569  25.221  1.00  0.00     0.312 C 
BRANCH  11  12
ATOM     12  C   UNL A   1      29.851  26.138  23.857  1.00  0.00     0.265 C 
ATOM     13  C   UNL A   1      30.784  26.374  22.666  1.00  0.00     0.281 C 
ATOM     14  O   UNL A   1      28.596  26.797  23.636  1.00  0.00    -0.477 OA
ATOM     15  O   UNL A   1      31.043  27.760  22.431  1.00  0.00    -0.486 OA
ATOM     16  C   UNL A   1      28.719  28.041  23.086  1.00  0.00     0.162 A 
ATOM     17  C   UNL A   1      29.894  28.504  22.492  1.00  0.00     0.161 A 
ATOM     18  C   UNL A   1      27.596  28.863  23.160  1.00  0.00     0.050 A 
ATOM     19  C   UNL A   1      29.942  29.793  21.966  1.00  0.00     0.050 A 
ATOM     20  C   UNL A   1      27.649  30.158  22.647  1.00  0.00     0.004 A 
ATOM     21  C   UNL A   1      28.819  30.619  22.043  1.00  0.00     0.004 A 
ENDBRANCH  11  12
ENDBRANCH   9  11
BRANCH   9  22
ATOM     22  C   UNL A   1      32.058  28.396  25.758  1.00  0.00     0.379 C 
BRANCH  22  23
ATOM     23  C   UNL A   1      32.162  28.776  27.258  1.00  0.00     0.438 C 
ATOM     24  F   UNL A   1      31.241  28.112  27.991  1.00  0.00    -0.165 F 
ATOM     25  F   UNL A   1      33.379  28.427  27.743  1.00  0.00    -0.165 F 
ATOM     26  F   UNL A   1      31.988  30.090  27.493  1.00  0.00    -0.165 F 
ENDBRANCH  22  23
ENDBRANCH   9  22
ENDBRANCH   8   9
ENDBRANCH   6   8
ENDBRANCH   3   4
ENDBRANCH   2   3
ENDBRANCH   1   2
BRANCH   1  27
ATOM     27  C   UNL A   1      37.012  21.080  24.909  1.00  0.00     0.002 C 
BRANCH  27  28
ATOM     28  C   UNL A   1      38.085  19.990  24.964  1.00  0.00     0.021 C 
BRANCH  28  29
ATOM     29  C   UNL A   1      39.199  20.237  25.977  1.00  0.00     0.116 C 
BRANCH  29  30
ATOM     30  N   UNL A   1      40.234  19.215  25.926  1.00  0.00    -0.352 N 
ATOM     31  C   UNL A   1      41.596  19.339  26.060  1.00  0.00     0.251 C 
ATOM     32  H   UNL A   1      39.909  18.298  25.772  1.00  0.00     0.163 HD
ATOM     33  O   UNL A   1      42.330  18.390  25.811  1.00  0.00    -0.269 OA
BRANCH  31  34
ATOM     34  C   UNL A   1      42.182  20.630  26.482  1.00  0.00     0.039 A 
ATOM     35  C   UNL A   1      42.703  21.485  25.507  1.00  0.00     0.014 A 
ATOM     36  C   UNL A   1      42.220  20.998  27.829  1.00  0.00     0.014 A 
ATOM     37  C   UNL A   1      43.198  22.737  25.878  1.00  0.00     0.010 A 
ATOM     38  C   UNL A   1      42.642  22.275  28.188  1.00  0.00     0.010 A 
ATOM     39  C   UNL A   1      43.133  23.160  27.216  1.00  0.00    -0.014 A 
BRANCH  39  40
ATOM     40  C   UNL A   1      43.564  24.525  27.616  1.00  0.00     0.031 A 
ATOM     41  C   UNL A   1      42.542  25.576  27.950  1.00  0.00     0.074 A 
ATOM     42  C   UNL A   1      44.875  24.835  27.619  1.00  0.00     0.049 A 
ATOM     43  N   UNL A   1      42.719  26.838  28.251  1.00  0.00    -0.248 NA
ATOM     44  C   UNL A   1      41.130  25.161  27.917  1.00  0.00     0.031 C 
ATOM     45  C   UNL A   1      45.962  23.916  27.279  1.00  0.00     0.029 A 
ATOM     46  N   UNL A   1      45.517  26.013  27.911  1.00  0.00    -0.354 N 
ATOM     47  C   UNL A   1      41.448  27.365  28.435  1.00  0.00     0.074 A 
ATOM     48  C   UNL A   1      40.505  26.304  28.154  1.00  0.00     0.031 C 
ATOM     49  C   UNL A   1      47.135  24.555  27.408  1.00  0.00     0.029 A 
ATOM     50  C   UNL A   1      46.884  25.940  27.792  1.00  0.00     0.049 A 
ATOM     51  H   UNL A   1      45.043  26.834  28.179  1.00  0.00     0.167 HD
ATOM     52  C   UNL A   1      41.098  28.614  28.828  1.00  0.00     0.037 A 
ATOM     53  C   UNL A   1      47.827  26.885  27.965  1.00  0.00     0.037 A 
ATOM     54  C   UNL A   1      42.039  29.665  29.118  1.00  0.00     0.049 A 
ATOM     55  C   UNL A   1      47.409  28.276  28.364  1.00  0.00     0.074 A 
ATOM     56  C   UNL A   1      41.786  30.950  29.564  1.00  0.00     0.029 A 
ATOM     57  N   UNL A   1      43.416  29.553  28.984  1.00  0.00    -0.354 N 
ATOM     58  N   UNL A   1      46.208  28.745  28.596  1.00  0.00    -0.248 NA
ATOM     59  C   UNL A   1      48.481  29.267  28.528  1.00  0.00     0.031 C 
ATOM     60  C   UNL A   1      43.004  31.633  29.646  1.00  0.00     0.029 A 
ATOM     61  C   UNL A   1      44.023  30.755  29.314  1.00  0.00     0.049 A 
ATOM     62  H   UNL A   1      43.891  28.740  28.697  1.00  0.00     0.167 HD
ATOM     63  C   UNL A   1      46.381  30.072  28.966  1.00  0.00     0.074 A 
ATOM     64  C   UNL A   1      47.806  30.329  28.943  1.00  0.00     0.031 C 
ATOM     65  C   UNL A   1      45.444  30.994  29.296  1.00  0.00     0.037 A 
BRANCH  52  66
ATOM     66  C   UNL A   1      39.633  28.916  28.967  1.00  0.00     0.064 A 
ATOM     67  C   UNL A   1      38.859  29.324  27.868  1.00  0.00     0.173 A 
ATOM     68  C   UNL A   1      38.984  28.753  30.200  1.00  0.00     0.173 A 
ATOM     69  F   UNL A   1      39.431  29.504  26.668  1.00  0.00    -0.203 F 
ATOM     70  C   UNL A   1      37.498  29.585  28.007  1.00  0.00     0.198 A 
ATOM     71  C   UNL A   1      37.616  28.983  30.326  1.00  0.00     0.198 A 
ATOM     72  F   UNL A   1      39.673  28.359  31.281  1.00  0.00    -0.203 F 
ATOM     73  F   UNL A   1      36.791  30.022  26.955  1.00  0.00    -0.200 F 
ATOM     74  C   UNL A   1      36.876  29.407  29.233  1.00  0.00     0.200 A 
ATOM     75  F   UNL A   1      37.013  28.793  31.508  1.00  0.00    -0.200 F 
ATOM     76  F   UNL A   1      35.564  29.647  29.362  1.00  0.00    -0.200 F 
ENDBRANCH  52  66
BRANCH  53  77
ATOM     77  C   UNL A   1      49.264  26.548  27.782  1.00  0.00     0.064 A 
ATOM     78  C   UNL A   1      50.087  26.283  28.886  1.00  0.00     0.173 A 
ATOM     79  C   UNL A   1      49.848  26.496  26.508  1.00  0.00     0.173 A 
ATOM     80  F   UNL A   1      49.581  26.341  30.127  1.00  0.00    -0.203 F 
ATOM     81  C   UNL A   1      51.442  26.005  28.725  1.00  0.00     0.198 A 
ATOM     82  C   UNL A   1      51.197  26.185  26.345  1.00  0.00     0.198 A 
ATOM     83  F   UNL A   1      49.106  26.736  25.417  1.00  0.00    -0.203 F 
ATOM     84  F   UNL A   1      52.216  25.809  29.801  1.00  0.00    -0.200 F 
ATOM     85  C   UNL A   1      51.995  25.950  27.455  1.00  0.00     0.200 A 
ATOM     86  F   UNL A   1      51.724  26.116  25.116  1.00  0.00    -0.200 F 
ATOM     87  F   UNL A   1      53.299  25.679  27.300  1.00  0.00    -0.200 F 
ENDBRANCH  53  77
BRANCH  65  88
ATOM     88  C   UNL A   1      45.928  32.358  29.704  1.00  0.00     0.064 A 
ATOM     89  C   UNL A   1      46.069  33.401  28.777  1.00  0.00     0.173 A 
ATOM     90  C   UNL A   1      46.214  32.634  31.050  1.00  0.00     0.173 A 
ATOM     91  F   UNL A   1      45.823  33.185  27.476  1.00  0.00    -0.203 F 
ATOM     92  C   UNL A   1      46.505  34.661  29.178  1.00  0.00     0.198 A 
ATOM     93  C   UNL A   1      46.614  33.905  31.453  1.00  0.00     0.198 A 
ATOM     94  F   UNL A   1      46.087  31.674  31.979  1.00  0.00    -0.203 F 
ATOM     95  F   UNL A   1      46.684  35.627  28.268  1.00  0.00    -0.200 F 
ATOM     96  C   UNL A   1      46.768  34.914  30.516  1.00  0.00     0.200 A 
ATOM     97  F   UNL A   1      46.852  34.151  32.749  1.00  0.00    -0.200 F 
ATOM     98  F   UNL A   1      47.178  36.130  30.901  1.00  0.00    -0.200 F 
ENDBRANCH  65  88
ENDBRANCH  39  40
ENDBRANCH  31  34
ENDBRANCH  29  30
ENDBRANCH  28  29
ENDBRANCH  27  28
ENDBRANCH   1  27
TORSDOF 18
ENDMDL
MODEL 2
REMARK VINA RESULT:     -11.5      1.718      3.053
REMARK SMILES O=C(C[N@@H+](C[C@@H]1COc2ccccc2O1)CC(F)(F)F)NCCCCCCNC(=O)c1ccc(-c2c3nc(c(-c4c(F)c(F)c(F)c(F)c4F)c4ccc([nH]4)c(-c4c(F)c(F)c(F)c(F)c4F)c4nc(c(-c5c(F)c(F)c(F)c(F)c5F)c5ccc2[nH]5)C=C4)C=C3)cc1
REMARK SMILES IDX 24 1 23 2 22 3 21 4 1 5 2 6 3 8 4 9 5 11 6 12 7 13 15 14
REMARK SMILES IDX 8 15 14 16 9 17 13 18 10 19 12 20 11 21 16 22 17 23 18 24
REMARK SMILES IDX 19 25 20 26 25 27 26 28 27 29 28 30 29 31 30 33 31 34 32 35
REMARK SMILES IDX 93 36 33 37 92 38 34 39 35 40 36 41 86 42 37 43 91 44 85 45
REMARK SMILES IDX 87 46 38 47 90 48 84 49 83 50 39 52 71 53 51 54 70 55 52 56
REMARK SMILES IDX 55 57 69 58 88 59 53 60 54 61 68 63 89 64 56 65 40 66 41 67
REMARK SMILES IDX 49 68 42 69 43 70 47 71 50 72 44 73 45 74 48 75 46 76 72 77
REMARK SMILES IDX 73 78 81 79 74 80 75 81 79 82 82 83 76 84 77 85 80 86 78 87
REMARK SMILES IDX 57 88 58 89 66 90 59 91 60 92 64 93 67 94 61 95 62 96 65 97
REMARK SMILES IDX 63 98
REMARK H PARENT 21 7 4 10 28 32 87 51 55 62
REMARK Flexibility Score: inf
ROOT
ATOM      1  C   UNL A   1      35.644  20.548  24.915  1.00  0.00     0.002 C 
ENDROOT
BRANCH   1   2
ATOM      2  C   UNL A   1      34.699  21.744  24.760  1.00  0.00     0.021 C 
BRANCH   2   3
ATOM      3  C   UNL A   1      33.297  21.515  25.324  1.00  0.00     0.116 C 
BRANCH   3   4
ATOM      4  N   UNL A   1      32.347  22.502  24.859  1.00  0.00    -0.351 N 
ATOM      5  O   UNL A   1      32.030  21.544  22.802  1.00  0.00    -0.269 OA
ATOM      6  C   UNL A   1      31.743  22.408  23.626  1.00  0.00     0.275 C 
ATOM      7  H   UNL A   1      32.126  23.265  25.443  1.00  0.00     0.163 HD
BRANCH   6   8
ATOM      8  C   UNL A   1      30.726  23.512  23.309  1.00  0.00     0.363 C 
BRANCH   8   9
ATOM      9  N   UNL A   1      31.219  24.881  23.592  1.00  0.00    -0.316 N 
ATOM     10  H   UNL A   1      32.031  24.765  24.198  1.00  0.00     0.348 HD
BRANCH   9  11
ATOM     11  C   UNL A   1      31.677  25.561  22.346  1.00  0.00     0.312 C 
BRANCH  11  12
ATOM     12  C   UNL A   1      33.179  25.941  22.217  1.00  0.00     0.265 C 
ATOM     13  C   UNL A   1      34.104  25.101  23.104  1.00  0.00     0.281 C 
ATOM     14  O   UNL A   1      33.369  27.336  22.492  1.00  0.00    -0.477 OA
ATOM     15  O   UNL A   1      33.878  25.316  24.499  1.00  0.00    -0.486 OA
ATOM     16  C   UNL A   1      33.503  27.619  23.822  1.00  0.00     0.162 A 
ATOM     17  C   UNL A   1      33.762  26.649  24.790  1.00  0.00     0.161 A 
ATOM     18  C   UNL A   1      33.347  28.955  24.187  1.00  0.00     0.050 A 
ATOM     19  C   UNL A   1      33.870  27.020  26.129  1.00  0.00     0.050 A 
ATOM     20  C   UNL A   1      33.440  29.324  25.527  1.00  0.00     0.004 A 
ATOM     21  C   UNL A   1      33.711  28.358  26.497  1.00  0.00     0.004 A 
ENDBRANCH  11  12
ENDBRANCH   9  11
BRANCH   9  22
ATOM     22  C   UNL A   1      30.275  25.722  24.393  1.00  0.00     0.379 C 
BRANCH  22  23
ATOM     23  C   UNL A   1      30.319  25.839  25.938  1.00  0.00     0.438 C 
ATOM     24  F   UNL A   1      29.125  25.517  26.483  1.00  0.00    -0.165 F 
ATOM     25  F   UNL A   1      31.230  24.974  26.445  1.00  0.00    -0.165 F 
ATOM     26  F   UNL A   1      30.637  27.073  26.375  1.00  0.00    -0.165 F 
ENDBRANCH  22  23
ENDBRANCH   9  22
ENDBRANCH   8   9
ENDBRANCH   6   8
ENDBRANCH   3   4
ENDBRANCH   2   3
ENDBRANCH   1   2
BRANCH   1  27
ATOM     27  C   UNL A   1      37.125  20.843  24.656  1.00  0.00     0.002 C 
BRANCH  27  28
ATOM     28  C   UNL A   1      38.090  19.707  25.003  1.00  0.00     0.021 C 
BRANCH  28  29
ATOM     29  C   UNL A   1      39.261  20.110  25.895  1.00  0.00     0.116 C 
BRANCH  29  30
ATOM     30  N   UNL A   1      40.285  19.079  25.967  1.00  0.00    -0.352 N 
ATOM     31  C   UNL A   1      41.646  19.204  26.114  1.00  0.00     0.251 C 
ATOM     32  H   UNL A   1      39.954  18.153  25.900  1.00  0.00     0.163 HD
ATOM     33  O   UNL A   1      42.374  18.228  25.977  1.00  0.00    -0.269 OA
BRANCH  31  34
ATOM     34  C   UNL A   1      42.237  20.526  26.415  1.00  0.00     0.039 A 
ATOM     35  C   UNL A   1      42.753  21.289  25.365  1.00  0.00     0.014 A 
ATOM     36  C   UNL A   1      42.285  21.013  27.723  1.00  0.00     0.014 A 
ATOM     37  C   UNL A   1      43.254  22.568  25.618  1.00  0.00     0.010 A 
ATOM     38  C   UNL A   1      42.713  22.316  27.964  1.00  0.00     0.010 A 
ATOM     39  C   UNL A   1      43.199  23.109  26.914  1.00  0.00    -0.014 A 
BRANCH  39  40
ATOM     40  C   UNL A   1      43.635  24.503  27.186  1.00  0.00     0.031 A 
ATOM     41  C   UNL A   1      42.647  25.527  27.672  1.00  0.00     0.074 A 
ATOM     42  C   UNL A   1      44.910  24.862  26.938  1.00  0.00     0.049 A 
ATOM     43  N   UNL A   1      42.821  26.805  27.899  1.00  0.00    -0.248 NA
ATOM     44  C   UNL A   1      41.273  25.057  27.913  1.00  0.00     0.031 C 
ATOM     45  C   UNL A   1      45.955  23.973  26.430  1.00  0.00     0.029 A 
ATOM     46  N   UNL A   1      45.543  26.074  27.072  1.00  0.00    -0.354 N 
ATOM     47  C   UNL A   1      41.583  27.290  28.298  1.00  0.00     0.074 A 
ATOM     48  C   UNL A   1      40.652  26.184  28.228  1.00  0.00     0.031 C 
ATOM     49  C   UNL A   1      47.103  24.660  26.321  1.00  0.00     0.029 A 
ATOM     50  C   UNL A   1      46.866  26.048  26.705  1.00  0.00     0.049 A 
ATOM     51  H   UNL A   1      45.090  26.885  27.399  1.00  0.00     0.167 HD
ATOM     52  C   UNL A   1      41.257  28.539  28.712  1.00  0.00     0.037 A 
ATOM     53  C   UNL A   1      47.783  27.034  26.672  1.00  0.00     0.037 A 
ATOM     54  C   UNL A   1      42.188  29.634  28.792  1.00  0.00     0.049 A 
ATOM     55  C   UNL A   1      47.385  28.421  27.101  1.00  0.00     0.074 A 
ATOM     56  C   UNL A   1      41.965  30.924  29.240  1.00  0.00     0.029 A 
ATOM     57  N   UNL A   1      43.521  29.569  28.410  1.00  0.00    -0.354 N 
ATOM     58  N   UNL A   1      46.227  28.853  27.537  1.00  0.00    -0.248 NA
ATOM     59  C   UNL A   1      48.424  29.457  27.035  1.00  0.00     0.031 C 
ATOM     60  C   UNL A   1      43.146  31.655  29.075  1.00  0.00     0.029 A 
ATOM     61  C   UNL A   1      44.124  30.804  28.586  1.00  0.00     0.049 A 
ATOM     62  H   UNL A   1      43.970  28.764  28.064  1.00  0.00     0.167 HD
ATOM     63  C   UNL A   1      46.407  30.199  27.829  1.00  0.00     0.074 A 
ATOM     64  C   UNL A   1      47.790  30.508  27.536  1.00  0.00     0.031 C 
ATOM     65  C   UNL A   1      45.506  31.097  28.300  1.00  0.00     0.037 A 
BRANCH  52  66
ATOM     66  C   UNL A   1      39.830  28.790  29.111  1.00  0.00     0.064 A 
ATOM     67  C   UNL A   1      39.405  28.660  30.443  1.00  0.00     0.173 A 
ATOM     68  C   UNL A   1      38.887  29.211  28.161  1.00  0.00     0.173 A 
ATOM     69  F   UNL A   1      40.264  28.253  31.389  1.00  0.00    -0.203 F 
ATOM     70  C   UNL A   1      38.083  28.912  30.802  1.00  0.00     0.198 A 
ATOM     71  C   UNL A   1      37.575  29.494  28.530  1.00  0.00     0.198 A 
ATOM     72  F   UNL A   1      39.240  29.358  26.876  1.00  0.00    -0.203 F 
ATOM     73  F   UNL A   1      37.690  28.732  32.070  1.00  0.00    -0.200 F 
ATOM     74  C   UNL A   1      37.171  29.337  29.847  1.00  0.00     0.200 A 
ATOM     75  F   UNL A   1      36.699  29.921  27.610  1.00  0.00    -0.200 F 
ATOM     76  F   UNL A   1      35.903  29.590  30.196  1.00  0.00    -0.200 F 
ENDBRANCH  52  66
BRANCH  53  77
ATOM     77  C   UNL A   1      49.175  26.745  26.237  1.00  0.00     0.064 A 
ATOM     78  C   UNL A   1      49.564  26.925  24.902  1.00  0.00     0.173 A 
ATOM     79  C   UNL A   1      50.141  26.272  27.138  1.00  0.00     0.173 A 
ATOM     80  F   UNL A   1      48.672  27.356  23.997  1.00  0.00    -0.203 F 
ATOM     81  C   UNL A   1      50.856  26.619  24.480  1.00  0.00     0.198 A 
ATOM     82  C   UNL A   1      51.442  25.997  26.722  1.00  0.00     0.198 A 
ATOM     83  F   UNL A   1      49.824  26.085  28.428  1.00  0.00    -0.203 F 
ATOM     84  F   UNL A   1      51.184  26.751  23.188  1.00  0.00    -0.200 F 
ATOM     85  C   UNL A   1      51.796  26.161  25.391  1.00  0.00     0.200 A 
ATOM     86  F   UNL A   1      52.352  25.570  27.607  1.00  0.00    -0.200 F 
ATOM     87  F   UNL A   1      53.039  25.870  24.984  1.00  0.00    -0.200 F 
ENDBRANCH  53  77
BRANCH  65  88
ATOM     88  C   UNL A   1      45.996  32.492  28.570  1.00  0.00     0.064 A 
ATOM     89  C   UNL A   1      46.501  32.869  29.822  1.00  0.00     0.173 A 
ATOM     90  C   UNL A   1      45.998  33.452  27.545  1.00  0.00     0.173 A 
ATOM     91  F   UNL A   1      46.508  31.994  30.840  1.00  0.00    -0.203 F 
ATOM     92  C   UNL A   1      46.964  34.163  30.047  1.00  0.00     0.198 A 
ATOM     93  C   UNL A   1      46.495  34.733  27.764  1.00  0.00     0.198 A 
ATOM     94  F   UNL A   1      45.533  33.141  26.326  1.00  0.00    -0.203 F 
ATOM     95  F   UNL A   1      47.393  34.517  31.266  1.00  0.00    -0.200 F 
ATOM     96  C   UNL A   1      46.969  35.091  29.016  1.00  0.00     0.200 A 
ATOM     97  F   UNL A   1      46.514  35.622  26.761  1.00  0.00    -0.200 F 
ATOM     98  F   UNL A   1      47.424  36.332  29.232  1.00  0.00    -0.200 F 
ENDBRANCH  65  88
ENDBRANCH  39  40
ENDBRANCH  31  34
ENDBRANCH  29  30
ENDBRANCH  28  29
ENDBRANCH  27  28
ENDBRANCH   1  27
TORSDOF 18
ENDMDL
MODEL 3
REMARK VINA RESULT:     -11.5      0.741      2.069
REMARK SMILES O=C(C[N@@H+](C[C@@H]1COc2ccccc2O1)CC(F)(F)F)NCCCCCCNC(=O)c1ccc(-c2c3nc(c(-c4c(F)c(F)c(F)c(F)c4F)c4ccc([nH]4)c(-c4c(F)c(F)c(F)c(F)c4F)c4nc(c(-c5c(F)c(F)c(F)c(F)c5F)c5ccc2[nH]5)C=C4)C=C3)cc1
REMARK SMILES IDX 24 1 23 2 22 3 21 4 1 5 2 6 3 8 4 9 5 11 6 12 7 13 15 14
REMARK SMILES IDX 8 15 14 16 9 17 13 18 10 19 12 20 11 21 16 22 17 23 18 24
REMARK SMILES IDX 19 25 20 26 25 27 26 28 27 29 28 30 29 31 30 33 31 34 32 35
REMARK SMILES IDX 93 36 33 37 92 38 34 39 35 40 36 41 86 42 37 43 91 44 85 45
REMARK SMILES IDX 87 46 38 47 90 48 84 49 83 50 39 52 71 53 51 54 70 55 52 56
REMARK SMILES IDX 55 57 69 58 88 59 53 60 54 61 68 63 89 64 56 65 40 66 41 67
REMARK SMILES IDX 49 68 42 69 43 70 47 71 50 72 44 73 45 74 48 75 46 76 72 77
REMARK SMILES IDX 73 78 81 79 74 80 75 81 79 82 82 83 76 84 77 85 80 86 78 87
REMARK SMILES IDX 57 88 58 89 66 90 59 91 60 92 64 93 67 94 61 95 62 96 65 97
REMARK SMILES IDX 63 98
REMARK H PARENT 21 7 4 10 28 32 87 51 55 62
REMARK Flexibility Score: inf
ROOT
ATOM      1  C   UNL A   1      37.304  22.221  25.080  1.00  0.00     0.002 C 
ENDROOT
BRANCH   1   2
ATOM      2  C   UNL A   1      36.383  23.306  24.513  1.00  0.00     0.021 C 
BRANCH   2   3
ATOM      3  C   UNL A   1      34.893  22.978  24.608  1.00  0.00     0.116 C 
BRANCH   3   4
ATOM      4  N   UNL A   1      34.166  23.941  25.406  1.00  0.00    -0.351 N 
ATOM      5  O   UNL A   1      33.864  25.447  23.705  1.00  0.00    -0.269 OA
ATOM      6  C   UNL A   1      33.659  25.101  24.867  1.00  0.00     0.275 C 
ATOM      7  H   UNL A   1      34.029  23.760  26.365  1.00  0.00     0.163 HD
BRANCH   6   8
ATOM      8  C   UNL A   1      32.874  25.989  25.840  1.00  0.00     0.363 C 
BRANCH   8   9
ATOM      9  N   UNL A   1      32.050  27.026  25.175  1.00  0.00    -0.316 N 
ATOM     10  H   UNL A   1      32.388  27.076  24.214  1.00  0.00     0.348 HD
BRANCH   9  11
ATOM     11  C   UNL A   1      30.613  26.630  25.130  1.00  0.00     0.312 C 
BRANCH  11  12
ATOM     12  C   UNL A   1      29.999  26.216  23.763  1.00  0.00     0.265 C 
ATOM     13  C   UNL A   1      30.893  26.547  22.563  1.00  0.00     0.281 C 
ATOM     14  O   UNL A   1      28.706  26.812  23.592  1.00  0.00    -0.477 OA
ATOM     15  O   UNL A   1      31.070  27.953  22.377  1.00  0.00    -0.486 OA
ATOM     16  C   UNL A   1      28.749  28.080  23.087  1.00  0.00     0.162 A 
ATOM     17  C   UNL A   1      29.884  28.629  22.488  1.00  0.00     0.161 A 
ATOM     18  C   UNL A   1      27.584  28.834  23.214  1.00  0.00     0.050 A 
ATOM     19  C   UNL A   1      29.849  29.938  22.011  1.00  0.00     0.050 A 
ATOM     20  C   UNL A   1      27.554  30.148  22.750  1.00  0.00     0.004 A 
ATOM     21  C   UNL A   1      28.684  30.697  22.141  1.00  0.00     0.004 A 
ENDBRANCH  11  12
ENDBRANCH   9  11
BRANCH   9  22
ATOM     22  C   UNL A   1      32.250  28.409  25.711  1.00  0.00     0.379 C 
BRANCH  22  23
ATOM     23  C   UNL A   1      32.348  28.748  27.220  1.00  0.00     0.438 C 
ATOM     24  F   UNL A   1      31.423  28.065  27.931  1.00  0.00    -0.165 F 
ATOM     25  F   UNL A   1      33.562  28.386  27.701  1.00  0.00    -0.165 F 
ATOM     26  F   UNL A   1      32.173  30.056  27.491  1.00  0.00    -0.165 F 
ENDBRANCH  22  23
ENDBRANCH   9  22
ENDBRANCH   8   9
ENDBRANCH   6   8
ENDBRANCH   3   4
ENDBRANCH   2   3
ENDBRANCH   1   2
BRANCH   1  27
ATOM     27  C   UNL A   1      36.864  20.778  24.808  1.00  0.00     0.002 C 
BRANCH  27  28
ATOM     28  C   UNL A   1      37.959  19.720  24.954  1.00  0.00     0.021 C 
BRANCH  28  29
ATOM     29  C   UNL A   1      39.186  20.170  25.742  1.00  0.00     0.116 C 
BRANCH  29  30
ATOM     30  N   UNL A   1      40.187  19.121  25.860  1.00  0.00    -0.352 N 
ATOM     31  C   UNL A   1      41.541  19.220  26.074  1.00  0.00     0.251 C 
ATOM     32  H   UNL A   1      39.843  18.201  25.772  1.00  0.00     0.163 HD
ATOM     33  O   UNL A   1      42.257  18.232  25.968  1.00  0.00    -0.269 OA
BRANCH  31  34
ATOM     34  C   UNL A   1      42.140  20.531  26.410  1.00  0.00     0.039 A 
ATOM     35  C   UNL A   1      42.627  21.334  25.376  1.00  0.00     0.014 A 
ATOM     36  C   UNL A   1      42.223  20.966  27.734  1.00  0.00     0.014 A 
ATOM     37  C   UNL A   1      43.134  22.603  25.666  1.00  0.00     0.010 A 
ATOM     38  C   UNL A   1      42.656  22.259  28.014  1.00  0.00     0.010 A 
ATOM     39  C   UNL A   1      43.115  23.094  26.982  1.00  0.00    -0.014 A 
BRANCH  39  40
ATOM     40  C   UNL A   1      43.558  24.476  27.297  1.00  0.00     0.031 A 
ATOM     41  C   UNL A   1      42.575  25.489  27.817  1.00  0.00     0.074 A 
ATOM     42  C   UNL A   1      44.833  24.837  27.057  1.00  0.00     0.049 A 
ATOM     43  N   UNL A   1      42.756  26.758  28.083  1.00  0.00    -0.248 NA
ATOM     44  C   UNL A   1      41.200  25.018  28.046  1.00  0.00     0.031 C 
ATOM     45  C   UNL A   1      45.873  23.960  26.519  1.00  0.00     0.029 A 
ATOM     46  N   UNL A   1      45.472  26.041  27.227  1.00  0.00    -0.354 N 
ATOM     47  C   UNL A   1      41.521  27.237  28.500  1.00  0.00     0.074 A 
ATOM     48  C   UNL A   1      40.585  26.138  28.398  1.00  0.00     0.031 C 
ATOM     49  C   UNL A   1      47.024  24.644  26.429  1.00  0.00     0.029 A 
ATOM     50  C   UNL A   1      46.795  26.020  26.856  1.00  0.00     0.049 A 
ATOM     51  H   UNL A   1      45.024  26.844  27.580  1.00  0.00     0.167 HD
ATOM     52  C   UNL A   1      41.201  28.473  28.954  1.00  0.00     0.037 A 
ATOM     53  C   UNL A   1      47.715  27.003  26.852  1.00  0.00     0.037 A 
ATOM     54  C   UNL A   1      42.138  29.561  29.065  1.00  0.00     0.049 A 
ATOM     55  C   UNL A   1      47.325  28.378  27.324  1.00  0.00     0.074 A 
ATOM     56  C   UNL A   1      41.922  30.838  29.553  1.00  0.00     0.029 A 
ATOM     57  N   UNL A   1      43.469  29.502  28.678  1.00  0.00    -0.354 N 
ATOM     58  N   UNL A   1      46.170  28.802  27.776  1.00  0.00    -0.248 NA
ATOM     59  C   UNL A   1      48.369  29.411  27.288  1.00  0.00     0.031 C 
ATOM     60  C   UNL A   1      43.106  31.568  29.408  1.00  0.00     0.029 A 
ATOM     61  C   UNL A   1      44.079  30.729  28.891  1.00  0.00     0.049 A 
ATOM     62  H   UNL A   1      43.914  28.706  28.306  1.00  0.00     0.167 HD
ATOM     63  C   UNL A   1      46.357  30.137  28.110  1.00  0.00     0.074 A 
ATOM     64  C   UNL A   1      47.741  30.449  27.823  1.00  0.00     0.031 C 
ATOM     65  C   UNL A   1      45.462  31.023  28.610  1.00  0.00     0.037 A 
BRANCH  52  66
ATOM     66  C   UNL A   1      39.777  28.719  29.363  1.00  0.00     0.064 A 
ATOM     67  C   UNL A   1      39.350  28.532  30.688  1.00  0.00     0.173 A 
ATOM     68  C   UNL A   1      38.838  29.191  28.433  1.00  0.00     0.173 A 
ATOM     69  F   UNL A   1      40.205  28.073  31.615  1.00  0.00    -0.203 F 
ATOM     70  C   UNL A   1      38.031  28.778  31.058  1.00  0.00     0.198 A 
ATOM     71  C   UNL A   1      37.528  29.468  28.815  1.00  0.00     0.198 A 
ATOM     72  F   UNL A   1      39.193  29.394  27.156  1.00  0.00    -0.203 F 
ATOM     73  F   UNL A   1      37.635  28.544  32.317  1.00  0.00    -0.200 F 
ATOM     74  C   UNL A   1      37.123  29.254  30.124  1.00  0.00     0.200 A 
ATOM     75  F   UNL A   1      36.656  29.945  27.915  1.00  0.00    -0.200 F 
ATOM     76  F   UNL A   1      35.856  29.503  30.484  1.00  0.00    -0.200 F 
ENDBRANCH  52  66
BRANCH  53  77
ATOM     77  C   UNL A   1      49.106  26.721  26.405  1.00  0.00     0.064 A 
ATOM     78  C   UNL A   1      49.491  26.937  25.074  1.00  0.00     0.173 A 
ATOM     79  C   UNL A   1      50.072  26.220  27.289  1.00  0.00     0.173 A 
ATOM     80  F   UNL A   1      48.598  27.395  24.184  1.00  0.00    -0.203 F 
ATOM     81  C   UNL A   1      50.781  26.638  24.639  1.00  0.00     0.198 A 
ATOM     82  C   UNL A   1      51.372  25.953  26.861  1.00  0.00     0.198 A 
ATOM     83  F   UNL A   1      49.759  26.000  28.574  1.00  0.00    -0.203 F 
ATOM     84  F   UNL A   1      51.105  26.803  23.350  1.00  0.00    -0.200 F 
ATOM     85  C   UNL A   1      51.722  26.152  25.534  1.00  0.00     0.200 A 
ATOM     86  F   UNL A   1      52.282  25.499  27.732  1.00  0.00    -0.200 F 
ATOM     87  F   UNL A   1      52.963  25.868  25.116  1.00  0.00    -0.200 F 
ENDBRANCH  53  77
BRANCH  65  88
ATOM     88  C   UNL A   1      45.959  32.407  28.923  1.00  0.00     0.064 A 
ATOM     89  C   UNL A   1      46.525  32.727  30.165  1.00  0.00     0.173 A 
ATOM     90  C   UNL A   1      45.905  33.415  27.947  1.00  0.00     0.173 A 
ATOM     91  F   UNL A   1      46.587  31.805  31.137  1.00  0.00    -0.203 F 
ATOM     92  C   UNL A   1      46.993  34.012  30.428  1.00  0.00     0.198 A 
ATOM     93  C   UNL A   1      46.407  34.688  28.201  1.00  0.00     0.198 A 
ATOM     94  F   UNL A   1      45.380  33.160  26.739  1.00  0.00    -0.203 F 
ATOM     95  F   UNL A   1      47.482  34.310  31.640  1.00  0.00    -0.200 F 
ATOM     96  C   UNL A   1      46.942  34.988  29.444  1.00  0.00     0.200 A 
ATOM     97  F   UNL A   1      46.371  35.624  27.243  1.00  0.00    -0.200 F 
ATOM     98  F   UNL A   1      47.402  36.221  29.696  1.00  0.00    -0.200 F 
ENDBRANCH  65  88
ENDBRANCH  39  40
ENDBRANCH  31  34
ENDBRANCH  29  30
ENDBRANCH  28  29
ENDBRANCH  27  28
ENDBRANCH   1  27
TORSDOF 18
ENDMDL
