MODEL 1
REMARK VINA RESULT:     -12.3      0.000      0.000
REMARK SMILES O=C(NCCCCCCNC(=O)c1cccnc1-c1ccccn1)c1ccc(-c2c3nc(c(-c4c(F)c(F)c(F)c(F)c4F)c4ccc([nH]4)c(-c4c(F)c(F)c(F)c(F)c4F)c4nc(c(-c5c(F)c(F)c(F)c(F)c5F)c5ccc2[nH]5)C=C4)C=C3)cc1
REMARK SMILES IDX 6 1 5 2 4 3 3 4 1 5 2 6 25 8 26 9 87 10 27 11 86 12 28 13
REMARK SMILES IDX 29 14 30 15 80 16 31 17 85 18 79 19 81 20 32 21 84 22 78 23
REMARK SMILES IDX 77 24 33 26 65 27 45 28 64 29 46 30 49 31 63 32 82 33 47 34
REMARK SMILES IDX 48 35 62 37 83 38 50 39 34 40 35 41 43 42 36 43 37 44 41 45
REMARK SMILES IDX 44 46 38 47 39 48 42 49 40 50 66 51 67 52 75 53 68 54 69 55
REMARK SMILES IDX 73 56 76 57 70 58 71 59 74 60 72 61 51 62 52 63 60 64 53 65
REMARK SMILES IDX 54 66 58 67 61 68 55 69 56 70 59 71 57 72 7 73 8 74 9 75
REMARK SMILES IDX 10 76 11 77 12 79 13 80 14 81 18 82 15 83 17 84 16 85 19 86
REMARK SMILES IDX 20 87 24 88 21 89 23 90 22 91
REMARK H PARENT 3 7 81 25 49 36 10 78
REMARK Flexibility Score: inf
ROOT
ATOM      1  C   UNL A   1      31.587  30.723  26.433  1.00  0.00     0.002 C 
ENDROOT
BRANCH   1   2
ATOM      2  C   UNL A   1      31.486  32.239  26.599  1.00  0.00     0.021 C 
BRANCH   2   3
ATOM      3  C   UNL A   1      32.700  32.884  27.251  1.00  0.00     0.116 C 
BRANCH   3   4
ATOM      4  N   UNL A   1      32.455  34.266  27.630  1.00  0.00    -0.352 N 
ATOM      5  O   UNL A   1      32.596  36.096  28.948  1.00  0.00    -0.269 OA
ATOM      6  C   UNL A   1      33.037  34.993  28.636  1.00  0.00     0.251 C 
ATOM      7  H   UNL A   1      31.781  34.742  27.091  1.00  0.00     0.163 HD
BRANCH   6   8
ATOM      8  C   UNL A   1      34.200  34.433  29.354  1.00  0.00     0.039 A 
ATOM      9  C   UNL A   1      34.018  33.741  30.555  1.00  0.00     0.014 A 
ATOM     10  C   UNL A   1      35.478  34.581  28.812  1.00  0.00     0.014 A 
ATOM     11  C   UNL A   1      35.121  33.291  31.267  1.00  0.00     0.010 A 
ATOM     12  C   UNL A   1      36.581  34.050  29.485  1.00  0.00     0.010 A 
ATOM     13  C   UNL A   1      36.409  33.401  30.719  1.00  0.00    -0.014 A 
BRANCH  13  14
ATOM     14  C   UNL A   1      37.534  32.697  31.377  1.00  0.00     0.031 A 
ATOM     15  C   UNL A   1      38.225  31.535  30.728  1.00  0.00     0.074 A 
ATOM     16  C   UNL A   1      37.913  33.125  32.598  1.00  0.00     0.049 A 
ATOM     17  N   UNL A   1      39.199  30.796  31.193  1.00  0.00    -0.248 NA
ATOM     18  C   UNL A   1      37.765  31.144  29.386  1.00  0.00     0.031 C 
ATOM     19  C   UNL A   1      37.292  34.235  33.328  1.00  0.00     0.029 A 
ATOM     20  N   UNL A   1      38.901  32.689  33.443  1.00  0.00    -0.354 N 
ATOM     21  C   UNL A   1      39.457  29.842  30.218  1.00  0.00     0.074 A 
ATOM     22  C   UNL A   1      38.529  30.087  29.134  1.00  0.00     0.031 C 
ATOM     23  C   UNL A   1      37.924  34.405  34.496  1.00  0.00     0.029 A 
ATOM     24  C   UNL A   1      38.943  33.373  34.633  1.00  0.00     0.049 A 
ATOM     25  H   UNL A   1      39.519  31.955  33.219  1.00  0.00     0.167 HD
ATOM     26  C   UNL A   1      40.386  28.857  30.238  1.00  0.00     0.037 A 
ATOM     27  C   UNL A   1      39.688  33.166  35.733  1.00  0.00     0.037 A 
ATOM     28  C   UNL A   1      41.315  28.641  31.318  1.00  0.00     0.049 A 
ATOM     29  C   UNL A   1      40.678  32.037  35.731  1.00  0.00     0.074 A 
ATOM     30  C   UNL A   1      42.347  27.721  31.393  1.00  0.00     0.029 A 
ATOM     31  N   UNL A   1      41.313  29.338  32.518  1.00  0.00    -0.354 N 
ATOM     32  N   UNL A   1      40.968  31.195  34.770  1.00  0.00    -0.248 NA
ATOM     33  C   UNL A   1      41.439  31.823  36.968  1.00  0.00     0.031 C 
ATOM     34  C   UNL A   1      42.923  27.813  32.663  1.00  0.00     0.029 A 
ATOM     35  C   UNL A   1      42.293  28.832  33.359  1.00  0.00     0.049 A 
ATOM     36  H   UNL A   1      40.706  30.080  32.739  1.00  0.00     0.167 HD
ATOM     37  C   UNL A   1      41.950  30.359  35.280  1.00  0.00     0.074 A 
ATOM     38  C   UNL A   1      42.231  30.818  36.625  1.00  0.00     0.031 C 
ATOM     39  C   UNL A   1      42.555  29.298  34.696  1.00  0.00     0.037 A 
BRANCH  26  40
ATOM     40  C   UNL A   1      40.450  27.911  29.075  1.00  0.00     0.064 A 
ATOM     41  C   UNL A   1      39.666  26.749  29.021  1.00  0.00     0.173 A 
ATOM     42  C   UNL A   1      41.221  28.234  27.946  1.00  0.00     0.173 A 
ATOM     43  F   UNL A   1      38.916  26.391  30.073  1.00  0.00    -0.203 F 
ATOM     44  C   UNL A   1      39.653  25.947  27.881  1.00  0.00     0.198 A 
ATOM     45  C   UNL A   1      41.187  27.444  26.801  1.00  0.00     0.198 A 
ATOM     46  F   UNL A   1      41.983  29.339  27.943  1.00  0.00    -0.203 F 
ATOM     47  F   UNL A   1      38.909  24.832  27.857  1.00  0.00    -0.200 F 
ATOM     48  C   UNL A   1      40.403  26.301  26.769  1.00  0.00     0.200 A 
ATOM     49  F   UNL A   1      41.900  27.797  25.722  1.00  0.00    -0.200 F 
ATOM     50  F   UNL A   1      40.369  25.542  25.666  1.00  0.00    -0.200 F 
ENDBRANCH  26  40
BRANCH  27  51
ATOM     51  C   UNL A   1      39.485  34.008  36.942  1.00  0.00     0.064 A 
ATOM     52  C   UNL A   1      40.083  35.269  37.057  1.00  0.00     0.173 A 
ATOM     53  C   UNL A   1      38.710  33.553  38.021  1.00  0.00     0.173 A 
ATOM     54  F   UNL A   1      40.846  35.742  36.061  1.00  0.00    -0.203 F 
ATOM     55  C   UNL A   1      39.943  36.029  38.217  1.00  0.00     0.198 A 
ATOM     56  C   UNL A   1      38.538  34.329  39.164  1.00  0.00     0.198 A 
ATOM     57  F   UNL A   1      38.109  32.355  37.961  1.00  0.00    -0.203 F 
ATOM     58  F   UNL A   1      40.579  37.202  38.327  1.00  0.00    -0.200 F 
ATOM     59  C   UNL A   1      39.167  35.560  39.268  1.00  0.00     0.200 A 
ATOM     60  F   UNL A   1      37.771  33.881  40.167  1.00  0.00    -0.200 F 
ATOM     61  F   UNL A   1      39.035  36.289  40.383  1.00  0.00    -0.200 F 
ENDBRANCH  27  51
BRANCH  39  62
ATOM     62  C   UNL A   1      43.586  28.569  35.505  1.00  0.00     0.064 A 
ATOM     63  C   UNL A   1      43.228  27.545  36.394  1.00  0.00     0.173 A 
ATOM     64  C   UNL A   1      44.949  28.874  35.367  1.00  0.00     0.173 A 
ATOM     65  F   UNL A   1      41.936  27.231  36.577  1.00  0.00    -0.203 F 
ATOM     66  C   UNL A   1      44.194  26.869  37.132  1.00  0.00     0.198 A 
ATOM     67  C   UNL A   1      45.915  28.172  36.081  1.00  0.00     0.198 A 
ATOM     68  F   UNL A   1      45.344  29.843  34.528  1.00  0.00    -0.203 F 
ATOM     69  F   UNL A   1      43.825  25.929  38.013  1.00  0.00    -0.200 F 
ATOM     70  C   UNL A   1      45.537  27.175  36.968  1.00  0.00     0.200 A 
ATOM     71  F   UNL A   1      47.213  28.460  35.911  1.00  0.00    -0.200 F 
ATOM     72  F   UNL A   1      46.467  26.516  37.672  1.00  0.00    -0.200 F 
ENDBRANCH  39  62
ENDBRANCH  13  14
ENDBRANCH   6   8
ENDBRANCH   3   4
ENDBRANCH   2   3
ENDBRANCH   1   2
BRANCH   1  73
ATOM     73  C   UNL A   1      32.746  30.061  27.184  1.00  0.00     0.002 C 
BRANCH  73  74
ATOM     74  C   UNL A   1      32.674  28.534  27.295  1.00  0.00     0.021 C 
BRANCH  74  75
ATOM     75  C   UNL A   1      32.258  27.813  26.015  1.00  0.00     0.116 C 
BRANCH  75  76
ATOM     76  N   UNL A   1      31.007  27.094  26.174  1.00  0.00    -0.352 N 
ATOM     77  C   UNL A   1      30.282  26.386  25.248  1.00  0.00     0.253 C 
ATOM     78  H   UNL A   1      30.623  27.116  27.081  1.00  0.00     0.163 HD
ATOM     79  O   UNL A   1      29.208  25.889  25.562  1.00  0.00    -0.269 OA
BRANCH  77  80
ATOM     80  C   UNL A   1      30.819  26.227  23.887  1.00  0.00     0.067 A 
ATOM     81  C   UNL A   1      31.646  25.131  23.607  1.00  0.00     0.018 A 
ATOM     82  C   UNL A   1      30.511  27.130  22.868  1.00  0.00     0.101 A 
ATOM     83  C   UNL A   1      32.193  24.995  22.338  1.00  0.00     0.021 A 
ATOM     84  N   UNL A   1      31.067  27.007  21.625  1.00  0.00    -0.254 NA
ATOM     85  C   UNL A   1      31.880  25.953  21.390  1.00  0.00     0.112 A 
BRANCH  82  86
ATOM     86  C   UNL A   1      29.602  28.276  23.043  1.00  0.00     0.089 A 
ATOM     87  C   UNL A   1      30.072  29.562  23.312  1.00  0.00     0.031 A 
ATOM     88  N   UNL A   1      28.274  28.003  22.933  1.00  0.00    -0.255 NA
ATOM     89  C   UNL A   1      29.153  30.593  23.501  1.00  0.00     0.004 A 
ATOM     90  C   UNL A   1      27.408  29.021  23.126  1.00  0.00     0.112 A 
ATOM     91  C   UNL A   1      27.794  30.319  23.412  1.00  0.00     0.020 A 
ENDBRANCH  82  86
ENDBRANCH  77  80
ENDBRANCH  75  76
ENDBRANCH  74  75
ENDBRANCH  73  74
ENDBRANCH   1  73
TORSDOF 14
ENDMDL
MODEL 2
REMARK VINA RESULT:     -12.1      1.600      2.995
REMARK SMILES O=C(NCCCCCCNC(=O)c1cccnc1-c1ccccn1)c1ccc(-c2c3nc(c(-c4c(F)c(F)c(F)c(F)c4F)c4ccc([nH]4)c(-c4c(F)c(F)c(F)c(F)c4F)c4nc(c(-c5c(F)c(F)c(F)c(F)c5F)c5ccc2[nH]5)C=C4)C=C3)cc1
REMARK SMILES IDX 6 1 5 2 4 3 3 4 1 5 2 6 25 8 26 9 87 10 27 11 86 12 28 13
REMARK SMILES IDX 29 14 30 15 80 16 31 17 85 18 79 19 81 20 32 21 84 22 78 23
REMARK SMILES IDX 77 24 33 26 65 27 45 28 64 29 46 30 49 31 63 32 82 33 47 34
REMARK SMILES IDX 48 35 62 37 83 38 50 39 34 40 35 41 43 42 36 43 37 44 41 45
REMARK SMILES IDX 44 46 38 47 39 48 42 49 40 50 66 51 67 52 75 53 68 54 69 55
REMARK SMILES IDX 73 56 76 57 70 58 71 59 74 60 72 61 51 62 52 63 60 64 53 65
REMARK SMILES IDX 54 66 58 67 61 68 55 69 56 70 59 71 57 72 7 73 8 74 9 75
REMARK SMILES IDX 10 76 11 77 12 79 13 80 14 81 18 82 15 83 17 84 16 85 19 86
REMARK SMILES IDX 20 87 24 88 21 89 23 90 22 91
REMARK H PARENT 3 7 81 25 49 36 10 78
REMARK Flexibility Score: inf
ROOT
ATOM      1  C   UNL A   1      31.707  30.370  25.992  1.00  0.00     0.002 C 
ENDROOT
BRANCH   1   2
ATOM      2  C   UNL A   1      31.458  31.789  26.501  1.00  0.00     0.021 C 
BRANCH   2   3
ATOM      3  C   UNL A   1      32.661  32.442  27.165  1.00  0.00     0.116 C 
BRANCH   3   4
ATOM      4  N   UNL A   1      32.419  33.836  27.498  1.00  0.00    -0.352 N 
ATOM      5  O   UNL A   1      32.574  35.710  28.751  1.00  0.00    -0.269 OA
ATOM      6  C   UNL A   1      33.012  34.597  28.472  1.00  0.00     0.251 C 
ATOM      7  H   UNL A   1      31.739  34.293  26.952  1.00  0.00     0.163 HD
BRANCH   6   8
ATOM      8  C   UNL A   1      34.184  34.063  29.195  1.00  0.00     0.039 A 
ATOM      9  C   UNL A   1      34.007  33.276  30.337  1.00  0.00     0.014 A 
ATOM     10  C   UNL A   1      35.468  34.332  28.715  1.00  0.00     0.014 A 
ATOM     11  C   UNL A   1      35.112  32.847  31.059  1.00  0.00     0.010 A 
ATOM     12  C   UNL A   1      36.579  33.825  29.394  1.00  0.00     0.010 A 
ATOM     13  C   UNL A   1      36.408  33.080  30.572  1.00  0.00    -0.014 A 
BRANCH  13  14
ATOM     14  C   UNL A   1      37.554  32.403  31.223  1.00  0.00     0.031 A 
ATOM     15  C   UNL A   1      38.250  31.239  30.584  1.00  0.00     0.074 A 
ATOM     16  C   UNL A   1      37.947  32.859  32.430  1.00  0.00     0.049 A 
ATOM     17  N   UNL A   1      39.242  30.523  31.046  1.00  0.00    -0.248 NA
ATOM     18  C   UNL A   1      37.774  30.817  29.258  1.00  0.00     0.031 C 
ATOM     19  C   UNL A   1      37.323  33.974  33.149  1.00  0.00     0.029 A 
ATOM     20  N   UNL A   1      38.955  32.453  33.265  1.00  0.00    -0.354 N 
ATOM     21  C   UNL A   1      39.497  29.554  30.084  1.00  0.00     0.074 A 
ATOM     22  C   UNL A   1      38.548  29.766  29.012  1.00  0.00     0.031 C 
ATOM     23  C   UNL A   1      37.972  34.175  34.303  1.00  0.00     0.029 A 
ATOM     24  C   UNL A   1      39.008  33.160  34.441  1.00  0.00     0.049 A 
ATOM     25  H   UNL A   1      39.580  31.724  33.044  1.00  0.00     0.167 HD
ATOM     26  C   UNL A   1      40.441  28.583  30.107  1.00  0.00     0.037 A 
ATOM     27  C   UNL A   1      39.774  32.984  35.533  1.00  0.00     0.037 A 
ATOM     28  C   UNL A   1      41.390  28.400  31.175  1.00  0.00     0.049 A 
ATOM     29  C   UNL A   1      40.780  31.869  35.535  1.00  0.00     0.074 A 
ATOM     30  C   UNL A   1      42.437  27.495  31.250  1.00  0.00     0.029 A 
ATOM     31  N   UNL A   1      41.399  29.119  32.361  1.00  0.00    -0.354 N 
ATOM     32  N   UNL A   1      41.066  31.013  34.584  1.00  0.00    -0.248 NA
ATOM     33  C   UNL A   1      41.565  31.688  36.762  1.00  0.00     0.031 C 
ATOM     34  C   UNL A   1      43.033  27.619  32.507  1.00  0.00     0.029 A 
ATOM     35  C   UNL A   1      42.400  28.642  33.194  1.00  0.00     0.049 A 
ATOM     36  H   UNL A   1      40.785  29.857  32.579  1.00  0.00     0.167 HD
ATOM     37  C   UNL A   1      42.067  30.200  35.093  1.00  0.00     0.074 A 
ATOM     38  C   UNL A   1      42.365  30.689  36.424  1.00  0.00     0.031 C 
ATOM     39  C   UNL A   1      42.678  29.137  34.518  1.00  0.00     0.037 A 
BRANCH  26  40
ATOM     40  C   UNL A   1      40.499  27.616  28.960  1.00  0.00     0.064 A 
ATOM     41  C   UNL A   1      39.684  26.476  28.912  1.00  0.00     0.173 A 
ATOM     42  C   UNL A   1      41.297  27.899  27.841  1.00  0.00     0.173 A 
ATOM     43  F   UNL A   1      38.906  26.156  29.956  1.00  0.00    -0.203 F 
ATOM     44  C   UNL A   1      39.669  25.655  27.785  1.00  0.00     0.198 A 
ATOM     45  C   UNL A   1      41.261  27.091  26.708  1.00  0.00     0.198 A 
ATOM     46  F   UNL A   1      42.090  28.983  27.833  1.00  0.00    -0.203 F 
ATOM     47  F   UNL A   1      38.894  24.561  27.766  1.00  0.00    -0.200 F 
ATOM     48  C   UNL A   1      40.447  25.970  26.681  1.00  0.00     0.200 A 
ATOM     49  F   UNL A   1      42.002  27.407  25.636  1.00  0.00    -0.200 F 
ATOM     50  F   UNL A   1      40.411  25.193  25.589  1.00  0.00    -0.200 F 
ENDBRANCH  26  40
BRANCH  27  51
ATOM     51  C   UNL A   1      39.579  33.845  36.729  1.00  0.00     0.064 A 
ATOM     52  C   UNL A   1      40.235  35.077  36.851  1.00  0.00     0.173 A 
ATOM     53  C   UNL A   1      38.754  33.438  37.790  1.00  0.00     0.173 A 
ATOM     54  F   UNL A   1      41.047  35.503  35.873  1.00  0.00    -0.203 F 
ATOM     55  C   UNL A   1      40.100  35.853  38.001  1.00  0.00     0.198 A 
ATOM     56  C   UNL A   1      38.590  34.232  38.921  1.00  0.00     0.198 A 
ATOM     57  F   UNL A   1      38.098  32.270  37.722  1.00  0.00    -0.203 F 
ATOM     58  F   UNL A   1      40.789  36.995  38.119  1.00  0.00    -0.200 F 
ATOM     59  C   UNL A   1      39.274  35.431  39.033  1.00  0.00     0.200 A 
ATOM     60  F   UNL A   1      37.775  33.830  39.906  1.00  0.00    -0.200 F 
ATOM     61  F   UNL A   1      39.148  36.176  40.139  1.00  0.00    -0.200 F 
ENDBRANCH  27  51
BRANCH  39  62
ATOM     62  C   UNL A   1      43.733  28.438  35.323  1.00  0.00     0.064 A 
ATOM     63  C   UNL A   1      45.084  28.807  35.235  1.00  0.00     0.173 A 
ATOM     64  C   UNL A   1      43.387  27.411  36.215  1.00  0.00     0.173 A 
ATOM     65  F   UNL A   1      45.466  29.768  34.381  1.00  0.00    -0.203 F 
ATOM     66  C   UNL A   1      46.052  28.157  35.995  1.00  0.00     0.198 A 
ATOM     67  C   UNL A   1      44.354  26.789  36.998  1.00  0.00     0.198 A 
ATOM     68  F   UNL A   1      42.109  27.024  36.338  1.00  0.00    -0.203 F 
ATOM     69  F   UNL A   1      47.342  28.492  35.857  1.00  0.00    -0.200 F 
ATOM     70  C   UNL A   1      45.686  27.157  36.882  1.00  0.00     0.200 A 
ATOM     71  F   UNL A   1      43.997  25.831  37.865  1.00  0.00    -0.200 F 
ATOM     72  F   UNL A   1      46.619  26.540  37.620  1.00  0.00    -0.200 F 
ENDBRANCH  39  62
ENDBRANCH  13  14
ENDBRANCH   6   8
ENDBRANCH   3   4
ENDBRANCH   2   3
ENDBRANCH   1   2
BRANCH   1  73
ATOM     73  C   UNL A   1      32.739  29.564  26.787  1.00  0.00     0.002 C 
BRANCH  73  74
ATOM     74  C   UNL A   1      33.758  28.785  25.948  1.00  0.00     0.021 C 
BRANCH  74  75
ATOM     75  C   UNL A   1      33.208  27.542  25.254  1.00  0.00     0.116 C 
BRANCH  75  76
ATOM     76  N   UNL A   1      33.700  27.411  23.895  1.00  0.00    -0.352 N 
ATOM     77  C   UNL A   1      33.473  26.417  22.976  1.00  0.00     0.253 C 
ATOM     78  H   UNL A   1      34.282  28.143  23.587  1.00  0.00     0.163 HD
ATOM     79  O   UNL A   1      34.028  26.454  21.885  1.00  0.00    -0.269 OA
BRANCH  77  80
ATOM     80  C   UNL A   1      32.550  25.323  23.316  1.00  0.00     0.067 A 
ATOM     81  C   UNL A   1      31.184  25.475  23.037  1.00  0.00     0.018 A 
ATOM     82  C   UNL A   1      33.002  24.135  23.892  1.00  0.00     0.101 A 
ATOM     83  C   UNL A   1      30.299  24.467  23.393  1.00  0.00     0.021 A 
ATOM     84  N   UNL A   1      32.126  23.152  24.262  1.00  0.00    -0.254 NA
ATOM     85  C   UNL A   1      30.813  23.336  24.002  1.00  0.00     0.112 A 
BRANCH  82  86
ATOM     86  C   UNL A   1      34.422  23.852  24.165  1.00  0.00     0.089 A 
ATOM     87  C   UNL A   1      35.025  24.183  25.379  1.00  0.00     0.031 A 
ATOM     88  N   UNL A   1      35.113  23.253  23.158  1.00  0.00    -0.255 NA
ATOM     89  C   UNL A   1      36.383  23.919  25.556  1.00  0.00     0.004 A 
ATOM     90  C   UNL A   1      36.427  23.013  23.357  1.00  0.00     0.112 A 
ATOM     91  C   UNL A   1      37.100  23.327  24.524  1.00  0.00     0.020 A 
ENDBRANCH  82  86
ENDBRANCH  77  80
ENDBRANCH  75  76
ENDBRANCH  74  75
ENDBRANCH  73  74
ENDBRANCH   1  73
TORSDOF 14
ENDMDL
MODEL 3
REMARK VINA RESULT:     -12.0      6.343     11.657
REMARK SMILES O=C(NCCCCCCNC(=O)c1cccnc1-c1ccccn1)c1ccc(-c2c3nc(c(-c4c(F)c(F)c(F)c(F)c4F)c4ccc([nH]4)c(-c4c(F)c(F)c(F)c(F)c4F)c4nc(c(-c5c(F)c(F)c(F)c(F)c5F)c5ccc2[nH]5)C=C4)C=C3)cc1
REMARK SMILES IDX 6 1 5 2 4 3 3 4 1 5 2 6 25 8 26 9 87 10 27 11 86 12 28 13
REMARK SMILES IDX 29 14 30 15 80 16 31 17 85 18 79 19 81 20 32 21 84 22 78 23
REMARK SMILES IDX 77 24 33 26 65 27 45 28 64 29 46 30 49 31 63 32 82 33 47 34
REMARK SMILES IDX 48 35 62 37 83 38 50 39 34 40 35 41 43 42 36 43 37 44 41 45
REMARK SMILES IDX 44 46 38 47 39 48 42 49 40 50 66 51 67 52 75 53 68 54 69 55
REMARK SMILES IDX 73 56 76 57 70 58 71 59 74 60 72 61 51 62 52 63 60 64 53 65
REMARK SMILES IDX 54 66 58 67 61 68 55 69 56 70 59 71 57 72 7 73 8 74 9 75
REMARK SMILES IDX 10 76 11 77 12 79 13 80 14 81 18 82 15 83 17 84 16 85 19 86
REMARK SMILES IDX 20 87 24 88 21 89 23 90 22 91
REMARK H PARENT 3 7 81 25 49 36 10 78
REMARK Flexibility Score: inf
ROOT
ATOM      1  C   UNL A   1      37.245  20.458  24.799  1.00  0.00     0.002 C 
ENDROOT
BRANCH   1   2
ATOM      2  C   UNL A   1      38.328  19.396  24.990  1.00  0.00     0.021 C 
BRANCH   2   3
ATOM      3  C   UNL A   1      39.476  19.821  25.892  1.00  0.00     0.116 C 
BRANCH   3   4
ATOM      4  N   UNL A   1      40.557  18.849  25.906  1.00  0.00    -0.352 N 
ATOM      5  O   UNL A   1      42.708  18.160  25.842  1.00  0.00    -0.269 OA
ATOM      6  C   UNL A   1      41.904  19.070  26.028  1.00  0.00     0.251 C 
ATOM      7  H   UNL A   1      40.283  17.907  25.816  1.00  0.00     0.163 HD
BRANCH   6   8
ATOM      8  C   UNL A   1      42.387  20.421  26.378  1.00  0.00     0.039 A 
ATOM      9  C   UNL A   1      42.894  21.265  25.385  1.00  0.00     0.014 A 
ATOM     10  C   UNL A   1      42.313  20.856  27.703  1.00  0.00     0.014 A 
ATOM     11  C   UNL A   1      43.424  22.501  25.732  1.00  0.00     0.010 A 
ATOM     12  C   UNL A   1      42.765  22.135  28.037  1.00  0.00     0.010 A 
ATOM     13  C   UNL A   1      43.325  22.966  27.053  1.00  0.00    -0.014 A 
BRANCH  13  14
ATOM     14  C   UNL A   1      43.669  24.377  27.346  1.00  0.00     0.031 A 
ATOM     15  C   UNL A   1      42.640  25.355  27.831  1.00  0.00     0.074 A 
ATOM     16  C   UNL A   1      44.944  24.765  27.147  1.00  0.00     0.049 A 
ATOM     17  N   UNL A   1      42.781  26.628  28.096  1.00  0.00    -0.248 NA
ATOM     18  C   UNL A   1      41.277  24.846  28.043  1.00  0.00     0.031 C 
ATOM     19  C   UNL A   1      46.019  23.895  26.657  1.00  0.00     0.029 A 
ATOM     20  N   UNL A   1      45.559  25.977  27.328  1.00  0.00    -0.354 N 
ATOM     21  C   UNL A   1      41.527  27.080  28.484  1.00  0.00     0.074 A 
ATOM     22  C   UNL A   1      40.630  25.946  28.411  1.00  0.00     0.031 C 
ATOM     23  C   UNL A   1      47.160  24.594  26.597  1.00  0.00     0.029 A 
ATOM     24  C   UNL A   1      46.885  25.975  26.969  1.00  0.00     0.049 A 
ATOM     25  H   UNL A   1      45.095  26.771  27.678  1.00  0.00     0.167 HD
ATOM     26  C   UNL A   1      41.171  28.330  28.865  1.00  0.00     0.037 A 
ATOM     27  C   UNL A   1      47.773  26.983  26.903  1.00  0.00     0.037 A 
ATOM     28  C   UNL A   1      42.083  29.442  28.949  1.00  0.00     0.049 A 
ATOM     29  C   UNL A   1      47.328  28.363  27.294  1.00  0.00     0.074 A 
ATOM     30  C   UNL A   1      41.833  30.727  29.403  1.00  0.00     0.029 A 
ATOM     31  N   UNL A   1      43.413  29.410  28.556  1.00  0.00    -0.354 N 
ATOM     32  N   UNL A   1      46.160  28.759  27.738  1.00  0.00    -0.248 NA
ATOM     33  C   UNL A   1      48.319  29.438  27.166  1.00  0.00     0.031 C 
ATOM     34  C   UNL A   1      42.990  31.489  29.218  1.00  0.00     0.029 A 
ATOM     35  C   UNL A   1      43.981  30.666  28.708  1.00  0.00     0.049 A 
ATOM     36  H   UNL A   1      43.883  28.614  28.219  1.00  0.00     0.167 HD
ATOM     37  C   UNL A   1      46.278  30.123  27.952  1.00  0.00     0.074 A 
ATOM     38  C   UNL A   1      47.642  30.481  27.623  1.00  0.00     0.031 C 
ATOM     39  C   UNL A   1      45.339  31.005  28.370  1.00  0.00     0.037 A 
BRANCH  26  40
ATOM     40  C   UNL A   1      39.732  28.592  29.203  1.00  0.00     0.064 A 
ATOM     41  C   UNL A   1      39.231  28.409  30.500  1.00  0.00     0.173 A 
ATOM     42  C   UNL A   1      38.874  29.148  28.241  1.00  0.00     0.173 A 
ATOM     43  F   UNL A   1      40.007  27.877  31.455  1.00  0.00    -0.203 F 
ATOM     44  C   UNL A   1      37.923  28.770  30.819  1.00  0.00     0.198 A 
ATOM     45  C   UNL A   1      37.577  29.530  28.569  1.00  0.00     0.198 A 
ATOM     46  F   UNL A   1      39.306  29.352  26.986  1.00  0.00    -0.203 F 
ATOM     47  F   UNL A   1      37.460  28.571  32.061  1.00  0.00    -0.200 F 
ATOM     48  C   UNL A   1      37.102  29.342  29.858  1.00  0.00     0.200 A 
ATOM     49  F   UNL A   1      36.791  30.097  27.643  1.00  0.00    -0.200 F 
ATOM     50  F   UNL A   1      35.854  29.712  30.175  1.00  0.00    -0.200 F 
ENDBRANCH  26  40
BRANCH  27  51
ATOM     51  C   UNL A   1      49.149  26.734  26.397  1.00  0.00     0.064 A 
ATOM     52  C   UNL A   1      49.480  26.953  25.054  1.00  0.00     0.173 A 
ATOM     53  C   UNL A   1      50.156  26.244  27.245  1.00  0.00     0.173 A 
ATOM     54  F   UNL A   1      48.549  27.404  24.200  1.00  0.00    -0.203 F 
ATOM     55  C   UNL A   1      50.753  26.658  24.569  1.00  0.00     0.198 A 
ATOM     56  C   UNL A   1      51.438  25.987  26.768  1.00  0.00     0.198 A 
ATOM     57  F   UNL A   1      49.895  26.023  28.542  1.00  0.00    -0.203 F 
ATOM     58  F   UNL A   1      51.023  26.814  23.267  1.00  0.00    -0.200 F 
ATOM     59  C   UNL A   1      51.732  26.180  25.428  1.00  0.00     0.200 A 
ATOM     60  F   UNL A   1      52.386  25.545  27.606  1.00  0.00    -0.200 F 
ATOM     61  F   UNL A   1      52.954  25.894  24.960  1.00  0.00    -0.200 F 
ENDBRANCH  27  51
BRANCH  39  62
ATOM     62  C   UNL A   1      45.760  32.438  28.503  1.00  0.00     0.064 A 
ATOM     63  C   UNL A   1      45.595  33.349  27.449  1.00  0.00     0.173 A 
ATOM     64  C   UNL A   1      46.303  32.915  29.706  1.00  0.00     0.173 A 
ATOM     65  F   UNL A   1      45.101  32.937  26.272  1.00  0.00    -0.203 F 
ATOM     66  C   UNL A   1      45.981  34.679  27.587  1.00  0.00     0.198 A 
ATOM     67  C   UNL A   1      46.654  34.254  29.852  1.00  0.00     0.198 A 
ATOM     68  F   UNL A   1      46.477  32.085  30.745  1.00  0.00    -0.203 F 
ATOM     69  F   UNL A   1      45.861  35.520  26.550  1.00  0.00    -0.200 F 
ATOM     70  C   UNL A   1      46.499  35.132  28.791  1.00  0.00     0.200 A 
ATOM     71  F   UNL A   1      47.142  34.693  31.020  1.00  0.00    -0.200 F 
ATOM     72  F   UNL A   1      46.859  36.416  28.925  1.00  0.00    -0.200 F 
ENDBRANCH  39  62
ENDBRANCH  13  14
ENDBRANCH   6   8
ENDBRANCH   3   4
ENDBRANCH   2   3
ENDBRANCH   1   2
BRANCH   1  73
ATOM     73  C   UNL A   1      37.631  21.870  25.250  1.00  0.00     0.002 C 
BRANCH  73  74
ATOM     74  C   UNL A   1      36.936  23.014  24.504  1.00  0.00     0.021 C 
BRANCH  74  75
ATOM     75  C   UNL A   1      35.413  23.024  24.611  1.00  0.00     0.116 C 
BRANCH  75  76
ATOM     76  N   UNL A   1      34.772  22.956  23.311  1.00  0.00    -0.352 N 
ATOM     77  C   UNL A   1      33.446  22.787  22.998  1.00  0.00     0.253 C 
ATOM     78  H   UNL A   1      35.377  23.045  22.539  1.00  0.00     0.163 HD
ATOM     79  O   UNL A   1      33.101  22.697  21.827  1.00  0.00    -0.269 OA
BRANCH  77  80
ATOM     80  C   UNL A   1      32.455  22.728  24.084  1.00  0.00     0.067 A 
ATOM     81  C   UNL A   1      31.854  23.916  24.521  1.00  0.00     0.018 A 
ATOM     82  C   UNL A   1      32.089  21.519  24.677  1.00  0.00     0.101 A 
ATOM     83  C   UNL A   1      30.950  23.878  25.574  1.00  0.00     0.021 A 
ATOM     84  N   UNL A   1      31.215  21.484  25.728  1.00  0.00    -0.254 NA
ATOM     85  C   UNL A   1      30.668  22.649  26.143  1.00  0.00     0.112 A 
BRANCH  82  86
ATOM     86  C   UNL A   1      32.613  20.210  24.249  1.00  0.00     0.089 A 
ATOM     87  C   UNL A   1      33.687  19.593  24.894  1.00  0.00     0.031 A 
ATOM     88  N   UNL A   1      31.993  19.642  23.180  1.00  0.00    -0.255 NA
ATOM     89  C   UNL A   1      34.154  18.371  24.412  1.00  0.00     0.004 A 
ATOM     90  C   UNL A   1      32.471  18.461  22.734  1.00  0.00     0.112 A 
ATOM     91  C   UNL A   1      33.540  17.795  23.308  1.00  0.00     0.020 A 
ENDBRANCH  82  86
ENDBRANCH  77  80
ENDBRANCH  75  76
ENDBRANCH  74  75
ENDBRANCH  73  74
ENDBRANCH   1  73
TORSDOF 14
ENDMDL
