MODEL 1
REMARK VINA RESULT:     -13.3      0.000      0.000
REMARK SMILES Cc1cccc(NC(=O)COc2ccc(N3C[C@@H](C(=O)NCCCCCCNC(=O)c4ccc(-c5c6nc(c(-c7c(F)c(F)c(F)c(F)c7F)c7ccc([nH]7)c(-c7c(F)c(F)c(F)c(F)c7F)c7nc(c(-c8c(F)c(F)c(F)c(F)c8F)c8ccc5[nH]8)C=C7)C=C6)cc4)CC3=O)cc2)c1
REMARK SMILES IDX 23 1 22 2 21 3 19 4 20 5 18 7 16 8 17 9 95 10 94 11 96 12
REMARK SMILES IDX 15 13 12 14 13 15 98 16 14 17 97 18 11 19 10 20 8 21 7 22
REMARK SMILES IDX 9 24 6 25 1 26 2 27 3 28 99 29 4 30 5 31 24 32 25 33 26 34
REMARK SMILES IDX 27 35 28 36 29 37 30 39 31 40 32 41 93 42 33 43 92 44 34 45
REMARK SMILES IDX 35 46 36 47 86 48 37 49 91 50 85 51 87 52 38 53 90 54 84 55
REMARK SMILES IDX 83 56 39 58 71 59 51 60 70 61 52 62 55 63 69 64 88 65 53 66
REMARK SMILES IDX 54 67 68 69 89 70 56 71 40 72 41 73 49 74 42 75 43 76 47 77
REMARK SMILES IDX 50 78 44 79 45 80 48 81 46 82 72 83 73 84 81 85 74 86 75 87
REMARK SMILES IDX 79 88 82 89 76 90 77 91 80 92 78 93 57 94 58 95 66 96 59 97
REMARK SMILES IDX 60 98 64 99 67 100 61 101 62 102 65 103 63 104
REMARK H PARENT 21 6 7 23 28 38 87 57 55 68
REMARK Flexibility Score: inf
ROOT
ATOM      1  C   UNL A   1      36.301  22.632  24.422  1.00  0.00     0.021 C 
ENDROOT
BRANCH   1   2
ATOM      2  C   UNL A   1      34.841  22.307  24.099  1.00  0.00     0.116 C 
BRANCH   2   3
ATOM      3  N   UNL A   1      34.474  20.970  24.526  1.00  0.00    -0.356 N 
ATOM      4  C   UNL A   1      33.330  20.463  25.047  1.00  0.00     0.225 C 
ATOM      5  O   UNL A   1      33.298  19.245  25.250  1.00  0.00    -0.275 OA
ATOM      6  H   UNL A   1      35.192  20.306  24.417  1.00  0.00     0.163 HD
BRANCH   4   7
ATOM      7  C   UNL A   1      32.102  21.301  25.340  1.00  0.00     0.107 C 
ATOM      8  N   UNL A   1      31.554  23.563  24.923  1.00  0.00    -0.312 N 
ATOM      9  C   UNL A   1      31.820  22.314  24.250  1.00  0.00     0.139 C 
ATOM     10  C   UNL A   1      31.767  23.480  26.299  1.00  0.00     0.227 C 
ATOM     11  C   UNL A   1      32.118  22.058  26.655  1.00  0.00     0.116 C 
ATOM     12  O   UNL A   1      31.676  24.361  27.142  1.00  0.00    -0.274 OA
BRANCH   8  13
ATOM     13  C   UNL A   1      31.188  24.735  24.210  1.00  0.00     0.044 A 
ATOM     14  C   UNL A   1      30.485  27.080  22.796  1.00  0.00     0.120 A 
ATOM     15  C   UNL A   1      31.657  26.396  22.489  1.00  0.00     0.048 A 
ATOM     16  C   UNL A   1      29.650  26.582  23.790  1.00  0.00     0.048 A 
ATOM     17  C   UNL A   1      32.022  25.252  23.207  1.00  0.00     0.030 A 
ATOM     18  C   UNL A   1      29.994  25.412  24.480  1.00  0.00     0.030 A 
BRANCH  14  19
ATOM     19  O   UNL A   1      30.203  28.155  22.008  1.00  0.00    -0.484 OA
BRANCH  19  20
ATOM     20  C   UNL A   1      30.727  29.402  22.431  1.00  0.00     0.329 C 
BRANCH  20  21
ATOM     21  C   UNL A   1      30.043  30.167  23.563  1.00  0.00     0.262 C 
ATOM     22  N   UNL A   1      30.606  30.374  24.784  1.00  0.00    -0.323 N 
ATOM     23  H   UNL A   1      30.065  30.963  25.357  1.00  0.00     0.170 HD
ATOM     24  O   UNL A   1      28.917  30.652  23.376  1.00  0.00    -0.271 OA
BRANCH  22  25
ATOM     25  C   UNL A   1      31.784  29.940  25.413  1.00  0.00     0.041 A 
ATOM     26  C   UNL A   1      34.128  31.487  28.011  1.00  0.00     0.044 C 
ATOM     27  C   UNL A   1      33.530  30.522  27.030  1.00  0.00    -0.049 A 
ATOM     28  C   UNL A   1      34.146  29.291  26.797  1.00  0.00     0.003 A 
ATOM     29  C   UNL A   1      32.351  30.833  26.338  1.00  0.00     0.029 A 
ATOM     30  C   UNL A   1      33.581  28.388  25.901  1.00  0.00     0.002 A 
ATOM     31  C   UNL A   1      32.400  28.706  25.221  1.00  0.00     0.026 A 
ENDBRANCH  22  25
ENDBRANCH  20  21
ENDBRANCH  19  20
ENDBRANCH  14  19
ENDBRANCH   8  13
ENDBRANCH   4   7
ENDBRANCH   2   3
ENDBRANCH   1   2
BRANCH   1  32
ATOM     32  C   UNL A   1      36.523  23.677  25.524  1.00  0.00     0.002 C 
BRANCH  32  33
ATOM     33  C   UNL A   1      37.934  23.766  26.128  1.00  0.00     0.002 C 
BRANCH  33  34
ATOM     34  C   UNL A   1      38.806  22.511  26.027  1.00  0.00     0.021 C 
BRANCH  34  35
ATOM     35  C   UNL A   1      39.999  22.488  26.972  1.00  0.00     0.116 C 
BRANCH  35  36
ATOM     36  N   UNL A   1      41.246  22.962  26.393  1.00  0.00    -0.352 N 
ATOM     37  C   UNL A   1      41.674  24.259  26.144  1.00  0.00     0.251 C 
ATOM     38  H   UNL A   1      41.883  22.255  26.139  1.00  0.00     0.163 HD
ATOM     39  O   UNL A   1      42.717  24.452  25.554  1.00  0.00    -0.269 OA
BRANCH  37  40
ATOM     40  C   UNL A   1      40.928  25.406  26.731  1.00  0.00     0.039 A 
ATOM     41  C   UNL A   1      40.953  26.624  26.036  1.00  0.00     0.014 A 
ATOM     42  C   UNL A   1      40.403  25.356  28.018  1.00  0.00     0.014 A 
ATOM     43  C   UNL A   1      40.708  27.812  26.723  1.00  0.00     0.010 A 
ATOM     44  C   UNL A   1      40.275  26.530  28.729  1.00  0.00     0.010 A 
ATOM     45  C   UNL A   1      40.497  27.757  28.098  1.00  0.00    -0.014 A 
BRANCH  45  46
ATOM     46  C   UNL A   1      40.609  28.906  28.987  1.00  0.00     0.031 A 
ATOM     47  C   UNL A   1      39.496  29.866  29.120  1.00  0.00     0.074 A 
ATOM     48  C   UNL A   1      41.673  28.982  29.818  1.00  0.00     0.049 A 
ATOM     49  N   UNL A   1      39.611  31.038  29.644  1.00  0.00    -0.248 NA
ATOM     50  C   UNL A   1      38.149  29.577  28.648  1.00  0.00     0.031 C 
ATOM     51  C   UNL A   1      41.827  29.838  30.992  1.00  0.00     0.029 A 
ATOM     52  N   UNL A   1      42.944  28.411  29.638  1.00  0.00    -0.354 N 
ATOM     53  C   UNL A   1      38.347  31.547  29.824  1.00  0.00     0.074 A 
ATOM     54  C   UNL A   1      37.471  30.615  29.148  1.00  0.00     0.031 C 
ATOM     55  C   UNL A   1      43.136  29.996  31.240  1.00  0.00     0.029 A 
ATOM     56  C   UNL A   1      43.857  29.370  30.147  1.00  0.00     0.049 A 
ATOM     57  H   UNL A   1      43.155  27.534  29.245  1.00  0.00     0.167 HD
ATOM     58  C   UNL A   1      38.178  32.643  30.620  1.00  0.00     0.037 A 
ATOM     59  C   UNL A   1      44.722  30.010  29.306  1.00  0.00     0.037 A 
ATOM     60  C   UNL A   1      39.462  33.171  31.082  1.00  0.00     0.049 A 
ATOM     61  C   UNL A   1      44.520  31.508  29.209  1.00  0.00     0.074 A 
ATOM     62  C   UNL A   1      40.196  33.066  32.251  1.00  0.00     0.029 A 
ATOM     63  N   UNL A   1      40.324  33.700  30.140  1.00  0.00    -0.354 N 
ATOM     64  N   UNL A   1      43.565  32.165  29.808  1.00  0.00    -0.248 NA
ATOM     65  C   UNL A   1      45.326  32.373  28.344  1.00  0.00     0.031 C 
ATOM     66  C   UNL A   1      41.522  33.520  31.986  1.00  0.00     0.029 A 
ATOM     67  C   UNL A   1      41.586  33.905  30.660  1.00  0.00     0.049 A 
ATOM     68  H   UNL A   1      40.069  33.907  29.211  1.00  0.00     0.167 HD
ATOM     69  C   UNL A   1      43.575  33.467  29.388  1.00  0.00     0.074 A 
ATOM     70  C   UNL A   1      44.701  33.555  28.478  1.00  0.00     0.031 C 
ATOM     71  C   UNL A   1      42.637  34.375  29.776  1.00  0.00     0.037 A 
BRANCH  58  72
ATOM     72  C   UNL A   1      36.845  33.110  31.152  1.00  0.00     0.064 A 
ATOM     73  C   UNL A   1      35.950  33.827  30.328  1.00  0.00     0.173 A 
ATOM     74  C   UNL A   1      36.402  32.920  32.474  1.00  0.00     0.173 A 
ATOM     75  F   UNL A   1      36.184  33.993  29.020  1.00  0.00    -0.203 F 
ATOM     76  C   UNL A   1      34.778  34.407  30.819  1.00  0.00     0.198 A 
ATOM     77  C   UNL A   1      35.261  33.553  32.981  1.00  0.00     0.198 A 
ATOM     78  F   UNL A   1      37.021  32.068  33.300  1.00  0.00    -0.203 F 
ATOM     79  F   UNL A   1      33.970  35.078  29.985  1.00  0.00    -0.200 F 
ATOM     80  C   UNL A   1      34.455  34.307  32.155  1.00  0.00     0.200 A 
ATOM     81  F   UNL A   1      34.950  33.420  34.279  1.00  0.00    -0.200 F 
ATOM     82  F   UNL A   1      33.358  34.906  32.636  1.00  0.00    -0.200 F 
ENDBRANCH  58  72
BRANCH  59  83
ATOM     83  C   UNL A   1      45.177  29.130  28.194  1.00  0.00     0.064 A 
ATOM     84  C   UNL A   1      46.153  28.153  28.477  1.00  0.00     0.173 A 
ATOM     85  C   UNL A   1      44.418  28.970  27.030  1.00  0.00     0.173 A 
ATOM     86  F   UNL A   1      46.908  28.259  29.582  1.00  0.00    -0.203 F 
ATOM     87  C   UNL A   1      46.268  27.000  27.703  1.00  0.00     0.198 A 
ATOM     88  C   UNL A   1      44.552  27.824  26.245  1.00  0.00     0.198 A 
ATOM     89  F   UNL A   1      43.461  29.853  26.716  1.00  0.00    -0.203 F 
ATOM     90  F   UNL A   1      47.115  26.029  28.072  1.00  0.00    -0.200 F 
ATOM     91  C   UNL A   1      45.446  26.824  26.604  1.00  0.00     0.200 A 
ATOM     92  F   UNL A   1      43.741  27.642  25.192  1.00  0.00    -0.200 F 
ATOM     93  F   UNL A   1      45.484  25.675  25.913  1.00  0.00    -0.200 F 
ENDBRANCH  59  83
BRANCH  71  94
ATOM     94  C   UNL A   1      42.645  35.805  29.332  1.00  0.00     0.064 A 
ATOM     95  C   UNL A   1      42.022  36.216  28.144  1.00  0.00     0.173 A 
ATOM     96  C   UNL A   1      43.397  36.781  30.019  1.00  0.00     0.173 A 
ATOM     97  F   UNL A   1      41.317  35.346  27.407  1.00  0.00    -0.203 F 
ATOM     98  C   UNL A   1      42.126  37.529  27.685  1.00  0.00     0.198 A 
ATOM     99  C   UNL A   1      43.542  38.076  29.530  1.00  0.00     0.198 A 
ATOM    100  F   UNL A   1      43.987  36.507  31.192  1.00  0.00    -0.203 F 
ATOM    101  F   UNL A   1      41.481  37.897  26.569  1.00  0.00    -0.200 F 
ATOM    102  C   UNL A   1      42.899  38.453  28.367  1.00  0.00     0.200 A 
ATOM    103  F   UNL A   1      44.306  38.955  30.195  1.00  0.00    -0.200 F 
ATOM    104  F   UNL A   1      43.021  39.707  27.910  1.00  0.00    -0.200 F 
ENDBRANCH  71  94
ENDBRANCH  45  46
ENDBRANCH  37  40
ENDBRANCH  35  36
ENDBRANCH  34  35
ENDBRANCH  33  34
ENDBRANCH  32  33
ENDBRANCH   1  32
TORSDOF 18
ENDMDL
MODEL 2
REMARK VINA RESULT:     -12.3      3.413      9.978
REMARK SMILES Cc1cccc(NC(=O)COc2ccc(N3C[C@@H](C(=O)NCCCCCCNC(=O)c4ccc(-c5c6nc(c(-c7c(F)c(F)c(F)c(F)c7F)c7ccc([nH]7)c(-c7c(F)c(F)c(F)c(F)c7F)c7nc(c(-c8c(F)c(F)c(F)c(F)c8F)c8ccc5[nH]8)C=C7)C=C6)cc4)CC3=O)cc2)c1
REMARK SMILES IDX 23 1 22 2 21 3 19 4 20 5 18 7 16 8 17 9 95 10 94 11 96 12
REMARK SMILES IDX 15 13 12 14 13 15 98 16 14 17 97 18 11 19 10 20 8 21 7 22
REMARK SMILES IDX 9 24 6 25 1 26 2 27 3 28 99 29 4 30 5 31 24 32 25 33 26 34
REMARK SMILES IDX 27 35 28 36 29 37 30 39 31 40 32 41 93 42 33 43 92 44 34 45
REMARK SMILES IDX 35 46 36 47 86 48 37 49 91 50 85 51 87 52 38 53 90 54 84 55
REMARK SMILES IDX 83 56 39 58 71 59 51 60 70 61 52 62 55 63 69 64 88 65 53 66
REMARK SMILES IDX 54 67 68 69 89 70 56 71 40 72 41 73 49 74 42 75 43 76 47 77
REMARK SMILES IDX 50 78 44 79 45 80 48 81 46 82 72 83 73 84 81 85 74 86 75 87
REMARK SMILES IDX 79 88 82 89 76 90 77 91 80 92 78 93 57 94 58 95 66 96 59 97
REMARK SMILES IDX 60 98 64 99 67 100 61 101 62 102 65 103 63 104
REMARK H PARENT 21 6 7 23 28 38 87 57 55 68
REMARK Flexibility Score: inf
ROOT
ATOM      1  C   UNL A   1      33.827  31.310  27.589  1.00  0.00     0.021 C 
ENDROOT
BRANCH   1   2
ATOM      2  C   UNL A   1      33.189  29.995  27.136  1.00  0.00     0.116 C 
BRANCH   2   3
ATOM      3  N   UNL A   1      33.376  29.759  25.718  1.00  0.00    -0.356 N 
ATOM      4  C   UNL A   1      32.836  28.853  24.866  1.00  0.00     0.225 C 
ATOM      5  O   UNL A   1      33.147  28.948  23.675  1.00  0.00    -0.275 OA
ATOM      6  H   UNL A   1      34.019  30.372  25.293  1.00  0.00     0.163 HD
BRANCH   4   7
ATOM      7  C   UNL A   1      31.853  27.785  25.297  1.00  0.00     0.107 C 
ATOM      8  N   UNL A   1      31.502  25.546  24.622  1.00  0.00    -0.312 N 
ATOM      9  C   UNL A   1      32.462  26.398  25.282  1.00  0.00     0.139 C 
ATOM     10  C   UNL A   1      30.423  26.263  24.105  1.00  0.00     0.227 C 
ATOM     11  C   UNL A   1      30.565  27.711  24.497  1.00  0.00     0.116 C 
ATOM     12  O   UNL A   1      29.471  25.852  23.458  1.00  0.00    -0.274 OA
BRANCH   8  13
ATOM     13  C   UNL A   1      31.714  24.149  24.479  1.00  0.00     0.044 A 
ATOM     14  C   UNL A   1      32.123  21.369  24.170  1.00  0.00     0.120 A 
ATOM     15  C   UNL A   1      32.497  22.254  23.162  1.00  0.00     0.048 A 
ATOM     16  C   UNL A   1      31.569  21.871  25.342  1.00  0.00     0.048 A 
ATOM     17  C   UNL A   1      32.268  23.626  23.301  1.00  0.00     0.030 A 
ATOM     18  C   UNL A   1      31.380  23.251  25.498  1.00  0.00     0.030 A 
BRANCH  14  19
ATOM     19  O   UNL A   1      32.430  20.060  23.952  1.00  0.00    -0.484 OA
BRANCH  19  20
ATOM     20  C   UNL A   1      33.115  19.390  24.996  1.00  0.00     0.329 C 
BRANCH  20  21
ATOM     21  C   UNL A   1      34.330  18.522  24.670  1.00  0.00     0.262 C 
ATOM     22  N   UNL A   1      35.615  18.959  24.755  1.00  0.00    -0.323 N 
ATOM     23  H   UNL A   1      36.271  18.242  24.598  1.00  0.00     0.170 HD
ATOM     24  O   UNL A   1      34.161  17.343  24.326  1.00  0.00    -0.271 OA
BRANCH  22  25
ATOM     25  C   UNL A   1      36.221  20.200  25.015  1.00  0.00     0.041 A 
ATOM     26  C   UNL A   1      34.903  23.604  26.159  1.00  0.00     0.044 C 
ATOM     27  C   UNL A   1      35.835  22.514  25.719  1.00  0.00    -0.049 A 
ATOM     28  C   UNL A   1      37.201  22.772  25.592  1.00  0.00     0.003 A 
ATOM     29  C   UNL A   1      35.358  21.227  25.433  1.00  0.00     0.029 A 
ATOM     30  C   UNL A   1      38.070  21.756  25.202  1.00  0.00     0.002 A 
ATOM     31  C   UNL A   1      37.583  20.473  24.926  1.00  0.00     0.026 A 
ENDBRANCH  22  25
ENDBRANCH  20  21
ENDBRANCH  19  20
ENDBRANCH  14  19
ENDBRANCH   8  13
ENDBRANCH   4   7
ENDBRANCH   2   3
ENDBRANCH   1   2
BRANCH   1  32
ATOM     32  C   UNL A   1      33.002  32.578  27.325  1.00  0.00     0.002 C 
BRANCH  32  33
ATOM     33  C   UNL A   1      33.292  33.798  28.213  1.00  0.00     0.002 C 
BRANCH  33  34
ATOM     34  C   UNL A   1      34.637  34.498  28.003  1.00  0.00     0.021 C 
BRANCH  34  35
ATOM     35  C   UNL A   1      35.619  34.348  29.157  1.00  0.00     0.116 C 
BRANCH  35  36
ATOM     36  N   UNL A   1      35.034  33.861  30.396  1.00  0.00    -0.352 N 
ATOM     37  C   UNL A   1      35.081  32.594  30.964  1.00  0.00     0.251 C 
ATOM     38  H   UNL A   1      34.527  34.531  30.911  1.00  0.00     0.163 HD
ATOM     39  O   UNL A   1      34.438  32.352  31.964  1.00  0.00    -0.269 OA
BRANCH  37  40
ATOM     40  C   UNL A   1      36.036  31.583  30.430  1.00  0.00     0.039 A 
ATOM     41  C   UNL A   1      36.196  30.393  31.152  1.00  0.00     0.014 A 
ATOM     42  C   UNL A   1      36.900  31.875  29.381  1.00  0.00     0.014 A 
ATOM     43  C   UNL A   1      37.364  29.648  31.000  1.00  0.00     0.010 A 
ATOM     44  C   UNL A   1      38.106  31.212  29.309  1.00  0.00     0.010 A 
ATOM     45  C   UNL A   1      38.366  30.141  30.169  1.00  0.00    -0.014 A 
BRANCH  45  46
ATOM     46  C   UNL A   1      39.752  29.691  30.205  1.00  0.00     0.031 A 
ATOM     47  C   UNL A   1      40.126  28.361  29.686  1.00  0.00     0.074 A 
ATOM     48  C   UNL A   1      40.712  30.576  30.558  1.00  0.00     0.049 A 
ATOM     49  N   UNL A   1      41.247  27.776  29.937  1.00  0.00    -0.248 NA
ATOM     50  C   UNL A   1      39.240  27.570  28.844  1.00  0.00     0.031 C 
ATOM     51  C   UNL A   1      42.153  30.454  30.355  1.00  0.00     0.029 A 
ATOM     52  N   UNL A   1      40.573  31.713  31.371  1.00  0.00    -0.354 N 
ATOM     53  C   UNL A   1      41.350  26.687  29.104  1.00  0.00     0.074 A 
ATOM     54  C   UNL A   1      40.054  26.577  28.472  1.00  0.00     0.031 C 
ATOM     55  C   UNL A   1      42.781  31.241  31.242  1.00  0.00     0.029 A 
ATOM     56  C   UNL A   1      41.767  31.771  32.134  1.00  0.00     0.049 A 
ATOM     57  H   UNL A   1      39.811  32.336  31.404  1.00  0.00     0.167 HD
ATOM     58  C   UNL A   1      42.560  26.070  28.966  1.00  0.00     0.037 A 
ATOM     59  C   UNL A   1      41.729  31.579  33.486  1.00  0.00     0.037 A 
ATOM     60  C   UNL A   1      43.562  26.649  29.861  1.00  0.00     0.049 A 
ATOM     61  C   UNL A   1      42.485  30.360  33.974  1.00  0.00     0.074 A 
ATOM     62  C   UNL A   1      44.587  27.568  29.712  1.00  0.00     0.029 A 
ATOM     63  N   UNL A   1      43.381  26.499  31.222  1.00  0.00    -0.354 N 
ATOM     64  N   UNL A   1      43.077  29.498  33.195  1.00  0.00    -0.248 NA
ATOM     65  C   UNL A   1      42.546  29.963  35.383  1.00  0.00     0.031 C 
ATOM     66  C   UNL A   1      45.001  27.985  31.012  1.00  0.00     0.029 A 
ATOM     67  C   UNL A   1      44.231  27.313  31.943  1.00  0.00     0.049 A 
ATOM     68  H   UNL A   1      42.726  25.887  31.629  1.00  0.00     0.167 HD
ATOM     69  C   UNL A   1      43.526  28.443  33.942  1.00  0.00     0.074 A 
ATOM     70  C   UNL A   1      43.180  28.781  35.309  1.00  0.00     0.031 C 
ATOM     71  C   UNL A   1      44.110  27.343  33.389  1.00  0.00     0.037 A 
BRANCH  58  72
ATOM     72  C   UNL A   1      42.890  25.083  27.871  1.00  0.00     0.064 A 
ATOM     73  C   UNL A   1      43.462  25.519  26.656  1.00  0.00     0.173 A 
ATOM     74  C   UNL A   1      42.632  23.702  27.937  1.00  0.00     0.173 A 
ATOM     75  F   UNL A   1      43.864  26.785  26.485  1.00  0.00    -0.203 F 
ATOM     76  C   UNL A   1      43.643  24.667  25.564  1.00  0.00     0.198 A 
ATOM     77  C   UNL A   1      42.753  22.862  26.825  1.00  0.00     0.198 A 
ATOM     78  F   UNL A   1      42.314  23.108  29.094  1.00  0.00    -0.203 F 
ATOM     79  F   UNL A   1      44.191  25.142  24.435  1.00  0.00    -0.200 F 
ATOM     80  C   UNL A   1      43.248  23.348  25.633  1.00  0.00     0.200 A 
ATOM     81  F   UNL A   1      42.388  21.575  26.922  1.00  0.00    -0.200 F 
ATOM     82  F   UNL A   1      43.373  22.544  24.569  1.00  0.00    -0.200 F 
ENDBRANCH  58  72
BRANCH  59  83
ATOM     83  C   UNL A   1      40.482  32.118  34.095  1.00  0.00     0.064 A 
ATOM     84  C   UNL A   1      40.429  33.494  34.394  1.00  0.00     0.173 A 
ATOM     85  C   UNL A   1      39.268  31.427  34.010  1.00  0.00     0.173 A 
ATOM     86  F   UNL A   1      41.565  34.205  34.487  1.00  0.00    -0.203 F 
ATOM     87  C   UNL A   1      39.215  34.173  34.470  1.00  0.00     0.198 A 
ATOM     88  C   UNL A   1      38.053  32.107  34.109  1.00  0.00     0.198 A 
ATOM     89  F   UNL A   1      39.249  30.121  33.708  1.00  0.00    -0.203 F 
ATOM     90  F   UNL A   1      39.202  35.503  34.627  1.00  0.00    -0.200 F 
ATOM     91  C   UNL A   1      38.028  33.481  34.298  1.00  0.00     0.200 A 
ATOM     92  F   UNL A   1      36.904  31.442  33.921  1.00  0.00    -0.200 F 
ATOM     93  F   UNL A   1      36.863  34.144  34.273  1.00  0.00    -0.200 F 
ENDBRANCH  59  83
BRANCH  71  94
ATOM     94  C   UNL A   1      44.616  26.188  34.198  1.00  0.00     0.064 A 
ATOM     95  C   UNL A   1      45.984  25.995  34.438  1.00  0.00     0.173 A 
ATOM     96  C   UNL A   1      43.749  25.166  34.638  1.00  0.00     0.173 A 
ATOM     97  F   UNL A   1      46.884  26.898  34.021  1.00  0.00    -0.203 F 
ATOM     98  C   UNL A   1      46.453  24.860  35.100  1.00  0.00     0.198 A 
ATOM     99  C   UNL A   1      44.225  24.011  35.250  1.00  0.00     0.198 A 
ATOM    100  F   UNL A   1      42.419  25.276  34.506  1.00  0.00    -0.203 F 
ATOM    101  F   UNL A   1      47.764  24.730  35.351  1.00  0.00    -0.200 F 
ATOM    102  C   UNL A   1      45.577  23.861  35.490  1.00  0.00     0.200 A 
ATOM    103  F   UNL A   1      43.366  23.046  35.609  1.00  0.00    -0.200 F 
ATOM    104  F   UNL A   1      46.033  22.758  36.100  1.00  0.00    -0.200 F 
ENDBRANCH  71  94
ENDBRANCH  45  46
ENDBRANCH  37  40
ENDBRANCH  35  36
ENDBRANCH  34  35
ENDBRANCH  33  34
ENDBRANCH  32  33
ENDBRANCH   1  32
TORSDOF 18
ENDMDL
MODEL 3
REMARK VINA RESULT:     -12.0      3.670     10.309
REMARK SMILES Cc1cccc(NC(=O)COc2ccc(N3C[C@@H](C(=O)NCCCCCCNC(=O)c4ccc(-c5c6nc(c(-c7c(F)c(F)c(F)c(F)c7F)c7ccc([nH]7)c(-c7c(F)c(F)c(F)c(F)c7F)c7nc(c(-c8c(F)c(F)c(F)c(F)c8F)c8ccc5[nH]8)C=C7)C=C6)cc4)CC3=O)cc2)c1
REMARK SMILES IDX 23 1 22 2 21 3 19 4 20 5 18 7 16 8 17 9 95 10 94 11 96 12
REMARK SMILES IDX 15 13 12 14 13 15 98 16 14 17 97 18 11 19 10 20 8 21 7 22
REMARK SMILES IDX 9 24 6 25 1 26 2 27 3 28 99 29 4 30 5 31 24 32 25 33 26 34
REMARK SMILES IDX 27 35 28 36 29 37 30 39 31 40 32 41 93 42 33 43 92 44 34 45
REMARK SMILES IDX 35 46 36 47 86 48 37 49 91 50 85 51 87 52 38 53 90 54 84 55
REMARK SMILES IDX 83 56 39 58 71 59 51 60 70 61 52 62 55 63 69 64 88 65 53 66
REMARK SMILES IDX 54 67 68 69 89 70 56 71 40 72 41 73 49 74 42 75 43 76 47 77
REMARK SMILES IDX 50 78 44 79 45 80 48 81 46 82 72 83 73 84 81 85 74 86 75 87
REMARK SMILES IDX 79 88 82 89 76 90 77 91 80 92 78 93 57 94 58 95 66 96 59 97
REMARK SMILES IDX 60 98 64 99 67 100 61 101 62 102 65 103 63 104
REMARK H PARENT 21 6 7 23 28 38 87 57 55 68
REMARK Flexibility Score: inf
ROOT
ATOM      1  C   UNL A   1      34.359  30.658  27.464  1.00  0.00     0.021 C 
ENDROOT
BRANCH   1   2
ATOM      2  C   UNL A   1      33.114  30.257  26.670  1.00  0.00     0.116 C 
BRANCH   2   3
ATOM      3  N   UNL A   1      33.446  29.792  25.337  1.00  0.00    -0.356 N 
ATOM      4  C   UNL A   1      33.122  28.664  24.659  1.00  0.00     0.225 C 
ATOM      5  O   UNL A   1      33.506  28.582  23.488  1.00  0.00    -0.275 OA
ATOM      6  H   UNL A   1      34.015  30.414  24.827  1.00  0.00     0.163 HD
BRANCH   4   7
ATOM      7  C   UNL A   1      32.288  27.546  25.250  1.00  0.00     0.107 C 
ATOM      8  N   UNL A   1      31.747  25.368  24.505  1.00  0.00    -0.312 N 
ATOM      9  C   UNL A   1      32.859  26.176  24.946  1.00  0.00     0.139 C 
ATOM     10  C   UNL A   1      30.573  26.109  24.371  1.00  0.00     0.227 C 
ATOM     11  C   UNL A   1      30.829  27.520  24.834  1.00  0.00     0.116 C 
ATOM     12  O   UNL A   1      29.475  25.739  23.979  1.00  0.00    -0.274 OA
BRANCH   8  13
ATOM     13  C   UNL A   1      31.900  23.993  24.187  1.00  0.00     0.044 A 
ATOM     14  C   UNL A   1      32.193  21.259  23.530  1.00  0.00     0.120 A 
ATOM     15  C   UNL A   1      32.682  22.245  22.678  1.00  0.00     0.048 A 
ATOM     16  C   UNL A   1      31.581  21.632  24.721  1.00  0.00     0.048 A 
ATOM     17  C   UNL A   1      32.512  23.599  22.988  1.00  0.00     0.030 A 
ATOM     18  C   UNL A   1      31.450  22.988  25.051  1.00  0.00     0.030 A 
BRANCH  14  19
ATOM     19  O   UNL A   1      32.450  19.974  23.156  1.00  0.00    -0.484 OA
BRANCH  19  20
ATOM     20  C   UNL A   1      32.628  19.035  24.203  1.00  0.00     0.329 C 
BRANCH  20  21
ATOM     21  C   UNL A   1      34.031  18.530  24.537  1.00  0.00     0.262 C 
ATOM     22  N   UNL A   1      35.015  19.316  25.053  1.00  0.00    -0.323 N 
ATOM     23  H   UNL A   1      35.822  18.806  25.292  1.00  0.00     0.170 HD
ATOM     24  O   UNL A   1      34.307  17.335  24.355  1.00  0.00    -0.271 OA
BRANCH  22  25
ATOM     25  C   UNL A   1      35.141  20.689  25.322  1.00  0.00     0.041 A 
ATOM     26  C   UNL A   1      36.609  23.645  23.389  1.00  0.00     0.044 C 
ATOM     27  C   UNL A   1      35.947  22.838  24.465  1.00  0.00    -0.049 A 
ATOM     28  C   UNL A   1      35.507  23.460  25.634  1.00  0.00     0.003 A 
ATOM     29  C   UNL A   1      35.756  21.457  24.318  1.00  0.00     0.029 A 
ATOM     30  C   UNL A   1      34.875  22.714  26.626  1.00  0.00     0.002 A 
ATOM     31  C   UNL A   1      34.683  21.338  26.465  1.00  0.00     0.026 A 
ENDBRANCH  22  25
ENDBRANCH  20  21
ENDBRANCH  19  20
ENDBRANCH  14  19
ENDBRANCH   8  13
ENDBRANCH   4   7
ENDBRANCH   2   3
ENDBRANCH   1   2
BRANCH   1  32
ATOM     32  C   UNL A   1      34.597  32.168  27.617  1.00  0.00     0.002 C 
BRANCH  32  33
ATOM     33  C   UNL A   1      34.884  32.690  29.034  1.00  0.00     0.002 C 
BRANCH  33  34
ATOM     34  C   UNL A   1      36.055  33.665  29.183  1.00  0.00     0.021 C 
BRANCH  34  35
ATOM     35  C   UNL A   1      36.896  33.462  30.436  1.00  0.00     0.116 C 
BRANCH  35  36
ATOM     36  N   UNL A   1      36.351  32.508  31.389  1.00  0.00    -0.352 N 
ATOM     37  C   UNL A   1      36.460  31.124  31.423  1.00  0.00     0.251 C 
ATOM     38  H   UNL A   1      35.822  32.903  32.120  1.00  0.00     0.163 HD
ATOM     39  O   UNL A   1      35.843  30.486  32.250  1.00  0.00    -0.269 OA
BRANCH  37  40
ATOM     40  C   UNL A   1      37.450  30.442  30.544  1.00  0.00     0.039 A 
ATOM     41  C   UNL A   1      37.388  29.044  30.454  1.00  0.00     0.014 A 
ATOM     42  C   UNL A   1      38.533  31.121  29.996  1.00  0.00     0.014 A 
ATOM     43  C   UNL A   1      38.520  28.329  30.066  1.00  0.00     0.010 A 
ATOM     44  C   UNL A   1      39.688  30.421  29.725  1.00  0.00     0.010 A 
ATOM     45  C   UNL A   1      39.701  29.027  29.829  1.00  0.00    -0.014 A 
BRANCH  45  46
ATOM     46  C   UNL A   1      41.020  28.409  29.794  1.00  0.00     0.031 A 
ATOM     47  C   UNL A   1      41.201  27.049  29.251  1.00  0.00     0.074 A 
ATOM     48  C   UNL A   1      42.098  29.165  30.102  1.00  0.00     0.049 A 
ATOM     49  N   UNL A   1      42.252  26.328  29.442  1.00  0.00    -0.248 NA
ATOM     50  C   UNL A   1      40.183  26.381  28.451  1.00  0.00     0.031 C 
ATOM     51  C   UNL A   1      43.502  28.869  29.825  1.00  0.00     0.029 A 
ATOM     52  N   UNL A   1      42.142  30.302  30.925  1.00  0.00    -0.354 N 
ATOM     53  C   UNL A   1      42.179  25.243  28.601  1.00  0.00     0.074 A 
ATOM     54  C   UNL A   1      40.850  25.300  28.035  1.00  0.00     0.031 C 
ATOM     55  C   UNL A   1      44.265  29.563  30.684  1.00  0.00     0.029 A 
ATOM     56  C   UNL A   1      43.370  30.205  31.628  1.00  0.00     0.049 A 
ATOM     57  H   UNL A   1      41.465  31.014  30.999  1.00  0.00     0.167 HD
ATOM     58  C   UNL A   1      43.295  24.483  28.399  1.00  0.00     0.037 A 
ATOM     59  C   UNL A   1      43.375  30.005  32.979  1.00  0.00     0.037 A 
ATOM     60  C   UNL A   1      44.403  24.924  29.245  1.00  0.00     0.049 A 
ATOM     61  C   UNL A   1      43.998  28.697  33.423  1.00  0.00     0.074 A 
ATOM     62  C   UNL A   1      45.526  25.712  29.049  1.00  0.00     0.029 A 
ATOM     63  N   UNL A   1      44.273  24.784  30.613  1.00  0.00    -0.354 N 
ATOM     64  N   UNL A   1      44.440  27.776  32.611  1.00  0.00    -0.248 NA
ATOM     65  C   UNL A   1      44.079  28.281  34.825  1.00  0.00     0.031 C 
ATOM     66  C   UNL A   1      46.052  26.061  30.328  1.00  0.00     0.029 A 
ATOM     67  C   UNL A   1      45.252  25.480  31.294  1.00  0.00     0.049 A 
ATOM     68  H   UNL A   1      43.569  24.253  31.050  1.00  0.00     0.167 HD
ATOM     69  C   UNL A   1      44.792  26.667  33.330  1.00  0.00     0.074 A 
ATOM     70  C   UNL A   1      44.557  27.031  34.714  1.00  0.00     0.031 C 
ATOM     71  C   UNL A   1      45.207  25.509  32.744  1.00  0.00     0.037 A 
BRANCH  58  72
ATOM     72  C   UNL A   1      43.446  23.475  27.285  1.00  0.00     0.064 A 
ATOM     73  C   UNL A   1      42.764  22.239  27.333  1.00  0.00     0.173 A 
ATOM     74  C   UNL A   1      44.277  23.644  26.162  1.00  0.00     0.173 A 
ATOM     75  F   UNL A   1      41.856  21.976  28.282  1.00  0.00    -0.203 F 
ATOM     76  C   UNL A   1      42.991  21.220  26.405  1.00  0.00     0.198 A 
ATOM     77  C   UNL A   1      44.553  22.603  25.269  1.00  0.00     0.198 A 
ATOM     78  F   UNL A   1      44.799  24.838  25.857  1.00  0.00    -0.203 F 
ATOM     79  F   UNL A   1      42.313  20.067  26.505  1.00  0.00    -0.200 F 
ATOM     80  C   UNL A   1      43.918  21.386  25.398  1.00  0.00     0.200 A 
ATOM     81  F   UNL A   1      45.437  22.794  24.280  1.00  0.00    -0.200 F 
ATOM     82  F   UNL A   1      44.174  20.391  24.538  1.00  0.00    -0.200 F 
ENDBRANCH  58  72
BRANCH  59  83
ATOM     83  C   UNL A   1      42.236  30.687  33.652  1.00  0.00     0.064 A 
ATOM     84  C   UNL A   1      42.329  32.076  33.873  1.00  0.00     0.173 A 
ATOM     85  C   UNL A   1      40.964  30.107  33.705  1.00  0.00     0.173 A 
ATOM     86  F   UNL A   1      43.526  32.683  33.832  1.00  0.00    -0.203 F 
ATOM     87  C   UNL A   1      41.189  32.866  34.004  1.00  0.00     0.198 A 
ATOM     88  C   UNL A   1      39.826  30.900  33.860  1.00  0.00     0.198 A 
ATOM     89  F   UNL A   1      40.805  28.795  33.483  1.00  0.00    -0.203 F 
ATOM     90  F   UNL A   1      41.306  34.199  34.082  1.00  0.00    -0.200 F 
ATOM     91  C   UNL A   1      39.937  32.279  33.968  1.00  0.00     0.200 A 
ATOM     92  F   UNL A   1      38.610  30.334  33.803  1.00  0.00    -0.200 F 
ATOM     93  F   UNL A   1      38.835  33.043  33.996  1.00  0.00    -0.200 F 
ENDBRANCH  59  83
BRANCH  71  94
ATOM     94  C   UNL A   1      45.605  24.292  33.521  1.00  0.00     0.064 A 
ATOM     95  C   UNL A   1      46.932  24.068  33.916  1.00  0.00     0.173 A 
ATOM     96  C   UNL A   1      44.689  23.250  33.772  1.00  0.00     0.173 A 
ATOM     97  F   UNL A   1      47.879  24.989  33.684  1.00  0.00    -0.203 F 
ATOM     98  C   UNL A   1      47.313  22.882  34.545  1.00  0.00     0.198 A 
ATOM     99  C   UNL A   1      45.083  22.048  34.351  1.00  0.00     0.198 A 
ATOM    100  F   UNL A   1      43.386  23.384  33.483  1.00  0.00    -0.203 F 
ATOM    101  F   UNL A   1      48.582  22.720  34.948  1.00  0.00    -0.200 F 
ATOM    102  C   UNL A   1      46.394  21.866  34.746  1.00  0.00     0.200 A 
ATOM    103  F   UNL A   1      44.184  21.068  34.527  1.00  0.00    -0.200 F 
ATOM    104  F   UNL A   1      46.768  20.717  35.325  1.00  0.00    -0.200 F 
ENDBRANCH  71  94
ENDBRANCH  45  46
ENDBRANCH  37  40
ENDBRANCH  35  36
ENDBRANCH  34  35
ENDBRANCH  33  34
ENDBRANCH  32  33
ENDBRANCH   1  32
TORSDOF 18
ENDMDL
