MODEL 1
REMARK VINA RESULT:     -13.1      0.000      0.000
REMARK SMILES CC(C)Cc1cc2c(cc1Cl)C=C(C(=O)NCCCCCCNC(=O)c1ccc(-c3c4nc(c(-c5c(F)c(F)c(F)c(F)c5F)c5ccc([nH]5)c(-c5c(F)c(F)c(F)c(F)c5F)c5nc(c(-c6c(F)c(F)c(F)c(F)c6F)c6ccc3[nH]6)C=C5)C=C4)cc1)[C@@H](C(F)(F)F)O2
REMARK SMILES IDX 19 1 18 2 17 3 16 4 14 5 15 6 13 8 5 9 6 10 10 11 7 12 9 13
REMARK SMILES IDX 11 14 8 15 94 16 12 17 89 18 4 19 2 20 1 21 3 22 90 23 91 24
REMARK SMILES IDX 92 25 93 26 20 27 21 28 22 29 23 30 24 31 25 33 26 34 27 35
REMARK SMILES IDX 88 36 28 37 87 38 29 39 30 40 31 41 81 42 32 43 86 44 80 45
REMARK SMILES IDX 82 46 33 47 85 48 79 49 78 50 34 52 66 53 46 54 65 55 47 56
REMARK SMILES IDX 50 57 64 58 83 59 48 60 49 61 63 63 84 64 51 65 35 66 36 67
REMARK SMILES IDX 44 68 37 69 38 70 42 71 45 72 39 73 40 74 43 75 41 76 67 77
REMARK SMILES IDX 68 78 76 79 69 80 70 81 74 82 77 83 71 84 72 85 75 86 73 87
REMARK SMILES IDX 52 88 53 89 61 90 54 91 55 92 59 93 62 94 56 95 57 96 60 97
REMARK SMILES IDX 58 98
REMARK H PARENT 16 7 23 32 82 51 50 62
REMARK Flexibility Score: inf
ROOT
ATOM      1  C   UNL A   1      31.897  29.585  27.251  1.00  0.00     0.002 C 
ENDROOT
BRANCH   1   2
ATOM      2  C   UNL A   1      31.814  28.126  26.791  1.00  0.00     0.021 C 
BRANCH   2   3
ATOM      3  C   UNL A   1      33.144  27.455  26.464  1.00  0.00     0.116 C 
BRANCH   3   4
ATOM      4  N   UNL A   1      33.481  27.522  25.056  1.00  0.00    -0.352 N 
ATOM      5  C   UNL A   1      33.613  26.618  24.055  1.00  0.00     0.251 C 
ATOM      6  O   UNL A   1      33.872  27.082  22.941  1.00  0.00    -0.270 OA
ATOM      7  H   UNL A   1      33.658  28.443  24.756  1.00  0.00     0.163 HD
BRANCH   5   8
ATOM      8  C   UNL A   1      33.492  25.139  24.227  1.00  0.00     0.067 C 
ATOM      9  C   UNL A   1      34.731  20.240  24.690  1.00  0.00    -0.025 A 
ATOM     10  C   UNL A   1      33.520  20.953  24.594  1.00  0.00     0.052 A 
ATOM     11  C   UNL A   1      35.928  20.972  24.647  1.00  0.00     0.045 A 
ATOM     12  C   UNL A   1      33.507  22.344  24.463  1.00  0.00     0.128 A 
ATOM     13  C   UNL A   1      35.911  22.361  24.471  1.00  0.00     0.032 A 
ATOM     14  Cl  UNL A   1      37.475  20.230  24.854  1.00  0.00    -0.084 Cl
ATOM     15  C   UNL A   1      34.699  23.052  24.386  1.00  0.00     0.019 A 
ATOM     16  O   UNL A   1      32.281  22.933  24.427  1.00  0.00    -0.475 OA
ATOM     17  C   UNL A   1      34.673  24.497  24.235  1.00  0.00     0.025 C 
ATOM     18  C   UNL A   1      32.190  24.385  24.330  1.00  0.00     0.314 C 
BRANCH   9  19
ATOM     19  C   UNL A   1      34.668  18.736  24.853  1.00  0.00     0.040 C 
BRANCH  19  20
ATOM     20  C   UNL A   1      33.524  18.048  24.076  1.00  0.00    -0.013 C 
ATOM     21  C   UNL A   1      34.026  16.958  23.126  1.00  0.00     0.008 C 
ATOM     22  C   UNL A   1      32.530  17.429  25.064  1.00  0.00     0.008 C 
ENDBRANCH  19  20
ENDBRANCH   9  19
BRANCH  18  23
ATOM     23  C   UNL A   1      31.185  24.686  23.204  1.00  0.00     0.429 C 
ATOM     24  F   UNL A   1      30.508  25.831  23.481  1.00  0.00    -0.167 F 
ATOM     25  F   UNL A   1      31.766  24.877  22.000  1.00  0.00    -0.167 F 
ATOM     26  F   UNL A   1      30.271  23.702  23.055  1.00  0.00    -0.167 F 
ENDBRANCH  18  23
ENDBRANCH   5   8
ENDBRANCH   3   4
ENDBRANCH   2   3
ENDBRANCH   1   2
BRANCH   1  27
ATOM     27  C   UNL A   1      31.777  30.656  26.161  1.00  0.00     0.002 C 
BRANCH  27  28
ATOM     28  C   UNL A   1      31.474  32.078  26.635  1.00  0.00     0.021 C 
BRANCH  28  29
ATOM     29  C   UNL A   1      32.624  32.805  27.321  1.00  0.00     0.116 C 
BRANCH  29  30
ATOM     30  N   UNL A   1      32.325  34.193  27.626  1.00  0.00    -0.352 N 
ATOM     31  C   UNL A   1      32.933  35.027  28.536  1.00  0.00     0.251 C 
ATOM     32  H   UNL A   1      31.587  34.593  27.111  1.00  0.00     0.163 HD
ATOM     33  O   UNL A   1      32.487  36.149  28.751  1.00  0.00    -0.269 OA
BRANCH  31  34
ATOM     34  C   UNL A   1      34.106  34.542  29.293  1.00  0.00     0.039 A 
ATOM     35  C   UNL A   1      35.394  34.654  28.763  1.00  0.00     0.014 A 
ATOM     36  C   UNL A   1      33.904  33.924  30.530  1.00  0.00     0.014 A 
ATOM     37  C   UNL A   1      36.454  34.006  29.389  1.00  0.00     0.010 A 
ATOM     38  C   UNL A   1      34.984  33.335  31.193  1.00  0.00     0.010 A 
ATOM     39  C   UNL A   1      36.258  33.326  30.603  1.00  0.00    -0.014 A 
BRANCH  39  40
ATOM     40  C   UNL A   1      37.383  32.583  31.225  1.00  0.00     0.031 A 
ATOM     41  C   UNL A   1      37.839  32.919  32.619  1.00  0.00     0.074 A 
ATOM     42  C   UNL A   1      37.963  31.571  30.553  1.00  0.00     0.049 A 
ATOM     43  N   UNL A   1      38.825  32.408  33.314  1.00  0.00    -0.248 NA
ATOM     44  C   UNL A   1      37.091  33.969  33.328  1.00  0.00     0.031 C 
ATOM     45  C   UNL A   1      37.590  31.130  29.210  1.00  0.00     0.029 A 
ATOM     46  N   UNL A   1      38.975  30.719  30.917  1.00  0.00    -0.354 N 
ATOM     47  C   UNL A   1      38.828  33.084  34.527  1.00  0.00     0.074 A 
ATOM     48  C   UNL A   1      37.761  34.060  34.469  1.00  0.00     0.031 C 
ATOM     49  C   UNL A   1      38.333  30.063  28.877  1.00  0.00     0.029 A 
ATOM     50  C   UNL A   1      39.274  29.784  29.957  1.00  0.00     0.049 A 
ATOM     51  H   UNL A   1      39.443  30.774  31.781  1.00  0.00     0.167 HD
ATOM     52  C   UNL A   1      39.641  32.900  35.595  1.00  0.00     0.037 A 
ATOM     53  C   UNL A   1      40.215  28.821  29.941  1.00  0.00     0.037 A 
ATOM     54  C   UNL A   1      40.686  31.912  35.661  1.00  0.00     0.049 A 
ATOM     55  C   UNL A   1      41.135  28.672  31.118  1.00  0.00     0.074 A 
ATOM     56  C   UNL A   1      41.557  31.645  36.703  1.00  0.00     0.029 A 
ATOM     57  N   UNL A   1      40.999  31.025  34.642  1.00  0.00    -0.354 N 
ATOM     58  N   UNL A   1      41.145  29.336  32.248  1.00  0.00    -0.248 NA
ATOM     59  C   UNL A   1      42.185  27.650  31.011  1.00  0.00     0.031 C 
ATOM     60  C   UNL A   1      42.419  30.618  36.303  1.00  0.00     0.029 A 
ATOM     61  C   UNL A   1      42.059  30.218  35.026  1.00  0.00     0.049 A 
ATOM     62  H   UNL A   1      40.536  30.974  33.776  1.00  0.00     0.167 HD
ATOM     63  C   UNL A   1      42.197  28.813  32.987  1.00  0.00     0.074 A 
ATOM     64  C   UNL A   1      42.785  27.757  32.188  1.00  0.00     0.031 C 
ATOM     65  C   UNL A   1      42.640  29.181  34.213  1.00  0.00     0.037 A 
BRANCH  52  66
ATOM     66  C   UNL A   1      39.442  33.791  36.786  1.00  0.00     0.064 A 
ATOM     67  C   UNL A   1      38.668  33.388  37.884  1.00  0.00     0.173 A 
ATOM     68  C   UNL A   1      40.081  35.038  36.856  1.00  0.00     0.173 A 
ATOM     69  F   UNL A   1      38.026  32.210  37.861  1.00  0.00    -0.203 F 
ATOM     70  C   UNL A   1      38.531  34.206  39.002  1.00  0.00     0.198 A 
ATOM     71  C   UNL A   1      39.961  35.844  37.985  1.00  0.00     0.198 A 
ATOM     72  F   UNL A   1      40.836  35.469  35.834  1.00  0.00    -0.203 F 
ATOM     73  F   UNL A   1      37.761  33.814  40.027  1.00  0.00    -0.200 F 
ATOM     74  C   UNL A   1      39.183  35.429  39.056  1.00  0.00     0.200 A 
ATOM     75  F   UNL A   1      40.601  37.020  38.039  1.00  0.00    -0.200 F 
ATOM     76  F   UNL A   1      39.059  36.210  40.138  1.00  0.00    -0.200 F 
ENDBRANCH  52  66
BRANCH  53  77
ATOM     77  C   UNL A   1      40.330  27.928  28.760  1.00  0.00     0.064 A 
ATOM     78  C   UNL A   1      39.649  26.705  28.717  1.00  0.00     0.173 A 
ATOM     79  C   UNL A   1      41.099  28.291  27.644  1.00  0.00     0.173 A 
ATOM     80  F   UNL A   1      38.920  26.307  29.769  1.00  0.00    -0.203 F 
ATOM     81  C   UNL A   1      39.735  25.875  27.601  1.00  0.00     0.198 A 
ATOM     82  C   UNL A   1      41.163  27.473  26.520  1.00  0.00     0.198 A 
ATOM     83  F   UNL A   1      41.768  29.453  27.640  1.00  0.00    -0.203 F 
ATOM     84  F   UNL A   1      39.098  24.697  27.595  1.00  0.00    -0.200 F 
ATOM     85  C   UNL A   1      40.485  26.264  26.500  1.00  0.00     0.200 A 
ATOM     86  F   UNL A   1      41.877  27.859  25.453  1.00  0.00    -0.200 F 
ATOM     87  F   UNL A   1      40.556  25.471  25.422  1.00  0.00    -0.200 F 
ENDBRANCH  53  77
BRANCH  65  88
ATOM     88  C   UNL A   1      43.819  28.437  34.766  1.00  0.00     0.064 A 
ATOM     89  C   UNL A   1      45.127  28.908  34.585  1.00  0.00     0.173 A 
ATOM     90  C   UNL A   1      43.636  27.264  35.514  1.00  0.00     0.173 A 
ATOM     91  F   UNL A   1      45.352  30.016  33.864  1.00  0.00    -0.203 F 
ATOM     92  C   UNL A   1      46.214  28.219  35.118  1.00  0.00     0.198 A 
ATOM     93  C   UNL A   1      44.725  26.593  36.066  1.00  0.00     0.198 A 
ATOM     94  F   UNL A   1      42.404  26.776  35.719  1.00  0.00    -0.203 F 
ATOM     95  F   UNL A   1      47.459  28.665  34.898  1.00  0.00    -0.200 F 
ATOM     96  C   UNL A   1      46.012  27.068  35.863  1.00  0.00     0.200 A 
ATOM     97  F   UNL A   1      44.526  25.485  36.795  1.00  0.00    -0.200 F 
ATOM     98  F   UNL A   1      47.059  26.409  36.378  1.00  0.00    -0.200 F 
ENDBRANCH  65  88
ENDBRANCH  39  40
ENDBRANCH  31  34
ENDBRANCH  29  30
ENDBRANCH  28  29
ENDBRANCH  27  28
ENDBRANCH   1  27
TORSDOF 16
ENDMDL
MODEL 2
REMARK VINA RESULT:     -13.0      0.501      7.222
REMARK SMILES CC(C)Cc1cc2c(cc1Cl)C=C(C(=O)NCCCCCCNC(=O)c1ccc(-c3c4nc(c(-c5c(F)c(F)c(F)c(F)c5F)c5ccc([nH]5)c(-c5c(F)c(F)c(F)c(F)c5F)c5nc(c(-c6c(F)c(F)c(F)c(F)c6F)c6ccc3[nH]6)C=C5)C=C4)cc1)[C@@H](C(F)(F)F)O2
REMARK SMILES IDX 19 1 18 2 17 3 16 4 14 5 15 6 13 8 5 9 6 10 10 11 7 12 9 13
REMARK SMILES IDX 11 14 8 15 94 16 12 17 89 18 4 19 2 20 1 21 3 22 90 23 91 24
REMARK SMILES IDX 92 25 93 26 20 27 21 28 22 29 23 30 24 31 25 33 26 34 27 35
REMARK SMILES IDX 88 36 28 37 87 38 29 39 30 40 31 41 81 42 32 43 86 44 80 45
REMARK SMILES IDX 82 46 33 47 85 48 79 49 78 50 34 52 66 53 46 54 65 55 47 56
REMARK SMILES IDX 50 57 64 58 83 59 48 60 49 61 63 63 84 64 51 65 35 66 36 67
REMARK SMILES IDX 44 68 37 69 38 70 42 71 45 72 39 73 40 74 43 75 41 76 67 77
REMARK SMILES IDX 68 78 76 79 69 80 70 81 74 82 77 83 71 84 72 85 75 86 73 87
REMARK SMILES IDX 52 88 53 89 61 90 54 91 55 92 59 93 62 94 56 95 57 96 60 97
REMARK SMILES IDX 58 98
REMARK H PARENT 16 7 23 32 82 51 50 62
REMARK Flexibility Score: inf
ROOT
ATOM      1  C   UNL A   1      31.819  29.435  27.256  1.00  0.00     0.002 C 
ENDROOT
BRANCH   1   2
ATOM      2  C   UNL A   1      32.201  28.039  26.754  1.00  0.00     0.021 C 
BRANCH   2   3
ATOM      3  C   UNL A   1      33.648  27.867  26.305  1.00  0.00     0.116 C 
BRANCH   3   4
ATOM      4  N   UNL A   1      33.796  27.845  24.864  1.00  0.00    -0.352 N 
ATOM      5  C   UNL A   1      33.649  26.907  23.897  1.00  0.00     0.251 C 
ATOM      6  O   UNL A   1      33.821  27.296  22.738  1.00  0.00    -0.270 OA
ATOM      7  H   UNL A   1      34.069  28.719  24.501  1.00  0.00     0.163 HD
BRANCH   5   8
ATOM      8  C   UNL A   1      33.327  25.471  24.150  1.00  0.00     0.067 C 
ATOM      9  C   UNL A   1      33.882  20.478  24.865  1.00  0.00    -0.025 A 
ATOM     10  C   UNL A   1      32.780  21.347  24.745  1.00  0.00     0.052 A 
ATOM     11  C   UNL A   1      35.168  21.031  24.767  1.00  0.00     0.045 A 
ATOM     12  C   UNL A   1      32.959  22.718  24.538  1.00  0.00     0.128 A 
ATOM     13  C   UNL A   1      35.341  22.398  24.517  1.00  0.00     0.032 A 
ATOM     14  Cl  UNL A   1      36.600  20.092  24.996  1.00  0.00    -0.084 Cl
ATOM     15  C   UNL A   1      34.236  23.247  24.408  1.00  0.00     0.019 A 
ATOM     16  O   UNL A   1      31.825  23.469  24.485  1.00  0.00    -0.475 OA
ATOM     17  C   UNL A   1      34.408  24.672  24.180  1.00  0.00     0.025 C 
ATOM     18  C   UNL A   1      31.935  24.913  24.310  1.00  0.00     0.314 C 
BRANCH   9  19
ATOM     19  C   UNL A   1      33.614  19.008  25.111  1.00  0.00     0.040 C 
BRANCH  19  20
ATOM     20  C   UNL A   1      33.825  18.097  23.881  1.00  0.00    -0.013 C 
ATOM     21  C   UNL A   1      34.412  16.733  24.249  1.00  0.00     0.008 C 
ATOM     22  C   UNL A   1      32.489  17.888  23.160  1.00  0.00     0.008 C 
ENDBRANCH  19  20
ENDBRANCH   9  19
BRANCH  18  23
ATOM     23  C   UNL A   1      30.960  25.291  23.182  1.00  0.00     0.429 C 
ATOM     24  F   UNL A   1      31.597  25.239  21.983  1.00  0.00    -0.167 F 
ATOM     25  F   UNL A   1      29.903  24.457  23.080  1.00  0.00    -0.167 F 
ATOM     26  F   UNL A   1      30.470  26.542  23.324  1.00  0.00    -0.167 F 
ENDBRANCH  18  23
ENDBRANCH   5   8
ENDBRANCH   3   4
ENDBRANCH   2   3
ENDBRANCH   1   2
BRANCH   1  27
ATOM     27  C   UNL A   1      31.848  30.566  26.222  1.00  0.00     0.002 C 
BRANCH  27  28
ATOM     28  C   UNL A   1      31.504  31.965  26.735  1.00  0.00     0.021 C 
BRANCH  28  29
ATOM     29  C   UNL A   1      32.658  32.747  27.349  1.00  0.00     0.116 C 
BRANCH  29  30
ATOM     30  N   UNL A   1      32.326  34.131  27.637  1.00  0.00    -0.352 N 
ATOM     31  C   UNL A   1      32.906  34.986  28.545  1.00  0.00     0.251 C 
ATOM     32  H   UNL A   1      31.585  34.509  27.110  1.00  0.00     0.163 HD
ATOM     33  O   UNL A   1      32.434  36.101  28.744  1.00  0.00    -0.269 OA
BRANCH  31  34
ATOM     34  C   UNL A   1      34.082  34.535  29.319  1.00  0.00     0.039 A 
ATOM     35  C   UNL A   1      35.350  34.495  28.733  1.00  0.00     0.014 A 
ATOM     36  C   UNL A   1      33.899  34.100  30.634  1.00  0.00     0.014 A 
ATOM     37  C   UNL A   1      36.398  33.872  29.404  1.00  0.00     0.010 A 
ATOM     38  C   UNL A   1      34.971  33.539  31.333  1.00  0.00     0.010 A 
ATOM     39  C   UNL A   1      36.215  33.373  30.704  1.00  0.00    -0.014 A 
BRANCH  39  40
ATOM     40  C   UNL A   1      37.323  32.650  31.382  1.00  0.00     0.031 A 
ATOM     41  C   UNL A   1      38.057  31.545  30.671  1.00  0.00     0.074 A 
ATOM     42  C   UNL A   1      37.700  33.022  32.619  1.00  0.00     0.049 A 
ATOM     43  N   UNL A   1      39.022  30.777  31.110  1.00  0.00    -0.248 NA
ATOM     44  C   UNL A   1      37.654  31.263  29.285  1.00  0.00     0.031 C 
ATOM     45  C   UNL A   1      37.088  34.097  33.398  1.00  0.00     0.029 A 
ATOM     46  N   UNL A   1      38.702  32.549  33.429  1.00  0.00    -0.354 N 
ATOM     47  C   UNL A   1      39.327  29.912  30.067  1.00  0.00     0.074 A 
ATOM     48  C   UNL A   1      38.429  30.232  28.978  1.00  0.00     0.031 C 
ATOM     49  C   UNL A   1      37.751  34.231  34.556  1.00  0.00     0.029 A 
ATOM     50  C   UNL A   1      38.795  33.213  34.627  1.00  0.00     0.049 A 
ATOM     51  H   UNL A   1      39.294  31.805  33.177  1.00  0.00     0.167 HD
ATOM     52  C   UNL A   1      40.276  28.946  30.019  1.00  0.00     0.037 A 
ATOM     53  C   UNL A   1      39.618  33.013  35.674  1.00  0.00     0.037 A 
ATOM     54  C   UNL A   1      41.184  28.645  31.095  1.00  0.00     0.049 A 
ATOM     55  C   UNL A   1      40.626  31.902  35.613  1.00  0.00     0.074 A 
ATOM     56  C   UNL A   1      42.185  27.689  31.138  1.00  0.00     0.029 A 
ATOM     57  N   UNL A   1      41.206  29.300  32.317  1.00  0.00    -0.354 N 
ATOM     58  N   UNL A   1      40.886  31.074  34.631  1.00  0.00    -0.248 NA
ATOM     59  C   UNL A   1      41.446  31.688  36.813  1.00  0.00     0.031 C 
ATOM     60  C   UNL A   1      42.790  27.743  32.398  1.00  0.00     0.029 A 
ATOM     61  C   UNL A   1      42.193  28.759  33.126  1.00  0.00     0.049 A 
ATOM     62  H   UNL A   1      40.609  30.039  32.572  1.00  0.00     0.167 HD
ATOM     63  C   UNL A   1      41.898  30.243  35.091  1.00  0.00     0.074 A 
ATOM     64  C   UNL A   1      42.225  30.686  36.431  1.00  0.00     0.031 C 
ATOM     65  C   UNL A   1      42.496  29.204  34.462  1.00  0.00     0.037 A 
BRANCH  52  66
ATOM     66  C   UNL A   1      40.380  28.131  28.764  1.00  0.00     0.064 A 
ATOM     67  C   UNL A   1      41.201  28.528  27.697  1.00  0.00     0.173 A 
ATOM     68  C   UNL A   1      39.699  26.910  28.649  1.00  0.00     0.173 A 
ATOM     69  F   UNL A   1      41.863  29.694  27.752  1.00  0.00    -0.203 F 
ATOM     70  C   UNL A   1      41.324  27.739  26.557  1.00  0.00     0.198 A 
ATOM     71  C   UNL A   1      39.844  26.112  27.518  1.00  0.00     0.198 A 
ATOM     72  F   UNL A   1      38.906  26.483  29.643  1.00  0.00    -0.203 F 
ATOM     73  F   UNL A   1      42.089  28.153  25.537  1.00  0.00    -0.200 F 
ATOM     74  C   UNL A   1      40.653  26.528  26.471  1.00  0.00     0.200 A 
ATOM     75  F   UNL A   1      39.203  24.937  27.442  1.00  0.00    -0.200 F 
ATOM     76  F   UNL A   1      40.783  25.764  25.378  1.00  0.00    -0.200 F 
ENDBRANCH  52  66
BRANCH  53  77
ATOM     77  C   UNL A   1      39.509  33.886  36.869  1.00  0.00     0.064 A 
ATOM     78  C   UNL A   1      40.156  35.128  36.911  1.00  0.00     0.173 A 
ATOM     79  C   UNL A   1      38.739  33.510  37.980  1.00  0.00     0.173 A 
ATOM     80  F   UNL A   1      40.921  35.519  35.882  1.00  0.00    -0.203 F 
ATOM     81  C   UNL A   1      40.038  35.961  38.021  1.00  0.00     0.198 A 
ATOM     82  C   UNL A   1      38.601  34.355  39.077  1.00  0.00     0.198 A 
ATOM     83  F   UNL A   1      38.101  32.330  37.985  1.00  0.00    -0.203 F 
ATOM     84  F   UNL A   1      40.689  37.132  38.049  1.00  0.00    -0.200 F 
ATOM     85  C   UNL A   1      39.253  35.578  39.099  1.00  0.00     0.200 A 
ATOM     86  F   UNL A   1      37.831  33.987  40.111  1.00  0.00    -0.200 F 
ATOM     87  F   UNL A   1      39.130  36.386  40.161  1.00  0.00    -0.200 F 
ENDBRANCH  53  77
BRANCH  65  88
ATOM     88  C   UNL A   1      43.565  28.471  35.217  1.00  0.00     0.064 A 
ATOM     89  C   UNL A   1      44.896  28.911  35.207  1.00  0.00     0.173 A 
ATOM     90  C   UNL A   1      43.249  27.341  35.987  1.00  0.00     0.173 A 
ATOM     91  F   UNL A   1      45.249  29.977  34.473  1.00  0.00    -0.203 F 
ATOM     92  C   UNL A   1      45.878  28.234  35.926  1.00  0.00     0.198 A 
ATOM     93  C   UNL A   1      44.229  26.682  36.724  1.00  0.00     0.198 A 
ATOM     94  F   UNL A   1      41.988  26.884  36.034  1.00  0.00    -0.203 F 
ATOM     95  F   UNL A   1      47.151  28.648  35.869  1.00  0.00    -0.200 F 
ATOM     96  C   UNL A   1      45.543  27.126  36.689  1.00  0.00     0.200 A 
ATOM     97  F   UNL A   1      43.901  25.617  37.470  1.00  0.00    -0.200 F 
ATOM     98  F   UNL A   1      46.488  26.478  37.383  1.00  0.00    -0.200 F 
ENDBRANCH  65  88
ENDBRANCH  39  40
ENDBRANCH  31  34
ENDBRANCH  29  30
ENDBRANCH  28  29
ENDBRANCH  27  28
ENDBRANCH   1  27
TORSDOF 16
ENDMDL
MODEL 3
REMARK VINA RESULT:     -12.6      5.531     11.186
REMARK SMILES CC(C)Cc1cc2c(cc1Cl)C=C(C(=O)NCCCCCCNC(=O)c1ccc(-c3c4nc(c(-c5c(F)c(F)c(F)c(F)c5F)c5ccc([nH]5)c(-c5c(F)c(F)c(F)c(F)c5F)c5nc(c(-c6c(F)c(F)c(F)c(F)c6F)c6ccc3[nH]6)C=C5)C=C4)cc1)[C@@H](C(F)(F)F)O2
REMARK SMILES IDX 19 1 18 2 17 3 16 4 14 5 15 6 13 8 5 9 6 10 10 11 7 12 9 13
REMARK SMILES IDX 11 14 8 15 94 16 12 17 89 18 4 19 2 20 1 21 3 22 90 23 91 24
REMARK SMILES IDX 92 25 93 26 20 27 21 28 22 29 23 30 24 31 25 33 26 34 27 35
REMARK SMILES IDX 88 36 28 37 87 38 29 39 30 40 31 41 81 42 32 43 86 44 80 45
REMARK SMILES IDX 82 46 33 47 85 48 79 49 78 50 34 52 66 53 46 54 65 55 47 56
REMARK SMILES IDX 50 57 64 58 83 59 48 60 49 61 63 63 84 64 51 65 35 66 36 67
REMARK SMILES IDX 44 68 37 69 38 70 42 71 45 72 39 73 40 74 43 75 41 76 67 77
REMARK SMILES IDX 68 78 76 79 69 80 70 81 74 82 77 83 71 84 72 85 75 86 73 87
REMARK SMILES IDX 52 88 53 89 61 90 54 91 55 92 59 93 62 94 56 95 57 96 60 97
REMARK SMILES IDX 58 98
REMARK H PARENT 16 7 23 32 82 51 50 62
REMARK Flexibility Score: inf
ROOT
ATOM      1  C   UNL A   1      35.866  21.107  24.739  1.00  0.00     0.002 C 
ENDROOT
BRANCH   1   2
ATOM      2  C   UNL A   1      35.111  22.437  24.641  1.00  0.00     0.021 C 
BRANCH   2   3
ATOM      3  C   UNL A   1      35.251  23.370  25.839  1.00  0.00     0.116 C 
BRANCH   3   4
ATOM      4  N   UNL A   1      34.117  23.312  26.739  1.00  0.00    -0.352 N 
ATOM      5  C   UNL A   1      32.875  23.852  26.757  1.00  0.00     0.251 C 
ATOM      6  O   UNL A   1      32.154  23.516  27.701  1.00  0.00    -0.270 OA
ATOM      7  H   UNL A   1      34.291  22.745  27.526  1.00  0.00     0.163 HD
BRANCH   5   8
ATOM      8  C   UNL A   1      32.357  24.821  25.745  1.00  0.00     0.067 C 
ATOM      9  C   UNL A   1      30.682  29.115  23.623  1.00  0.00    -0.025 A 
ATOM     10  C   UNL A   1      30.816  27.781  23.191  1.00  0.00     0.052 A 
ATOM     11  C   UNL A   1      31.068  29.421  24.937  1.00  0.00     0.045 A 
ATOM     12  C   UNL A   1      31.320  26.793  24.041  1.00  0.00     0.128 A 
ATOM     13  C   UNL A   1      31.531  28.419  25.798  1.00  0.00     0.032 A 
ATOM     14  Cl  UNL A   1      31.048  31.035  25.556  1.00  0.00    -0.084 Cl
ATOM     15  C   UNL A   1      31.665  27.102  25.349  1.00  0.00     0.019 A 
ATOM     16  O   UNL A   1      31.450  25.549  23.504  1.00  0.00    -0.475 OA
ATOM     17  C   UNL A   1      32.174  26.062  26.228  1.00  0.00     0.025 C 
ATOM     18  C   UNL A   1      32.005  24.475  24.320  1.00  0.00     0.314 C 
BRANCH   9  19
ATOM     19  C   UNL A   1      30.150  30.138  22.641  1.00  0.00     0.040 C 
BRANCH  19  20
ATOM     20  C   UNL A   1      28.619  30.334  22.677  1.00  0.00    -0.013 C 
ATOM     21  C   UNL A   1      28.196  31.544  23.513  1.00  0.00     0.008 C 
ATOM     22  C   UNL A   1      28.088  30.504  21.249  1.00  0.00     0.008 C 
ENDBRANCH  19  20
ENDBRANCH   9  19
BRANCH  18  23
ATOM     23  C   UNL A   1      31.054  23.275  24.167  1.00  0.00     0.429 C 
ATOM     24  F   UNL A   1      31.772  22.132  24.009  1.00  0.00    -0.167 F 
ATOM     25  F   UNL A   1      30.264  23.074  25.244  1.00  0.00    -0.167 F 
ATOM     26  F   UNL A   1      30.243  23.395  23.094  1.00  0.00    -0.167 F 
ENDBRANCH  18  23
ENDBRANCH   5   8
ENDBRANCH   3   4
ENDBRANCH   2   3
ENDBRANCH   1   2
BRANCH   1  27
ATOM     27  C   UNL A   1      37.388  21.169  24.569  1.00  0.00     0.002 C 
BRANCH  27  28
ATOM     28  C   UNL A   1      38.170  19.925  24.993  1.00  0.00     0.021 C 
BRANCH  28  29
ATOM     29  C   UNL A   1      39.342  20.170  25.934  1.00  0.00     0.116 C 
BRANCH  29  30
ATOM     30  N   UNL A   1      40.323  19.097  25.922  1.00  0.00    -0.352 N 
ATOM     31  C   UNL A   1      41.683  19.171  26.107  1.00  0.00     0.251 C 
ATOM     32  H   UNL A   1      39.964  18.195  25.759  1.00  0.00     0.163 HD
ATOM     33  O   UNL A   1      42.389  18.179  25.957  1.00  0.00    -0.269 OA
BRANCH  31  34
ATOM     34  C   UNL A   1      42.301  20.472  26.443  1.00  0.00     0.039 A 
ATOM     35  C   UNL A   1      42.334  20.926  27.764  1.00  0.00     0.014 A 
ATOM     36  C   UNL A   1      42.809  21.266  25.412  1.00  0.00     0.014 A 
ATOM     37  C   UNL A   1      42.724  22.234  28.032  1.00  0.00     0.010 A 
ATOM     38  C   UNL A   1      43.267  22.555  25.693  1.00  0.00     0.010 A 
ATOM     39  C   UNL A   1      43.180  23.068  26.997  1.00  0.00    -0.014 A 
BRANCH  39  40
ATOM     40  C   UNL A   1      43.528  24.483  27.286  1.00  0.00     0.031 A 
ATOM     41  C   UNL A   1      44.911  25.001  26.994  1.00  0.00     0.074 A 
ATOM     42  C   UNL A   1      42.586  25.315  27.767  1.00  0.00     0.049 A 
ATOM     43  N   UNL A   1      45.412  26.192  27.212  1.00  0.00    -0.248 NA
ATOM     44  C   UNL A   1      45.857  24.060  26.376  1.00  0.00     0.031 C 
ATOM     45  C   UNL A   1      41.204  24.940  28.061  1.00  0.00     0.029 A 
ATOM     46  N   UNL A   1      42.643  26.651  28.073  1.00  0.00    -0.354 N 
ATOM     47  C   UNL A   1      46.731  26.136  26.779  1.00  0.00     0.074 A 
ATOM     48  C   UNL A   1      46.963  24.789  26.306  1.00  0.00     0.031 C 
ATOM     49  C   UNL A   1      40.531  26.027  28.466  1.00  0.00     0.029 A 
ATOM     50  C   UNL A   1      41.448  27.161  28.517  1.00  0.00     0.049 A 
ATOM     51  H   UNL A   1      43.461  27.191  27.984  1.00  0.00     0.167 HD
ATOM     52  C   UNL A   1      47.659  27.123  26.768  1.00  0.00     0.037 A 
ATOM     53  C   UNL A   1      41.132  28.401  28.937  1.00  0.00     0.037 A 
ATOM     54  C   UNL A   1      47.420  28.469  27.217  1.00  0.00     0.049 A 
ATOM     55  C   UNL A   1      42.194  29.462  28.963  1.00  0.00     0.074 A 
ATOM     56  C   UNL A   1      48.296  29.541  27.238  1.00  0.00     0.029 A 
ATOM     57  N   UNL A   1      46.212  28.931  27.720  1.00  0.00    -0.354 N 
ATOM     58  N   UNL A   1      43.444  29.389  28.575  1.00  0.00    -0.248 NA
ATOM     59  C   UNL A   1      41.805  30.774  29.497  1.00  0.00     0.031 C 
ATOM     60  C   UNL A   1      47.629  30.642  27.785  1.00  0.00     0.029 A 
ATOM     61  C   UNL A   1      46.325  30.269  28.067  1.00  0.00     0.049 A 
ATOM     62  H   UNL A   1      45.396  28.390  27.815  1.00  0.00     0.167 HD
ATOM     63  C   UNL A   1      43.991  30.642  28.817  1.00  0.00     0.074 A 
ATOM     64  C   UNL A   1      42.928  31.465  29.358  1.00  0.00     0.031 C 
ATOM     65  C   UNL A   1      45.261  31.068  28.616  1.00  0.00     0.037 A 
BRANCH  52  66
ATOM     66  C   UNL A   1      49.031  26.785  26.262  1.00  0.00     0.064 A 
ATOM     67  C   UNL A   1      49.992  26.187  27.090  1.00  0.00     0.173 A 
ATOM     68  C   UNL A   1      49.368  27.007  24.918  1.00  0.00     0.173 A 
ATOM     69  F   UNL A   1      49.724  25.966  28.386  1.00  0.00    -0.203 F 
ATOM     70  C   UNL A   1      51.246  25.837  26.594  1.00  0.00     0.198 A 
ATOM     71  C   UNL A   1      50.613  26.634  24.420  1.00  0.00     0.198 A 
ATOM     72  F   UNL A   1      48.482  27.572  24.084  1.00  0.00    -0.203 F 
ATOM     73  F   UNL A   1      52.160  25.295  27.411  1.00  0.00    -0.200 F 
ATOM     74  C   UNL A   1      51.552  26.052  25.258  1.00  0.00     0.200 A 
ATOM     75  F   UNL A   1      50.903  26.833  23.127  1.00  0.00    -0.200 F 
ATOM     76  F   UNL A   1      52.754  25.703  24.781  1.00  0.00    -0.200 F 
ENDBRANCH  52  66
BRANCH  53  77
ATOM     77  C   UNL A   1      39.744  28.695  29.373  1.00  0.00     0.064 A 
ATOM     78  C   UNL A   1      38.795  29.181  28.465  1.00  0.00     0.173 A 
ATOM     79  C   UNL A   1      39.332  28.473  30.696  1.00  0.00     0.173 A 
ATOM     80  F   UNL A   1      39.149  29.430  27.196  1.00  0.00    -0.203 F 
ATOM     81  C   UNL A   1      37.485  29.437  28.864  1.00  0.00     0.198 A 
ATOM     82  C   UNL A   1      38.016  28.703  31.087  1.00  0.00     0.198 A 
ATOM     83  F   UNL A   1      40.205  28.007  31.601  1.00  0.00    -0.203 F 
ATOM     84  F   UNL A   1      36.603  29.929  27.984  1.00  0.00    -0.200 F 
ATOM     85  C   UNL A   1      37.095  29.189  30.173  1.00  0.00     0.200 A 
ATOM     86  F   UNL A   1      37.640  28.449  32.348  1.00  0.00    -0.200 F 
ATOM     87  F   UNL A   1      35.831  29.422  30.552  1.00  0.00    -0.200 F 
ENDBRANCH  53  77
BRANCH  65  88
ATOM     88  C   UNL A   1      45.571  32.489  28.984  1.00  0.00     0.064 A 
ATOM     89  C   UNL A   1      45.372  33.537  28.074  1.00  0.00     0.173 A 
ATOM     90  C   UNL A   1      46.036  32.808  30.268  1.00  0.00     0.173 A 
ATOM     91  F   UNL A   1      44.944  33.279  26.829  1.00  0.00    -0.203 F 
ATOM     92  C   UNL A   1      45.647  34.855  28.431  1.00  0.00     0.198 A 
ATOM     93  C   UNL A   1      46.286  34.130  30.629  1.00  0.00     0.198 A 
ATOM     94  F   UNL A   1      46.237  31.841  31.176  1.00  0.00    -0.203 F 
ATOM     95  F   UNL A   1      45.489  35.836  27.533  1.00  0.00    -0.200 F 
ATOM     96  C   UNL A   1      46.096  35.150  29.709  1.00  0.00     0.200 A 
ATOM     97  F   UNL A   1      46.710  34.415  31.869  1.00  0.00    -0.200 F 
ATOM     98  F   UNL A   1      46.356  36.419  30.053  1.00  0.00    -0.200 F 
ENDBRANCH  65  88
ENDBRANCH  39  40
ENDBRANCH  31  34
ENDBRANCH  29  30
ENDBRANCH  28  29
ENDBRANCH  27  28
ENDBRANCH   1  27
TORSDOF 16
ENDMDL
