MODEL 1
REMARK VINA RESULT:     -14.0      0.000      0.000
REMARK SMILES Cc1ccc(C)c(-c2cc(C(=O)NCCCCCCNC(=O)c3ccc(-c4c5nc(c(-c6c(F)c(F)c(F)c(F)c6F)c6ccc([nH]6)c(-c6c(F)c(F)c(F)c(F)c6F)c6nc(c(-c7c(F)c(F)c(F)c(F)c7F)c7ccc4[nH]7)C=C6)C=C5)cc3)c3cc(C)ccc3n2)c1
REMARK SMILES IDX 17 1 16 2 15 3 14 4 13 5 11 6 12 7 10 9 8 10 9 11 93 12
REMARK SMILES IDX 92 13 86 14 91 15 87 16 90 17 88 18 89 19 7 20 1 21 2 22
REMARK SMILES IDX 3 23 94 24 4 25 5 26 6 27 18 28 19 29 20 30 21 31 22 33
REMARK SMILES IDX 23 34 24 35 85 36 25 37 84 38 26 39 27 40 28 41 78 42 29 43
REMARK SMILES IDX 83 44 77 45 79 46 30 47 82 48 76 49 75 50 31 52 63 53 43 54
REMARK SMILES IDX 62 55 44 56 47 57 61 58 80 59 45 60 46 61 60 63 81 64 48 65
REMARK SMILES IDX 32 66 33 67 41 68 34 69 35 70 39 71 42 72 36 73 37 74 40 75
REMARK SMILES IDX 38 76 64 77 65 78 73 79 66 80 67 81 71 82 74 83 68 84 69 85
REMARK SMILES IDX 72 86 70 87 49 88 50 89 58 90 51 91 52 92 56 93 59 94 53 95
REMARK SMILES IDX 54 96 57 97 55 98
REMARK H PARENT 13 8 20 32 79 51 47 62
REMARK Flexibility Score: inf
ROOT
ATOM      1  C   UNL A   1      35.841  22.517  24.889  1.00  0.00     0.002 C 
ENDROOT
BRANCH   1   2
ATOM      2  C   UNL A   1      35.433  21.213  25.590  1.00  0.00     0.002 C 
BRANCH   2   3
ATOM      3  C   UNL A   1      34.027  21.062  26.187  1.00  0.00     0.021 C 
BRANCH   3   4
ATOM      4  C   UNL A   1      33.709  21.779  27.492  1.00  0.00     0.116 C 
BRANCH   4   5
ATOM      5  N   UNL A   1      32.336  22.195  27.699  1.00  0.00    -0.352 N 
ATOM      6  C   UNL A   1      31.558  23.125  27.033  1.00  0.00     0.252 C 
ATOM      7  O   UNL A   1      30.377  23.218  27.370  1.00  0.00    -0.269 OA
ATOM      8  H   UNL A   1      31.879  21.736  28.441  1.00  0.00     0.163 HD
BRANCH   6   9
ATOM      9  C   UNL A   1      32.080  24.086  26.008  1.00  0.00     0.051 A 
ATOM     10  C   UNL A   1      32.926  26.302  25.622  1.00  0.00     0.072 A 
ATOM     11  C   UNL A   1      32.361  25.375  26.484  1.00  0.00     0.043 A 
ATOM     12  N   UNL A   1      33.335  25.964  24.379  1.00  0.00    -0.248 NA
ATOM     13  C   UNL A   1      33.042  24.744  23.909  1.00  0.00     0.072 A 
ATOM     14  C   UNL A   1      32.299  23.803  24.641  1.00  0.00     0.013 A 
ATOM     15  C   UNL A   1      33.488  24.407  22.638  1.00  0.00     0.029 A 
ATOM     16  C   UNL A   1      31.824  22.666  23.954  1.00  0.00     0.014 A 
ATOM     17  C   UNL A   1      33.187  23.173  22.054  1.00  0.00     0.005 A 
ATOM     18  C   UNL A   1      32.322  22.299  22.701  1.00  0.00    -0.050 A 
ATOM     19  C   UNL A   1      32.023  20.940  22.146  1.00  0.00     0.044 C 
BRANCH  10  20
ATOM     20  C   UNL A   1      33.052  27.730  25.962  1.00  0.00     0.003 A 
ATOM     21  C   UNL A   1      35.460  29.995  27.905  1.00  0.00     0.044 C 
ATOM     22  C   UNL A   1      34.298  29.528  27.081  1.00  0.00    -0.050 A 
ATOM     23  C   UNL A   1      33.358  30.458  26.628  1.00  0.00     0.004 A 
ATOM     24  C   UNL A   1      34.139  28.175  26.741  1.00  0.00     0.014 A 
ATOM     25  C   UNL A   1      32.276  30.043  25.857  1.00  0.00     0.004 A 
ATOM     26  C   UNL A   1      32.102  28.687  25.526  1.00  0.00    -0.042 A 
ATOM     27  C   UNL A   1      30.905  28.333  24.681  1.00  0.00     0.045 C 
ENDBRANCH  10  20
ENDBRANCH   6   9
ENDBRANCH   4   5
ENDBRANCH   3   4
ENDBRANCH   2   3
ENDBRANCH   1   2
BRANCH   1  28
ATOM     28  C   UNL A   1      36.102  23.767  25.729  1.00  0.00     0.021 C 
BRANCH  28  29
ATOM     29  C   UNL A   1      37.499  23.908  26.308  1.00  0.00     0.116 C 
BRANCH  29  30
ATOM     30  N   UNL A   1      38.269  22.673  26.396  1.00  0.00    -0.352 N 
ATOM     31  C   UNL A   1      39.639  22.529  26.594  1.00  0.00     0.251 C 
ATOM     32  H   UNL A   1      37.756  21.838  26.303  1.00  0.00     0.163 HD
ATOM     33  O   UNL A   1      40.168  21.440  26.629  1.00  0.00    -0.269 OA
BRANCH  31  34
ATOM     34  C   UNL A   1      40.424  23.756  26.860  1.00  0.00     0.039 A 
ATOM     35  C   UNL A   1      41.246  23.794  27.988  1.00  0.00     0.014 A 
ATOM     36  C   UNL A   1      40.145  24.913  26.143  1.00  0.00     0.014 A 
ATOM     37  C   UNL A   1      41.596  25.029  28.529  1.00  0.00     0.010 A 
ATOM     38  C   UNL A   1      40.410  26.132  26.733  1.00  0.00     0.010 A 
ATOM     39  C   UNL A   1      41.086  26.199  27.956  1.00  0.00    -0.014 A 
BRANCH  39  40
ATOM     40  C   UNL A   1      41.208  27.482  28.654  1.00  0.00     0.031 A 
ATOM     41  C   UNL A   1      42.326  28.386  28.273  1.00  0.00     0.074 A 
ATOM     42  C   UNL A   1      40.212  28.008  29.396  1.00  0.00     0.049 A 
ATOM     43  N   UNL A   1      43.403  28.667  28.935  1.00  0.00    -0.248 NA
ATOM     44  C   UNL A   1      42.273  29.004  26.941  1.00  0.00     0.031 C 
ATOM     45  C   UNL A   1      38.835  27.532  29.532  1.00  0.00     0.029 A 
ATOM     46  N   UNL A   1      40.210  29.178  30.096  1.00  0.00    -0.354 N 
ATOM     47  C   UNL A   1      44.098  29.582  28.143  1.00  0.00     0.074 A 
ATOM     48  C   UNL A   1      43.494  29.521  26.842  1.00  0.00     0.031 C 
ATOM     49  C   UNL A   1      38.088  28.503  30.110  1.00  0.00     0.029 A 
ATOM     50  C   UNL A   1      38.954  29.612  30.482  1.00  0.00     0.049 A 
ATOM     51  H   UNL A   1      41.035  29.674  30.309  1.00  0.00     0.167 HD
ATOM     52  C   UNL A   1      44.941  30.524  28.656  1.00  0.00     0.037 A 
ATOM     53  C   UNL A   1      38.651  30.826  31.004  1.00  0.00     0.037 A 
ATOM     54  C   UNL A   1      45.239  30.269  30.041  1.00  0.00     0.049 A 
ATOM     55  C   UNL A   1      39.913  31.456  31.473  1.00  0.00     0.074 A 
ATOM     56  C   UNL A   1      45.770  29.210  30.753  1.00  0.00     0.029 A 
ATOM     57  N   UNL A   1      44.675  31.092  30.986  1.00  0.00    -0.354 N 
ATOM     58  N   UNL A   1      40.605  31.057  32.504  1.00  0.00    -0.248 NA
ATOM     59  C   UNL A   1      40.621  32.335  30.552  1.00  0.00     0.031 C 
ATOM     60  C   UNL A   1      45.073  29.211  31.999  1.00  0.00     0.029 A 
ATOM     61  C   UNL A   1      44.181  30.282  31.973  1.00  0.00     0.049 A 
ATOM     62  H   UNL A   1      44.636  32.076  30.958  1.00  0.00     0.167 HD
ATOM     63  C   UNL A   1      41.927  31.295  32.160  1.00  0.00     0.074 A 
ATOM     64  C   UNL A   1      41.868  32.185  31.007  1.00  0.00     0.031 C 
ATOM     65  C   UNL A   1      42.936  30.524  32.660  1.00  0.00     0.037 A 
BRANCH  52  66
ATOM     66  C   UNL A   1      45.250  31.862  28.007  1.00  0.00     0.064 A 
ATOM     67  C   UNL A   1      44.200  32.783  27.813  1.00  0.00     0.173 A 
ATOM     68  C   UNL A   1      46.457  32.190  27.351  1.00  0.00     0.173 A 
ATOM     69  F   UNL A   1      42.993  32.572  28.360  1.00  0.00    -0.203 F 
ATOM     70  C   UNL A   1      44.330  33.898  26.979  1.00  0.00     0.198 A 
ATOM     71  C   UNL A   1      46.608  33.345  26.582  1.00  0.00     0.198 A 
ATOM     72  F   UNL A   1      47.510  31.366  27.320  1.00  0.00    -0.203 F 
ATOM     73  F   UNL A   1      43.262  34.664  26.722  1.00  0.00    -0.200 F 
ATOM     74  C   UNL A   1      45.536  34.180  26.366  1.00  0.00     0.200 A 
ATOM     75  F   UNL A   1      47.785  33.589  25.988  1.00  0.00    -0.200 F 
ATOM     76  F   UNL A   1      45.652  35.218  25.529  1.00  0.00    -0.200 F 
ENDBRANCH  52  66
BRANCH  53  77
ATOM     77  C   UNL A   1      37.383  31.589  30.917  1.00  0.00     0.064 A 
ATOM     78  C   UNL A   1      36.507  31.669  32.012  1.00  0.00     0.173 A 
ATOM     79  C   UNL A   1      37.120  32.461  29.842  1.00  0.00     0.173 A 
ATOM     80  F   UNL A   1      36.713  30.908  33.097  1.00  0.00    -0.203 F 
ATOM     81  C   UNL A   1      35.443  32.575  32.038  1.00  0.00     0.198 A 
ATOM     82  C   UNL A   1      36.050  33.356  29.862  1.00  0.00     0.198 A 
ATOM     83  F   UNL A   1      37.949  32.524  28.789  1.00  0.00    -0.203 F 
ATOM     84  F   UNL A   1      34.665  32.661  33.125  1.00  0.00    -0.200 F 
ATOM     85  C   UNL A   1      35.219  33.423  30.966  1.00  0.00     0.200 A 
ATOM     86  F   UNL A   1      35.864  34.190  28.830  1.00  0.00    -0.200 F 
ATOM     87  F   UNL A   1      34.230  34.326  31.010  1.00  0.00    -0.200 F 
ENDBRANCH  53  77
BRANCH  65  88
ATOM     88  C   UNL A   1      42.630  29.641  33.833  1.00  0.00     0.064 A 
ATOM     89  C   UNL A   1      42.014  28.385  33.720  1.00  0.00     0.173 A 
ATOM     90  C   UNL A   1      43.117  30.014  35.094  1.00  0.00     0.173 A 
ATOM     91  F   UNL A   1      41.620  27.914  32.528  1.00  0.00    -0.203 F 
ATOM     92  C   UNL A   1      41.850  27.561  34.831  1.00  0.00     0.198 A 
ATOM     93  C   UNL A   1      42.986  29.172  36.194  1.00  0.00     0.198 A 
ATOM     94  F   UNL A   1      43.767  31.179  35.246  1.00  0.00    -0.203 F 
ATOM     95  F   UNL A   1      41.246  26.369  34.700  1.00  0.00    -0.200 F 
ATOM     96  C   UNL A   1      42.343  27.951  36.064  1.00  0.00     0.200 A 
ATOM     97  F   UNL A   1      43.508  29.531  37.375  1.00  0.00    -0.200 F 
ATOM     98  F   UNL A   1      42.226  27.138  37.124  1.00  0.00    -0.200 F 
ENDBRANCH  65  88
ENDBRANCH  39  40
ENDBRANCH  31  34
ENDBRANCH  29  30
ENDBRANCH  28  29
ENDBRANCH   1  28
TORSDOF 14
ENDMDL
MODEL 2
REMARK VINA RESULT:     -13.8      2.916      4.329
REMARK SMILES Cc1ccc(C)c(-c2cc(C(=O)NCCCCCCNC(=O)c3ccc(-c4c5nc(c(-c6c(F)c(F)c(F)c(F)c6F)c6ccc([nH]6)c(-c6c(F)c(F)c(F)c(F)c6F)c6nc(c(-c7c(F)c(F)c(F)c(F)c7F)c7ccc4[nH]7)C=C6)C=C5)cc3)c3cc(C)ccc3n2)c1
REMARK SMILES IDX 17 1 16 2 15 3 14 4 13 5 11 6 12 7 10 9 8 10 9 11 93 12
REMARK SMILES IDX 92 13 86 14 91 15 87 16 90 17 88 18 89 19 7 20 1 21 2 22
REMARK SMILES IDX 3 23 94 24 4 25 5 26 6 27 18 28 19 29 20 30 21 31 22 33
REMARK SMILES IDX 23 34 24 35 85 36 25 37 84 38 26 39 27 40 28 41 78 42 29 43
REMARK SMILES IDX 83 44 77 45 79 46 30 47 82 48 76 49 75 50 31 52 63 53 43 54
REMARK SMILES IDX 62 55 44 56 47 57 61 58 80 59 45 60 46 61 60 63 81 64 48 65
REMARK SMILES IDX 32 66 33 67 41 68 34 69 35 70 39 71 42 72 36 73 37 74 40 75
REMARK SMILES IDX 38 76 64 77 65 78 73 79 66 80 67 81 71 82 74 83 68 84 69 85
REMARK SMILES IDX 72 86 70 87 49 88 50 89 58 90 51 91 52 92 56 93 59 94 53 95
REMARK SMILES IDX 54 96 57 97 55 98
REMARK H PARENT 13 8 20 32 79 51 47 62
REMARK Flexibility Score: inf
ROOT
ATOM      1  C   UNL A   1      40.766  21.594  26.326  1.00  0.00     0.002 C 
ENDROOT
BRANCH   1   2
ATOM      2  C   UNL A   1      39.270  21.854  26.097  1.00  0.00     0.002 C 
BRANCH   2   3
ATOM      3  C   UNL A   1      38.629  23.163  26.578  1.00  0.00     0.021 C 
BRANCH   3   4
ATOM      4  C   UNL A   1      37.525  23.787  25.734  1.00  0.00     0.116 C 
BRANCH   4   5
ATOM      5  N   UNL A   1      37.455  23.390  24.342  1.00  0.00    -0.352 N 
ATOM      6  C   UNL A   1      36.371  23.207  23.503  1.00  0.00     0.252 C 
ATOM      7  O   UNL A   1      36.608  22.945  22.322  1.00  0.00    -0.269 OA
ATOM      8  H   UNL A   1      38.330  23.222  23.922  1.00  0.00     0.163 HD
BRANCH   6   9
ATOM      9  C   UNL A   1      34.942  23.208  23.954  1.00  0.00     0.051 A 
ATOM     10  C   UNL A   1      32.982  24.550  24.320  1.00  0.00     0.072 A 
ATOM     11  C   UNL A   1      34.327  24.468  23.994  1.00  0.00     0.043 A 
ATOM     12  N   UNL A   1      32.215  23.447  24.469  1.00  0.00    -0.248 NA
ATOM     13  C   UNL A   1      32.802  22.243  24.462  1.00  0.00     0.072 A 
ATOM     14  C   UNL A   1      34.192  22.072  24.334  1.00  0.00     0.013 A 
ATOM     15  C   UNL A   1      31.998  21.120  24.597  1.00  0.00     0.029 A 
ATOM     16  C   UNL A   1      34.723  20.794  24.607  1.00  0.00     0.014 A 
ATOM     17  C   UNL A   1      32.533  19.830  24.645  1.00  0.00     0.005 A 
ATOM     18  C   UNL A   1      33.911  19.659  24.680  1.00  0.00    -0.050 A 
ATOM     19  C   UNL A   1      34.531  18.294  24.666  1.00  0.00     0.044 C 
BRANCH  10  20
ATOM     20  C   UNL A   1      32.309  25.830  24.601  1.00  0.00     0.003 A 
ATOM     21  C   UNL A   1      31.685  28.120  27.613  1.00  0.00     0.044 C 
ATOM     22  C   UNL A   1      31.680  27.570  26.218  1.00  0.00    -0.050 A 
ATOM     23  C   UNL A   1      31.054  28.289  25.197  1.00  0.00     0.004 A 
ATOM     24  C   UNL A   1      32.304  26.350  25.911  1.00  0.00     0.014 A 
ATOM     25  C   UNL A   1      31.044  27.795  23.896  1.00  0.00     0.004 A 
ATOM     26  C   UNL A   1      31.654  26.567  23.584  1.00  0.00    -0.042 A 
ATOM     27  C   UNL A   1      31.600  26.117  22.146  1.00  0.00     0.045 C 
ENDBRANCH  10  20
ENDBRANCH   6   9
ENDBRANCH   4   5
ENDBRANCH   3   4
ENDBRANCH   2   3
ENDBRANCH   1   2
BRANCH   1  28
ATOM     28  C   UNL A   1      41.271  20.154  26.405  1.00  0.00     0.021 C 
BRANCH  28  29
ATOM     29  C   UNL A   1      42.776  19.974  26.496  1.00  0.00     0.116 C 
BRANCH  29  30
ATOM     30  N   UNL A   1      43.420  19.454  25.296  1.00  0.00    -0.352 N 
ATOM     31  C   UNL A   1      44.218  20.141  24.385  1.00  0.00     0.251 C 
ATOM     32  H   UNL A   1      43.272  18.499  25.106  1.00  0.00     0.163 HD
ATOM     33  O   UNL A   1      44.683  19.598  23.407  1.00  0.00    -0.269 OA
BRANCH  31  34
ATOM     34  C   UNL A   1      44.563  21.546  24.702  1.00  0.00     0.039 A 
ATOM     35  C   UNL A   1      45.546  21.793  25.663  1.00  0.00     0.014 A 
ATOM     36  C   UNL A   1      43.749  22.570  24.236  1.00  0.00     0.014 A 
ATOM     37  C   UNL A   1      45.553  23.019  26.324  1.00  0.00     0.010 A 
ATOM     38  C   UNL A   1      43.694  23.746  24.957  1.00  0.00     0.010 A 
ATOM     39  C   UNL A   1      44.554  23.958  26.040  1.00  0.00    -0.014 A 
BRANCH  39  40
ATOM     40  C   UNL A   1      44.371  25.129  26.901  1.00  0.00     0.031 A 
ATOM     41  C   UNL A   1      45.284  26.288  26.715  1.00  0.00     0.074 A 
ATOM     42  C   UNL A   1      43.255  25.332  27.632  1.00  0.00     0.049 A 
ATOM     43  N   UNL A   1      46.248  26.691  27.481  1.00  0.00    -0.248 NA
ATOM     44  C   UNL A   1      45.156  27.059  25.471  1.00  0.00     0.031 C 
ATOM     45  C   UNL A   1      42.007  24.569  27.610  1.00  0.00     0.029 A 
ATOM     46  N   UNL A   1      42.974  26.369  28.471  1.00  0.00    -0.354 N 
ATOM     47  C   UNL A   1      46.764  27.830  26.860  1.00  0.00     0.074 A 
ATOM     48  C   UNL A   1      46.242  27.825  25.523  1.00  0.00     0.031 C 
ATOM     49  C   UNL A   1      41.047  25.276  28.252  1.00  0.00     0.029 A 
ATOM     50  C   UNL A   1      41.639  26.478  28.820  1.00  0.00     0.049 A 
ATOM     51  H   UNL A   1      43.665  26.990  28.801  1.00  0.00     0.167 HD
ATOM     52  C   UNL A   1      47.365  28.845  27.544  1.00  0.00     0.037 A 
ATOM     53  C   UNL A   1      41.063  27.520  29.468  1.00  0.00     0.037 A 
ATOM     54  C   UNL A   1      47.652  28.469  28.904  1.00  0.00     0.049 A 
ATOM     55  C   UNL A   1      42.141  28.326  30.098  1.00  0.00     0.074 A 
ATOM     56  C   UNL A   1      48.367  27.455  29.513  1.00  0.00     0.029 A 
ATOM     57  N   UNL A   1      46.887  29.021  29.903  1.00  0.00    -0.354 N 
ATOM     58  N   UNL A   1      42.859  27.940  31.117  1.00  0.00    -0.248 NA
ATOM     59  C   UNL A   1      42.683  29.449  29.348  1.00  0.00     0.031 C 
ATOM     60  C   UNL A   1      47.635  27.141  30.697  1.00  0.00     0.029 A 
ATOM     61  C   UNL A   1      46.536  27.998  30.744  1.00  0.00     0.049 A 
ATOM     62  H   UNL A   1      46.640  29.969  29.996  1.00  0.00     0.167 HD
ATOM     63  C   UNL A   1      44.112  28.490  30.899  1.00  0.00     0.074 A 
ATOM     64  C   UNL A   1      43.913  29.499  29.866  1.00  0.00     0.031 C 
ATOM     65  C   UNL A   1      45.241  27.882  31.368  1.00  0.00     0.037 A 
BRANCH  52  66
ATOM     66  C   UNL A   1      47.408  30.295  27.092  1.00  0.00     0.064 A 
ATOM     67  C   UNL A   1      48.638  30.983  27.126  1.00  0.00     0.173 A 
ATOM     68  C   UNL A   1      46.276  31.109  26.863  1.00  0.00     0.173 A 
ATOM     69  F   UNL A   1      49.783  30.327  27.363  1.00  0.00    -0.203 F 
ATOM     70  C   UNL A   1      48.717  32.374  27.008  1.00  0.00     0.198 A 
ATOM     71  C   UNL A   1      46.367  32.488  26.668  1.00  0.00     0.198 A 
ATOM     72  F   UNL A   1      45.025  30.643  26.930  1.00  0.00    -0.203 F 
ATOM     73  F   UNL A   1      49.894  32.989  27.183  1.00  0.00    -0.200 F 
ATOM     74  C   UNL A   1      47.581  33.126  26.775  1.00  0.00     0.200 A 
ATOM     75  F   UNL A   1      45.249  33.196  26.456  1.00  0.00    -0.200 F 
ATOM     76  F   UNL A   1      47.646  34.461  26.710  1.00  0.00    -0.200 F 
ENDBRANCH  52  66
BRANCH  53  77
ATOM     77  C   UNL A   1      39.667  28.010  29.389  1.00  0.00     0.064 A 
ATOM     78  C   UNL A   1      38.868  28.115  30.540  1.00  0.00     0.173 A 
ATOM     79  C   UNL A   1      39.164  28.620  28.223  1.00  0.00     0.173 A 
ATOM     80  F   UNL A   1      39.292  27.603  31.704  1.00  0.00    -0.203 F 
ATOM     81  C   UNL A   1      37.650  28.801  30.530  1.00  0.00     0.198 A 
ATOM     82  C   UNL A   1      37.942  29.293  28.209  1.00  0.00     0.198 A 
ATOM     83  F   UNL A   1      39.891  28.653  27.096  1.00  0.00    -0.203 F 
ATOM     84  F   UNL A   1      36.945  28.929  31.662  1.00  0.00    -0.200 F 
ATOM     85  C   UNL A   1      37.190  29.396  29.366  1.00  0.00     0.200 A 
ATOM     86  F   UNL A   1      37.526  29.889  27.083  1.00  0.00    -0.200 F 
ATOM     87  F   UNL A   1      36.047  30.095  29.366  1.00  0.00    -0.200 F 
ENDBRANCH  53  77
BRANCH  65  88
ATOM     88  C   UNL A   1      45.082  26.802  32.396  1.00  0.00     0.064 A 
ATOM     89  C   UNL A   1      44.844  25.456  32.079  1.00  0.00     0.173 A 
ATOM     90  C   UNL A   1      45.332  27.118  33.739  1.00  0.00     0.173 A 
ATOM     91  F   UNL A   1      44.703  25.062  30.805  1.00  0.00    -0.203 F 
ATOM     92  C   UNL A   1      44.810  24.477  33.069  1.00  0.00     0.198 A 
ATOM     93  C   UNL A   1      45.336  26.132  34.721  1.00  0.00     0.198 A 
ATOM     94  F   UNL A   1      45.624  28.381  34.090  1.00  0.00    -0.203 F 
ATOM     95  F   UNL A   1      44.568  23.198  32.742  1.00  0.00    -0.200 F 
ATOM     96  C   UNL A   1      45.065  24.815  34.388  1.00  0.00     0.200 A 
ATOM     97  F   UNL A   1      45.632  26.454  35.989  1.00  0.00    -0.200 F 
ATOM     98  F   UNL A   1      45.077  23.866  35.335  1.00  0.00    -0.200 F 
ENDBRANCH  65  88
ENDBRANCH  39  40
ENDBRANCH  31  34
ENDBRANCH  29  30
ENDBRANCH  28  29
ENDBRANCH   1  28
TORSDOF 14
ENDMDL
MODEL 3
REMARK VINA RESULT:     -13.7      2.932      8.565
REMARK SMILES Cc1ccc(C)c(-c2cc(C(=O)NCCCCCCNC(=O)c3ccc(-c4c5nc(c(-c6c(F)c(F)c(F)c(F)c6F)c6ccc([nH]6)c(-c6c(F)c(F)c(F)c(F)c6F)c6nc(c(-c7c(F)c(F)c(F)c(F)c7F)c7ccc4[nH]7)C=C6)C=C5)cc3)c3cc(C)ccc3n2)c1
REMARK SMILES IDX 17 1 16 2 15 3 14 4 13 5 11 6 12 7 10 9 8 10 9 11 93 12
REMARK SMILES IDX 92 13 86 14 91 15 87 16 90 17 88 18 89 19 7 20 1 21 2 22
REMARK SMILES IDX 3 23 94 24 4 25 5 26 6 27 18 28 19 29 20 30 21 31 22 33
REMARK SMILES IDX 23 34 24 35 85 36 25 37 84 38 26 39 27 40 28 41 78 42 29 43
REMARK SMILES IDX 83 44 77 45 79 46 30 47 82 48 76 49 75 50 31 52 63 53 43 54
REMARK SMILES IDX 62 55 44 56 47 57 61 58 80 59 45 60 46 61 60 63 81 64 48 65
REMARK SMILES IDX 32 66 33 67 41 68 34 69 35 70 39 71 42 72 36 73 37 74 40 75
REMARK SMILES IDX 38 76 64 77 65 78 73 79 66 80 67 81 71 82 74 83 68 84 69 85
REMARK SMILES IDX 72 86 70 87 49 88 50 89 58 90 51 91 52 92 56 93 59 94 53 95
REMARK SMILES IDX 54 96 57 97 55 98
REMARK H PARENT 13 8 20 32 79 51 47 62
REMARK Flexibility Score: inf
ROOT
ATOM      1  C   UNL A   1      34.353  32.713  28.546  1.00  0.00     0.002 C 
ENDROOT
BRANCH   1   2
ATOM      2  C   UNL A   1      33.835  31.525  27.722  1.00  0.00     0.002 C 
BRANCH   2   3
ATOM      3  C   UNL A   1      34.794  30.409  27.285  1.00  0.00     0.021 C 
BRANCH   3   4
ATOM      4  C   UNL A   1      34.281  28.975  27.263  1.00  0.00     0.116 C 
BRANCH   4   5
ATOM      5  N   UNL A   1      32.964  28.737  27.819  1.00  0.00    -0.352 N 
ATOM      6  C   UNL A   1      31.928  27.928  27.388  1.00  0.00     0.252 C 
ATOM      7  O   UNL A   1      30.933  27.851  28.111  1.00  0.00    -0.269 OA
ATOM      8  H   UNL A   1      32.774  29.238  28.645  1.00  0.00     0.163 HD
BRANCH   6   9
ATOM      9  C   UNL A   1      31.897  27.226  26.064  1.00  0.00     0.051 A 
ATOM     10  C   UNL A   1      32.453  25.211  24.878  1.00  0.00     0.072 A 
ATOM     11  C   UNL A   1      32.510  25.964  26.041  1.00  0.00     0.043 A 
ATOM     12  N   UNL A   1      31.715  25.595  23.813  1.00  0.00    -0.248 NA
ATOM     13  C   UNL A   1      31.153  26.812  23.819  1.00  0.00     0.072 A 
ATOM     14  C   UNL A   1      31.321  27.724  24.875  1.00  0.00     0.013 A 
ATOM     15  C   UNL A   1      30.382  27.183  22.726  1.00  0.00     0.029 A 
ATOM     16  C   UNL A   1      30.915  29.058  24.657  1.00  0.00     0.014 A 
ATOM     17  C   UNL A   1      29.800  28.449  22.630  1.00  0.00     0.005 A 
ATOM     18  C   UNL A   1      30.088  29.413  23.589  1.00  0.00    -0.050 A 
ATOM     19  C   UNL A   1      29.435  30.761  23.563  1.00  0.00     0.044 C 
BRANCH  10  20
ATOM     20  C   UNL A   1      33.246  23.984  24.687  1.00  0.00     0.003 A 
ATOM     21  C   UNL A   1      36.659  22.991  23.250  1.00  0.00     0.044 C 
ATOM     22  C   UNL A   1      35.306  22.908  23.888  1.00  0.00    -0.050 A 
ATOM     23  C   UNL A   1      34.821  21.669  24.313  1.00  0.00     0.004 A 
ATOM     24  C   UNL A   1      34.517  24.054  24.082  1.00  0.00     0.014 A 
ATOM     25  C   UNL A   1      33.568  21.574  24.913  1.00  0.00     0.004 A 
ATOM     26  C   UNL A   1      32.766  22.715  25.096  1.00  0.00    -0.042 A 
ATOM     27  C   UNL A   1      31.428  22.516  25.762  1.00  0.00     0.045 C 
ENDBRANCH  10  20
ENDBRANCH   6   9
ENDBRANCH   4   5
ENDBRANCH   3   4
ENDBRANCH   2   3
ENDBRANCH   1   2
BRANCH   1  28
ATOM     28  C   UNL A   1      33.615  34.051  28.474  1.00  0.00     0.021 C 
BRANCH  28  29
ATOM     29  C   UNL A   1      34.011  35.091  29.507  1.00  0.00     0.116 C 
BRANCH  29  30
ATOM     30  N   UNL A   1      33.008  35.378  30.525  1.00  0.00    -0.352 N 
ATOM     31  C   UNL A   1      33.026  35.024  31.871  1.00  0.00     0.251 C 
ATOM     32  H   UNL A   1      32.220  35.885  30.223  1.00  0.00     0.163 HD
ATOM     33  O   UNL A   1      32.115  35.305  32.618  1.00  0.00    -0.269 OA
BRANCH  31  34
ATOM     34  C   UNL A   1      34.249  34.368  32.388  1.00  0.00     0.039 A 
ATOM     35  C   UNL A   1      35.385  35.151  32.611  1.00  0.00     0.014 A 
ATOM     36  C   UNL A   1      34.326  32.982  32.403  1.00  0.00     0.014 A 
ATOM     37  C   UNL A   1      36.637  34.540  32.616  1.00  0.00     0.010 A 
ATOM     38  C   UNL A   1      35.570  32.391  32.311  1.00  0.00     0.010 A 
ATOM     39  C   UNL A   1      36.733  33.167  32.360  1.00  0.00    -0.014 A 
BRANCH  39  40
ATOM     40  C   UNL A   1      38.035  32.553  32.089  1.00  0.00     0.031 A 
ATOM     41  C   UNL A   1      38.934  32.273  33.241  1.00  0.00     0.074 A 
ATOM     42  C   UNL A   1      38.334  31.963  30.913  1.00  0.00     0.049 A 
ATOM     43  N   UNL A   1      40.025  32.882  33.582  1.00  0.00    -0.248 NA
ATOM     44  C   UNL A   1      38.523  31.222  34.182  1.00  0.00     0.031 C 
ATOM     45  C   UNL A   1      37.443  31.684  29.787  1.00  0.00     0.029 A 
ATOM     46  N   UNL A   1      39.505  31.371  30.541  1.00  0.00    -0.354 N 
ATOM     47  C   UNL A   1      40.485  32.209  34.716  1.00  0.00     0.074 A 
ATOM     48  C   UNL A   1      39.387  31.407  35.175  1.00  0.00     0.031 C 
ATOM     49  C   UNL A   1      38.054  30.816  28.946  1.00  0.00     0.029 A 
ATOM     50  C   UNL A   1      39.409  30.571  29.416  1.00  0.00     0.049 A 
ATOM     51  H   UNL A   1      40.348  31.501  31.033  1.00  0.00     0.167 HD
ATOM     52  C   UNL A   1      41.804  32.138  35.057  1.00  0.00     0.037 A 
ATOM     53  C   UNL A   1      40.358  29.719  28.955  1.00  0.00     0.037 A 
ATOM     54  C   UNL A   1      42.600  33.060  34.289  1.00  0.00     0.049 A 
ATOM     55  C   UNL A   1      41.650  30.076  29.598  1.00  0.00     0.074 A 
ATOM     56  C   UNL A   1      42.589  34.425  34.077  1.00  0.00     0.029 A 
ATOM     57  N   UNL A   1      43.419  32.549  33.312  1.00  0.00    -0.354 N 
ATOM     58  N   UNL A   1      42.333  31.158  29.343  1.00  0.00    -0.248 NA
ATOM     59  C   UNL A   1      42.018  29.384  30.825  1.00  0.00     0.031 C 
ATOM     60  C   UNL A   1      42.989  34.594  32.717  1.00  0.00     0.029 A 
ATOM     61  C   UNL A   1      43.239  33.324  32.198  1.00  0.00     0.049 A 
ATOM     62  H   UNL A   1      44.021  31.775  33.398  1.00  0.00     0.167 HD
ATOM     63  C   UNL A   1      42.921  31.500  30.551  1.00  0.00     0.074 A 
ATOM     64  C   UNL A   1      42.789  30.316  31.391  1.00  0.00     0.031 C 
ATOM     65  C   UNL A   1      43.202  32.801  30.855  1.00  0.00     0.037 A 
BRANCH  52  66
ATOM     66  C   UNL A   1      42.437  31.011  35.855  1.00  0.00     0.064 A 
ATOM     67  C   UNL A   1      43.277  31.333  36.941  1.00  0.00     0.173 A 
ATOM     68  C   UNL A   1      42.462  29.653  35.467  1.00  0.00     0.173 A 
ATOM     69  F   UNL A   1      43.365  32.595  37.387  1.00  0.00    -0.203 F 
ATOM     70  C   UNL A   1      44.118  30.389  37.539  1.00  0.00     0.198 A 
ATOM     71  C   UNL A   1      43.244  28.697  36.116  1.00  0.00     0.198 A 
ATOM     72  F   UNL A   1      41.830  29.201  34.379  1.00  0.00    -0.203 F 
ATOM     73  F   UNL A   1      44.993  30.778  38.475  1.00  0.00    -0.200 F 
ATOM     74  C   UNL A   1      44.098  29.070  37.128  1.00  0.00     0.200 A 
ATOM     75  F   UNL A   1      43.216  27.426  35.691  1.00  0.00    -0.200 F 
ATOM     76  F   UNL A   1      44.935  28.174  37.665  1.00  0.00    -0.200 F 
ENDBRANCH  52  66
BRANCH  53  77
ATOM     77  C   UNL A   1      40.191  28.467  28.180  1.00  0.00     0.064 A 
ATOM     78  C   UNL A   1      40.852  28.278  26.955  1.00  0.00     0.173 A 
ATOM     79  C   UNL A   1      39.577  27.330  28.740  1.00  0.00     0.173 A 
ATOM     80  F   UNL A   1      41.503  29.297  26.376  1.00  0.00    -0.203 F 
ATOM     81  C   UNL A   1      40.910  27.025  26.337  1.00  0.00     0.198 A 
ATOM     82  C   UNL A   1      39.623  26.083  28.116  1.00  0.00     0.198 A 
ATOM     83  F   UNL A   1      38.997  27.386  29.949  1.00  0.00    -0.203 F 
ATOM     84  F   UNL A   1      41.600  26.873  25.198  1.00  0.00    -0.200 F 
ATOM     85  C   UNL A   1      40.300  25.927  26.921  1.00  0.00     0.200 A 
ATOM     86  F   UNL A   1      39.054  25.024  28.709  1.00  0.00    -0.200 F 
ATOM     87  F   UNL A   1      40.396  24.716  26.354  1.00  0.00    -0.200 F 
ENDBRANCH  53  77
BRANCH  65  88
ATOM     88  C   UNL A   1      43.175  33.805  29.741  1.00  0.00     0.064 A 
ATOM     89  C   UNL A   1      44.266  34.054  28.893  1.00  0.00     0.173 A 
ATOM     90  C   UNL A   1      41.955  34.420  29.427  1.00  0.00     0.173 A 
ATOM     91  F   UNL A   1      45.434  33.419  29.066  1.00  0.00    -0.203 F 
ATOM     92  C   UNL A   1      44.151  34.920  27.808  1.00  0.00     0.198 A 
ATOM     93  C   UNL A   1      41.834  35.255  28.320  1.00  0.00     0.198 A 
ATOM     94  F   UNL A   1      40.865  34.170  30.170  1.00  0.00    -0.203 F 
ATOM     95  F   UNL A   1      45.212  35.152  27.019  1.00  0.00    -0.200 F 
ATOM     96  C   UNL A   1      42.934  35.512  27.518  1.00  0.00     0.200 A 
ATOM     97  F   UNL A   1      40.642  35.787  28.013  1.00  0.00    -0.200 F 
ATOM     98  F   UNL A   1      42.813  36.310  26.447  1.00  0.00    -0.200 F 
ENDBRANCH  65  88
ENDBRANCH  39  40
ENDBRANCH  31  34
ENDBRANCH  29  30
ENDBRANCH  28  29
ENDBRANCH   1  28
TORSDOF 14
ENDMDL
