MODEL 1
REMARK VINA RESULT:     -12.2      0.000      0.000
REMARK SMILES O=C(NCCCCCCNC(=O)[C@H]1CC2(CCN(S(=O)(=O)N3CCOCC3)CC2)C[NH2+]1)c1ccc(-c2c3nc(c(-c4c(F)c(F)c(F)c(F)c4F)c4ccc([nH]4)c(-c4c(F)c(F)c(F)c(F)c4F)c4nc(c(-c5c(F)c(F)c(F)c(F)c5F)c5ccc2[nH]5)C=C4)C=C3)cc1
REMARK SMILES IDX 6 1 5 2 4 3 3 4 1 5 2 6 32 8 33 9 94 10 34 11 93 12 35 13
REMARK SMILES IDX 36 14 37 15 87 16 38 17 92 18 86 19 88 20 39 21 91 22 85 23
REMARK SMILES IDX 84 24 40 26 72 27 52 28 71 29 53 30 56 31 70 32 89 33 54 34
REMARK SMILES IDX 55 35 69 37 90 38 57 39 41 40 42 41 50 42 43 43 44 44 48 45
REMARK SMILES IDX 51 46 45 47 46 48 49 49 47 50 73 51 74 52 82 53 75 54 76 55
REMARK SMILES IDX 80 56 83 57 77 58 78 59 81 60 79 61 58 62 59 63 67 64 60 65
REMARK SMILES IDX 61 66 65 67 68 68 62 69 63 70 66 71 64 72 7 73 8 74 9 75
REMARK SMILES IDX 10 76 11 77 12 79 13 80 14 81 31 82 15 83 30 84 16 87 29 88
REMARK SMILES IDX 17 89 28 90 18 91 19 92 20 93 21 94 22 95 23 96 27 97 24 98
REMARK SMILES IDX 26 99 25 100
REMARK H PARENT 3 7 88 25 56 36 10 78 31 85 31 86
REMARK Flexibility Score: inf
ROOT
ATOM      1  C   UNL A   1      34.509  33.754  29.292  1.00  0.00     0.002 C 
ENDROOT
BRANCH   1   2
ATOM      2  C   UNL A   1      33.269  34.630  29.148  1.00  0.00     0.021 C 
BRANCH   2   3
ATOM      3  C   UNL A   1      33.449  36.056  29.640  1.00  0.00     0.116 C 
BRANCH   3   4
ATOM      4  N   UNL A   1      32.531  36.397  30.716  1.00  0.00    -0.352 N 
ATOM      5  O   UNL A   1      31.599  36.206  32.769  1.00  0.00    -0.269 OA
ATOM      6  C   UNL A   1      32.538  35.964  32.021  1.00  0.00     0.251 C 
ATOM      7  H   UNL A   1      31.807  37.020  30.477  1.00  0.00     0.163 HD
BRANCH   6   8
ATOM      8  C   UNL A   1      33.695  35.182  32.505  1.00  0.00     0.039 A 
ATOM      9  C   UNL A   1      34.966  35.757  32.509  1.00  0.00     0.014 A 
ATOM     10  C   UNL A   1      33.516  33.859  32.914  1.00  0.00     0.014 A 
ATOM     11  C   UNL A   1      36.074  34.962  32.746  1.00  0.00     0.010 A 
ATOM     12  C   UNL A   1      34.628  33.094  33.282  1.00  0.00     0.010 A 
ATOM     13  C   UNL A   1      35.920  33.631  33.174  1.00  0.00    -0.014 A 
BRANCH  13  14
ATOM     14  C   UNL A   1      37.135  32.884  33.585  1.00  0.00     0.031 A 
ATOM     15  C   UNL A   1      37.800  31.886  32.681  1.00  0.00     0.074 A 
ATOM     16  C   UNL A   1      37.674  33.179  34.785  1.00  0.00     0.049 A 
ATOM     17  N   UNL A   1      38.904  31.207  32.879  1.00  0.00    -0.248 NA
ATOM     18  C   UNL A   1      37.147  31.602  31.396  1.00  0.00     0.031 C 
ATOM     19  C   UNL A   1      37.097  34.114  35.756  1.00  0.00     0.029 A 
ATOM     20  N   UNL A   1      38.832  32.758  35.384  1.00  0.00    -0.354 N 
ATOM     21  C   UNL A   1      39.074  30.416  31.751  1.00  0.00     0.074 A 
ATOM     22  C   UNL A   1      37.940  30.667  30.887  1.00  0.00     0.031 C 
ATOM     23  C   UNL A   1      37.933  34.248  36.794  1.00  0.00     0.029 A 
ATOM     24  C   UNL A   1      39.059  33.345  36.605  1.00  0.00     0.049 A 
ATOM     25  H   UNL A   1      39.443  32.100  34.979  1.00  0.00     0.167 HD
ATOM     26  C   UNL A   1      40.094  29.571  31.461  1.00  0.00     0.037 A 
ATOM     27  C   UNL A   1      40.052  33.160  37.493  1.00  0.00     0.037 A 
ATOM     28  C   UNL A   1      41.217  29.325  32.332  1.00  0.00     0.049 A 
ATOM     29  C   UNL A   1      41.148  32.191  37.154  1.00  0.00     0.074 A 
ATOM     30  C   UNL A   1      42.303  28.490  32.129  1.00  0.00     0.029 A 
ATOM     31  N   UNL A   1      41.397  29.911  33.579  1.00  0.00    -0.354 N 
ATOM     32  N   UNL A   1      41.311  31.474  36.069  1.00  0.00    -0.248 NA
ATOM     33  C   UNL A   1      42.198  32.010  38.162  1.00  0.00     0.031 C 
ATOM     34  C   UNL A   1      43.111  28.532  33.270  1.00  0.00     0.029 A 
ATOM     35  C   UNL A   1      42.566  29.441  34.161  1.00  0.00     0.049 A 
ATOM     36  H   UNL A   1      40.785  30.564  33.989  1.00  0.00     0.167 HD
ATOM     37  C   UNL A   1      42.488  30.765  36.258  1.00  0.00     0.074 A 
ATOM     38  C   UNL A   1      43.017  31.172  37.545  1.00  0.00     0.031 C 
ATOM     39  C   UNL A   1      43.074  29.852  35.445  1.00  0.00     0.037 A 
BRANCH  26  40
ATOM     40  C   UNL A   1      40.047  28.839  30.148  1.00  0.00     0.064 A 
ATOM     41  C   UNL A   1      40.662  29.354  28.997  1.00  0.00     0.173 A 
ATOM     42  C   UNL A   1      39.437  27.579  30.053  1.00  0.00     0.173 A 
ATOM     43  F   UNL A   1      41.253  30.558  29.028  1.00  0.00    -0.203 F 
ATOM     44  C   UNL A   1      40.652  28.644  27.798  1.00  0.00     0.198 A 
ATOM     45  C   UNL A   1      39.454  26.858  28.861  1.00  0.00     0.198 A 
ATOM     46  F   UNL A   1      38.839  27.035  31.124  1.00  0.00    -0.203 F 
ATOM     47  F   UNL A   1      41.212  29.175  26.702  1.00  0.00    -0.200 F 
ATOM     48  C   UNL A   1      40.056  27.393  27.733  1.00  0.00     0.200 A 
ATOM     49  F   UNL A   1      38.892  25.642  28.805  1.00  0.00    -0.200 F 
ATOM     50  F   UNL A   1      40.060  26.706  26.583  1.00  0.00    -0.200 F 
ENDBRANCH  26  40
BRANCH  27  51
ATOM     51  C   UNL A   1      40.030  33.882  38.792  1.00  0.00     0.064 A 
ATOM     52  C   UNL A   1      40.744  35.072  38.979  1.00  0.00     0.173 A 
ATOM     53  C   UNL A   1      39.295  33.385  39.881  1.00  0.00     0.173 A 
ATOM     54  F   UNL A   1      41.472  35.581  37.974  1.00  0.00    -0.203 F 
ATOM     55  C   UNL A   1      40.752  35.720  40.212  1.00  0.00     0.198 A 
ATOM     56  C   UNL A   1      39.270  34.056  41.100  1.00  0.00     0.198 A 
ATOM     57  F   UNL A   1      38.584  32.255  39.753  1.00  0.00    -0.203 F 
ATOM     58  F   UNL A   1      41.494  36.823  40.382  1.00  0.00    -0.200 F 
ATOM     59  C   UNL A   1      40.010  35.216  41.269  1.00  0.00     0.200 A 
ATOM     60  F   UNL A   1      38.530  33.577  42.109  1.00  0.00    -0.200 F 
ATOM     61  F   UNL A   1      40.014  35.841  42.454  1.00  0.00    -0.200 F 
ENDBRANCH  27  51
BRANCH  39  62
ATOM     62  C   UNL A   1      44.370  29.258  35.922  1.00  0.00     0.064 A 
ATOM     63  C   UNL A   1      45.608  29.841  35.613  1.00  0.00     0.173 A 
ATOM     64  C   UNL A   1      44.372  28.085  36.692  1.00  0.00     0.173 A 
ATOM     65  F   UNL A   1      45.661  30.954  34.864  1.00  0.00    -0.203 F 
ATOM     66  C   UNL A   1      46.800  29.248  36.017  1.00  0.00     0.198 A 
ATOM     67  C   UNL A   1      45.565  27.516  37.128  1.00  0.00     0.198 A 
ATOM     68  F   UNL A   1      43.216  27.489  37.022  1.00  0.00    -0.203 F 
ATOM     69  F   UNL A   1      47.971  29.783  35.644  1.00  0.00    -0.200 F 
ATOM     70  C   UNL A   1      46.778  28.089  36.777  1.00  0.00     0.200 A 
ATOM     71  F   UNL A   1      45.542  26.404  37.875  1.00  0.00    -0.200 F 
ATOM     72  F   UNL A   1      47.927  27.517  37.163  1.00  0.00    -0.200 F 
ENDBRANCH  39  62
ENDBRANCH  13  14
ENDBRANCH   6   8
ENDBRANCH   3   4
ENDBRANCH   2   3
ENDBRANCH   1   2
BRANCH   1  73
ATOM     73  C   UNL A   1      35.120  33.270  27.972  1.00  0.00     0.002 C 
BRANCH  73  74
ATOM     74  C   UNL A   1      35.810  31.906  28.028  1.00  0.00     0.021 C 
BRANCH  74  75
ATOM     75  C   UNL A   1      34.938  30.717  27.636  1.00  0.00     0.116 C 
BRANCH  75  76
ATOM     76  N   UNL A   1      33.551  31.097  27.448  1.00  0.00    -0.351 N 
ATOM     77  C   UNL A   1      32.593  30.666  26.589  1.00  0.00     0.278 C 
ATOM     78  H   UNL A   1      33.247  31.804  28.062  1.00  0.00     0.163 HD
ATOM     79  O   UNL A   1      31.475  31.181  26.723  1.00  0.00    -0.268 OA
BRANCH  77  80
ATOM     80  C   UNL A   1      32.815  29.657  25.447  1.00  0.00     0.273 C 
ATOM     81  C   UNL A   1      32.730  28.249  26.010  1.00  0.00     0.088 C 
ATOM     82  N   UNL A   1      31.838  29.701  24.358  1.00  0.00    -0.336 N 
ATOM     83  C   UNL A   1      32.283  27.371  24.833  1.00  0.00     0.028 C 
ATOM     84  C   UNL A   1      31.531  28.347  23.917  1.00  0.00     0.268 C 
ATOM     85  H   UNL A   1      32.224  30.232  23.578  1.00  0.00     0.346 HD
ATOM     86  H   UNL A   1      30.984  30.149  24.690  1.00  0.00     0.346 HD
ATOM     87  C   UNL A   1      31.338  26.277  25.365  1.00  0.00     0.030 C 
ATOM     88  C   UNL A   1      33.507  26.778  24.068  1.00  0.00     0.030 C 
ATOM     89  C   UNL A   1      32.138  25.164  26.005  1.00  0.00     0.104 C 
ATOM     90  C   UNL A   1      34.102  25.499  24.670  1.00  0.00     0.104 C 
ATOM     91  N   UNL A   1      33.030  24.524  25.026  1.00  0.00    -0.189 NA
BRANCH  91  92
ATOM     92  S   UNL A   1      32.405  23.663  23.699  1.00  0.00     0.282 S 
ATOM     93  O   UNL A   1      30.981  23.484  23.887  1.00  0.00    -0.195 OA
ATOM     94  O   UNL A   1      32.902  24.320  22.516  1.00  0.00    -0.195 OA
BRANCH  92  95
ATOM     95  N   UNL A   1      33.130  22.179  23.807  1.00  0.00    -0.184 NA
ATOM     96  C   UNL A   1      34.394  21.998  24.530  1.00  0.00     0.132 C 
ATOM     97  C   UNL A   1      32.461  20.909  23.475  1.00  0.00     0.132 C 
ATOM     98  C   UNL A   1      34.115  21.204  25.800  1.00  0.00     0.177 C 
ATOM     99  C   UNL A   1      32.363  19.978  24.695  1.00  0.00     0.177 C 
ATOM    100  O   UNL A   1      33.556  19.916  25.492  1.00  0.00    -0.379 OA
ENDBRANCH  92  95
ENDBRANCH  91  92
ENDBRANCH  77  80
ENDBRANCH  75  76
ENDBRANCH  74  75
ENDBRANCH  73  74
ENDBRANCH   1  73
TORSDOF 15
ENDMDL
MODEL 2
REMARK VINA RESULT:     -12.1      6.721     12.547
REMARK SMILES O=C(NCCCCCCNC(=O)[C@H]1CC2(CCN(S(=O)(=O)N3CCOCC3)CC2)C[NH2+]1)c1ccc(-c2c3nc(c(-c4c(F)c(F)c(F)c(F)c4F)c4ccc([nH]4)c(-c4c(F)c(F)c(F)c(F)c4F)c4nc(c(-c5c(F)c(F)c(F)c(F)c5F)c5ccc2[nH]5)C=C4)C=C3)cc1
REMARK SMILES IDX 6 1 5 2 4 3 3 4 1 5 2 6 32 8 33 9 94 10 34 11 93 12 35 13
REMARK SMILES IDX 36 14 37 15 87 16 38 17 92 18 86 19 88 20 39 21 91 22 85 23
REMARK SMILES IDX 84 24 40 26 72 27 52 28 71 29 53 30 56 31 70 32 89 33 54 34
REMARK SMILES IDX 55 35 69 37 90 38 57 39 41 40 42 41 50 42 43 43 44 44 48 45
REMARK SMILES IDX 51 46 45 47 46 48 49 49 47 50 73 51 74 52 82 53 75 54 76 55
REMARK SMILES IDX 80 56 83 57 77 58 78 59 81 60 79 61 58 62 59 63 67 64 60 65
REMARK SMILES IDX 61 66 65 67 68 68 62 69 63 70 66 71 64 72 7 73 8 74 9 75
REMARK SMILES IDX 10 76 11 77 12 79 13 80 14 81 31 82 15 83 30 84 16 87 29 88
REMARK SMILES IDX 17 89 28 90 18 91 19 92 20 93 21 94 22 95 23 96 27 97 24 98
REMARK SMILES IDX 26 99 25 100
REMARK H PARENT 3 7 88 25 56 36 10 78 31 85 31 86
REMARK Flexibility Score: inf
ROOT
ATOM      1  C   UNL A   1      42.203  20.906  27.590  1.00  0.00     0.002 C 
ENDROOT
BRANCH   1   2
ATOM      2  C   UNL A   1      42.384  19.542  26.931  1.00  0.00     0.021 C 
BRANCH   2   3
ATOM      3  C   UNL A   1      42.395  19.576  25.413  1.00  0.00     0.116 C 
BRANCH   3   4
ATOM      4  N   UNL A   1      43.584  18.959  24.847  1.00  0.00    -0.352 N 
ATOM      5  O   UNL A   1      45.612  18.929  23.842  1.00  0.00    -0.269 OA
ATOM      6  C   UNL A   1      44.761  19.557  24.461  1.00  0.00     0.251 C 
ATOM      7  H   UNL A   1      43.541  17.983  24.724  1.00  0.00     0.163 HD
BRANCH   6   8
ATOM      8  C   UNL A   1      44.976  20.982  24.787  1.00  0.00     0.039 A 
ATOM      9  C   UNL A   1      45.537  21.333  26.016  1.00  0.00     0.014 A 
ATOM     10  C   UNL A   1      44.579  21.970  23.884  1.00  0.00     0.014 A 
ATOM     11  C   UNL A   1      45.531  22.659  26.415  1.00  0.00     0.010 A 
ATOM     12  C   UNL A   1      44.699  23.317  24.238  1.00  0.00     0.010 A 
ATOM     13  C   UNL A   1      45.150  23.673  25.518  1.00  0.00    -0.014 A 
BRANCH  13  14
ATOM     14  C   UNL A   1      45.336  25.084  25.939  1.00  0.00     0.031 A 
ATOM     15  C   UNL A   1      44.226  25.881  26.563  1.00  0.00     0.074 A 
ATOM     16  C   UNL A   1      46.566  25.620  25.805  1.00  0.00     0.049 A 
ATOM     17  N   UNL A   1      44.260  27.102  27.040  1.00  0.00    -0.248 NA
ATOM     18  C   UNL A   1      42.908  25.239  26.659  1.00  0.00     0.031 C 
ATOM     19  C   UNL A   1      47.712  24.943  25.189  1.00  0.00     0.029 A 
ATOM     20  N   UNL A   1      47.073  26.829  26.203  1.00  0.00    -0.354 N 
ATOM     21  C   UNL A   1      42.975  27.374  27.487  1.00  0.00     0.074 A 
ATOM     22  C   UNL A   1      42.171  26.207  27.189  1.00  0.00     0.031 C 
ATOM     23  C   UNL A   1      48.799  25.716  25.310  1.00  0.00     0.029 A 
ATOM     24  C   UNL A   1      48.411  26.975  25.930  1.00  0.00     0.049 A 
ATOM     25  H   UNL A   1      46.531  27.525  26.641  1.00  0.00     0.167 HD
ATOM     26  C   UNL A   1      42.516  28.491  28.104  1.00  0.00     0.037 A 
ATOM     27  C   UNL A   1      49.236  28.017  26.132  1.00  0.00     0.037 A 
ATOM     28  C   UNL A   1      43.326  29.650  28.391  1.00  0.00     0.049 A 
ATOM     29  C   UNL A   1      48.687  29.252  26.788  1.00  0.00     0.074 A 
ATOM     30  C   UNL A   1      42.957  30.830  29.014  1.00  0.00     0.029 A 
ATOM     31  N   UNL A   1      44.672  29.777  28.069  1.00  0.00    -0.354 N 
ATOM     32  N   UNL A   1      47.476  29.482  27.233  1.00  0.00    -0.248 NA
ATOM     33  C   UNL A   1      49.620  30.368  26.970  1.00  0.00     0.031 C 
ATOM     34  C   UNL A   1      44.062  31.688  29.023  1.00  0.00     0.029 A 
ATOM     35  C   UNL A   1      45.139  31.022  28.464  1.00  0.00     0.049 A 
ATOM     36  H   UNL A   1      45.213  29.085  27.624  1.00  0.00     0.167 HD
ATOM     37  C   UNL A   1      47.505  30.765  27.760  1.00  0.00     0.074 A 
ATOM     38  C   UNL A   1      48.864  31.244  27.614  1.00  0.00     0.031 C 
ATOM     39  C   UNL A   1      46.494  31.486  28.306  1.00  0.00     0.037 A 
BRANCH  26  40
ATOM     40  C   UNL A   1      41.068  28.525  28.509  1.00  0.00     0.064 A 
ATOM     41  C   UNL A   1      40.654  28.138  29.792  1.00  0.00     0.173 A 
ATOM     42  C   UNL A   1      40.090  29.011  27.627  1.00  0.00     0.173 A 
ATOM     43  F   UNL A   1      41.545  27.658  30.673  1.00  0.00    -0.203 F 
ATOM     44  C   UNL A   1      39.315  28.218  30.170  1.00  0.00     0.198 A 
ATOM     45  C   UNL A   1      38.757  29.118  28.018  1.00  0.00     0.198 A 
ATOM     46  F   UNL A   1      40.430  29.401  26.389  1.00  0.00    -0.203 F 
ATOM     47  F   UNL A   1      38.940  27.805  31.388  1.00  0.00    -0.200 F 
ATOM     48  C   UNL A   1      38.370  28.717  29.286  1.00  0.00     0.200 A 
ATOM     49  F   UNL A   1      37.848  29.616  27.167  1.00  0.00    -0.200 F 
ATOM     50  F   UNL A   1      37.086  28.807  29.657  1.00  0.00    -0.200 F 
ENDBRANCH  26  40
BRANCH  27  51
ATOM     51  C   UNL A   1      50.650  27.944  25.679  1.00  0.00     0.064 A 
ATOM     52  C   UNL A   1      50.990  28.055  24.326  1.00  0.00     0.173 A 
ATOM     53  C   UNL A   1      51.693  27.749  26.600  1.00  0.00     0.173 A 
ATOM     54  F   UNL A   1      50.030  28.229  23.405  1.00  0.00    -0.203 F 
ATOM     55  C   UNL A   1      52.314  27.943  23.906  1.00  0.00     0.198 A 
ATOM     56  C   UNL A   1      53.018  27.679  26.183  1.00  0.00     0.198 A 
ATOM     57  F   UNL A   1      51.423  27.646  27.910  1.00  0.00    -0.203 F 
ATOM     58  F   UNL A   1      52.606  27.992  22.599  1.00  0.00    -0.200 F 
ATOM     59  C   UNL A   1      53.327  27.762  24.835  1.00  0.00     0.200 A 
ATOM     60  F   UNL A   1      53.995  27.530  27.089  1.00  0.00    -0.200 F 
ATOM     61  F   UNL A   1      54.601  27.658  24.431  1.00  0.00    -0.200 F 
ENDBRANCH  27  51
BRANCH  39  62
ATOM     62  C   UNL A   1      46.841  32.858  28.809  1.00  0.00     0.064 A 
ATOM     63  C   UNL A   1      47.279  33.075  30.124  1.00  0.00     0.173 A 
ATOM     64  C   UNL A   1      46.727  33.974  27.964  1.00  0.00     0.173 A 
ATOM     65  F   UNL A   1      47.387  32.044  30.977  1.00  0.00    -0.203 F 
ATOM     66  C   UNL A   1      47.543  34.360  30.589  1.00  0.00     0.198 A 
ATOM     67  C   UNL A   1      47.031  35.253  28.421  1.00  0.00     0.198 A 
ATOM     68  F   UNL A   1      46.320  33.824  26.695  1.00  0.00    -0.203 F 
ATOM     69  F   UNL A   1      47.886  34.548  31.871  1.00  0.00    -0.200 F 
ATOM     70  C   UNL A   1      47.424  35.446  29.737  1.00  0.00     0.200 A 
ATOM     71  F   UNL A   1      46.929  36.300  27.592  1.00  0.00    -0.200 F 
ATOM     72  F   UNL A   1      47.676  36.684  30.187  1.00  0.00    -0.200 F 
ENDBRANCH  39  62
ENDBRANCH  13  14
ENDBRANCH   6   8
ENDBRANCH   3   4
ENDBRANCH   2   3
ENDBRANCH   1   2
BRANCH   1  73
ATOM     73  C   UNL A   1      41.524  21.966  26.715  1.00  0.00     0.002 C 
BRANCH  73  74
ATOM     74  C   UNL A   1      40.375  22.727  27.377  1.00  0.00     0.021 C 
BRANCH  74  75
ATOM     75  C   UNL A   1      39.159  22.975  26.490  1.00  0.00     0.116 C 
BRANCH  75  76
ATOM     76  N   UNL A   1      38.836  21.821  25.674  1.00  0.00    -0.351 N 
ATOM     77  C   UNL A   1      37.654  21.270  25.295  1.00  0.00     0.278 C 
ATOM     78  H   UNL A   1      39.626  21.345  25.329  1.00  0.00     0.163 HD
ATOM     79  O   UNL A   1      37.731  20.289  24.544  1.00  0.00    -0.268 OA
BRANCH  77  80
ATOM     80  C   UNL A   1      36.267  21.731  25.778  1.00  0.00     0.273 C 
ATOM     81  C   UNL A   1      35.813  22.903  24.926  1.00  0.00     0.088 C 
ATOM     82  N   UNL A   1      35.196  20.738  25.678  1.00  0.00    -0.336 N 
ATOM     83  C   UNL A   1      34.278  22.862  24.968  1.00  0.00     0.028 C 
ATOM     84  C   UNL A   1      33.962  21.386  25.248  1.00  0.00     0.268 C 
ATOM     85  H   UNL A   1      35.050  20.304  26.589  1.00  0.00     0.346 HD
ATOM     86  H   UNL A   1      35.457  20.027  24.995  1.00  0.00     0.346 HD
ATOM     87  C   UNL A   1      33.735  23.289  23.592  1.00  0.00     0.030 C 
ATOM     88  C   UNL A   1      33.718  23.743  26.128  1.00  0.00     0.030 C 
ATOM     89  C   UNL A   1      33.779  24.796  23.460  1.00  0.00     0.104 C 
ATOM     90  C   UNL A   1      33.572  25.236  25.808  1.00  0.00     0.104 C 
ATOM     91  N   UNL A   1      32.932  25.440  24.476  1.00  0.00    -0.189 NA
BRANCH  91  92
ATOM     92  S   UNL A   1      31.244  25.228  24.476  1.00  0.00     0.282 S 
ATOM     93  O   UNL A   1      30.855  24.575  23.244  1.00  0.00    -0.195 OA
ATOM     94  O   UNL A   1      30.908  24.637  25.747  1.00  0.00    -0.195 OA
BRANCH  92  95
ATOM     95  N   UNL A   1      30.647  26.771  24.452  1.00  0.00    -0.184 NA
ATOM     96  C   UNL A   1      31.413  27.895  25.004  1.00  0.00     0.132 C 
ATOM     97  C   UNL A   1      29.492  27.196  23.642  1.00  0.00     0.132 C 
ATOM     98  C   UNL A   1      31.877  28.777  23.850  1.00  0.00     0.177 C 
ATOM     99  C   UNL A   1      29.880  28.264  22.607  1.00  0.00     0.177 C 
ATOM    100  O   UNL A   1      30.756  29.286  23.107  1.00  0.00    -0.379 OA
ENDBRANCH  92  95
ENDBRANCH  91  92
ENDBRANCH  77  80
ENDBRANCH  75  76
ENDBRANCH  74  75
ENDBRANCH  73  74
ENDBRANCH   1  73
TORSDOF 15
ENDMDL
MODEL 3
REMARK VINA RESULT:     -11.8      6.775     12.039
REMARK SMILES O=C(NCCCCCCNC(=O)[C@H]1CC2(CCN(S(=O)(=O)N3CCOCC3)CC2)C[NH2+]1)c1ccc(-c2c3nc(c(-c4c(F)c(F)c(F)c(F)c4F)c4ccc([nH]4)c(-c4c(F)c(F)c(F)c(F)c4F)c4nc(c(-c5c(F)c(F)c(F)c(F)c5F)c5ccc2[nH]5)C=C4)C=C3)cc1
REMARK SMILES IDX 6 1 5 2 4 3 3 4 1 5 2 6 32 8 33 9 94 10 34 11 93 12 35 13
REMARK SMILES IDX 36 14 37 15 87 16 38 17 92 18 86 19 88 20 39 21 91 22 85 23
REMARK SMILES IDX 84 24 40 26 72 27 52 28 71 29 53 30 56 31 70 32 89 33 54 34
REMARK SMILES IDX 55 35 69 37 90 38 57 39 41 40 42 41 50 42 43 43 44 44 48 45
REMARK SMILES IDX 51 46 45 47 46 48 49 49 47 50 73 51 74 52 82 53 75 54 76 55
REMARK SMILES IDX 80 56 83 57 77 58 78 59 81 60 79 61 58 62 59 63 67 64 60 65
REMARK SMILES IDX 61 66 65 67 68 68 62 69 63 70 66 71 64 72 7 73 8 74 9 75
REMARK SMILES IDX 10 76 11 77 12 79 13 80 14 81 31 82 15 83 30 84 16 87 29 88
REMARK SMILES IDX 17 89 28 90 18 91 19 92 20 93 21 94 22 95 23 96 27 97 24 98
REMARK SMILES IDX 26 99 25 100
REMARK H PARENT 3 7 88 25 56 36 10 78 31 85 31 86
REMARK Flexibility Score: inf
ROOT
ATOM      1  C   UNL A   1      41.953  21.354  26.606  1.00  0.00     0.002 C 
ENDROOT
BRANCH   1   2
ATOM      2  C   UNL A   1      41.945  20.005  25.894  1.00  0.00     0.021 C 
BRANCH   2   3
ATOM      3  C   UNL A   1      43.150  19.130  26.194  1.00  0.00     0.116 C 
BRANCH   3   4
ATOM      4  N   UNL A   1      43.892  18.770  24.996  1.00  0.00    -0.352 N 
ATOM      5  O   UNL A   1      45.087  19.164  23.114  1.00  0.00    -0.269 OA
ATOM      6  C   UNL A   1      44.658  19.575  24.186  1.00  0.00     0.251 C 
ATOM      7  H   UNL A   1      43.839  17.824  24.730  1.00  0.00     0.163 HD
BRANCH   6   8
ATOM      8  C   UNL A   1      44.942  20.959  24.621  1.00  0.00     0.039 A 
ATOM      9  C   UNL A   1      45.631  21.181  25.814  1.00  0.00     0.014 A 
ATOM     10  C   UNL A   1      44.482  22.035  23.859  1.00  0.00     0.014 A 
ATOM     11  C   UNL A   1      45.700  22.463  26.334  1.00  0.00     0.010 A 
ATOM     12  C   UNL A   1      44.672  23.341  24.324  1.00  0.00     0.010 A 
ATOM     13  C   UNL A   1      45.257  23.564  25.579  1.00  0.00    -0.014 A 
BRANCH  13  14
ATOM     14  C   UNL A   1      45.521  24.926  26.109  1.00  0.00     0.031 A 
ATOM     15  C   UNL A   1      46.871  25.574  26.000  1.00  0.00     0.074 A 
ATOM     16  C   UNL A   1      44.483  25.602  26.640  1.00  0.00     0.049 A 
ATOM     17  N   UNL A   1      47.233  26.783  26.358  1.00  0.00    -0.248 NA
ATOM     18  C   UNL A   1      47.960  24.771  25.426  1.00  0.00     0.031 C 
ATOM     19  C   UNL A   1      43.132  25.059  26.820  1.00  0.00     0.029 A 
ATOM     20  N   UNL A   1      44.381  26.891  27.095  1.00  0.00    -0.354 N 
ATOM     21  C   UNL A   1      48.584  26.882  26.058  1.00  0.00     0.074 A 
ATOM     22  C   UNL A   1      48.992  25.599  25.526  1.00  0.00     0.031 C 
ATOM     23  C   UNL A   1      42.325  26.023  27.280  1.00  0.00     0.029 A 
ATOM     24  C   UNL A   1      43.115  27.223  27.512  1.00  0.00     0.049 A 
ATOM     25  H   UNL A   1      45.141  27.517  27.120  1.00  0.00     0.167 HD
ATOM     26  C   UNL A   1      49.402  27.954  26.202  1.00  0.00     0.037 A 
ATOM     27  C   UNL A   1      42.643  28.362  28.047  1.00  0.00     0.037 A 
ATOM     28  C   UNL A   1      48.985  29.226  26.738  1.00  0.00     0.049 A 
ATOM     29  C   UNL A   1      43.584  29.519  28.223  1.00  0.00     0.074 A 
ATOM     30  C   UNL A   1      49.737  30.375  26.922  1.00  0.00     0.029 A 
ATOM     31  N   UNL A   1      47.702  29.518  27.184  1.00  0.00    -0.354 N 
ATOM     32  N   UNL A   1      44.852  29.608  27.905  1.00  0.00    -0.248 NA
ATOM     33  C   UNL A   1      43.026  30.733  28.827  1.00  0.00     0.031 C 
ATOM     34  C   UNL A   1      48.923  31.342  27.523  1.00  0.00     0.029 A 
ATOM     35  C   UNL A   1      47.648  30.821  27.658  1.00  0.00     0.049 A 
ATOM     36  H   UNL A   1      46.943  28.891  27.166  1.00  0.00     0.167 HD
ATOM     37  C   UNL A   1      45.242  30.891  28.261  1.00  0.00     0.074 A 
ATOM     38  C   UNL A   1      44.063  31.555  28.779  1.00  0.00     0.031 C 
ATOM     39  C   UNL A   1      46.467  31.465  28.176  1.00  0.00     0.037 A 
BRANCH  26  40
ATOM     40  C   UNL A   1      50.837  27.803  25.779  1.00  0.00     0.064 A 
ATOM     41  C   UNL A   1      51.845  27.477  26.699  1.00  0.00     0.173 A 
ATOM     42  C   UNL A   1      51.201  27.922  24.428  1.00  0.00     0.173 A 
ATOM     43  F   UNL A   1      51.555  27.359  28.004  1.00  0.00    -0.203 F 
ATOM     44  C   UNL A   1      53.164  27.293  26.286  1.00  0.00     0.198 A 
ATOM     45  C   UNL A   1      52.515  27.709  24.014  1.00  0.00     0.198 A 
ATOM     46  F   UNL A   1      50.278  28.226  23.503  1.00  0.00    -0.203 F 
ATOM     47  F   UNL A   1      54.114  27.021  27.191  1.00  0.00    -0.200 F 
ATOM     48  C   UNL A   1      53.495  27.400  24.944  1.00  0.00     0.200 A 
ATOM     49  F   UNL A   1      52.829  27.796  22.714  1.00  0.00    -0.200 F 
ATOM     50  F   UNL A   1      54.761  27.209  24.548  1.00  0.00    -0.200 F 
ENDBRANCH  26  40
BRANCH  27  51
ATOM     51  C   UNL A   1      41.223  28.445  28.481  1.00  0.00     0.064 A 
ATOM     52  C   UNL A   1      40.823  28.027  29.756  1.00  0.00     0.173 A 
ATOM     53  C   UNL A   1      40.232  28.939  27.616  1.00  0.00     0.173 A 
ATOM     54  F   UNL A   1      41.729  27.535  30.615  1.00  0.00    -0.203 F 
ATOM     55  C   UNL A   1      39.484  28.069  30.140  1.00  0.00     0.198 A 
ATOM     56  C   UNL A   1      38.902  29.020  28.017  1.00  0.00     0.198 A 
ATOM     57  F   UNL A   1      40.562  29.363  26.388  1.00  0.00    -0.203 F 
ATOM     58  F   UNL A   1      39.120  27.605  31.343  1.00  0.00    -0.200 F 
ATOM     59  C   UNL A   1      38.526  28.571  29.273  1.00  0.00     0.200 A 
ATOM     60  F   UNL A   1      37.985  29.530  27.183  1.00  0.00    -0.200 F 
ATOM     61  F   UNL A   1      37.239  28.615  29.643  1.00  0.00    -0.200 F 
ENDBRANCH  27  51
BRANCH  39  62
ATOM     62  C   UNL A   1      46.576  32.892  28.631  1.00  0.00     0.064 A 
ATOM     63  C   UNL A   1      46.400  33.966  27.745  1.00  0.00     0.173 A 
ATOM     64  C   UNL A   1      46.867  33.190  29.971  1.00  0.00     0.173 A 
ATOM     65  F   UNL A   1      46.137  33.734  26.449  1.00  0.00    -0.203 F 
ATOM     66  C   UNL A   1      46.558  35.281  28.172  1.00  0.00     0.198 A 
ATOM     67  C   UNL A   1      46.986  34.508  30.403  1.00  0.00     0.198 A 
ATOM     68  F   UNL A   1      47.040  32.202  30.863  1.00  0.00    -0.203 F 
ATOM     69  F   UNL A   1      46.459  36.285  27.290  1.00  0.00    -0.200 F 
ATOM     70  C   UNL A   1      46.846  35.551  29.501  1.00  0.00     0.200 A 
ATOM     71  F   UNL A   1      47.250  34.768  31.691  1.00  0.00    -0.200 F 
ATOM     72  F   UNL A   1      47.001  36.818  29.910  1.00  0.00    -0.200 F 
ENDBRANCH  39  62
ENDBRANCH  13  14
ENDBRANCH   6   8
ENDBRANCH   3   4
ENDBRANCH   2   3
ENDBRANCH   1   2
BRANCH   1  73
ATOM     73  C   UNL A   1      40.741  21.624  27.502  1.00  0.00     0.002 C 
BRANCH  73  74
ATOM     74  C   UNL A   1      40.155  23.034  27.409  1.00  0.00     0.021 C 
BRANCH  74  75
ATOM     75  C   UNL A   1      38.976  23.189  26.453  1.00  0.00     0.116 C 
BRANCH  75  76
ATOM     76  N   UNL A   1      38.737  21.983  25.682  1.00  0.00    -0.351 N 
ATOM     77  C   UNL A   1      37.598  21.337  25.325  1.00  0.00     0.278 C 
ATOM     78  H   UNL A   1      39.559  21.552  25.357  1.00  0.00     0.163 HD
ATOM     79  O   UNL A   1      37.746  20.335  24.613  1.00  0.00    -0.268 OA
BRANCH  77  80
ATOM     80  C   UNL A   1      36.181  21.717  25.789  1.00  0.00     0.273 C 
ATOM     81  C   UNL A   1      35.692  22.896  24.966  1.00  0.00     0.088 C 
ATOM     82  N   UNL A   1      35.159  20.681  25.631  1.00  0.00    -0.336 N 
ATOM     83  C   UNL A   1      34.161  22.784  24.969  1.00  0.00     0.028 C 
ATOM     84  C   UNL A   1      33.907  21.286  25.193  1.00  0.00     0.268 C 
ATOM     85  H   UNL A   1      35.013  20.209  26.523  1.00  0.00     0.346 HD
ATOM     86  H   UNL A   1      35.469  20.006  24.932  1.00  0.00     0.346 HD
ATOM     87  C   UNL A   1      33.629  23.231  23.595  1.00  0.00     0.030 C 
ATOM     88  C   UNL A   1      33.534  23.598  26.143  1.00  0.00     0.030 C 
ATOM     89  C   UNL A   1      33.606  24.742  23.513  1.00  0.00     0.104 C 
ATOM     90  C   UNL A   1      33.326  25.093  25.869  1.00  0.00     0.104 C 
ATOM     91  N   UNL A   1      32.707  25.312  24.529  1.00  0.00    -0.189 NA
BRANCH  91  92
ATOM     92  S   UNL A   1      31.032  25.024  24.482  1.00  0.00     0.282 S 
ATOM     93  O   UNL A   1      30.694  24.440  23.201  1.00  0.00    -0.195 OA
ATOM     94  O   UNL A   1      30.703  24.332  25.703  1.00  0.00    -0.195 OA
BRANCH  92  95
ATOM     95  N   UNL A   1      30.364  26.536  24.551  1.00  0.00    -0.184 NA
ATOM     96  C   UNL A   1      31.029  27.634  25.264  1.00  0.00     0.132 C 
ATOM     97  C   UNL A   1      29.254  26.988  23.692  1.00  0.00     0.132 C 
ATOM     98  C   UNL A   1      31.535  28.640  24.237  1.00  0.00     0.177 C 
ATOM     99  C   UNL A   1      29.669  28.165  22.794  1.00  0.00     0.177 C 
ATOM    100  O   UNL A   1      30.452  29.170  23.456  1.00  0.00    -0.379 OA
ENDBRANCH  92  95
ENDBRANCH  91  92
ENDBRANCH  77  80
ENDBRANCH  75  76
ENDBRANCH  74  75
ENDBRANCH  73  74
ENDBRANCH   1  73
TORSDOF 15
ENDMDL
