MODEL 1
REMARK VINA RESULT:     -11.8      0.000      0.000
REMARK SMILES CC[C@@](C)([NH3+])C(=O)N1CC[NH+]([C@H](C)C(=O)NCCCCCCNC(=O)c2ccc(-c3c4nc(c(-c5c(F)c(F)c(F)c(F)c5F)c5ccc([nH]5)c(-c5c(F)c(F)c(F)c(F)c5F)c5nc(c(-c6c(F)c(F)c(F)c(F)c6F)c6ccc3[nH]6)C=C5)C=C4)cc2)CC1
REMARK SMILES IDX 19 1 18 2 17 3 16 4 14 5 15 6 12 8 13 9 11 10 6 11 7 12 8 13
REMARK SMILES IDX 9 14 90 15 10 16 89 17 3 19 4 20 2 21 1 22 5 23 20 27 21 28
REMARK SMILES IDX 22 29 23 30 24 31 25 33 26 34 27 35 88 36 28 37 87 38 29 39
REMARK SMILES IDX 30 40 31 41 81 42 32 43 86 44 80 45 82 46 33 47 85 48 79 49
REMARK SMILES IDX 78 50 34 52 66 53 46 54 65 55 47 56 50 57 64 58 83 59 48 60
REMARK SMILES IDX 49 61 63 63 84 64 51 65 35 66 36 67 44 68 37 69 38 70 42 71
REMARK SMILES IDX 45 72 39 73 40 74 43 75 41 76 67 77 68 78 76 79 69 80 70 81
REMARK SMILES IDX 74 82 77 83 71 84 72 85 75 86 73 87 52 88 53 89 61 90 54 91
REMARK SMILES IDX 55 92 59 93 62 94 56 95 57 96 60 97 58 98
REMARK H PARENT 16 7 11 18 5 24 5 25 5 26 23 32 82 51 50 62
REMARK Flexibility Score: inf
ROOT
ATOM      1  C   UNL A   1      31.617  29.835  25.344  1.00  0.00     0.002 C 
ENDROOT
BRANCH   1   2
ATOM      2  C   UNL A   1      32.920  29.318  24.731  1.00  0.00     0.021 C 
BRANCH   2   3
ATOM      3  C   UNL A   1      33.090  27.807  24.756  1.00  0.00     0.116 C 
BRANCH   3   4
ATOM      4  N   UNL A   1      33.635  27.251  23.538  1.00  0.00    -0.351 N 
ATOM      5  C   UNL A   1      33.432  26.031  22.951  1.00  0.00     0.278 C 
ATOM      6  O   UNL A   1      33.854  25.903  21.796  1.00  0.00    -0.268 OA
ATOM      7  H   UNL A   1      34.252  27.845  23.054  1.00  0.00     0.163 HD
BRANCH   5   8
ATOM      8  C   UNL A   1      32.745  24.844  23.677  1.00  0.00     0.271 C 
ATOM      9  C   UNL A   1      31.775  24.073  22.772  1.00  0.00     0.086 C 
BRANCH   8  10
ATOM     10  N   UNL A   1      33.656  24.052  24.559  1.00  0.00    -0.322 N 
ATOM     11  C   UNL A   1      34.884  20.181  25.107  1.00  0.00     0.283 C 
ATOM     12  O   UNL A   1      35.986  19.768  24.718  1.00  0.00    -0.268 OA
ATOM     13  N   UNL A   1      34.763  21.520  25.443  1.00  0.00    -0.326 N 
ATOM     14  C   UNL A   1      35.638  22.477  24.781  1.00  0.00     0.181 C 
ATOM     15  C   UNL A   1      33.791  22.195  26.298  1.00  0.00     0.181 C 
ATOM     16  C   UNL A   1      34.761  23.362  23.872  1.00  0.00     0.284 C 
ATOM     17  C   UNL A   1      32.909  23.154  25.472  1.00  0.00     0.284 C 
ATOM     18  H   UNL A   1      34.127  24.756  25.127  1.00  0.00     0.348 HD
BRANCH  11  19
ATOM     19  C   UNL A   1      33.620  19.247  24.964  1.00  0.00     0.171 C 
ATOM     20  C   UNL A   1      32.669  19.860  23.923  1.00  0.00     0.090 C 
BRANCH  19  21
ATOM     21  C   UNL A   1      34.046  17.811  24.529  1.00  0.00     0.075 C 
ATOM     22  C   UNL A   1      33.644  17.373  23.120  1.00  0.00     0.011 C 
ENDBRANCH  19  21
BRANCH  19  23
ATOM     23  N   UNL A   1      32.893  19.096  26.248  1.00  0.00    -0.345 N 
ATOM     24  H   UNL A   1      33.564  19.021  27.012  1.00  0.00     0.345 HD
ATOM     25  H   UNL A   1      32.319  18.253  26.217  1.00  0.00     0.345 HD
ATOM     26  H   UNL A   1      32.296  19.909  26.399  1.00  0.00     0.345 HD
ENDBRANCH  19  23
ENDBRANCH  11  19
ENDBRANCH   8  10
ENDBRANCH   5   8
ENDBRANCH   3   4
ENDBRANCH   2   3
ENDBRANCH   1   2
BRANCH   1  27
ATOM     27  C   UNL A   1      31.732  30.492  26.725  1.00  0.00     0.002 C 
BRANCH  27  28
ATOM     28  C   UNL A   1      31.556  32.011  26.768  1.00  0.00     0.021 C 
BRANCH  28  29
ATOM     29  C   UNL A   1      32.793  32.805  27.171  1.00  0.00     0.116 C 
BRANCH  29  30
ATOM     30  N   UNL A   1      32.482  34.161  27.586  1.00  0.00    -0.352 N 
ATOM     31  C   UNL A   1      33.026  34.910  28.600  1.00  0.00     0.251 C 
ATOM     32  H   UNL A   1      31.778  34.610  27.063  1.00  0.00     0.163 HD
ATOM     33  O   UNL A   1      32.537  35.992  28.899  1.00  0.00    -0.269 OA
BRANCH  31  34
ATOM     34  C   UNL A   1      34.189  34.394  29.351  1.00  0.00     0.039 A 
ATOM     35  C   UNL A   1      33.963  33.654  30.514  1.00  0.00     0.014 A 
ATOM     36  C   UNL A   1      35.494  34.633  28.912  1.00  0.00     0.014 A 
ATOM     37  C   UNL A   1      35.044  33.100  31.203  1.00  0.00     0.010 A 
ATOM     38  C   UNL A   1      36.564  34.017  29.553  1.00  0.00     0.010 A 
ATOM     39  C   UNL A   1      36.349  33.245  30.706  1.00  0.00    -0.014 A 
BRANCH  39  40
ATOM     40  C   UNL A   1      37.504  32.597  31.379  1.00  0.00     0.031 A 
ATOM     41  C   UNL A   1      38.229  31.463  30.710  1.00  0.00     0.074 A 
ATOM     42  C   UNL A   1      37.860  32.991  32.616  1.00  0.00     0.049 A 
ATOM     43  N   UNL A   1      39.220  30.733  31.159  1.00  0.00    -0.248 NA
ATOM     44  C   UNL A   1      37.761  31.082  29.369  1.00  0.00     0.031 C 
ATOM     45  C   UNL A   1      37.212  34.056  33.382  1.00  0.00     0.029 A 
ATOM     46  N   UNL A   1      38.853  32.540  33.448  1.00  0.00    -0.354 N 
ATOM     47  C   UNL A   1      39.487  29.806  30.160  1.00  0.00     0.074 A 
ATOM     48  C   UNL A   1      38.511  30.021  29.113  1.00  0.00     0.031 C 
ATOM     49  C   UNL A   1      37.845  34.199  34.557  1.00  0.00     0.029 A 
ATOM     50  C   UNL A   1      38.913  33.208  34.646  1.00  0.00     0.049 A 
ATOM     51  H   UNL A   1      39.465  31.806  33.209  1.00  0.00     0.167 HD
ATOM     52  C   UNL A   1      40.474  28.879  30.107  1.00  0.00     0.037 A 
ATOM     53  C   UNL A   1      39.734  33.036  35.699  1.00  0.00     0.037 A 
ATOM     54  C   UNL A   1      41.444  28.673  31.151  1.00  0.00     0.049 A 
ATOM     55  C   UNL A   1      40.788  31.964  35.639  1.00  0.00     0.074 A 
ATOM     56  C   UNL A   1      42.507  27.787  31.181  1.00  0.00     0.029 A 
ATOM     57  N   UNL A   1      41.462  29.358  32.358  1.00  0.00    -0.354 N 
ATOM     58  N   UNL A   1      41.073  31.135  34.664  1.00  0.00    -0.248 NA
ATOM     59  C   UNL A   1      41.636  31.806  36.829  1.00  0.00     0.031 C 
ATOM     60  C   UNL A   1      43.132  27.895  32.428  1.00  0.00     0.029 A 
ATOM     61  C   UNL A   1      42.499  28.894  33.151  1.00  0.00     0.049 A 
ATOM     62  H   UNL A   1      40.831  30.069  32.613  1.00  0.00     0.167 HD
ATOM     63  C   UNL A   1      42.154  30.382  35.107  1.00  0.00     0.074 A 
ATOM     64  C   UNL A   1      42.478  30.862  36.435  1.00  0.00     0.031 C 
ATOM     65  C   UNL A   1      42.816  29.385  34.470  1.00  0.00     0.037 A 
BRANCH  52  66
ATOM     66  C   UNL A   1      40.542  28.016  28.877  1.00  0.00     0.064 A 
ATOM     67  C   UNL A   1      41.328  28.372  27.769  1.00  0.00     0.173 A 
ATOM     68  C   UNL A   1      39.819  26.816  28.805  1.00  0.00     0.173 A 
ATOM     69  F   UNL A   1      42.033  29.514  27.779  1.00  0.00    -0.203 F 
ATOM     70  C   UNL A   1      41.349  27.585  26.620  1.00  0.00     0.198 A 
ATOM     71  C   UNL A   1      39.872  26.012  27.669  1.00  0.00     0.198 A 
ATOM     72  F   UNL A   1      39.058  26.421  29.836  1.00  0.00    -0.203 F 
ATOM     73  F   UNL A   1      42.050  27.984  25.550  1.00  0.00    -0.200 F 
ATOM     74  C   UNL A   1      40.626  26.404  26.573  1.00  0.00     0.200 A 
ATOM     75  F   UNL A   1      39.185  24.863  27.631  1.00  0.00    -0.200 F 
ATOM     76  F   UNL A   1      40.645  25.649  25.466  1.00  0.00    -0.200 F 
ENDBRANCH  52  66
BRANCH  53  77
ATOM     77  C   UNL A   1      39.617  33.924  36.886  1.00  0.00     0.064 A 
ATOM     78  C   UNL A   1      40.286  35.155  36.926  1.00  0.00     0.173 A 
ATOM     79  C   UNL A   1      38.840  33.568  37.997  1.00  0.00     0.173 A 
ATOM     80  F   UNL A   1      41.060  35.530  35.896  1.00  0.00    -0.203 F 
ATOM     81  C   UNL A   1      40.199  35.987  38.039  1.00  0.00     0.198 A 
ATOM     82  C   UNL A   1      38.728  34.414  39.099  1.00  0.00     0.198 A 
ATOM     83  F   UNL A   1      38.176  32.402  38.008  1.00  0.00    -0.203 F 
ATOM     84  F   UNL A   1      40.888  37.136  38.070  1.00  0.00    -0.200 F 
ATOM     85  C   UNL A   1      39.415  35.620  39.122  1.00  0.00     0.200 A 
ATOM     86  F   UNL A   1      37.958  34.062  40.137  1.00  0.00    -0.200 F 
ATOM     87  F   UNL A   1      39.327  36.422  40.191  1.00  0.00    -0.200 F 
ENDBRANCH  53  77
BRANCH  65  88
ATOM     88  C   UNL A   1      43.989  28.773  35.181  1.00  0.00     0.064 A 
ATOM     89  C   UNL A   1      43.839  27.686  36.056  1.00  0.00     0.173 A 
ATOM     90  C   UNL A   1      45.287  29.256  34.954  1.00  0.00     0.173 A 
ATOM     91  F   UNL A   1      42.619  27.195  36.320  1.00  0.00    -0.203 F 
ATOM     92  C   UNL A   1      44.942  27.124  36.696  1.00  0.00     0.198 A 
ATOM     93  C   UNL A   1      46.390  28.670  35.568  1.00  0.00     0.198 A 
ATOM     94  F   UNL A   1      45.488  30.289  34.121  1.00  0.00    -0.203 F 
ATOM     95  F   UNL A   1      44.768  26.120  37.566  1.00  0.00    -0.200 F 
ATOM     96  C   UNL A   1      46.216  27.611  36.445  1.00  0.00     0.200 A 
ATOM     97  F   UNL A   1      47.622  29.131  35.311  1.00  0.00    -0.200 F 
ATOM     98  F   UNL A   1      47.276  27.062  37.054  1.00  0.00    -0.200 F 
ENDBRANCH  65  88
ENDBRANCH  39  40
ENDBRANCH  31  34
ENDBRANCH  29  30
ENDBRANCH  28  29
ENDBRANCH  27  28
ENDBRANCH   1  27
TORSDOF 17
ENDMDL
MODEL 2
REMARK VINA RESULT:     -11.7      5.523     11.428
REMARK SMILES CC[C@@](C)([NH3+])C(=O)N1CC[NH+]([C@H](C)C(=O)NCCCCCCNC(=O)c2ccc(-c3c4nc(c(-c5c(F)c(F)c(F)c(F)c5F)c5ccc([nH]5)c(-c5c(F)c(F)c(F)c(F)c5F)c5nc(c(-c6c(F)c(F)c(F)c(F)c6F)c6ccc3[nH]6)C=C5)C=C4)cc2)CC1
REMARK SMILES IDX 19 1 18 2 17 3 16 4 14 5 15 6 12 8 13 9 11 10 6 11 7 12 8 13
REMARK SMILES IDX 9 14 90 15 10 16 89 17 3 19 4 20 2 21 1 22 5 23 20 27 21 28
REMARK SMILES IDX 22 29 23 30 24 31 25 33 26 34 27 35 88 36 28 37 87 38 29 39
REMARK SMILES IDX 30 40 31 41 81 42 32 43 86 44 80 45 82 46 33 47 85 48 79 49
REMARK SMILES IDX 78 50 34 52 66 53 46 54 65 55 47 56 50 57 64 58 83 59 48 60
REMARK SMILES IDX 49 61 63 63 84 64 51 65 35 66 36 67 44 68 37 69 38 70 42 71
REMARK SMILES IDX 45 72 39 73 40 74 43 75 41 76 67 77 68 78 76 79 69 80 70 81
REMARK SMILES IDX 74 82 77 83 71 84 72 85 75 86 73 87 52 88 53 89 61 90 54 91
REMARK SMILES IDX 55 92 59 93 62 94 56 95 57 96 60 97 58 98
REMARK H PARENT 16 7 11 18 5 24 5 25 5 26 23 32 82 51 50 62
REMARK Flexibility Score: inf
ROOT
ATOM      1  C   UNL A   1      37.350  22.227  24.884  1.00  0.00     0.002 C 
ENDROOT
BRANCH   1   2
ATOM      2  C   UNL A   1      36.498  23.168  25.738  1.00  0.00     0.021 C 
BRANCH   2   3
ATOM      3  C   UNL A   1      35.025  23.220  25.365  1.00  0.00     0.116 C 
BRANCH   3   4
ATOM      4  N   UNL A   1      34.124  23.155  26.494  1.00  0.00    -0.351 N 
ATOM      5  C   UNL A   1      32.813  23.531  26.605  1.00  0.00     0.278 C 
ATOM      6  O   UNL A   1      32.222  23.158  27.626  1.00  0.00    -0.268 OA
ATOM      7  H   UNL A   1      34.518  22.781  27.314  1.00  0.00     0.163 HD
BRANCH   5   8
ATOM      8  C   UNL A   1      32.087  24.403  25.546  1.00  0.00     0.271 C 
ATOM      9  C   UNL A   1      30.566  24.198  25.547  1.00  0.00     0.086 C 
BRANCH   8  10
ATOM     10  N   UNL A   1      32.603  25.802  25.444  1.00  0.00    -0.322 N 
ATOM     11  C   UNL A   1      31.267  29.563  24.514  1.00  0.00     0.283 C 
ATOM     12  O   UNL A   1      31.028  30.420  25.376  1.00  0.00    -0.268 OA
ATOM     13  N   UNL A   1      32.228  28.603  24.786  1.00  0.00    -0.326 N 
ATOM     14  C   UNL A   1      32.456  28.232  26.175  1.00  0.00     0.181 C 
ATOM     15  C   UNL A   1      33.015  27.770  23.881  1.00  0.00     0.181 C 
ATOM     16  C   UNL A   1      31.978  26.776  26.355  1.00  0.00     0.284 C 
ATOM     17  C   UNL A   1      32.642  26.282  24.042  1.00  0.00     0.284 C 
ATOM     18  H   UNL A   1      33.563  25.739  25.781  1.00  0.00     0.348 HD
BRANCH  11  19
ATOM     19  C   UNL A   1      30.307  29.440  23.267  1.00  0.00     0.171 C 
ATOM     20  C   UNL A   1      29.725  28.017  23.229  1.00  0.00     0.090 C 
BRANCH  19  21
ATOM     21  C   UNL A   1      29.159  30.493  23.354  1.00  0.00     0.075 C 
ATOM     22  C   UNL A   1      27.804  30.081  22.775  1.00  0.00     0.011 C 
ENDBRANCH  19  21
BRANCH  19  23
ATOM     23  N   UNL A   1      31.017  29.703  21.991  1.00  0.00    -0.345 N 
ATOM     24  H   UNL A   1      31.211  28.819  21.522  1.00  0.00     0.345 HD
ATOM     25  H   UNL A   1      31.896  30.185  22.184  1.00  0.00     0.345 HD
ATOM     26  H   UNL A   1      30.433  30.285  21.391  1.00  0.00     0.345 HD
ENDBRANCH  19  23
ENDBRANCH  11  19
ENDBRANCH   8  10
ENDBRANCH   5   8
ENDBRANCH   3   4
ENDBRANCH   2   3
ENDBRANCH   1   2
BRANCH   1  27
ATOM     27  C   UNL A   1      36.919  20.755  24.862  1.00  0.00     0.002 C 
BRANCH  27  28
ATOM     28  C   UNL A   1      38.038  19.720  25.001  1.00  0.00     0.021 C 
BRANCH  28  29
ATOM     29  C   UNL A   1      39.273  20.188  25.762  1.00  0.00     0.116 C 
BRANCH  29  30
ATOM     30  N   UNL A   1      40.276  19.148  25.901  1.00  0.00    -0.352 N 
ATOM     31  C   UNL A   1      41.626  19.261  26.126  1.00  0.00     0.251 C 
ATOM     32  H   UNL A   1      39.939  18.225  25.823  1.00  0.00     0.163 HD
ATOM     33  O   UNL A   1      42.346  18.272  26.071  1.00  0.00    -0.269 OA
BRANCH  31  34
ATOM     34  C   UNL A   1      42.214  20.587  26.407  1.00  0.00     0.039 A 
ATOM     35  C   UNL A   1      42.698  21.347  25.340  1.00  0.00     0.014 A 
ATOM     36  C   UNL A   1      42.287  21.080  27.713  1.00  0.00     0.014 A 
ATOM     37  C   UNL A   1      43.197  22.629  25.574  1.00  0.00     0.010 A 
ATOM     38  C   UNL A   1      42.711  22.387  27.935  1.00  0.00     0.010 A 
ATOM     39  C   UNL A   1      43.172  23.174  26.868  1.00  0.00    -0.014 A 
BRANCH  39  40
ATOM     40  C   UNL A   1      43.623  24.565  27.126  1.00  0.00     0.031 A 
ATOM     41  C   UNL A   1      42.648  25.597  27.619  1.00  0.00     0.074 A 
ATOM     42  C   UNL A   1      44.896  24.912  26.860  1.00  0.00     0.049 A 
ATOM     43  N   UNL A   1      42.835  26.873  27.847  1.00  0.00    -0.248 NA
ATOM     44  C   UNL A   1      41.272  25.139  27.864  1.00  0.00     0.031 C 
ATOM     45  C   UNL A   1      45.927  24.009  26.346  1.00  0.00     0.029 A 
ATOM     46  N   UNL A   1      45.540  26.117  26.981  1.00  0.00    -0.354 N 
ATOM     47  C   UNL A   1      41.603  27.368  28.254  1.00  0.00     0.074 A 
ATOM     48  C   UNL A   1      40.662  26.272  28.176  1.00  0.00     0.031 C 
ATOM     49  C   UNL A   1      47.081  24.683  26.228  1.00  0.00     0.029 A 
ATOM     50  C   UNL A   1      46.863  26.073  26.614  1.00  0.00     0.049 A 
ATOM     51  H   UNL A   1      45.096  26.936  27.301  1.00  0.00     0.167 HD
ATOM     52  C   UNL A   1      41.291  28.615  28.681  1.00  0.00     0.037 A 
ATOM     53  C   UNL A   1      47.792  27.047  26.589  1.00  0.00     0.037 A 
ATOM     54  C   UNL A   1      42.234  29.701  28.759  1.00  0.00     0.049 A 
ATOM     55  C   UNL A   1      47.408  28.437  27.017  1.00  0.00     0.074 A 
ATOM     56  C   UNL A   1      42.030  30.992  29.213  1.00  0.00     0.029 A 
ATOM     57  N   UNL A   1      43.562  29.623  28.363  1.00  0.00    -0.354 N 
ATOM     58  N   UNL A   1      46.256  28.881  27.460  1.00  0.00    -0.248 NA
ATOM     59  C   UNL A   1      48.457  29.464  26.941  1.00  0.00     0.031 C 
ATOM     60  C   UNL A   1      43.217  31.711  29.038  1.00  0.00     0.029 A 
ATOM     61  C   UNL A   1      44.181  30.851  28.534  1.00  0.00     0.049 A 
ATOM     62  H   UNL A   1      44.000  28.814  28.012  1.00  0.00     0.167 HD
ATOM     63  C   UNL A   1      46.451  30.226  27.750  1.00  0.00     0.074 A 
ATOM     64  C   UNL A   1      47.834  30.522  27.441  1.00  0.00     0.031 C 
ATOM     65  C   UNL A   1      45.562  31.131  28.229  1.00  0.00     0.037 A 
BRANCH  52  66
ATOM     66  C   UNL A   1      39.866  28.867  29.089  1.00  0.00     0.064 A 
ATOM     67  C   UNL A   1      39.432  28.674  30.412  1.00  0.00     0.173 A 
ATOM     68  C   UNL A   1      38.921  29.310  28.152  1.00  0.00     0.173 A 
ATOM     69  F   UNL A   1      40.290  28.241  31.348  1.00  0.00    -0.203 F 
ATOM     70  C   UNL A   1      38.099  28.870  30.767  1.00  0.00     0.198 A 
ATOM     71  C   UNL A   1      37.597  29.541  28.519  1.00  0.00     0.198 A 
ATOM     72  F   UNL A   1      39.280  29.519  26.876  1.00  0.00    -0.203 F 
ATOM     73  F   UNL A   1      37.697  28.609  32.018  1.00  0.00    -0.200 F 
ATOM     74  C   UNL A   1      37.185  29.307  29.822  1.00  0.00     0.200 A 
ATOM     75  F   UNL A   1      36.718  29.979  27.608  1.00  0.00    -0.200 F 
ATOM     76  F   UNL A   1      35.903  29.493  30.164  1.00  0.00    -0.200 F 
ENDBRANCH  52  66
BRANCH  53  77
ATOM     77  C   UNL A   1      49.186  26.734  26.177  1.00  0.00     0.064 A 
ATOM     78  C   UNL A   1      49.590  26.894  24.844  1.00  0.00     0.173 A 
ATOM     79  C   UNL A   1      50.139  26.272  27.096  1.00  0.00     0.173 A 
ATOM     80  F   UNL A   1      48.707  27.311  23.923  1.00  0.00    -0.203 F 
ATOM     81  C   UNL A   1      50.887  26.586  24.442  1.00  0.00     0.198 A 
ATOM     82  C   UNL A   1      51.445  25.993  26.700  1.00  0.00     0.198 A 
ATOM     83  F   UNL A   1      49.804  26.105  28.384  1.00  0.00    -0.203 F 
ATOM     84  F   UNL A   1      51.232  26.703  23.152  1.00  0.00    -0.200 F 
ATOM     85  C   UNL A   1      51.816  26.143  25.371  1.00  0.00     0.200 A 
ATOM     86  F   UNL A   1      52.343  25.578  27.603  1.00  0.00    -0.200 F 
ATOM     87  F   UNL A   1      53.065  25.852  24.985  1.00  0.00    -0.200 F 
ENDBRANCH  53  77
BRANCH  65  88
ATOM     88  C   UNL A   1      46.069  32.521  28.492  1.00  0.00     0.064 A 
ATOM     89  C   UNL A   1      45.997  33.531  27.521  1.00  0.00     0.173 A 
ATOM     90  C   UNL A   1      46.599  32.855  29.748  1.00  0.00     0.173 A 
ATOM     91  F   UNL A   1      45.514  33.261  26.300  1.00  0.00    -0.203 F 
ATOM     92  C   UNL A   1      46.461  34.817  27.790  1.00  0.00     0.198 A 
ATOM     93  C   UNL A   1      47.029  34.150  30.024  1.00  0.00     0.198 A 
ATOM     94  F   UNL A   1      46.684  31.929  30.716  1.00  0.00    -0.203 F 
ATOM     95  F   UNL A   1      46.430  35.752  26.830  1.00  0.00    -0.200 F 
ATOM     96  C   UNL A   1      46.968  35.127  29.043  1.00  0.00     0.200 A 
ATOM     97  F   UNL A   1      47.502  34.452  31.242  1.00  0.00    -0.200 F 
ATOM     98  F   UNL A   1      47.404  36.368  29.303  1.00  0.00    -0.200 F 
ENDBRANCH  65  88
ENDBRANCH  39  40
ENDBRANCH  31  34
ENDBRANCH  29  30
ENDBRANCH  28  29
ENDBRANCH  27  28
ENDBRANCH   1  27
TORSDOF 17
ENDMDL
MODEL 3
REMARK VINA RESULT:     -11.6      0.329      1.964
REMARK SMILES CC[C@@](C)([NH3+])C(=O)N1CC[NH+]([C@H](C)C(=O)NCCCCCCNC(=O)c2ccc(-c3c4nc(c(-c5c(F)c(F)c(F)c(F)c5F)c5ccc([nH]5)c(-c5c(F)c(F)c(F)c(F)c5F)c5nc(c(-c6c(F)c(F)c(F)c(F)c6F)c6ccc3[nH]6)C=C5)C=C4)cc2)CC1
REMARK SMILES IDX 19 1 18 2 17 3 16 4 14 5 15 6 12 8 13 9 11 10 6 11 7 12 8 13
REMARK SMILES IDX 9 14 90 15 10 16 89 17 3 19 4 20 2 21 1 22 5 23 20 27 21 28
REMARK SMILES IDX 22 29 23 30 24 31 25 33 26 34 27 35 88 36 28 37 87 38 29 39
REMARK SMILES IDX 30 40 31 41 81 42 32 43 86 44 80 45 82 46 33 47 85 48 79 49
REMARK SMILES IDX 78 50 34 52 66 53 46 54 65 55 47 56 50 57 64 58 83 59 48 60
REMARK SMILES IDX 49 61 63 63 84 64 51 65 35 66 36 67 44 68 37 69 38 70 42 71
REMARK SMILES IDX 45 72 39 73 40 74 43 75 41 76 67 77 68 78 76 79 69 80 70 81
REMARK SMILES IDX 74 82 77 83 71 84 72 85 75 86 73 87 52 88 53 89 61 90 54 91
REMARK SMILES IDX 55 92 59 93 62 94 56 95 57 96 60 97 58 98
REMARK H PARENT 16 7 11 18 5 24 5 25 5 26 23 32 82 51 50 62
REMARK Flexibility Score: inf
ROOT
ATOM      1  C   UNL A   1      31.873  29.717  25.123  1.00  0.00     0.002 C 
ENDROOT
BRANCH   1   2
ATOM      2  C   UNL A   1      33.261  29.217  24.718  1.00  0.00     0.021 C 
BRANCH   2   3
ATOM      3  C   UNL A   1      33.459  27.713  24.817  1.00  0.00     0.116 C 
BRANCH   3   4
ATOM      4  N   UNL A   1      33.702  27.062  23.549  1.00  0.00    -0.351 N 
ATOM      5  C   UNL A   1      33.196  25.897  23.038  1.00  0.00     0.278 C 
ATOM      6  O   UNL A   1      33.406  25.690  21.837  1.00  0.00    -0.268 OA
ATOM      7  H   UNL A   1      34.333  27.531  22.959  1.00  0.00     0.163 HD
BRANCH   5   8
ATOM      8  C   UNL A   1      32.427  24.858  23.897  1.00  0.00     0.271 C 
ATOM      9  C   UNL A   1      31.352  24.106  23.100  1.00  0.00     0.086 C 
BRANCH   8  10
ATOM     10  N   UNL A   1      33.292  24.065  24.823  1.00  0.00    -0.322 N 
ATOM     11  C   UNL A   1      34.782  20.268  25.220  1.00  0.00     0.283 C 
ATOM     12  O   UNL A   1      35.954  19.977  24.944  1.00  0.00    -0.268 OA
ATOM     13  N   UNL A   1      34.503  21.558  25.641  1.00  0.00    -0.326 N 
ATOM     14  C   UNL A   1      35.364  22.636  25.172  1.00  0.00     0.181 C 
ATOM     15  C   UNL A   1      33.380  22.078  26.415  1.00  0.00     0.181 C 
ATOM     16  C   UNL A   1      34.528  23.526  24.230  1.00  0.00     0.284 C 
ATOM     17  C   UNL A   1      32.523  23.035  25.561  1.00  0.00     0.284 C 
ATOM     18  H   UNL A   1      33.627  24.750  25.499  1.00  0.00     0.348 HD
BRANCH  11  19
ATOM     19  C   UNL A   1      33.631  19.255  24.845  1.00  0.00     0.171 C 
ATOM     20  C   UNL A   1      32.673  19.940  23.856  1.00  0.00     0.090 C 
BRANCH  19  21
ATOM     21  C   UNL A   1      34.227  17.959  24.213  1.00  0.00     0.075 C 
ATOM     22  C   UNL A   1      33.326  17.191  23.245  1.00  0.00     0.011 C 
ENDBRANCH  19  21
BRANCH  19  23
ATOM     23  N   UNL A   1      32.862  18.822  26.038  1.00  0.00    -0.345 N 
ATOM     24  H   UNL A   1      33.469  18.288  26.659  1.00  0.00     0.345 HD
ATOM     25  H   UNL A   1      32.078  18.237  25.744  1.00  0.00     0.345 HD
ATOM     26  H   UNL A   1      32.508  19.642  26.530  1.00  0.00     0.345 HD
ENDBRANCH  19  23
ENDBRANCH  11  19
ENDBRANCH   8  10
ENDBRANCH   5   8
ENDBRANCH   3   4
ENDBRANCH   2   3
ENDBRANCH   1   2
BRANCH   1  27
ATOM     27  C   UNL A   1      31.732  30.237  26.559  1.00  0.00     0.002 C 
BRANCH  27  28
ATOM     28  C   UNL A   1      31.511  31.743  26.715  1.00  0.00     0.021 C 
BRANCH  28  29
ATOM     29  C   UNL A   1      32.754  32.555  27.061  1.00  0.00     0.116 C 
BRANCH  29  30
ATOM     30  N   UNL A   1      32.443  33.915  27.464  1.00  0.00    -0.352 N 
ATOM     31  C   UNL A   1      33.002  34.681  28.457  1.00  0.00     0.251 C 
ATOM     32  H   UNL A   1      31.726  34.353  26.950  1.00  0.00     0.163 HD
ATOM     33  O   UNL A   1      32.513  35.764  28.752  1.00  0.00    -0.269 OA
BRANCH  31  34
ATOM     34  C   UNL A   1      34.184  34.182  29.191  1.00  0.00     0.039 A 
ATOM     35  C   UNL A   1      33.985  33.437  30.356  1.00  0.00     0.014 A 
ATOM     36  C   UNL A   1      35.479  34.442  28.734  1.00  0.00     0.014 A 
ATOM     37  C   UNL A   1      35.084  32.899  31.029  1.00  0.00     0.010 A 
ATOM     38  C   UNL A   1      36.567  33.841  29.360  1.00  0.00     0.010 A 
ATOM     39  C   UNL A   1      36.380  33.065  30.515  1.00  0.00    -0.014 A 
BRANCH  39  40
ATOM     40  C   UNL A   1      37.554  32.433  31.170  1.00  0.00     0.031 A 
ATOM     41  C   UNL A   1      38.294  31.321  30.484  1.00  0.00     0.074 A 
ATOM     42  C   UNL A   1      37.914  32.824  32.407  1.00  0.00     0.049 A 
ATOM     43  N   UNL A   1      39.304  30.606  30.917  1.00  0.00    -0.248 NA
ATOM     44  C   UNL A   1      37.822  30.942  29.144  1.00  0.00     0.031 C 
ATOM     45  C   UNL A   1      37.253  33.868  33.189  1.00  0.00     0.029 A 
ATOM     46  N   UNL A   1      38.924  32.384  33.226  1.00  0.00    -0.354 N 
ATOM     47  C   UNL A   1      39.580  29.694  29.907  1.00  0.00     0.074 A 
ATOM     48  C   UNL A   1      38.589  29.899  28.871  1.00  0.00     0.031 C 
ATOM     49  C   UNL A   1      37.894  34.013  34.359  1.00  0.00     0.029 A 
ATOM     50  C   UNL A   1      38.982  33.043  34.429  1.00  0.00     0.049 A 
ATOM     51  H   UNL A   1      39.548  31.665  32.974  1.00  0.00     0.167 HD
ATOM     52  C   UNL A   1      40.584  28.787  29.836  1.00  0.00     0.037 A 
ATOM     53  C   UNL A   1      39.817  32.878  35.472  1.00  0.00     0.037 A 
ATOM     54  C   UNL A   1      41.568  28.590  30.869  1.00  0.00     0.049 A 
ATOM     55  C   UNL A   1      40.891  31.827  35.393  1.00  0.00     0.074 A 
ATOM     56  C   UNL A   1      42.648  27.726  30.880  1.00  0.00     0.029 A 
ATOM     57  N   UNL A   1      41.585  29.265  32.082  1.00  0.00    -0.354 N 
ATOM     58  N   UNL A   1      41.183  31.013  34.408  1.00  0.00    -0.248 NA
ATOM     59  C   UNL A   1      41.753  31.675  36.573  1.00  0.00     0.031 C 
ATOM     60  C   UNL A   1      43.283  27.835  32.122  1.00  0.00     0.029 A 
ATOM     61  C   UNL A   1      42.638  28.814  32.861  1.00  0.00     0.049 A 
ATOM     62  H   UNL A   1      40.942  29.961  32.350  1.00  0.00     0.167 HD
ATOM     63  C   UNL A   1      42.282  30.278  34.834  1.00  0.00     0.074 A 
ATOM     64  C   UNL A   1      42.610  30.752  36.162  1.00  0.00     0.031 C 
ATOM     65  C   UNL A   1      42.958  29.300  34.181  1.00  0.00     0.037 A 
BRANCH  52  66
ATOM     66  C   UNL A   1      40.657  27.936  28.598  1.00  0.00     0.064 A 
ATOM     67  C   UNL A   1      40.004  26.695  28.516  1.00  0.00     0.173 A 
ATOM     68  C   UNL A   1      41.384  28.366  27.477  1.00  0.00     0.173 A 
ATOM     69  F   UNL A   1      39.303  26.230  29.561  1.00  0.00    -0.203 F 
ATOM     70  C   UNL A   1      40.115  25.898  27.379  1.00  0.00     0.198 A 
ATOM     71  C   UNL A   1      41.461  27.583  26.328  1.00  0.00     0.198 A 
ATOM     72  F   UNL A   1      42.021  29.546  27.495  1.00  0.00    -0.203 F 
ATOM     73  F   UNL A   1      39.541  24.687  27.354  1.00  0.00    -0.200 F 
ATOM     74  C   UNL A   1      40.839  26.345  26.285  1.00  0.00     0.200 A 
ATOM     75  F   UNL A   1      42.148  28.022  25.265  1.00  0.00    -0.200 F 
ATOM     76  F   UNL A   1      40.946  25.576  25.192  1.00  0.00    -0.200 F 
ENDBRANCH  52  66
BRANCH  53  77
ATOM     77  C   UNL A   1      39.693  33.753  36.669  1.00  0.00     0.064 A 
ATOM     78  C   UNL A   1      38.846  33.399  37.728  1.00  0.00     0.173 A 
ATOM     79  C   UNL A   1      40.412  34.951  36.781  1.00  0.00     0.173 A 
ATOM     80  F   UNL A   1      38.119  32.273  37.657  1.00  0.00    -0.203 F 
ATOM     81  C   UNL A   1      38.708  34.219  38.845  1.00  0.00     0.198 A 
ATOM     82  C   UNL A   1      40.297  35.757  37.912  1.00  0.00     0.198 A 
ATOM     83  F   UNL A   1      41.240  35.333  35.796  1.00  0.00    -0.203 F 
ATOM     84  F   UNL A   1      37.854  33.880  39.821  1.00  0.00    -0.200 F 
ATOM     85  C   UNL A   1      39.438  35.394  38.940  1.00  0.00     0.200 A 
ATOM     86  F   UNL A   1      41.015  36.884  38.006  1.00  0.00    -0.200 F 
ATOM     87  F   UNL A   1      39.309  36.180  40.016  1.00  0.00    -0.200 F 
ENDBRANCH  53  77
BRANCH  65  88
ATOM     88  C   UNL A   1      44.150  28.704  34.876  1.00  0.00     0.064 A 
ATOM     89  C   UNL A   1      45.426  29.280  34.781  1.00  0.00     0.173 A 
ATOM     90  C   UNL A   1      44.003  27.563  35.680  1.00  0.00     0.173 A 
ATOM     91  F   UNL A   1      45.624  30.362  34.013  1.00  0.00    -0.203 F 
ATOM     92  C   UNL A   1      46.515  28.719  35.444  1.00  0.00     0.198 A 
ATOM     93  C   UNL A   1      45.087  27.027  36.369  1.00  0.00     0.198 A 
ATOM     94  F   UNL A   1      42.803  26.977  35.811  1.00  0.00    -0.203 F 
ATOM     95  F   UNL A   1      47.734  29.256  35.297  1.00  0.00    -0.200 F 
ATOM     96  C   UNL A   1      46.343  27.599  36.243  1.00  0.00     0.200 A 
ATOM     97  F   UNL A   1      44.915  25.955  37.155  1.00  0.00    -0.200 F 
ATOM     98  F   UNL A   1      47.391  27.068  36.889  1.00  0.00    -0.200 F 
ENDBRANCH  65  88
ENDBRANCH  39  40
ENDBRANCH  31  34
ENDBRANCH  29  30
ENDBRANCH  28  29
ENDBRANCH  27  28
ENDBRANCH   1  27
TORSDOF 17
ENDMDL
