MODEL 1
REMARK VINA RESULT:      -8.9      0.000      0.000
REMARK SMILES Cc1ccc2nc(Cl)c([C@@H]3CC(c4cccs4)=NN3C(=O)CCCC(=O)NCCCCCCNC(=O)c3ccc(-c4c5nc(c(-c6c(F)c(F)c(F)c(F)c6F)c6ccc([nH]6)c(-c6c(F)c(F)c(F)c(F)c6F)c6nc(c(-c7c(F)c(F)c(F)c(F)c7F)c7ccc4[nH]7)C=C6)C=C5)cc3)cc2c1
REMARK SMILES IDX 29 1 28 2 27 3 25 4 26 5 24 7 23 8 22 9 20 10 21 11 19 12
REMARK SMILES IDX 10 13 11 14 12 15 18 16 9 17 1 18 2 19 3 20 102 21 4 22
REMARK SMILES IDX 101 23 5 24 100 25 6 26 7 27 8 28 13 29 14 30 17 31 15 32
REMARK SMILES IDX 16 33 30 34 31 35 32 36 33 37 34 38 35 39 36 41 37 42 38 43
REMARK SMILES IDX 99 44 39 45 98 46 40 47 41 48 42 49 92 50 43 51 97 52 91 53
REMARK SMILES IDX 93 54 44 55 96 56 90 57 89 58 45 60 77 61 57 62 76 63 58 64
REMARK SMILES IDX 61 65 75 66 94 67 59 68 60 69 74 71 95 72 62 73 46 74 47 75
REMARK SMILES IDX 55 76 48 77 49 78 53 79 56 80 50 81 51 82 54 83 52 84 78 85
REMARK SMILES IDX 79 86 87 87 80 88 81 89 85 90 88 91 82 92 83 93 86 94 84 95
REMARK SMILES IDX 63 96 64 97 72 98 65 99 66 100 70 101 73 102 67 103 68 104
REMARK SMILES IDX 71 105 69 106
REMARK H PARENT 27 6 34 40 93 59 61 70
REMARK Flexibility Score: inf
ROOT
ATOM      1  C   UNL A   1      45.885  37.182  26.788  1.00  0.00     0.021 C 
ENDROOT
BRANCH   1   2
ATOM      2  C   UNL A   1      46.957  36.433  26.007  1.00  0.00     0.116 C 
BRANCH   2   3
ATOM      3  N   UNL A   1      46.418  35.521  25.019  1.00  0.00    -0.356 N 
ATOM      4  C   UNL A   1      45.603  34.444  25.080  1.00  0.00     0.220 C 
ATOM      5  O   UNL A   1      44.965  34.191  24.050  1.00  0.00    -0.275 OA
ATOM      6  H   UNL A   1      46.708  35.731  24.102  1.00  0.00     0.163 HD
BRANCH   4   7
ATOM      7  C   UNL A   1      45.333  33.616  26.317  1.00  0.00     0.100 C 
BRANCH   7   8
ATOM      8  C   UNL A   1      44.433  32.409  26.255  1.00  0.00     0.020 C 
BRANCH   8   9
ATOM      9  C   UNL A   1      44.847  31.137  26.961  1.00  0.00     0.103 C 
BRANCH   9  10
ATOM     10  C   UNL A   1      45.482  29.910  26.284  1.00  0.00     0.243 C 
ATOM     11  O   UNL A   1      46.384  30.222  25.477  1.00  0.00    -0.273 OA
BRANCH  10  12
ATOM     12  N   UNL A   1      45.286  28.550  26.594  1.00  0.00    -0.225 N 
ATOM     13  C   UNL A   1      45.128  27.287  25.763  1.00  0.00     0.150 C 
ATOM     14  C   UNL A   1      46.331  26.437  26.183  1.00  0.00     0.092 C 
ATOM     15  C   UNL A   1      46.693  27.117  27.462  1.00  0.00     0.081 C 
ATOM     16  N   UNL A   1      46.050  28.211  27.714  1.00  0.00    -0.173 NA
BRANCH  13  17
ATOM     17  C   UNL A   1      43.805  26.512  25.884  1.00  0.00     0.015 A 
ATOM     18  C   UNL A   1      38.827  26.624  29.552  1.00  0.00     0.044 C 
ATOM     19  C   UNL A   1      39.676  26.093  28.431  1.00  0.00    -0.050 A 
ATOM     20  C   UNL A   1      39.631  24.744  28.080  1.00  0.00     0.005 A 
ATOM     21  C   UNL A   1      40.587  26.933  27.774  1.00  0.00     0.013 A 
ATOM     22  C   UNL A   1      40.510  24.247  27.113  1.00  0.00     0.029 A 
ATOM     23  C   UNL A   1      41.543  26.407  26.877  1.00  0.00     0.001 A 
ATOM     24  C   UNL A   1      41.491  25.048  26.538  1.00  0.00     0.072 A 
ATOM     25  C   UNL A   1      42.674  27.147  26.448  1.00  0.00     0.019 A 
ATOM     26  N   UNL A   1      42.438  24.487  25.778  1.00  0.00    -0.236 NA
ATOM     27  C   UNL A   1      43.571  25.190  25.509  1.00  0.00     0.135 A 
ATOM     28  Cl  UNL A   1      44.686  24.175  24.691  1.00  0.00    -0.062 Cl
ENDBRANCH  13  17
BRANCH  15  29
ATOM     29  C   UNL A   1      47.770  26.664  28.295  1.00  0.00     0.050 A 
ATOM     30  C   UNL A   1      47.683  25.927  29.460  1.00  0.00     0.022 A 
ATOM     31  S   UNL A   1      49.391  26.922  27.824  1.00  0.00    -0.142 S 
ATOM     32  C   UNL A   1      48.965  25.538  29.941  1.00  0.00     0.012 A 
ATOM     33  C   UNL A   1      49.983  26.027  29.154  1.00  0.00     0.065 A 
ENDBRANCH  15  29
ENDBRANCH  10  12
ENDBRANCH   9  10
ENDBRANCH   8   9
ENDBRANCH   7   8
ENDBRANCH   4   7
ENDBRANCH   2   3
ENDBRANCH   1   2
BRANCH   1  34
ATOM     34  C   UNL A   1      46.272  38.658  26.956  1.00  0.00     0.002 C 
BRANCH  34  35
ATOM     35  C   UNL A   1      45.957  39.532  25.733  1.00  0.00     0.002 C 
BRANCH  35  36
ATOM     36  C   UNL A   1      44.927  40.631  25.939  1.00  0.00     0.021 C 
BRANCH  36  37
ATOM     37  C   UNL A   1      44.759  41.048  27.386  1.00  0.00     0.116 C 
BRANCH  37  38
ATOM     38  N   UNL A   1      43.375  41.337  27.739  1.00  0.00    -0.352 N 
ATOM     39  C   UNL A   1      42.413  40.469  28.202  1.00  0.00     0.251 C 
ATOM     40  H   UNL A   1      43.091  42.274  27.631  1.00  0.00     0.163 HD
ATOM     41  O   UNL A   1      41.260  40.819  28.356  1.00  0.00    -0.269 OA
BRANCH  39  42
ATOM     42  C   UNL A   1      42.824  39.077  28.471  1.00  0.00     0.039 A 
ATOM     43  C   UNL A   1      43.428  38.775  29.692  1.00  0.00     0.014 A 
ATOM     44  C   UNL A   1      42.510  38.071  27.555  1.00  0.00     0.014 A 
ATOM     45  C   UNL A   1      43.652  37.440  30.026  1.00  0.00     0.010 A 
ATOM     46  C   UNL A   1      42.641  36.745  27.931  1.00  0.00     0.010 A 
ATOM     47  C   UNL A   1      43.221  36.416  29.166  1.00  0.00    -0.014 A 
BRANCH  47  48
ATOM     48  C   UNL A   1      43.380  34.987  29.521  1.00  0.00     0.031 A 
ATOM     49  C   UNL A   1      42.165  34.182  29.892  1.00  0.00     0.074 A 
ATOM     50  C   UNL A   1      44.612  34.448  29.599  1.00  0.00     0.049 A 
ATOM     51  N   UNL A   1      42.090  32.959  30.349  1.00  0.00    -0.248 NA
ATOM     52  C   UNL A   1      40.861  34.857  29.770  1.00  0.00     0.031 C 
ATOM     53  C   UNL A   1      45.866  35.153  29.325  1.00  0.00     0.029 A 
ATOM     54  N   UNL A   1      45.013  33.184  29.951  1.00  0.00    -0.354 N 
ATOM     55  C   UNL A   1      40.743  32.734  30.595  1.00  0.00     0.074 A 
ATOM     56  C   UNL A   1      40.039  33.957  30.288  1.00  0.00     0.031 C 
ATOM     57  C   UNL A   1      46.895  34.308  29.504  1.00  0.00     0.029 A 
ATOM     58  C   UNL A   1      46.377  33.016  29.943  1.00  0.00     0.049 A 
ATOM     59  H   UNL A   1      44.384  32.465  30.188  1.00  0.00     0.167 HD
ATOM     60  C   UNL A   1      40.145  31.596  31.018  1.00  0.00     0.037 A 
ATOM     61  C   UNL A   1      47.122  31.943  30.269  1.00  0.00     0.037 A 
ATOM     62  C   UNL A   1      40.848  30.368  31.268  1.00  0.00     0.049 A 
ATOM     63  C   UNL A   1      46.424  30.681  30.708  1.00  0.00     0.074 A 
ATOM     64  C   UNL A   1      40.327  29.132  31.608  1.00  0.00     0.029 A 
ATOM     65  N   UNL A   1      42.225  30.220  31.200  1.00  0.00    -0.354 N 
ATOM     66  N   UNL A   1      45.140  30.452  30.852  1.00  0.00    -0.248 NA
ATOM     67  C   UNL A   1      47.277  29.527  31.023  1.00  0.00     0.031 C 
ATOM     68  C   UNL A   1      41.393  28.247  31.790  1.00  0.00     0.029 A 
ATOM     69  C   UNL A   1      42.574  28.918  31.514  1.00  0.00     0.049 A 
ATOM     70  H   UNL A   1      42.860  30.934  30.963  1.00  0.00     0.167 HD
ATOM     71  C   UNL A   1      45.032  29.124  31.243  1.00  0.00     0.074 A 
ATOM     72  C   UNL A   1      46.378  28.593  31.295  1.00  0.00     0.031 C 
ATOM     73  C   UNL A   1      43.920  28.408  31.541  1.00  0.00     0.037 A 
BRANCH  60  74
ATOM     74  C   UNL A   1      38.660  31.615  31.222  1.00  0.00     0.064 A 
ATOM     75  C   UNL A   1      38.090  31.933  32.464  1.00  0.00     0.173 A 
ATOM     76  C   UNL A   1      37.794  31.376  30.144  1.00  0.00     0.173 A 
ATOM     77  F   UNL A   1      38.875  32.156  33.529  1.00  0.00    -0.203 F 
ATOM     78  C   UNL A   1      36.709  31.999  32.622  1.00  0.00     0.198 A 
ATOM     79  C   UNL A   1      36.414  31.470  30.300  1.00  0.00     0.198 A 
ATOM     80  F   UNL A   1      38.287  31.067  28.936  1.00  0.00    -0.203 F 
ATOM     81  F   UNL A   1      36.187  32.271  33.826  1.00  0.00    -0.200 F 
ATOM     82  C   UNL A   1      35.873  31.779  31.539  1.00  0.00     0.200 A 
ATOM     83  F   UNL A   1      35.607  31.269  29.249  1.00  0.00    -0.200 F 
ATOM     84  F   UNL A   1      34.544  31.861  31.689  1.00  0.00    -0.200 F 
ENDBRANCH  60  74
BRANCH  61  85
ATOM     85  C   UNL A   1      48.606  31.999  30.189  1.00  0.00     0.064 A 
ATOM     86  C   UNL A   1      49.277  31.688  28.998  1.00  0.00     0.173 A 
ATOM     87  C   UNL A   1      49.385  32.322  31.309  1.00  0.00     0.173 A 
ATOM     88  F   UNL A   1      48.578  31.352  27.904  1.00  0.00    -0.203 F 
ATOM     89  C   UNL A   1      50.669  31.663  28.939  1.00  0.00     0.198 A 
ATOM     90  C   UNL A   1      50.778  32.328  31.241  1.00  0.00     0.198 A 
ATOM     91  F   UNL A   1      48.796  32.630  32.473  1.00  0.00    -0.203 F 
ATOM     92  F   UNL A   1      51.282  31.298  27.805  1.00  0.00    -0.200 F 
ATOM     93  C   UNL A   1      51.418  31.986  30.060  1.00  0.00     0.200 A 
ATOM     94  F   UNL A   1      51.499  32.651  32.323  1.00  0.00    -0.200 F 
ATOM     95  F   UNL A   1      52.757  31.951  30.006  1.00  0.00    -0.200 F 
ENDBRANCH  61  85
BRANCH  73  96
ATOM     96  C   UNL A   1      44.109  26.966  31.905  1.00  0.00     0.064 A 
ATOM     97  C   UNL A   1      44.126  26.542  33.242  1.00  0.00     0.173 A 
ATOM     98  C   UNL A   1      44.227  25.992  30.903  1.00  0.00     0.173 A 
ATOM     99  F   UNL A   1      44.030  27.438  34.236  1.00  0.00    -0.203 F 
ATOM    100  C   UNL A   1      44.283  25.197  33.561  1.00  0.00     0.198 A 
ATOM    101  C   UNL A   1      44.351  24.645  31.225  1.00  0.00     0.198 A 
ATOM    102  F   UNL A   1      44.206  26.346  29.608  1.00  0.00    -0.203 F 
ATOM    103  F   UNL A   1      44.346  24.818  34.846  1.00  0.00    -0.200 F 
ATOM    104  C   UNL A   1      44.387  24.249  32.554  1.00  0.00     0.200 A 
ATOM    105  F   UNL A   1      44.434  23.728  30.251  1.00  0.00    -0.200 F 
ATOM    106  F   UNL A   1      44.527  22.953  32.864  1.00  0.00    -0.200 F 
ENDBRANCH  73  96
ENDBRANCH  47  48
ENDBRANCH  39  42
ENDBRANCH  37  38
ENDBRANCH  36  37
ENDBRANCH  35  36
ENDBRANCH  34  35
ENDBRANCH   1  34
TORSDOF 19
ENDMDL
MODEL 2
REMARK VINA RESULT:      -8.7      6.777     10.498
REMARK SMILES Cc1ccc2nc(Cl)c([C@@H]3CC(c4cccs4)=NN3C(=O)CCCC(=O)NCCCCCCNC(=O)c3ccc(-c4c5nc(c(-c6c(F)c(F)c(F)c(F)c6F)c6ccc([nH]6)c(-c6c(F)c(F)c(F)c(F)c6F)c6nc(c(-c7c(F)c(F)c(F)c(F)c7F)c7ccc4[nH]7)C=C6)C=C5)cc3)cc2c1
REMARK SMILES IDX 29 1 28 2 27 3 25 4 26 5 24 7 23 8 22 9 20 10 21 11 19 12
REMARK SMILES IDX 10 13 11 14 12 15 18 16 9 17 1 18 2 19 3 20 102 21 4 22
REMARK SMILES IDX 101 23 5 24 100 25 6 26 7 27 8 28 13 29 14 30 17 31 15 32
REMARK SMILES IDX 16 33 30 34 31 35 32 36 33 37 34 38 35 39 36 41 37 42 38 43
REMARK SMILES IDX 99 44 39 45 98 46 40 47 41 48 42 49 92 50 43 51 97 52 91 53
REMARK SMILES IDX 93 54 44 55 96 56 90 57 89 58 45 60 77 61 57 62 76 63 58 64
REMARK SMILES IDX 61 65 75 66 94 67 59 68 60 69 74 71 95 72 62 73 46 74 47 75
REMARK SMILES IDX 55 76 48 77 49 78 53 79 56 80 50 81 51 82 54 83 52 84 78 85
REMARK SMILES IDX 79 86 87 87 80 88 81 89 85 90 88 91 82 92 83 93 86 94 84 95
REMARK SMILES IDX 63 96 64 97 72 98 65 99 66 100 70 101 73 102 67 103 68 104
REMARK SMILES IDX 71 105 69 106
REMARK H PARENT 27 6 34 40 93 59 61 70
REMARK Flexibility Score: inf
ROOT
ATOM      1  C   UNL A   1      37.829  28.548  30.354  1.00  0.00     0.021 C 
ENDROOT
BRANCH   1   2
ATOM      2  C   UNL A   1      38.934  27.500  30.406  1.00  0.00     0.116 C 
BRANCH   2   3
ATOM      3  N   UNL A   1      39.749  27.463  29.209  1.00  0.00    -0.356 N 
ATOM      4  C   UNL A   1      39.929  26.557  28.222  1.00  0.00     0.220 C 
ATOM      5  O   UNL A   1      40.305  27.011  27.134  1.00  0.00    -0.275 OA
ATOM      6  H   UNL A   1      40.291  28.276  29.087  1.00  0.00     0.163 HD
BRANCH   4   7
ATOM      7  C   UNL A   1      39.601  25.082  28.313  1.00  0.00     0.100 C 
BRANCH   7   8
ATOM      8  C   UNL A   1      39.262  24.291  27.077  1.00  0.00     0.020 C 
BRANCH   8   9
ATOM      9  C   UNL A   1      37.889  24.435  26.457  1.00  0.00     0.103 C 
BRANCH   9  10
ATOM     10  C   UNL A   1      37.059  23.286  25.860  1.00  0.00     0.243 C 
ATOM     11  O   UNL A   1      37.666  22.193  25.884  1.00  0.00    -0.273 OA
BRANCH  10  12
ATOM     12  N   UNL A   1      35.702  23.303  25.479  1.00  0.00    -0.225 N 
ATOM     13  C   UNL A   1      34.423  22.762  26.097  1.00  0.00     0.150 C 
ATOM     14  C   UNL A   1      33.593  24.025  26.349  1.00  0.00     0.092 C 
ATOM     15  C   UNL A   1      34.300  24.981  25.445  1.00  0.00     0.081 C 
ATOM     16  N   UNL A   1      35.391  24.539  24.910  1.00  0.00    -0.173 NA
BRANCH  13  17
ATOM     17  C   UNL A   1      33.636  21.704  25.305  1.00  0.00     0.015 A 
ATOM     18  C   UNL A   1      32.986  15.555  25.400  1.00  0.00     0.044 C 
ATOM     19  C   UNL A   1      32.741  16.938  24.865  1.00  0.00    -0.050 A 
ATOM     20  C   UNL A   1      32.479  17.142  23.511  1.00  0.00     0.005 A 
ATOM     21  C   UNL A   1      32.853  18.054  25.708  1.00  0.00     0.013 A 
ATOM     22  C   UNL A   1      32.368  18.444  23.012  1.00  0.00     0.029 A 
ATOM     23  C   UNL A   1      32.847  19.365  25.183  1.00  0.00     0.001 A 
ATOM     24  C   UNL A   1      32.588  19.556  23.818  1.00  0.00     0.072 A 
ATOM     25  C   UNL A   1      33.277  20.488  25.932  1.00  0.00     0.019 A 
ATOM     26  N   UNL A   1      32.677  20.767  23.259  1.00  0.00    -0.236 NA
ATOM     27  C   UNL A   1      33.228  21.785  23.974  1.00  0.00     0.135 A 
ATOM     28  Cl  UNL A   1      33.397  23.160  22.963  1.00  0.00    -0.062 Cl
ENDBRANCH  13  17
BRANCH  15  29
ATOM     29  C   UNL A   1      33.873  26.341  25.281  1.00  0.00     0.050 A 
ATOM     30  C   UNL A   1      33.837  27.335  26.239  1.00  0.00     0.022 A 
ATOM     31  S   UNL A   1      33.443  26.929  23.737  1.00  0.00    -0.142 S 
ATOM     32  C   UNL A   1      33.492  28.599  25.683  1.00  0.00     0.012 A 
ATOM     33  C   UNL A   1      33.236  28.517  24.333  1.00  0.00     0.065 A 
ENDBRANCH  15  29
ENDBRANCH  10  12
ENDBRANCH   9  10
ENDBRANCH   8   9
ENDBRANCH   7   8
ENDBRANCH   4   7
ENDBRANCH   2   3
ENDBRANCH   1   2
BRANCH   1  34
ATOM     34  C   UNL A   1      38.056  29.513  29.181  1.00  0.00     0.002 C 
BRANCH  34  35
ATOM     35  C   UNL A   1      36.968  29.451  28.100  1.00  0.00     0.002 C 
BRANCH  35  36
ATOM     36  C   UNL A   1      36.066  30.669  27.983  1.00  0.00     0.021 C 
BRANCH  36  37
ATOM     37  C   UNL A   1      36.537  31.860  28.793  1.00  0.00     0.116 C 
BRANCH  37  38
ATOM     38  N   UNL A   1      35.483  32.448  29.608  1.00  0.00    -0.352 N 
ATOM     39  C   UNL A   1      35.420  32.549  30.979  1.00  0.00     0.251 C 
ATOM     40  H   UNL A   1      34.717  32.820  29.115  1.00  0.00     0.163 HD
ATOM     41  O   UNL A   1      34.428  32.967  31.542  1.00  0.00    -0.269 OA
BRANCH  39  42
ATOM     42  C   UNL A   1      36.592  32.092  31.750  1.00  0.00     0.039 A 
ATOM     43  C   UNL A   1      37.808  32.758  31.592  1.00  0.00     0.014 A 
ATOM     44  C   UNL A   1      36.447  31.077  32.699  1.00  0.00     0.014 A 
ATOM     45  C   UNL A   1      38.867  32.453  32.445  1.00  0.00     0.010 A 
ATOM     46  C   UNL A   1      37.466  30.846  33.608  1.00  0.00     0.010 A 
ATOM     47  C   UNL A   1      38.688  31.525  33.485  1.00  0.00    -0.014 A 
BRANCH  47  48
ATOM     48  C   UNL A   1      39.769  31.228  34.453  1.00  0.00     0.031 A 
ATOM     49  C   UNL A   1      40.110  32.242  35.510  1.00  0.00     0.074 A 
ATOM     50  C   UNL A   1      40.495  30.100  34.322  1.00  0.00     0.049 A 
ATOM     51  N   UNL A   1      41.091  32.239  36.375  1.00  0.00    -0.248 NA
ATOM     52  C   UNL A   1      39.256  33.440  35.578  1.00  0.00     0.031 C 
ATOM     53  C   UNL A   1      40.296  29.076  33.294  1.00  0.00     0.029 A 
ATOM     54  N   UNL A   1      41.562  29.635  35.049  1.00  0.00    -0.354 N 
ATOM     55  C   UNL A   1      40.988  33.440  37.062  1.00  0.00     0.074 A 
ATOM     56  C   UNL A   1      39.884  34.172  36.484  1.00  0.00     0.031 C 
ATOM     57  C   UNL A   1      41.200  28.098  33.465  1.00  0.00     0.029 A 
ATOM     58  C   UNL A   1      42.066  28.443  34.588  1.00  0.00     0.049 A 
ATOM     59  H   UNL A   1      41.933  30.112  35.827  1.00  0.00     0.167 HD
ATOM     60  C   UNL A   1      41.736  33.882  38.099  1.00  0.00     0.037 A 
ATOM     61  C   UNL A   1      43.119  27.722  35.017  1.00  0.00     0.037 A 
ATOM     62  C   UNL A   1      42.796  33.122  38.702  1.00  0.00     0.049 A 
ATOM     63  C   UNL A   1      43.913  28.226  36.195  1.00  0.00     0.074 A 
ATOM     64  C   UNL A   1      43.554  33.434  39.816  1.00  0.00     0.029 A 
ATOM     65  N   UNL A   1      43.246  31.893  38.240  1.00  0.00    -0.354 N 
ATOM     66  N   UNL A   1      43.750  29.323  36.894  1.00  0.00    -0.248 NA
ATOM     67  C   UNL A   1      45.032  27.388  36.646  1.00  0.00     0.031 C 
ATOM     68  C   UNL A   1      44.493  32.416  40.003  1.00  0.00     0.029 A 
ATOM     69  C   UNL A   1      44.287  31.446  39.035  1.00  0.00     0.049 A 
ATOM     70  H   UNL A   1      42.880  31.412  37.464  1.00  0.00     0.167 HD
ATOM     71  C   UNL A   1      44.724  29.292  37.884  1.00  0.00     0.074 A 
ATOM     72  C   UNL A   1      45.461  28.058  37.705  1.00  0.00     0.031 C 
ATOM     73  C   UNL A   1      44.992  30.205  38.849  1.00  0.00     0.037 A 
BRANCH  60  74
ATOM     74  C   UNL A   1      41.428  35.236  38.663  1.00  0.00     0.064 A 
ATOM     75  C   UNL A   1      40.364  35.440  39.554  1.00  0.00     0.173 A 
ATOM     76  C   UNL A   1      42.251  36.332  38.360  1.00  0.00     0.173 A 
ATOM     77  F   UNL A   1      39.541  34.428  39.864  1.00  0.00    -0.203 F 
ATOM     78  C   UNL A   1      40.127  36.694  40.109  1.00  0.00     0.198 A 
ATOM     79  C   UNL A   1      42.027  37.577  38.940  1.00  0.00     0.198 A 
ATOM     80  F   UNL A   1      43.282  36.191  37.514  1.00  0.00    -0.203 F 
ATOM     81  F   UNL A   1      39.083  36.873  40.931  1.00  0.00    -0.200 F 
ATOM     82  C   UNL A   1      40.963  37.758  39.812  1.00  0.00     0.200 A 
ATOM     83  F   UNL A   1      42.844  38.602  38.660  1.00  0.00    -0.200 F 
ATOM     84  F   UNL A   1      40.744  38.959  40.363  1.00  0.00    -0.200 F 
ENDBRANCH  60  74
BRANCH  61  85
ATOM     85  C   UNL A   1      43.485  26.445  34.346  1.00  0.00     0.064 A 
ATOM     86  C   UNL A   1      43.030  25.214  34.839  1.00  0.00     0.173 A 
ATOM     87  C   UNL A   1      44.329  26.426  33.227  1.00  0.00     0.173 A 
ATOM     88  F   UNL A   1      42.237  25.178  35.920  1.00  0.00    -0.203 F 
ATOM     89  C   UNL A   1      43.433  24.012  34.262  1.00  0.00     0.198 A 
ATOM     90  C   UNL A   1      44.707  25.223  32.631  1.00  0.00     0.198 A 
ATOM     91  F   UNL A   1      44.792  27.574  32.713  1.00  0.00    -0.203 F 
ATOM     92  F   UNL A   1      43.035  22.849  34.795  1.00  0.00    -0.200 F 
ATOM     93  C   UNL A   1      44.270  24.018  33.156  1.00  0.00     0.200 A 
ATOM     94  F   UNL A   1      45.507  25.233  31.555  1.00  0.00    -0.200 F 
ATOM     95  F   UNL A   1      44.666  22.861  32.608  1.00  0.00    -0.200 F 
ENDBRANCH  61  85
BRANCH  73  96
ATOM     96  C   UNL A   1      46.097  29.883  39.811  1.00  0.00     0.064 A 
ATOM     97  C   UNL A   1      45.865  29.138  40.975  1.00  0.00     0.173 A 
ATOM     98  C   UNL A   1      47.412  30.287  39.537  1.00  0.00     0.173 A 
ATOM     99  F   UNL A   1      44.622  28.741  41.286  1.00  0.00    -0.203 F 
ATOM    100  C   UNL A   1      46.906  28.833  41.846  1.00  0.00     0.198 A 
ATOM    101  C   UNL A   1      48.456  29.953  40.393  1.00  0.00     0.198 A 
ATOM    102  F   UNL A   1      47.688  30.994  38.430  1.00  0.00    -0.203 F 
ATOM    103  F   UNL A   1      46.655  28.161  42.979  1.00  0.00    -0.200 F 
ATOM    104  C   UNL A   1      48.201  29.233  41.551  1.00  0.00     0.200 A 
ATOM    105  F   UNL A   1      49.709  30.325  40.098  1.00  0.00    -0.200 F 
ATOM    106  F   UNL A   1      49.204  28.928  42.386  1.00  0.00    -0.200 F 
ENDBRANCH  73  96
ENDBRANCH  47  48
ENDBRANCH  39  42
ENDBRANCH  37  38
ENDBRANCH  36  37
ENDBRANCH  35  36
ENDBRANCH  34  35
ENDBRANCH   1  34
TORSDOF 19
ENDMDL
MODEL 3
REMARK VINA RESULT:      -8.7      0.872      2.159
REMARK SMILES Cc1ccc2nc(Cl)c([C@@H]3CC(c4cccs4)=NN3C(=O)CCCC(=O)NCCCCCCNC(=O)c3ccc(-c4c5nc(c(-c6c(F)c(F)c(F)c(F)c6F)c6ccc([nH]6)c(-c6c(F)c(F)c(F)c(F)c6F)c6nc(c(-c7c(F)c(F)c(F)c(F)c7F)c7ccc4[nH]7)C=C6)C=C5)cc3)cc2c1
REMARK SMILES IDX 29 1 28 2 27 3 25 4 26 5 24 7 23 8 22 9 20 10 21 11 19 12
REMARK SMILES IDX 10 13 11 14 12 15 18 16 9 17 1 18 2 19 3 20 102 21 4 22
REMARK SMILES IDX 101 23 5 24 100 25 6 26 7 27 8 28 13 29 14 30 17 31 15 32
REMARK SMILES IDX 16 33 30 34 31 35 32 36 33 37 34 38 35 39 36 41 37 42 38 43
REMARK SMILES IDX 99 44 39 45 98 46 40 47 41 48 42 49 92 50 43 51 97 52 91 53
REMARK SMILES IDX 93 54 44 55 96 56 90 57 89 58 45 60 77 61 57 62 76 63 58 64
REMARK SMILES IDX 61 65 75 66 94 67 59 68 60 69 74 71 95 72 62 73 46 74 47 75
REMARK SMILES IDX 55 76 48 77 49 78 53 79 56 80 50 81 51 82 54 83 52 84 78 85
REMARK SMILES IDX 79 86 87 87 80 88 81 89 85 90 88 91 82 92 83 93 86 94 84 95
REMARK SMILES IDX 63 96 64 97 72 98 65 99 66 100 70 101 73 102 67 103 68 104
REMARK SMILES IDX 71 105 69 106
REMARK H PARENT 27 6 34 40 93 59 61 70
REMARK Flexibility Score: inf
ROOT
ATOM      1  C   UNL A   1      46.145  37.266  26.639  1.00  0.00     0.021 C 
ENDROOT
BRANCH   1   2
ATOM      2  C   UNL A   1      47.141  36.368  25.917  1.00  0.00     0.116 C 
BRANCH   2   3
ATOM      3  N   UNL A   1      46.524  35.482  24.952  1.00  0.00    -0.356 N 
ATOM      4  C   UNL A   1      45.611  34.488  25.037  1.00  0.00     0.220 C 
ATOM      5  O   UNL A   1      44.957  34.266  24.011  1.00  0.00    -0.275 OA
ATOM      6  H   UNL A   1      46.837  35.637  24.031  1.00  0.00     0.163 HD
BRANCH   4   7
ATOM      7  C   UNL A   1      45.258  33.726  26.296  1.00  0.00     0.100 C 
BRANCH   7   8
ATOM      8  C   UNL A   1      44.432  32.468  26.229  1.00  0.00     0.020 C 
BRANCH   8   9
ATOM      9  C   UNL A   1      44.854  31.258  27.033  1.00  0.00     0.103 C 
BRANCH   9  10
ATOM     10  C   UNL A   1      45.426  29.956  26.446  1.00  0.00     0.243 C 
ATOM     11  O   UNL A   1      46.375  30.162  25.659  1.00  0.00    -0.273 OA
BRANCH  10  12
ATOM     12  N   UNL A   1      45.127  28.631  26.821  1.00  0.00    -0.225 N 
ATOM     13  C   UNL A   1      44.572  27.423  26.084  1.00  0.00     0.150 C 
ATOM     14  C   UNL A   1      45.709  26.400  26.180  1.00  0.00     0.092 C 
ATOM     15  C   UNL A   1      46.493  26.993  27.304  1.00  0.00     0.081 C 
ATOM     16  N   UNL A   1      46.105  28.161  27.700  1.00  0.00    -0.173 NA
BRANCH  13  17
ATOM     17  C   UNL A   1      43.232  26.843  26.567  1.00  0.00     0.015 A 
ATOM     18  C   UNL A   1      40.894  21.231  27.700  1.00  0.00     0.044 C 
ATOM     19  C   UNL A   1      40.838  22.729  27.594  1.00  0.00    -0.050 A 
ATOM     20  C   UNL A   1      39.647  23.377  27.270  1.00  0.00     0.005 A 
ATOM     21  C   UNL A   1      42.006  23.493  27.742  1.00  0.00     0.013 A 
ATOM     22  C   UNL A   1      39.640  24.759  27.064  1.00  0.00     0.029 A 
ATOM     23  C   UNL A   1      42.015  24.871  27.429  1.00  0.00     0.001 A 
ATOM     24  C   UNL A   1      40.812  25.508  27.098  1.00  0.00     0.072 A 
ATOM     25  C   UNL A   1      43.216  25.602  27.247  1.00  0.00     0.019 A 
ATOM     26  N   UNL A   1      40.791  26.782  26.692  1.00  0.00    -0.236 NA
ATOM     27  C   UNL A   1      41.966  27.400  26.396  1.00  0.00     0.135 A 
ATOM     28  Cl  UNL A   1      41.641  28.943  25.721  1.00  0.00    -0.062 Cl
ENDBRANCH  13  17
BRANCH  15  29
ATOM     29  C   UNL A   1      47.677  26.372  27.826  1.00  0.00     0.050 A 
ATOM     30  C   UNL A   1      48.036  26.221  29.151  1.00  0.00     0.022 A 
ATOM     31  S   UNL A   1      48.782  25.605  26.774  1.00  0.00    -0.142 S 
ATOM     32  C   UNL A   1      49.210  25.429  29.298  1.00  0.00     0.012 A 
ATOM     33  C   UNL A   1      49.728  25.042  28.082  1.00  0.00     0.065 A 
ENDBRANCH  15  29
ENDBRANCH  10  12
ENDBRANCH   9  10
ENDBRANCH   8   9
ENDBRANCH   7   8
ENDBRANCH   4   7
ENDBRANCH   2   3
ENDBRANCH   1   2
BRANCH   1  34
ATOM     34  C   UNL A   1      46.670  38.707  26.708  1.00  0.00     0.002 C 
BRANCH  34  35
ATOM     35  C   UNL A   1      46.247  39.586  25.522  1.00  0.00     0.002 C 
BRANCH  35  36
ATOM     36  C   UNL A   1      45.409  40.809  25.856  1.00  0.00     0.021 C 
BRANCH  36  37
ATOM     37  C   UNL A   1      45.092  40.950  27.332  1.00  0.00     0.116 C 
BRANCH  37  38
ATOM     38  N   UNL A   1      43.693  41.262  27.587  1.00  0.00    -0.352 N 
ATOM     39  C   UNL A   1      42.692  40.416  28.009  1.00  0.00     0.251 C 
ATOM     40  H   UNL A   1      43.428  42.198  27.438  1.00  0.00     0.163 HD
ATOM     41  O   UNL A   1      41.537  40.781  28.080  1.00  0.00    -0.269 OA
BRANCH  39  42
ATOM     42  C   UNL A   1      43.069  39.027  28.338  1.00  0.00     0.039 A 
ATOM     43  C   UNL A   1      43.556  38.743  29.614  1.00  0.00     0.014 A 
ATOM     44  C   UNL A   1      42.835  38.006  27.413  1.00  0.00     0.014 A 
ATOM     45  C   UNL A   1      43.740  37.413  29.991  1.00  0.00     0.010 A 
ATOM     46  C   UNL A   1      42.924  36.686  27.822  1.00  0.00     0.010 A 
ATOM     47  C   UNL A   1      43.385  36.377  29.111  1.00  0.00    -0.014 A 
BRANCH  47  48
ATOM     48  C   UNL A   1      43.502  34.953  29.503  1.00  0.00     0.031 A 
ATOM     49  C   UNL A   1      42.262  34.189  29.875  1.00  0.00     0.074 A 
ATOM     50  C   UNL A   1      44.719  34.385  29.612  1.00  0.00     0.049 A 
ATOM     51  N   UNL A   1      42.149  32.979  30.360  1.00  0.00    -0.248 NA
ATOM     52  C   UNL A   1      40.977  34.893  29.718  1.00  0.00     0.031 C 
ATOM     53  C   UNL A   1      45.994  35.051  29.340  1.00  0.00     0.029 A 
ATOM     54  N   UNL A   1      45.083  33.120  30.000  1.00  0.00    -0.354 N 
ATOM     55  C   UNL A   1      40.793  32.794  30.592  1.00  0.00     0.074 A 
ATOM     56  C   UNL A   1      40.125  34.027  30.245  1.00  0.00     0.031 C 
ATOM     57  C   UNL A   1      46.998  34.185  29.555  1.00  0.00     0.029 A 
ATOM     58  C   UNL A   1      46.442  32.918  30.017  1.00  0.00     0.049 A 
ATOM     59  H   UNL A   1      44.431  32.423  30.245  1.00  0.00     0.167 HD
ATOM     60  C   UNL A   1      40.160  31.683  31.034  1.00  0.00     0.037 A 
ATOM     61  C   UNL A   1      47.154  31.834  30.380  1.00  0.00     0.037 A 
ATOM     62  C   UNL A   1      40.828  30.444  31.324  1.00  0.00     0.049 A 
ATOM     63  C   UNL A   1      46.417  30.602  30.839  1.00  0.00     0.074 A 
ATOM     64  C   UNL A   1      40.271  29.230  31.686  1.00  0.00     0.029 A 
ATOM     65  N   UNL A   1      42.202  30.260  31.280  1.00  0.00    -0.354 N 
ATOM     66  N   UNL A   1      45.127  30.409  30.970  1.00  0.00    -0.248 NA
ATOM     67  C   UNL A   1      47.236  29.436  31.194  1.00  0.00     0.031 C 
ATOM     68  C   UNL A   1      41.312  28.323  31.905  1.00  0.00     0.029 A 
ATOM     69  C   UNL A   1      42.513  28.957  31.631  1.00  0.00     0.049 A 
ATOM     70  H   UNL A   1      42.858  30.952  31.036  1.00  0.00     0.167 HD
ATOM     71  C   UNL A   1      44.979  29.094  31.392  1.00  0.00     0.074 A 
ATOM     72  C   UNL A   1      46.310  28.531  31.477  1.00  0.00     0.031 C 
ATOM     73  C   UNL A   1      43.845  28.414  31.690  1.00  0.00     0.037 A 
BRANCH  60  74
ATOM     74  C   UNL A   1      38.674  31.744  31.216  1.00  0.00     0.064 A 
ATOM     75  C   UNL A   1      37.790  31.475  30.160  1.00  0.00     0.173 A 
ATOM     76  C   UNL A   1      38.126  32.010  32.480  1.00  0.00     0.173 A 
ATOM     77  F   UNL A   1      38.264  31.230  28.929  1.00  0.00    -0.203 F 
ATOM     78  C   UNL A   1      36.413  31.483  30.360  1.00  0.00     0.198 A 
ATOM     79  C   UNL A   1      36.748  31.989  32.682  1.00  0.00     0.198 A 
ATOM     80  F   UNL A   1      38.926  32.273  33.523  1.00  0.00    -0.203 F 
ATOM     81  F   UNL A   1      35.587  31.258  29.328  1.00  0.00    -0.200 F 
ATOM     82  C   UNL A   1      35.893  31.729  31.621  1.00  0.00     0.200 A 
ATOM     83  F   UNL A   1      36.249  32.214  33.905  1.00  0.00    -0.200 F 
ATOM     84  F   UNL A   1      34.568  31.718  31.816  1.00  0.00    -0.200 F 
ENDBRANCH  60  74
BRANCH  61  85
ATOM     85  C   UNL A   1      48.640  31.851  30.321  1.00  0.00     0.064 A 
ATOM     86  C   UNL A   1      49.402  32.248  31.429  1.00  0.00     0.173 A 
ATOM     87  C   UNL A   1      49.327  31.512  29.147  1.00  0.00     0.173 A 
ATOM     88  F   UNL A   1      48.791  32.603  32.569  1.00  0.00    -0.203 F 
ATOM     89  C   UNL A   1      50.791  32.341  31.354  1.00  0.00     0.198 A 
ATOM     90  C   UNL A   1      50.718  31.574  29.083  1.00  0.00     0.198 A 
ATOM     91  F   UNL A   1      48.648  31.122  28.058  1.00  0.00    -0.203 F 
ATOM     92  F   UNL A   1      51.487  32.787  32.407  1.00  0.00    -0.200 F 
ATOM     93  C   UNL A   1      51.448  32.001  30.181  1.00  0.00     0.200 A 
ATOM     94  F   UNL A   1      51.351  31.234  27.951  1.00  0.00    -0.200 F 
ATOM     95  F   UNL A   1      52.782  32.100  30.106  1.00  0.00    -0.200 F 
ENDBRANCH  61  85
BRANCH  73  96
ATOM     96  C   UNL A   1      43.991  26.978  32.092  1.00  0.00     0.064 A 
ATOM     97  C   UNL A   1      44.234  25.970  31.148  1.00  0.00     0.173 A 
ATOM     98  C   UNL A   1      43.934  26.613  33.446  1.00  0.00     0.173 A 
ATOM     99  F   UNL A   1      44.285  26.269  29.841  1.00  0.00    -0.203 F 
ATOM    100  C   UNL A   1      44.387  24.645  31.542  1.00  0.00     0.198 A 
ATOM    101  C   UNL A   1      44.120  25.292  33.839  1.00  0.00     0.198 A 
ATOM    102  F   UNL A   1      43.714  27.541  34.389  1.00  0.00    -0.203 F 
ATOM    103  F   UNL A   1      44.570  23.690  30.619  1.00  0.00    -0.200 F 
ATOM    104  C   UNL A   1      44.338  24.308  32.887  1.00  0.00     0.200 A 
ATOM    105  F   UNL A   1      44.089  24.970  35.140  1.00  0.00    -0.200 F 
ATOM    106  F   UNL A   1      44.496  23.032  33.265  1.00  0.00    -0.200 F 
ENDBRANCH  73  96
ENDBRANCH  47  48
ENDBRANCH  39  42
ENDBRANCH  37  38
ENDBRANCH  36  37
ENDBRANCH  35  36
ENDBRANCH  34  35
ENDBRANCH   1  34
TORSDOF 19
ENDMDL
