MODEL 1
REMARK VINA RESULT:     -12.1      0.000      0.000
REMARK SMILES O=C1NC(=S)/C(=C/c2ccc(-c3ccc(C(=O)NCCCCCCNC(=O)c4ccc(-c5c6nc(c(-c7c(F)c(F)c(F)c(F)c7F)c7ccc([nH]7)c(-c7c(F)c(F)c(F)c(F)c7F)c7nc(c(-c8c(F)c(F)c(F)c(F)c8F)c8ccc5[nH]8)C=C7)C=C6)cc4)cc3)o2)S1
REMARK SMILES IDX 21 1 20 2 19 3 18 4 16 5 17 6 15 8 12 9 13 10 92 11 14 12
REMARK SMILES IDX 91 13 11 14 8 15 9 16 93 17 10 18 7 19 1 20 2 21 3 22 94 23
REMARK SMILES IDX 4 24 6 26 5 27 22 28 23 29 24 30 25 31 26 32 27 34 28 35
REMARK SMILES IDX 29 36 90 37 30 38 89 39 31 40 32 41 33 42 83 43 34 44 88 45
REMARK SMILES IDX 82 46 84 47 35 48 87 49 81 50 80 51 36 53 68 54 48 55 67 56
REMARK SMILES IDX 49 57 52 58 66 59 85 60 50 61 51 62 65 64 86 65 53 66 37 67
REMARK SMILES IDX 38 68 46 69 39 70 40 71 44 72 47 73 41 74 42 75 45 76 43 77
REMARK SMILES IDX 69 78 70 79 78 80 71 81 72 82 76 83 79 84 73 85 74 86 77 87
REMARK SMILES IDX 75 88 54 89 55 90 63 91 56 92 57 93 61 94 64 95 58 96 59 97
REMARK SMILES IDX 62 98 60 99
REMARK H PARENT 18 7 3 25 25 33 84 52 52 63
REMARK Flexibility Score: inf
ROOT
ATOM      1  C   UNL A   1      35.032  33.246  28.903  1.00  0.00     0.002 C 
ENDROOT
BRANCH   1   2
ATOM      2  C   UNL A   1      35.869  32.253  28.087  1.00  0.00     0.021 C 
BRANCH   2   3
ATOM      3  C   UNL A   1      35.172  30.902  27.907  1.00  0.00     0.116 C 
BRANCH   3   4
ATOM      4  N   UNL A   1      33.751  31.110  27.715  1.00  0.00    -0.352 N 
ATOM      5  C   UNL A   1      32.812  30.450  26.965  1.00  0.00     0.251 C 
ATOM      6  O   UNL A   1      31.661  30.882  26.979  1.00  0.00    -0.269 OA
ATOM      7  H   UNL A   1      33.388  31.871  28.224  1.00  0.00     0.163 HD
BRANCH   5   8
ATOM      8  C   UNL A   1      33.113  29.203  26.209  1.00  0.00     0.039 A 
ATOM      9  C   UNL A   1      33.405  26.900  24.625  1.00  0.00     0.017 A 
ATOM     10  C   UNL A   1      33.317  28.156  24.020  1.00  0.00     0.013 A 
ATOM     11  C   UNL A   1      33.437  26.810  26.018  1.00  0.00     0.013 A 
ATOM     12  C   UNL A   1      33.160  29.299  24.810  1.00  0.00     0.014 A 
ATOM     13  C   UNL A   1      33.338  27.959  26.803  1.00  0.00     0.014 A 
BRANCH   9  14
ATOM     14  C   UNL A   1      33.420  25.684  23.844  1.00  0.00     0.134 A 
ATOM     15  C   UNL A   1      33.401  23.484  23.640  1.00  0.00     0.128 A 
ATOM     16  C   UNL A   1      33.332  24.031  22.363  1.00  0.00     0.051 A 
ATOM     17  O   UNL A   1      33.437  24.520  24.542  1.00  0.00    -0.457 OA
ATOM     18  C   UNL A   1      33.359  25.436  22.495  1.00  0.00     0.051 A 
BRANCH  15  19
ATOM     19  C   UNL A   1      33.416  22.123  24.040  1.00  0.00     0.065 C 
ATOM     20  O   UNL A   1      38.042  20.504  25.214  1.00  0.00    -0.261 OA
ATOM     21  C   UNL A   1      36.860  20.653  24.969  1.00  0.00     0.289 C 
ATOM     22  N   UNL A   1      35.889  19.710  25.098  1.00  0.00    -0.307 N 
ATOM     23  S   UNL A   1      36.150  22.132  24.376  1.00  0.00    -0.025 SA
ATOM     24  C   UNL A   1      34.597  20.042  24.783  1.00  0.00     0.120 C 
ATOM     25  H   UNL A   1      36.111  18.803  25.412  1.00  0.00     0.171 HD
ATOM     26  C   UNL A   1      34.544  21.470  24.351  1.00  0.00     0.056 C 
ATOM     27  S   UNL A   1      33.380  18.909  24.900  1.00  0.00    -0.059 S 
ENDBRANCH  15  19
ENDBRANCH   9  14
ENDBRANCH   5   8
ENDBRANCH   3   4
ENDBRANCH   2   3
ENDBRANCH   1   2
BRANCH   1  28
ATOM     28  C   UNL A   1      35.184  34.709  28.468  1.00  0.00     0.002 C 
BRANCH  28  29
ATOM     29  C   UNL A   1      33.986  35.600  28.803  1.00  0.00     0.021 C 
BRANCH  29  30
ATOM     30  C   UNL A   1      32.889  34.887  29.585  1.00  0.00     0.116 C 
BRANCH  30  31
ATOM     31  N   UNL A   1      32.416  35.700  30.696  1.00  0.00    -0.352 N 
ATOM     32  C   UNL A   1      32.796  35.677  32.012  1.00  0.00     0.251 C 
ATOM     33  H   UNL A   1      31.723  36.361  30.468  1.00  0.00     0.163 HD
ATOM     34  O   UNL A   1      32.114  36.239  32.862  1.00  0.00    -0.269 OA
BRANCH  32  35
ATOM     35  C   UNL A   1      34.029  34.967  32.406  1.00  0.00     0.039 A 
ATOM     36  C   UNL A   1      33.925  33.682  32.942  1.00  0.00     0.014 A 
ATOM     37  C   UNL A   1      35.280  35.575  32.271  1.00  0.00     0.014 A 
ATOM     38  C   UNL A   1      35.083  32.991  33.301  1.00  0.00     0.010 A 
ATOM     39  C   UNL A   1      36.436  34.854  32.549  1.00  0.00     0.010 A 
ATOM     40  C   UNL A   1      36.349  33.559  33.081  1.00  0.00    -0.014 A 
BRANCH  40  41
ATOM     41  C   UNL A   1      37.587  32.808  33.411  1.00  0.00     0.031 A 
ATOM     42  C   UNL A   1      38.340  33.106  34.678  1.00  0.00     0.074 A 
ATOM     43  C   UNL A   1      38.050  31.883  32.548  1.00  0.00     0.049 A 
ATOM     44  N   UNL A   1      39.448  32.573  35.127  1.00  0.00    -0.248 NA
ATOM     45  C   UNL A   1      37.792  34.164  35.543  1.00  0.00     0.031 C 
ATOM     46  C   UNL A   1      37.434  31.543  31.265  1.00  0.00     0.029 A 
ATOM     47  N   UNL A   1      39.146  31.061  32.620  1.00  0.00    -0.354 N 
ATOM     48  C   UNL A   1      39.726  33.226  36.320  1.00  0.00     0.074 A 
ATOM     49  C   UNL A   1      38.714  34.246  36.489  1.00  0.00     0.031 C 
ATOM     50  C   UNL A   1      38.143  30.562  30.684  1.00  0.00     0.029 A 
ATOM     51  C   UNL A   1      39.284  30.234  31.533  1.00  0.00     0.049 A 
ATOM     52  H   UNL A   1      39.773  31.064  33.378  1.00  0.00     0.167 HD
ATOM     53  C   UNL A   1      40.719  32.980  37.208  1.00  0.00     0.037 A 
ATOM     54  C   UNL A   1      40.228  29.317  31.249  1.00  0.00     0.037 A 
ATOM     55  C   UNL A   1      41.719  31.959  37.036  1.00  0.00     0.049 A 
ATOM     56  C   UNL A   1      41.334  29.079  32.244  1.00  0.00     0.074 A 
ATOM     57  C   UNL A   1      42.744  31.600  37.895  1.00  0.00     0.029 A 
ATOM     58  N   UNL A   1      41.825  31.136  35.924  1.00  0.00    -0.354 N 
ATOM     59  N   UNL A   1      41.546  29.653  33.403  1.00  0.00    -0.248 NA
ATOM     60  C   UNL A   1      42.326  28.054  31.893  1.00  0.00     0.031 C 
ATOM     61  C   UNL A   1      43.503  30.602  37.277  1.00  0.00     0.029 A 
ATOM     62  C   UNL A   1      42.913  30.289  36.063  1.00  0.00     0.049 A 
ATOM     63  H   UNL A   1      41.217  31.151  35.150  1.00  0.00     0.167 HD
ATOM     64  C   UNL A   1      42.674  29.040  33.933  1.00  0.00     0.074 A 
ATOM     65  C   UNL A   1      43.087  28.035  32.977  1.00  0.00     0.031 C 
ATOM     66  C   UNL A   1      43.310  29.288  35.104  1.00  0.00     0.037 A 
BRANCH  53  67
ATOM     67  C   UNL A   1      40.769  33.829  38.447  1.00  0.00     0.064 A 
ATOM     68  C   UNL A   1      41.533  35.006  38.504  1.00  0.00     0.173 A 
ATOM     69  C   UNL A   1      40.019  33.483  39.582  1.00  0.00     0.173 A 
ATOM     70  F   UNL A   1      42.278  35.379  37.452  1.00  0.00    -0.203 F 
ATOM     71  C   UNL A   1      41.569  35.785  39.658  1.00  0.00     0.198 A 
ATOM     72  C   UNL A   1      40.029  34.283  40.721  1.00  0.00     0.198 A 
ATOM     73  F   UNL A   1      39.267  32.373  39.583  1.00  0.00    -0.203 F 
ATOM     74  F   UNL A   1      42.351  36.872  39.706  1.00  0.00    -0.200 F 
ATOM     75  C   UNL A   1      40.811  35.428  40.763  1.00  0.00     0.200 A 
ATOM     76  F   UNL A   1      39.284  33.946  41.783  1.00  0.00    -0.200 F 
ATOM     77  F   UNL A   1      40.841  36.182  41.869  1.00  0.00    -0.200 F 
ENDBRANCH  53  67
BRANCH  54  78
ATOM     78  C   UNL A   1      40.162  28.544  29.981  1.00  0.00     0.064 A 
ATOM     79  C   UNL A   1      39.503  27.308  29.918  1.00  0.00     0.173 A 
ATOM     80  C   UNL A   1      40.771  29.016  28.808  1.00  0.00     0.173 A 
ATOM     81  F   UNL A   1      38.920  26.804  31.015  1.00  0.00    -0.203 F 
ATOM     82  C   UNL A   1      39.483  26.560  28.743  1.00  0.00     0.198 A 
ATOM     83  C   UNL A   1      40.721  28.285  27.624  1.00  0.00     0.198 A 
ATOM     84  F   UNL A   1      41.409  30.197  28.809  1.00  0.00    -0.203 F 
ATOM     85  F   UNL A   1      38.898  25.355  28.728  1.00  0.00    -0.200 F 
ATOM     86  C   UNL A   1      40.087  27.051  27.595  1.00  0.00     0.200 A 
ATOM     87  F   UNL A   1      41.289  28.772  26.513  1.00  0.00    -0.200 F 
ATOM     88  F   UNL A   1      40.067  26.332  26.465  1.00  0.00    -0.200 F 
ENDBRANCH  54  78
BRANCH  66  89
ATOM     89  C   UNL A   1      44.496  28.427  35.437  1.00  0.00     0.064 A 
ATOM     90  C   UNL A   1      45.798  28.772  35.044  1.00  0.00     0.173 A 
ATOM     91  C   UNL A   1      44.329  27.248  36.182  1.00  0.00     0.173 A 
ATOM     92  F   UNL A   1      46.012  29.881  34.318  1.00  0.00    -0.203 F 
ATOM     93  C   UNL A   1      46.880  27.952  35.350  1.00  0.00     0.198 A 
ATOM     94  C   UNL A   1      45.419  26.451  36.520  1.00  0.00     0.198 A 
ATOM     95  F   UNL A   1      43.108  26.875  36.593  1.00  0.00    -0.203 F 
ATOM     96  F   UNL A   1      48.105  28.269  34.907  1.00  0.00    -0.200 F 
ATOM     97  C   UNL A   1      46.691  26.797  36.093  1.00  0.00     0.200 A 
ATOM     98  F   UNL A   1      45.236  25.345  37.254  1.00  0.00    -0.200 F 
ATOM     99  F   UNL A   1      47.736  26.011  36.390  1.00  0.00    -0.200 F 
ENDBRANCH  66  89
ENDBRANCH  40  41
ENDBRANCH  32  35
ENDBRANCH  30  31
ENDBRANCH  29  30
ENDBRANCH  28  29
ENDBRANCH   1  28
TORSDOF 15
ENDMDL
MODEL 2
REMARK VINA RESULT:     -12.0      0.802      2.132
REMARK SMILES O=C1NC(=S)/C(=C/c2ccc(-c3ccc(C(=O)NCCCCCCNC(=O)c4ccc(-c5c6nc(c(-c7c(F)c(F)c(F)c(F)c7F)c7ccc([nH]7)c(-c7c(F)c(F)c(F)c(F)c7F)c7nc(c(-c8c(F)c(F)c(F)c(F)c8F)c8ccc5[nH]8)C=C7)C=C6)cc4)cc3)o2)S1
REMARK SMILES IDX 21 1 20 2 19 3 18 4 16 5 17 6 15 8 12 9 13 10 92 11 14 12
REMARK SMILES IDX 91 13 11 14 8 15 9 16 93 17 10 18 7 19 1 20 2 21 3 22 94 23
REMARK SMILES IDX 4 24 6 26 5 27 22 28 23 29 24 30 25 31 26 32 27 34 28 35
REMARK SMILES IDX 29 36 90 37 30 38 89 39 31 40 32 41 33 42 83 43 34 44 88 45
REMARK SMILES IDX 82 46 84 47 35 48 87 49 81 50 80 51 36 53 68 54 48 55 67 56
REMARK SMILES IDX 49 57 52 58 66 59 85 60 50 61 51 62 65 64 86 65 53 66 37 67
REMARK SMILES IDX 38 68 46 69 39 70 40 71 44 72 47 73 41 74 42 75 45 76 43 77
REMARK SMILES IDX 69 78 70 79 78 80 71 81 72 82 76 83 79 84 73 85 74 86 77 87
REMARK SMILES IDX 75 88 54 89 55 90 63 91 56 92 57 93 61 94 64 95 58 96 59 97
REMARK SMILES IDX 62 98 60 99
REMARK H PARENT 18 7 3 25 25 33 84 52 52 63
REMARK Flexibility Score: inf
ROOT
ATOM      1  C   UNL A   1      35.199  33.421  29.066  1.00  0.00     0.002 C 
ENDROOT
BRANCH   1   2
ATOM      2  C   UNL A   1      35.741  32.464  27.997  1.00  0.00     0.021 C 
BRANCH   2   3
ATOM      3  C   UNL A   1      35.035  31.106  28.009  1.00  0.00     0.116 C 
BRANCH   3   4
ATOM      4  N   UNL A   1      33.640  31.280  27.658  1.00  0.00    -0.352 N 
ATOM      5  C   UNL A   1      32.800  30.580  26.830  1.00  0.00     0.251 C 
ATOM      6  O   UNL A   1      31.646  30.990  26.706  1.00  0.00    -0.269 OA
ATOM      7  H   UNL A   1      33.211  32.048  28.100  1.00  0.00     0.163 HD
BRANCH   5   8
ATOM      8  C   UNL A   1      33.201  29.318  26.151  1.00  0.00     0.039 A 
ATOM      9  C   UNL A   1      33.686  26.960  24.701  1.00  0.00     0.017 A 
ATOM     10  C   UNL A   1      33.531  28.173  24.028  1.00  0.00     0.013 A 
ATOM     11  C   UNL A   1      33.687  26.946  26.098  1.00  0.00     0.013 A 
ATOM     12  C   UNL A   1      33.278  29.343  24.750  1.00  0.00     0.014 A 
ATOM     13  C   UNL A   1      33.492  28.125  26.816  1.00  0.00     0.014 A 
BRANCH   9  14
ATOM     14  C   UNL A   1      33.801  25.708  23.989  1.00  0.00     0.134 A 
ATOM     15  C   UNL A   1      34.542  23.638  23.767  1.00  0.00     0.128 A 
ATOM     16  C   UNL A   1      33.674  23.896  22.710  1.00  0.00     0.051 A 
ATOM     17  O   UNL A   1      34.593  24.763  24.555  1.00  0.00    -0.457 OA
ATOM     18  C   UNL A   1      33.214  25.222  22.845  1.00  0.00     0.051 A 
BRANCH  15  19
ATOM     19  C   UNL A   1      35.268  22.459  24.072  1.00  0.00     0.065 C 
ATOM     20  O   UNL A   1      32.274  18.652  25.468  1.00  0.00    -0.261 OA
ATOM     21  C   UNL A   1      33.183  19.410  25.189  1.00  0.00     0.289 C 
ATOM     22  N   UNL A   1      34.509  19.104  25.181  1.00  0.00    -0.307 N 
ATOM     23  S   UNL A   1      32.977  21.084  24.744  1.00  0.00    -0.025 SA
ATOM     24  C   UNL A   1      35.410  20.077  24.837  1.00  0.00     0.120 C 
ATOM     25  H   UNL A   1      34.815  18.199  25.421  1.00  0.00     0.171 HD
ATOM     26  C   UNL A   1      34.680  21.337  24.512  1.00  0.00     0.056 C 
ATOM     27  S   UNL A   1      37.045  19.752  24.842  1.00  0.00    -0.059 S 
ENDBRANCH  15  19
ENDBRANCH   9  14
ENDBRANCH   5   8
ENDBRANCH   3   4
ENDBRANCH   2   3
ENDBRANCH   1   2
BRANCH   1  28
ATOM     28  C   UNL A   1      35.251  34.903  28.673  1.00  0.00     0.002 C 
BRANCH  28  29
ATOM     29  C   UNL A   1      33.918  35.644  28.812  1.00  0.00     0.021 C 
BRANCH  29  30
ATOM     30  C   UNL A   1      32.877  34.890  29.630  1.00  0.00     0.116 C 
BRANCH  30  31
ATOM     31  N   UNL A   1      32.394  35.693  30.743  1.00  0.00    -0.352 N 
ATOM     32  C   UNL A   1      32.770  35.669  32.060  1.00  0.00     0.251 C 
ATOM     33  H   UNL A   1      31.694  36.348  30.516  1.00  0.00     0.163 HD
ATOM     34  O   UNL A   1      32.080  36.220  32.911  1.00  0.00    -0.269 OA
BRANCH  32  35
ATOM     35  C   UNL A   1      34.009  34.969  32.454  1.00  0.00     0.039 A 
ATOM     36  C   UNL A   1      33.917  33.677  32.977  1.00  0.00     0.014 A 
ATOM     37  C   UNL A   1      35.254  35.593  32.333  1.00  0.00     0.014 A 
ATOM     38  C   UNL A   1      35.080  32.996  33.336  1.00  0.00     0.010 A 
ATOM     39  C   UNL A   1      36.417  34.882  32.610  1.00  0.00     0.010 A 
ATOM     40  C   UNL A   1      36.341  33.581  33.129  1.00  0.00    -0.014 A 
BRANCH  40  41
ATOM     41  C   UNL A   1      37.586  32.841  33.458  1.00  0.00     0.031 A 
ATOM     42  C   UNL A   1      38.329  33.136  34.732  1.00  0.00     0.074 A 
ATOM     43  C   UNL A   1      38.064  31.929  32.590  1.00  0.00     0.049 A 
ATOM     44  N   UNL A   1      39.440  32.611  35.183  1.00  0.00    -0.248 NA
ATOM     45  C   UNL A   1      37.764  34.180  35.604  1.00  0.00     0.031 C 
ATOM     46  C   UNL A   1      37.459  31.594  31.300  1.00  0.00     0.029 A 
ATOM     47  N   UNL A   1      39.169  31.119  32.661  1.00  0.00    -0.354 N 
ATOM     48  C   UNL A   1      39.705  33.257  36.383  1.00  0.00     0.074 A 
ATOM     49  C   UNL A   1      38.680  34.264  36.556  1.00  0.00     0.031 C 
ATOM     50  C   UNL A   1      38.182  30.626  30.715  1.00  0.00     0.029 A 
ATOM     51  C   UNL A   1      39.322  30.303  31.567  1.00  0.00     0.049 A 
ATOM     52  H   UNL A   1      39.792  31.123  33.422  1.00  0.00     0.167 HD
ATOM     53  C   UNL A   1      40.696  33.014  37.274  1.00  0.00     0.037 A 
ATOM     54  C   UNL A   1      40.278  29.399  31.280  1.00  0.00     0.037 A 
ATOM     55  C   UNL A   1      41.708  32.006  37.098  1.00  0.00     0.049 A 
ATOM     56  C   UNL A   1      41.381  29.165  32.278  1.00  0.00     0.074 A 
ATOM     57  C   UNL A   1      42.732  31.651  37.959  1.00  0.00     0.029 A 
ATOM     58  N   UNL A   1      41.830  31.194  35.979  1.00  0.00    -0.354 N 
ATOM     59  N   UNL A   1      41.581  29.732  33.443  1.00  0.00    -0.248 NA
ATOM     60  C   UNL A   1      42.387  28.155  31.923  1.00  0.00     0.031 C 
ATOM     61  C   UNL A   1      43.506  30.667  37.337  1.00  0.00     0.029 A 
ATOM     62  C   UNL A   1      42.926  30.358  36.117  1.00  0.00     0.049 A 
ATOM     63  H   UNL A   1      41.225  31.210  35.202  1.00  0.00     0.167 HD
ATOM     64  C   UNL A   1      42.712  29.126  33.974  1.00  0.00     0.074 A 
ATOM     65  C   UNL A   1      43.142  28.134  33.012  1.00  0.00     0.031 C 
ATOM     66  C   UNL A   1      43.340  29.370  35.151  1.00  0.00     0.037 A 
BRANCH  53  67
ATOM     67  C   UNL A   1      40.730  33.852  38.521  1.00  0.00     0.064 A 
ATOM     68  C   UNL A   1      39.972  33.519  39.655  1.00  0.00     0.173 A 
ATOM     69  C   UNL A   1      41.557  34.984  38.600  1.00  0.00     0.173 A 
ATOM     70  F   UNL A   1      39.156  32.453  39.633  1.00  0.00    -0.203 F 
ATOM     71  C   UNL A   1      40.014  34.303  40.805  1.00  0.00     0.198 A 
ATOM     72  C   UNL A   1      41.625  35.745  39.763  1.00  0.00     0.198 A 
ATOM     73  F   UNL A   1      42.308  35.347  37.549  1.00  0.00    -0.203 F 
ATOM     74  F   UNL A   1      39.237  33.996  41.852  1.00  0.00    -0.200 F 
ATOM     75  C   UNL A   1      40.846  35.411  40.862  1.00  0.00     0.200 A 
ATOM     76  F   UNL A   1      42.441  36.806  39.822  1.00  0.00    -0.200 F 
ATOM     77  F   UNL A   1      40.892  36.160  41.971  1.00  0.00    -0.200 F 
ENDBRANCH  53  67
BRANCH  54  78
ATOM     78  C   UNL A   1      40.227  28.638  30.005  1.00  0.00     0.064 A 
ATOM     79  C   UNL A   1      40.825  29.136  28.838  1.00  0.00     0.173 A 
ATOM     80  C   UNL A   1      39.566  27.404  29.919  1.00  0.00     0.173 A 
ATOM     81  F   UNL A   1      41.456  30.320  28.862  1.00  0.00    -0.203 F 
ATOM     82  C   UNL A   1      40.736  28.447  27.630  1.00  0.00     0.198 A 
ATOM     83  C   UNL A   1      39.508  26.698  28.719  1.00  0.00     0.198 A 
ATOM     84  F   UNL A   1      38.983  26.875  31.006  1.00  0.00    -0.203 F 
ATOM     85  F   UNL A   1      41.265  28.977  26.519  1.00  0.00    -0.200 F 
ATOM     86  C   UNL A   1      40.082  27.226  27.573  1.00  0.00     0.200 A 
ATOM     87  F   UNL A   1      38.891  25.509  28.674  1.00  0.00    -0.200 F 
ATOM     88  F   UNL A   1      39.997  26.563  26.412  1.00  0.00    -0.200 F 
ENDBRANCH  54  78
BRANCH  66  89
ATOM     89  C   UNL A   1      44.534  28.520  35.483  1.00  0.00     0.064 A 
ATOM     90  C   UNL A   1      44.419  27.340  36.232  1.00  0.00     0.173 A 
ATOM     91  C   UNL A   1      45.810  28.882  35.022  1.00  0.00     0.173 A 
ATOM     92  F   UNL A   1      43.224  26.955  36.708  1.00  0.00    -0.203 F 
ATOM     93  C   UNL A   1      45.541  26.575  36.540  1.00  0.00     0.198 A 
ATOM     94  C   UNL A   1      46.924  28.094  35.300  1.00  0.00     0.198 A 
ATOM     95  F   UNL A   1      45.977  29.995  34.293  1.00  0.00    -0.203 F 
ATOM     96  F   UNL A   1      45.415  25.487  37.313  1.00  0.00    -0.200 F 
ATOM     97  C   UNL A   1      46.790  26.948  36.068  1.00  0.00     0.200 A 
ATOM     98  F   UNL A   1      48.127  28.446  34.826  1.00  0.00    -0.200 F 
ATOM     99  F   UNL A   1      47.868  26.208  36.363  1.00  0.00    -0.200 F 
ENDBRANCH  66  89
ENDBRANCH  40  41
ENDBRANCH  32  35
ENDBRANCH  30  31
ENDBRANCH  29  30
ENDBRANCH  28  29
ENDBRANCH   1  28
TORSDOF 15
ENDMDL
MODEL 3
REMARK VINA RESULT:     -11.6      0.923      7.213
REMARK SMILES O=C1NC(=S)/C(=C/c2ccc(-c3ccc(C(=O)NCCCCCCNC(=O)c4ccc(-c5c6nc(c(-c7c(F)c(F)c(F)c(F)c7F)c7ccc([nH]7)c(-c7c(F)c(F)c(F)c(F)c7F)c7nc(c(-c8c(F)c(F)c(F)c(F)c8F)c8ccc5[nH]8)C=C7)C=C6)cc4)cc3)o2)S1
REMARK SMILES IDX 21 1 20 2 19 3 18 4 16 5 17 6 15 8 12 9 13 10 92 11 14 12
REMARK SMILES IDX 91 13 11 14 8 15 9 16 93 17 10 18 7 19 1 20 2 21 3 22 94 23
REMARK SMILES IDX 4 24 6 26 5 27 22 28 23 29 24 30 25 31 26 32 27 34 28 35
REMARK SMILES IDX 29 36 90 37 30 38 89 39 31 40 32 41 33 42 83 43 34 44 88 45
REMARK SMILES IDX 82 46 84 47 35 48 87 49 81 50 80 51 36 53 68 54 48 55 67 56
REMARK SMILES IDX 49 57 52 58 66 59 85 60 50 61 51 62 65 64 86 65 53 66 37 67
REMARK SMILES IDX 38 68 46 69 39 70 40 71 44 72 47 73 41 74 42 75 45 76 43 77
REMARK SMILES IDX 69 78 70 79 78 80 71 81 72 82 76 83 79 84 73 85 74 86 77 87
REMARK SMILES IDX 75 88 54 89 55 90 63 91 56 92 57 93 61 94 64 95 58 96 59 97
REMARK SMILES IDX 62 98 60 99
REMARK H PARENT 18 7 3 25 25 33 84 52 52 63
REMARK Flexibility Score: inf
ROOT
ATOM      1  C   UNL A   1      35.128  33.422  29.074  1.00  0.00     0.002 C 
ENDROOT
BRANCH   1   2
ATOM      2  C   UNL A   1      35.710  32.476  28.017  1.00  0.00     0.021 C 
BRANCH   2   3
ATOM      3  C   UNL A   1      35.013  31.113  27.996  1.00  0.00     0.116 C 
BRANCH   3   4
ATOM      4  N   UNL A   1      33.619  31.285  27.641  1.00  0.00    -0.352 N 
ATOM      5  C   UNL A   1      32.779  30.578  26.819  1.00  0.00     0.251 C 
ATOM      6  O   UNL A   1      31.627  30.988  26.687  1.00  0.00    -0.269 OA
ATOM      7  H   UNL A   1      33.190  32.059  28.074  1.00  0.00     0.163 HD
BRANCH   5   8
ATOM      8  C   UNL A   1      33.181  29.308  26.154  1.00  0.00     0.039 A 
ATOM      9  C   UNL A   1      33.670  26.940  24.723  1.00  0.00     0.017 A 
ATOM     10  C   UNL A   1      33.560  28.155  24.044  1.00  0.00     0.013 A 
ATOM     11  C   UNL A   1      33.625  26.927  26.119  1.00  0.00     0.013 A 
ATOM     12  C   UNL A   1      33.305  29.330  24.756  1.00  0.00     0.014 A 
ATOM     13  C   UNL A   1      33.427  28.111  26.830  1.00  0.00     0.014 A 
BRANCH   9  14
ATOM     14  C   UNL A   1      33.787  25.685  24.015  1.00  0.00     0.134 A 
ATOM     15  C   UNL A   1      34.534  23.616  23.799  1.00  0.00     0.128 A 
ATOM     16  C   UNL A   1      33.660  23.867  22.745  1.00  0.00     0.051 A 
ATOM     17  O   UNL A   1      34.584  24.745  24.582  1.00  0.00    -0.457 OA
ATOM     18  C   UNL A   1      33.196  25.192  22.877  1.00  0.00     0.051 A 
BRANCH  15  19
ATOM     19  C   UNL A   1      35.265  22.441  24.107  1.00  0.00     0.065 C 
ATOM     20  O   UNL A   1      32.283  18.594  25.413  1.00  0.00    -0.261 OA
ATOM     21  C   UNL A   1      33.189  19.363  25.158  1.00  0.00     0.289 C 
ATOM     22  N   UNL A   1      34.517  19.069  25.171  1.00  0.00    -0.307 N 
ATOM     23  S   UNL A   1      32.976  21.039  24.724  1.00  0.00    -0.025 SA
ATOM     24  C   UNL A   1      35.416  20.054  24.852  1.00  0.00     0.120 C 
ATOM     25  H   UNL A   1      34.828  18.165  25.407  1.00  0.00     0.171 HD
ATOM     26  C   UNL A   1      34.680  21.310  24.525  1.00  0.00     0.056 C 
ATOM     27  S   UNL A   1      37.054  19.744  24.882  1.00  0.00    -0.059 S 
ENDBRANCH  15  19
ENDBRANCH   9  14
ENDBRANCH   5   8
ENDBRANCH   3   4
ENDBRANCH   2   3
ENDBRANCH   1   2
BRANCH   1  28
ATOM     28  C   UNL A   1      35.212  34.909  28.707  1.00  0.00     0.002 C 
BRANCH  28  29
ATOM     29  C   UNL A   1      33.877  35.656  28.771  1.00  0.00     0.021 C 
BRANCH  29  30
ATOM     30  C   UNL A   1      32.816  34.948  29.604  1.00  0.00     0.116 C 
BRANCH  30  31
ATOM     31  N   UNL A   1      32.399  35.762  30.736  1.00  0.00    -0.352 N 
ATOM     32  C   UNL A   1      32.822  35.721  32.038  1.00  0.00     0.251 C 
ATOM     33  H   UNL A   1      31.714  36.441  30.536  1.00  0.00     0.163 HD
ATOM     34  O   UNL A   1      32.182  36.291  32.915  1.00  0.00    -0.269 OA
BRANCH  32  35
ATOM     35  C   UNL A   1      34.050  34.979  32.386  1.00  0.00     0.039 A 
ATOM     36  C   UNL A   1      35.287  35.603  32.214  1.00  0.00     0.014 A 
ATOM     37  C   UNL A   1      33.984  33.664  32.855  1.00  0.00     0.014 A 
ATOM     38  C   UNL A   1      36.456  34.922  32.556  1.00  0.00     0.010 A 
ATOM     39  C   UNL A   1      35.142  33.018  33.276  1.00  0.00     0.010 A 
ATOM     40  C   UNL A   1      36.391  33.635  33.118  1.00  0.00    -0.014 A 
BRANCH  40  41
ATOM     41  C   UNL A   1      37.627  32.925  33.534  1.00  0.00     0.031 A 
ATOM     42  C   UNL A   1      38.243  31.886  32.639  1.00  0.00     0.074 A 
ATOM     43  C   UNL A   1      38.171  33.193  34.737  1.00  0.00     0.049 A 
ATOM     44  N   UNL A   1      39.306  31.147  32.837  1.00  0.00    -0.248 NA
ATOM     45  C   UNL A   1      37.560  31.620  31.362  1.00  0.00     0.031 C 
ATOM     46  C   UNL A   1      37.634  34.142  35.713  1.00  0.00     0.029 A 
ATOM     47  N   UNL A   1      39.294  32.690  35.344  1.00  0.00    -0.354 N 
ATOM     48  C   UNL A   1      39.417  30.335  31.717  1.00  0.00     0.074 A 
ATOM     49  C   UNL A   1      38.275  30.617  30.875  1.00  0.00     0.031 C 
ATOM     50  C   UNL A   1      38.445  34.177  36.783  1.00  0.00     0.029 A 
ATOM     51  C   UNL A   1      39.532  33.224  36.586  1.00  0.00     0.049 A 
ATOM     52  H   UNL A   1      39.873  32.012  34.928  1.00  0.00     0.167 HD
ATOM     53  C   UNL A   1      40.398  29.455  31.404  1.00  0.00     0.037 A 
ATOM     54  C   UNL A   1      40.515  32.969  37.471  1.00  0.00     0.037 A 
ATOM     55  C   UNL A   1      41.536  29.184  32.243  1.00  0.00     0.049 A 
ATOM     56  C   UNL A   1      41.581  31.969  37.107  1.00  0.00     0.074 A 
ATOM     57  C   UNL A   1      42.607  28.342  32.001  1.00  0.00     0.029 A 
ATOM     58  N   UNL A   1      41.748  29.748  33.494  1.00  0.00    -0.354 N 
ATOM     59  N   UNL A   1      41.715  31.259  36.013  1.00  0.00    -0.248 NA
ATOM     60  C   UNL A   1      42.639  31.743  38.100  1.00  0.00     0.031 C 
ATOM     61  C   UNL A   1      43.435  28.351  33.128  1.00  0.00     0.029 A 
ATOM     62  C   UNL A   1      42.918  29.251  34.045  1.00  0.00     0.049 A 
ATOM     63  H   UNL A   1      41.154  30.404  33.925  1.00  0.00     0.167 HD
ATOM     64  C   UNL A   1      42.885  30.529  36.171  1.00  0.00     0.074 A 
ATOM     65  C   UNL A   1      43.433  30.899  37.459  1.00  0.00     0.031 C 
ATOM     66  C   UNL A   1      43.455  29.632  35.328  1.00  0.00     0.037 A 
BRANCH  53  67
ATOM     67  C   UNL A   1      40.284  28.722  30.097  1.00  0.00     0.064 A 
ATOM     68  C   UNL A   1      40.862  29.221  28.919  1.00  0.00     0.173 A 
ATOM     69  C   UNL A   1      39.618  27.489  30.024  1.00  0.00     0.173 A 
ATOM     70  F   UNL A   1      41.501  30.401  28.927  1.00  0.00    -0.203 F 
ATOM     71  C   UNL A   1      40.750  28.531  27.714  1.00  0.00     0.198 A 
ATOM     72  C   UNL A   1      39.539  26.783  28.827  1.00  0.00     0.198 A 
ATOM     73  F   UNL A   1      39.051  26.961  31.120  1.00  0.00    -0.203 F 
ATOM     74  F   UNL A   1      41.261  29.057  26.592  1.00  0.00    -0.200 F 
ATOM     75  C   UNL A   1      40.096  27.309  27.670  1.00  0.00     0.200 A 
ATOM     76  F   UNL A   1      38.920  25.595  28.789  1.00  0.00    -0.200 F 
ATOM     77  F   UNL A   1      39.996  26.642  26.513  1.00  0.00    -0.200 F 
ENDBRANCH  53  67
BRANCH  54  78
ATOM     78  C   UNL A   1      40.549  33.681  38.775  1.00  0.00     0.064 A 
ATOM     79  C   UNL A   1      41.404  34.773  38.983  1.00  0.00     0.173 A 
ATOM     80  C   UNL A   1      39.741  33.276  39.848  1.00  0.00     0.173 A 
ATOM     81  F   UNL A   1      42.210  35.190  37.995  1.00  0.00    -0.203 F 
ATOM     82  C   UNL A   1      41.473  35.410  40.220  1.00  0.00     0.198 A 
ATOM     83  C   UNL A   1      39.784  33.935  41.074  1.00  0.00     0.198 A 
ATOM     84  F   UNL A   1      38.898  32.242  39.701  1.00  0.00    -0.203 F 
ATOM     85  F   UNL A   1      42.343  36.412  40.408  1.00  0.00    -0.200 F 
ATOM     86  C   UNL A   1      40.659  34.994  41.263  1.00  0.00     0.200 A 
ATOM     87  F   UNL A   1      38.981  33.542  42.072  1.00  0.00    -0.200 F 
ATOM     88  F   UNL A   1      40.725  35.607  42.452  1.00  0.00    -0.200 F 
ENDBRANCH  54  78
BRANCH  66  89
ATOM     89  C   UNL A   1      44.760  29.022  35.754  1.00  0.00     0.064 A 
ATOM     90  C   UNL A   1      45.993  29.608  35.434  1.00  0.00     0.173 A 
ATOM     91  C   UNL A   1      44.775  27.842  36.515  1.00  0.00     0.173 A 
ATOM     92  F   UNL A   1      46.036  30.730  34.696  1.00  0.00    -0.203 F 
ATOM     93  C   UNL A   1      47.191  29.017  35.825  1.00  0.00     0.198 A 
ATOM     94  C   UNL A   1      45.974  27.275  36.938  1.00  0.00     0.198 A 
ATOM     95  F   UNL A   1      43.624  27.243  36.859  1.00  0.00    -0.203 F 
ATOM     96  F   UNL A   1      48.358  29.561  35.451  1.00  0.00    -0.200 F 
ATOM     97  C   UNL A   1      47.181  27.857  36.582  1.00  0.00     0.200 A 
ATOM     98  F   UNL A   1      45.960  26.163  37.687  1.00  0.00    -0.200 F 
ATOM     99  F   UNL A   1      48.335  27.291  36.962  1.00  0.00    -0.200 F 
ENDBRANCH  66  89
ENDBRANCH  40  41
ENDBRANCH  32  35
ENDBRANCH  30  31
ENDBRANCH  29  30
ENDBRANCH  28  29
ENDBRANCH   1  28
TORSDOF 15
ENDMDL
