MODEL 1
REMARK VINA RESULT:     -12.1      0.000      0.000
REMARK SMILES CCCn1ncc(C(=O)N2CCC(C(=O)NCCCCCCNC(=O)c3ccc(-c4c5nc(c(-c6c(F)c(F)c(F)c(F)c6F)c6ccc([nH]6)c(-c6c(F)c(F)c(F)c(F)c6F)c6nc(c(-c7c(F)c(F)c(F)c(F)c7F)c7ccc4[nH]7)C=C6)C=C5)cc3)CC2)c1C
REMARK SMILES IDX 19 1 18 2 17 3 16 4 14 5 15 6 13 8 8 9 9 10 10 11 11 12
REMARK SMILES IDX 90 13 12 14 89 15 7 16 4 17 5 18 91 19 6 20 92 21 3 22 2 23
REMARK SMILES IDX 1 24 20 25 21 26 22 27 23 28 24 29 25 31 26 32 27 33 88 34
REMARK SMILES IDX 28 35 87 36 29 37 30 38 31 39 81 40 32 41 86 42 80 43 82 44
REMARK SMILES IDX 33 45 85 46 79 47 78 48 34 50 66 51 46 52 65 53 47 54 50 55
REMARK SMILES IDX 64 56 83 57 48 58 49 59 63 61 84 62 51 63 35 64 36 65 44 66
REMARK SMILES IDX 37 67 38 68 42 69 45 70 39 71 40 72 43 73 41 74 67 75 68 76
REMARK SMILES IDX 76 77 69 78 70 79 74 80 77 81 71 82 72 83 75 84 73 85 52 86
REMARK SMILES IDX 53 87 61 88 54 89 55 90 59 91 62 92 56 93 57 94 60 95 58 96
REMARK H PARENT 16 7 23 30 82 49 50 60
REMARK Flexibility Score: inf
ROOT
ATOM      1  C   UNL A   1      40.065  21.831  26.839  1.00  0.00     0.002 C 
ENDROOT
BRANCH   1   2
ATOM      2  C   UNL A   1      39.137  21.223  25.782  1.00  0.00     0.021 C 
BRANCH   2   3
ATOM      3  C   UNL A   1      37.965  22.121  25.398  1.00  0.00     0.116 C 
BRANCH   3   4
ATOM      4  N   UNL A   1      36.738  21.698  26.055  1.00  0.00    -0.356 N 
ATOM      5  C   UNL A   1      35.446  22.077  25.857  1.00  0.00     0.223 C 
ATOM      6  O   UNL A   1      34.580  21.585  26.583  1.00  0.00    -0.275 OA
ATOM      7  H   UNL A   1      36.864  21.024  26.761  1.00  0.00     0.163 HD
BRANCH   5   8
ATOM      8  C   UNL A   1      35.071  23.056  24.758  1.00  0.00     0.082 C 
ATOM      9  C   UNL A   1      31.613  24.891  23.541  1.00  0.00     0.257 C 
ATOM     10  O   UNL A   1      30.747  24.020  23.632  1.00  0.00    -0.269 OA
ATOM     11  N   UNL A   1      32.965  24.576  23.561  1.00  0.00    -0.338 N 
ATOM     12  C   UNL A   1      33.443  23.419  22.830  1.00  0.00     0.120 C 
ATOM     13  C   UNL A   1      33.955  25.307  24.340  1.00  0.00     0.120 C 
ATOM     14  C   UNL A   1      34.132  22.409  23.727  1.00  0.00     0.035 C 
ATOM     15  C   UNL A   1      34.592  24.384  25.369  1.00  0.00     0.035 C 
BRANCH   9  16
ATOM     16  C   UNL A   1      31.286  26.284  23.258  1.00  0.00     0.080 A 
ATOM     17  N   UNL A   1      30.634  28.388  23.413  1.00  0.00    -0.269 N 
ATOM     18  N   UNL A   1      30.656  28.146  22.088  1.00  0.00    -0.180 NA
ATOM     19  C   UNL A   1      31.006  27.299  24.168  1.00  0.00     0.048 A 
ATOM     20  C   UNL A   1      31.042  26.878  22.001  1.00  0.00     0.149 A 
ATOM     21  C   UNL A   1      31.034  27.272  25.656  1.00  0.00     0.067 C 
BRANCH  17  22
ATOM     22  C   UNL A   1      30.173  29.695  23.845  1.00  0.00     0.144 C 
BRANCH  22  23
ATOM     23  C   UNL A   1      28.836  30.107  23.226  1.00  0.00     0.020 C 
ATOM     24  C   UNL A   1      28.986  30.973  21.981  1.00  0.00     0.006 C 
ENDBRANCH  22  23
ENDBRANCH  17  22
ENDBRANCH   9  16
ENDBRANCH   5   8
ENDBRANCH   3   4
ENDBRANCH   2   3
ENDBRANCH   1   2
BRANCH   1  25
ATOM     25  C   UNL A   1      41.250  20.950  27.269  1.00  0.00     0.002 C 
BRANCH  25  26
ATOM     26  C   UNL A   1      41.762  19.936  26.235  1.00  0.00     0.021 C 
BRANCH  26  27
ATOM     27  C   UNL A   1      43.129  19.372  26.570  1.00  0.00     0.116 C 
BRANCH  27  28
ATOM     28  N   UNL A   1      44.051  19.385  25.428  1.00  0.00    -0.352 N 
ATOM     29  C   UNL A   1      44.398  20.456  24.616  1.00  0.00     0.251 C 
ATOM     30  H   UNL A   1      44.476  18.525  25.210  1.00  0.00     0.163 HD
ATOM     31  O   UNL A   1      44.885  20.295  23.512  1.00  0.00    -0.269 OA
BRANCH  29  32
ATOM     32  C   UNL A   1      44.181  21.810  25.152  1.00  0.00     0.039 A 
ATOM     33  C   UNL A   1      43.227  22.697  24.646  1.00  0.00     0.014 A 
ATOM     34  C   UNL A   1      44.955  22.151  26.251  1.00  0.00     0.014 A 
ATOM     35  C   UNL A   1      43.044  23.914  25.302  1.00  0.00     0.010 A 
ATOM     36  C   UNL A   1      44.555  23.171  27.052  1.00  0.00     0.010 A 
ATOM     37  C   UNL A   1      43.724  24.134  26.508  1.00  0.00    -0.014 A 
BRANCH  37  38
ATOM     38  C   UNL A   1      43.609  25.353  27.287  1.00  0.00     0.031 A 
ATOM     39  C   UNL A   1      44.616  26.392  26.961  1.00  0.00     0.074 A 
ATOM     40  C   UNL A   1      42.498  25.595  28.023  1.00  0.00     0.049 A 
ATOM     41  N   UNL A   1      45.524  26.883  27.736  1.00  0.00    -0.248 NA
ATOM     42  C   UNL A   1      44.716  26.847  25.565  1.00  0.00     0.031 C 
ATOM     43  C   UNL A   1      41.273  24.785  28.151  1.00  0.00     0.029 A 
ATOM     44  N   UNL A   1      42.185  26.701  28.745  1.00  0.00    -0.354 N 
ATOM     45  C   UNL A   1      46.199  27.840  26.983  1.00  0.00     0.074 A 
ATOM     46  C   UNL A   1      45.781  27.650  25.620  1.00  0.00     0.031 C 
ATOM     47  C   UNL A   1      40.287  25.525  28.704  1.00  0.00     0.029 A 
ATOM     48  C   UNL A   1      40.850  26.788  29.132  1.00  0.00     0.049 A 
ATOM     49  H   UNL A   1      42.850  27.388  28.977  1.00  0.00     0.167 HD
ATOM     50  C   UNL A   1      46.875  28.857  27.587  1.00  0.00     0.037 A 
ATOM     51  C   UNL A   1      40.265  27.854  29.735  1.00  0.00     0.037 A 
ATOM     52  C   UNL A   1      47.085  28.572  28.986  1.00  0.00     0.049 A 
ATOM     53  C   UNL A   1      41.364  28.676  30.308  1.00  0.00     0.074 A 
ATOM     54  C   UNL A   1      47.782  27.601  29.677  1.00  0.00     0.029 A 
ATOM     55  N   UNL A   1      46.197  29.104  29.888  1.00  0.00    -0.354 N 
ATOM     56  N   UNL A   1      42.133  28.266  31.282  1.00  0.00    -0.248 NA
ATOM     57  C   UNL A   1      41.928  29.714  29.458  1.00  0.00     0.031 C 
ATOM     58  C   UNL A   1      46.943  27.261  30.778  1.00  0.00     0.029 A 
ATOM     59  C   UNL A   1      45.826  28.098  30.746  1.00  0.00     0.049 A 
ATOM     60  H   UNL A   1      45.882  30.036  29.915  1.00  0.00     0.167 HD
ATOM     61  C   UNL A   1      43.410  28.680  30.924  1.00  0.00     0.074 A 
ATOM     62  C   UNL A   1      43.211  29.613  29.815  1.00  0.00     0.031 C 
ATOM     63  C   UNL A   1      44.518  28.004  31.352  1.00  0.00     0.037 A 
BRANCH  50  64
ATOM     64  C   UNL A   1      47.042  30.245  27.021  1.00  0.00     0.064 A 
ATOM     65  C   UNL A   1      48.316  30.849  27.059  1.00  0.00     0.173 A 
ATOM     66  C   UNL A   1      45.970  31.110  26.716  1.00  0.00     0.173 A 
ATOM     67  F   UNL A   1      49.409  30.125  27.343  1.00  0.00    -0.203 F 
ATOM     68  C   UNL A   1      48.486  32.226  26.895  1.00  0.00     0.198 A 
ATOM     69  C   UNL A   1      46.151  32.475  26.501  1.00  0.00     0.198 A 
ATOM     70  F   UNL A   1      44.697  30.701  26.722  1.00  0.00    -0.203 F 
ATOM     71  F   UNL A   1      49.697  32.772  27.068  1.00  0.00    -0.200 F 
ATOM     72  C   UNL A   1      47.402  33.040  26.625  1.00  0.00     0.200 A 
ATOM     73  F   UNL A   1      45.085  33.249  26.252  1.00  0.00    -0.200 F 
ATOM     74  F   UNL A   1      47.552  34.367  26.531  1.00  0.00    -0.200 F 
ENDBRANCH  50  64
BRANCH  51  75
ATOM     75  C   UNL A   1      38.895  28.381  29.523  1.00  0.00     0.064 A 
ATOM     76  C   UNL A   1      38.049  28.675  30.603  1.00  0.00     0.173 A 
ATOM     77  C   UNL A   1      38.494  28.869  28.263  1.00  0.00     0.173 A 
ATOM     78  F   UNL A   1      38.382  28.289  31.843  1.00  0.00    -0.203 F 
ATOM     79  C   UNL A   1      36.881  29.431  30.437  1.00  0.00     0.198 A 
ATOM     80  C   UNL A   1      37.330  29.621  28.098  1.00  0.00     0.198 A 
ATOM     81  F   UNL A   1      39.276  28.708  27.185  1.00  0.00    -0.203 F 
ATOM     82  F   UNL A   1      36.125  29.739  31.500  1.00  0.00    -0.200 F 
ATOM     83  C   UNL A   1      36.529  29.912  29.186  1.00  0.00     0.200 A 
ATOM     84  F   UNL A   1      37.023  30.116  26.889  1.00  0.00    -0.200 F 
ATOM     85  F   UNL A   1      35.445  30.686  29.035  1.00  0.00    -0.200 F 
ENDBRANCH  51  75
BRANCH  63  86
ATOM     86  C   UNL A   1      44.327  26.920  32.383  1.00  0.00     0.064 A 
ATOM     87  C   UNL A   1      44.218  25.551  32.078  1.00  0.00     0.173 A 
ATOM     88  C   UNL A   1      44.424  27.265  33.735  1.00  0.00     0.173 A 
ATOM     89  F   UNL A   1      44.221  25.125  30.812  1.00  0.00    -0.203 F 
ATOM     90  C   UNL A   1      44.170  24.583  33.080  1.00  0.00     0.198 A 
ATOM     91  C   UNL A   1      44.411  26.294  34.734  1.00  0.00     0.198 A 
ATOM     92  F   UNL A   1      44.588  28.550  34.088  1.00  0.00    -0.203 F 
ATOM     93  F   UNL A   1      44.062  23.284  32.758  1.00  0.00    -0.200 F 
ATOM     94  C   UNL A   1      44.274  24.956  34.408  1.00  0.00     0.200 A 
ATOM     95  F   UNL A   1      44.564  26.658  36.015  1.00  0.00    -0.200 F 
ATOM     96  F   UNL A   1      44.273  24.024  35.373  1.00  0.00    -0.200 F 
ENDBRANCH  63  86
ENDBRANCH  37  38
ENDBRANCH  29  32
ENDBRANCH  27  28
ENDBRANCH  26  27
ENDBRANCH  25  26
ENDBRANCH   1  25
TORSDOF 16
ENDMDL
MODEL 2
REMARK VINA RESULT:     -11.8      2.408      3.492
REMARK SMILES CCCn1ncc(C(=O)N2CCC(C(=O)NCCCCCCNC(=O)c3ccc(-c4c5nc(c(-c6c(F)c(F)c(F)c(F)c6F)c6ccc([nH]6)c(-c6c(F)c(F)c(F)c(F)c6F)c6nc(c(-c7c(F)c(F)c(F)c(F)c7F)c7ccc4[nH]7)C=C6)C=C5)cc3)CC2)c1C
REMARK SMILES IDX 19 1 18 2 17 3 16 4 14 5 15 6 13 8 8 9 9 10 10 11 11 12
REMARK SMILES IDX 90 13 12 14 89 15 7 16 4 17 5 18 91 19 6 20 92 21 3 22 2 23
REMARK SMILES IDX 1 24 20 25 21 26 22 27 23 28 24 29 25 31 26 32 27 33 88 34
REMARK SMILES IDX 28 35 87 36 29 37 30 38 31 39 81 40 32 41 86 42 80 43 82 44
REMARK SMILES IDX 33 45 85 46 79 47 78 48 34 50 66 51 46 52 65 53 47 54 50 55
REMARK SMILES IDX 64 56 83 57 48 58 49 59 63 61 84 62 51 63 35 64 36 65 44 66
REMARK SMILES IDX 37 67 38 68 42 69 45 70 39 71 40 72 43 73 41 74 67 75 68 76
REMARK SMILES IDX 76 77 69 78 70 79 74 80 77 81 71 82 72 83 75 84 73 85 52 86
REMARK SMILES IDX 53 87 61 88 54 89 55 90 59 91 62 92 56 93 57 94 60 95 58 96
REMARK H PARENT 16 7 23 30 82 49 50 60
REMARK Flexibility Score: inf
ROOT
ATOM      1  C   UNL A   1      36.880  23.706  25.787  1.00  0.00     0.002 C 
ENDROOT
BRANCH   1   2
ATOM      2  C   UNL A   1      35.348  23.701  25.757  1.00  0.00     0.021 C 
BRANCH   2   3
ATOM      3  C   UNL A   1      34.757  23.234  24.430  1.00  0.00     0.116 C 
BRANCH   3   4
ATOM      4  N   UNL A   1      34.402  21.825  24.476  1.00  0.00    -0.356 N 
ATOM      5  C   UNL A   1      33.189  21.216  24.582  1.00  0.00     0.223 C 
ATOM      6  O   UNL A   1      33.161  19.985  24.637  1.00  0.00    -0.275 OA
ATOM      7  H   UNL A   1      35.167  21.208  24.422  1.00  0.00     0.163 HD
BRANCH   5   8
ATOM      8  C   UNL A   1      31.901  22.022  24.606  1.00  0.00     0.082 C 
ATOM      9  C   UNL A   1      30.953  26.002  24.856  1.00  0.00     0.257 C 
ATOM     10  O   UNL A   1      31.743  26.462  25.681  1.00  0.00    -0.269 OA
ATOM     11  N   UNL A   1      30.746  24.635  24.730  1.00  0.00    -0.338 N 
ATOM     12  C   UNL A   1      30.649  23.812  25.919  1.00  0.00     0.120 C 
ATOM     13  C   UNL A   1      30.685  23.939  23.452  1.00  0.00     0.120 C 
ATOM     14  C   UNL A   1      31.702  22.722  25.960  1.00  0.00     0.035 C 
ATOM     15  C   UNL A   1      31.812  22.920  23.360  1.00  0.00     0.035 C 
BRANCH   9  16
ATOM     16  C   UNL A   1      30.076  26.856  24.061  1.00  0.00     0.080 A 
ATOM     17  N   UNL A   1      29.219  28.524  22.896  1.00  0.00    -0.269 N 
ATOM     18  N   UNL A   1      28.154  27.767  23.221  1.00  0.00    -0.180 NA
ATOM     19  C   UNL A   1      30.407  28.021  23.376  1.00  0.00     0.048 A 
ATOM     20  C   UNL A   1      28.674  26.770  23.927  1.00  0.00     0.149 A 
ATOM     21  C   UNL A   1      31.734  28.672  23.200  1.00  0.00     0.067 C 
BRANCH  17  22
ATOM     22  C   UNL A   1      28.966  29.755  22.169  1.00  0.00     0.144 C 
BRANCH  22  23
ATOM     23  C   UNL A   1      27.597  30.368  22.462  1.00  0.00     0.020 C 
ATOM     24  C   UNL A   1      27.608  31.344  23.632  1.00  0.00     0.006 C 
ENDBRANCH  22  23
ENDBRANCH  17  22
ENDBRANCH   9  16
ENDBRANCH   5   8
ENDBRANCH   3   4
ENDBRANCH   2   3
ENDBRANCH   1   2
BRANCH   1  25
ATOM     25  C   UNL A   1      37.565  22.651  24.903  1.00  0.00     0.002 C 
BRANCH  25  26
ATOM     26  C   UNL A   1      38.321  21.530  25.632  1.00  0.00     0.021 C 
BRANCH  26  27
ATOM     27  C   UNL A   1      39.422  22.039  26.542  1.00  0.00     0.116 C 
BRANCH  27  28
ATOM     28  N   UNL A   1      40.765  21.846  25.981  1.00  0.00    -0.352 N 
ATOM     29  C   UNL A   1      41.797  22.769  25.883  1.00  0.00     0.251 C 
ATOM     30  H   UNL A   1      40.957  20.948  25.629  1.00  0.00     0.163 HD
ATOM     31  O   UNL A   1      42.723  22.619  25.108  1.00  0.00    -0.269 OA
BRANCH  29  32
ATOM     32  C   UNL A   1      41.748  23.937  26.779  1.00  0.00     0.039 A 
ATOM     33  C   UNL A   1      42.366  23.977  28.031  1.00  0.00     0.014 A 
ATOM     34  C   UNL A   1      41.085  25.047  26.277  1.00  0.00     0.014 A 
ATOM     35  C   UNL A   1      42.336  25.176  28.743  1.00  0.00     0.010 A 
ATOM     36  C   UNL A   1      41.333  26.267  26.820  1.00  0.00     0.010 A 
ATOM     37  C   UNL A   1      41.809  26.314  28.118  1.00  0.00    -0.014 A 
BRANCH  37  38
ATOM     38  C   UNL A   1      41.732  27.619  28.749  1.00  0.00     0.031 A 
ATOM     39  C   UNL A   1      42.802  28.564  28.347  1.00  0.00     0.074 A 
ATOM     40  C   UNL A   1      40.611  27.997  29.409  1.00  0.00     0.049 A 
ATOM     41  N   UNL A   1      43.708  29.096  29.096  1.00  0.00    -0.248 NA
ATOM     42  C   UNL A   1      42.972  28.850  26.912  1.00  0.00     0.031 C 
ATOM     43  C   UNL A   1      39.342  27.267  29.581  1.00  0.00     0.029 A 
ATOM     44  N   UNL A   1      40.333  29.192  29.989  1.00  0.00    -0.354 N 
ATOM     45  C   UNL A   1      44.456  29.927  28.266  1.00  0.00     0.074 A 
ATOM     46  C   UNL A   1      44.075  29.601  26.918  1.00  0.00     0.031 C 
ATOM     47  C   UNL A   1      38.378  28.112  30.007  1.00  0.00     0.029 A 
ATOM     48  C   UNL A   1      38.992  29.388  30.311  1.00  0.00     0.049 A 
ATOM     49  H   UNL A   1      41.024  29.869  30.166  1.00  0.00     0.167 HD
ATOM     50  C   UNL A   1      45.165  30.973  28.776  1.00  0.00     0.037 A 
ATOM     51  C   UNL A   1      38.444  30.542  30.766  1.00  0.00     0.037 A 
ATOM     52  C   UNL A   1      45.313  30.841  30.205  1.00  0.00     0.049 A 
ATOM     53  C   UNL A   1      39.564  31.371  31.285  1.00  0.00     0.074 A 
ATOM     54  C   UNL A   1      45.935  29.924  31.028  1.00  0.00     0.029 A 
ATOM     55  N   UNL A   1      44.424  31.515  31.006  1.00  0.00    -0.354 N 
ATOM     56  N   UNL A   1      40.278  31.040  32.327  1.00  0.00    -0.248 NA
ATOM     57  C   UNL A   1      40.210  32.277  30.345  1.00  0.00     0.031 C 
ATOM     58  C   UNL A   1      45.043  29.753  32.128  1.00  0.00     0.029 A 
ATOM     59  C   UNL A   1      43.974  30.635  31.958  1.00  0.00     0.049 A 
ATOM     60  H   UNL A   1      44.158  32.459  30.915  1.00  0.00     0.167 HD
ATOM     61  C   UNL A   1      41.586  31.348  31.975  1.00  0.00     0.074 A 
ATOM     62  C   UNL A   1      41.473  32.156  30.761  1.00  0.00     0.031 C 
ATOM     63  C   UNL A   1      42.643  30.673  32.519  1.00  0.00     0.037 A 
BRANCH  50  64
ATOM     64  C   UNL A   1      45.422  32.277  28.063  1.00  0.00     0.064 A 
ATOM     65  C   UNL A   1      44.330  33.119  27.766  1.00  0.00     0.173 A 
ATOM     66  C   UNL A   1      46.629  32.596  27.407  1.00  0.00     0.173 A 
ATOM     67  F   UNL A   1      43.130  32.909  28.328  1.00  0.00    -0.203 F 
ATOM     68  C   UNL A   1      44.422  34.141  26.819  1.00  0.00     0.198 A 
ATOM     69  C   UNL A   1      46.730  33.650  26.501  1.00  0.00     0.198 A 
ATOM     70  F   UNL A   1      47.728  31.843  27.525  1.00  0.00    -0.203 F 
ATOM     71  F   UNL A   1      43.326  34.831  26.476  1.00  0.00    -0.200 F 
ATOM     72  C   UNL A   1      45.620  34.401  26.179  1.00  0.00     0.200 A 
ATOM     73  F   UNL A   1      47.898  33.878  25.884  1.00  0.00    -0.200 F 
ATOM     74  F   UNL A   1      45.695  35.336  25.225  1.00  0.00    -0.200 F 
ENDBRANCH  50  64
BRANCH  51  75
ATOM     75  C   UNL A   1      37.111  31.107  30.442  1.00  0.00     0.064 A 
ATOM     76  C   UNL A   1      36.213  31.489  31.451  1.00  0.00     0.173 A 
ATOM     77  C   UNL A   1      36.806  31.541  29.137  1.00  0.00     0.173 A 
ATOM     78  F   UNL A   1      36.455  31.157  32.728  1.00  0.00    -0.203 F 
ATOM     79  C   UNL A   1      35.088  32.276  31.174  1.00  0.00     0.198 A 
ATOM     80  C   UNL A   1      35.685  32.326  28.861  1.00  0.00     0.198 A 
ATOM     81  F   UNL A   1      37.645  31.295  28.119  1.00  0.00    -0.203 F 
ATOM     82  F   UNL A   1      34.283  32.668  32.171  1.00  0.00    -0.200 F 
ATOM     83  C   UNL A   1      34.831  32.703  29.881  1.00  0.00     0.200 A 
ATOM     84  F   UNL A   1      35.471  32.765  27.612  1.00  0.00    -0.200 F 
ATOM     85  F   UNL A   1      33.790  33.506  29.624  1.00  0.00    -0.200 F 
ENDBRANCH  51  75
BRANCH  63  86
ATOM     86  C   UNL A   1      42.362  29.726  33.658  1.00  0.00     0.064 A 
ATOM     87  C   UNL A   1      42.073  28.359  33.495  1.00  0.00     0.173 A 
ATOM     88  C   UNL A   1      42.555  30.184  34.966  1.00  0.00     0.173 A 
ATOM     89  F   UNL A   1      41.972  27.816  32.278  1.00  0.00    -0.203 F 
ATOM     90  C   UNL A   1      41.946  27.505  34.590  1.00  0.00     0.198 A 
ATOM     91  C   UNL A   1      42.463  29.323  36.057  1.00  0.00     0.198 A 
ATOM     92  F   UNL A   1      42.890  31.465  35.184  1.00  0.00    -0.203 F 
ATOM     93  F   UNL A   1      41.666  26.205  34.402  1.00  0.00    -0.200 F 
ATOM     94  C   UNL A   1      42.149  27.987  35.870  1.00  0.00     0.200 A 
ATOM     95  F   UNL A   1      42.711  29.785  37.290  1.00  0.00    -0.200 F 
ATOM     96  F   UNL A   1      42.072  27.159  36.923  1.00  0.00    -0.200 F 
ENDBRANCH  63  86
ENDBRANCH  37  38
ENDBRANCH  29  32
ENDBRANCH  27  28
ENDBRANCH  26  27
ENDBRANCH  25  26
ENDBRANCH   1  25
TORSDOF 16
ENDMDL
MODEL 3
REMARK VINA RESULT:     -11.7      3.040      9.077
REMARK SMILES CCCn1ncc(C(=O)N2CCC(C(=O)NCCCCCCNC(=O)c3ccc(-c4c5nc(c(-c6c(F)c(F)c(F)c(F)c6F)c6ccc([nH]6)c(-c6c(F)c(F)c(F)c(F)c6F)c6nc(c(-c7c(F)c(F)c(F)c(F)c7F)c7ccc4[nH]7)C=C6)C=C5)cc3)CC2)c1C
REMARK SMILES IDX 19 1 18 2 17 3 16 4 14 5 15 6 13 8 8 9 9 10 10 11 11 12
REMARK SMILES IDX 90 13 12 14 89 15 7 16 4 17 5 18 91 19 6 20 92 21 3 22 2 23
REMARK SMILES IDX 1 24 20 25 21 26 22 27 23 28 24 29 25 31 26 32 27 33 88 34
REMARK SMILES IDX 28 35 87 36 29 37 30 38 31 39 81 40 32 41 86 42 80 43 82 44
REMARK SMILES IDX 33 45 85 46 79 47 78 48 34 50 66 51 46 52 65 53 47 54 50 55
REMARK SMILES IDX 64 56 83 57 48 58 49 59 63 61 84 62 51 63 35 64 36 65 44 66
REMARK SMILES IDX 37 67 38 68 42 69 45 70 39 71 40 72 43 73 41 74 67 75 68 76
REMARK SMILES IDX 76 77 69 78 70 79 74 80 77 81 71 82 72 83 75 84 73 85 52 86
REMARK SMILES IDX 53 87 61 88 54 89 55 90 59 91 62 92 56 93 57 94 60 95 58 96
REMARK H PARENT 16 7 23 30 82 49 50 60
REMARK Flexibility Score: inf
ROOT
ATOM      1  C   UNL A   1      33.277  30.497  27.257  1.00  0.00     0.002 C 
ENDROOT
BRANCH   1   2
ATOM      2  C   UNL A   1      31.916  30.752  26.601  1.00  0.00     0.021 C 
BRANCH   2   3
ATOM      3  C   UNL A   1      31.656  29.898  25.364  1.00  0.00     0.116 C 
BRANCH   3   4
ATOM      4  N   UNL A   1      32.879  29.675  24.609  1.00  0.00    -0.356 N 
ATOM      5  C   UNL A   1      33.341  28.565  23.973  1.00  0.00     0.223 C 
ATOM      6  O   UNL A   1      34.444  28.627  23.425  1.00  0.00    -0.275 OA
ATOM      7  H   UNL A   1      33.470  30.459  24.548  1.00  0.00     0.163 HD
BRANCH   5   8
ATOM      8  C   UNL A   1      32.518  27.289  23.910  1.00  0.00     0.082 C 
ATOM      9  C   UNL A   1      33.092  23.514  22.419  1.00  0.00     0.257 C 
ATOM     10  O   UNL A   1      33.670  23.686  21.345  1.00  0.00    -0.269 OA
ATOM     11  N   UNL A   1      32.447  24.557  23.072  1.00  0.00    -0.338 N 
ATOM     12  C   UNL A   1      31.659  25.502  22.308  1.00  0.00     0.120 C 
ATOM     13  C   UNL A   1      32.564  24.812  24.501  1.00  0.00     0.120 C 
ATOM     14  C   UNL A   1      32.151  26.928  22.462  1.00  0.00     0.035 C 
ATOM     15  C   UNL A   1      33.192  26.179  24.735  1.00  0.00     0.035 C 
BRANCH   9  16
ATOM     16  C   UNL A   1      32.917  22.190  23.003  1.00  0.00     0.080 A 
ATOM     17  N   UNL A   1      33.216  20.281  24.073  1.00  0.00    -0.269 N 
ATOM     18  N   UNL A   1      32.145  20.055  23.289  1.00  0.00    -0.180 NA
ATOM     19  C   UNL A   1      33.724  21.554  23.942  1.00  0.00     0.048 A 
ATOM     20  C   UNL A   1      31.973  21.203  22.643  1.00  0.00     0.149 A 
ATOM     21  C   UNL A   1      34.926  22.063  24.657  1.00  0.00     0.067 C 
BRANCH  17  22
ATOM     22  C   UNL A   1      33.709  19.170  24.866  1.00  0.00     0.144 C 
BRANCH  22  23
ATOM     23  C   UNL A   1      33.195  17.808  24.397  1.00  0.00     0.020 C 
ATOM     24  C   UNL A   1      34.156  17.088  23.459  1.00  0.00     0.006 C 
ENDBRANCH  22  23
ENDBRANCH  17  22
ENDBRANCH   9  16
ENDBRANCH   5   8
ENDBRANCH   3   4
ENDBRANCH   2   3
ENDBRANCH   1   2
BRANCH   1  25
ATOM     25  C   UNL A   1      33.983  31.739  27.828  1.00  0.00     0.002 C 
BRANCH  25  26
ATOM     26  C   UNL A   1      35.507  31.807  27.647  1.00  0.00     0.021 C 
BRANCH  26  27
ATOM     27  C   UNL A   1      36.160  32.915  28.451  1.00  0.00     0.116 C 
BRANCH  27  28
ATOM     28  N   UNL A   1      35.598  33.052  29.800  1.00  0.00    -0.352 N 
ATOM     29  C   UNL A   1      35.730  32.188  30.878  1.00  0.00     0.251 C 
ATOM     30  H   UNL A   1      35.058  33.859  29.960  1.00  0.00     0.163 HD
ATOM     31  O   UNL A   1      34.960  32.213  31.821  1.00  0.00    -0.269 OA
BRANCH  29  32
ATOM     32  C   UNL A   1      36.861  31.246  30.857  1.00  0.00     0.039 A 
ATOM     33  C   UNL A   1      36.731  29.889  30.551  1.00  0.00     0.014 A 
ATOM     34  C   UNL A   1      38.107  31.802  31.109  1.00  0.00     0.014 A 
ATOM     35  C   UNL A   1      37.891  29.119  30.463  1.00  0.00     0.010 A 
ATOM     36  C   UNL A   1      39.222  31.135  30.715  1.00  0.00     0.010 A 
ATOM     37  C   UNL A   1      39.132  29.764  30.552  1.00  0.00    -0.014 A 
BRANCH  37  38
ATOM     38  C   UNL A   1      40.407  29.075  30.465  1.00  0.00     0.031 A 
ATOM     39  C   UNL A   1      41.070  28.836  31.770  1.00  0.00     0.074 A 
ATOM     40  C   UNL A   1      40.781  28.464  29.315  1.00  0.00     0.049 A 
ATOM     41  N   UNL A   1      42.206  29.294  32.174  1.00  0.00    -0.248 NA
ATOM     42  C   UNL A   1      40.319  28.109  32.807  1.00  0.00     0.031 C 
ATOM     43  C   UNL A   1      40.042  28.340  28.046  1.00  0.00     0.029 A 
ATOM     44  N   UNL A   1      41.887  27.716  29.075  1.00  0.00    -0.354 N 
ATOM     45  C   UNL A   1      42.404  28.770  33.449  1.00  0.00     0.074 A 
ATOM     46  C   UNL A   1      41.145  28.201  33.851  1.00  0.00     0.031 C 
ATOM     47  C   UNL A   1      40.608  27.387  27.274  1.00  0.00     0.029 A 
ATOM     48  C   UNL A   1      41.842  26.965  27.903  1.00  0.00     0.049 A 
ATOM     49  H   UNL A   1      42.662  27.705  29.682  1.00  0.00     0.167 HD
ATOM     50  C   UNL A   1      43.656  28.653  33.972  1.00  0.00     0.037 A 
ATOM     51  C   UNL A   1      42.756  26.040  27.516  1.00  0.00     0.037 A 
ATOM     52  C   UNL A   1      44.599  29.448  33.224  1.00  0.00     0.049 A 
ATOM     53  C   UNL A   1      43.993  26.311  28.296  1.00  0.00     0.074 A 
ATOM     54  C   UNL A   1      44.746  30.801  32.989  1.00  0.00     0.029 A 
ATOM     55  N   UNL A   1      45.334  28.820  32.248  1.00  0.00    -0.354 N 
ATOM     56  N   UNL A   1      44.706  27.397  28.157  1.00  0.00    -0.248 NA
ATOM     57  C   UNL A   1      44.134  25.628  29.575  1.00  0.00     0.031 C 
ATOM     58  C   UNL A   1      45.128  30.895  31.619  1.00  0.00     0.029 A 
ATOM     59  C   UNL A   1      45.276  29.600  31.120  1.00  0.00     0.049 A 
ATOM     60  H   UNL A   1      45.816  27.966  32.341  1.00  0.00     0.167 HD
ATOM     61  C   UNL A   1      45.053  27.763  29.452  1.00  0.00     0.074 A 
ATOM     62  C   UNL A   1      44.715  26.604  30.278  1.00  0.00     0.031 C 
ATOM     63  C   UNL A   1      45.296  29.067  29.777  1.00  0.00     0.037 A 
BRANCH  50  64
ATOM     64  C   UNL A   1      44.101  27.570  34.923  1.00  0.00     0.064 A 
ATOM     65  C   UNL A   1      43.982  26.222  34.525  1.00  0.00     0.173 A 
ATOM     66  C   UNL A   1      44.359  27.776  36.295  1.00  0.00     0.173 A 
ATOM     67  F   UNL A   1      43.733  25.904  33.246  1.00  0.00    -0.203 F 
ATOM     68  C   UNL A   1      44.028  25.173  35.447  1.00  0.00     0.198 A 
ATOM     69  C   UNL A   1      44.455  26.723  37.203  1.00  0.00     0.198 A 
ATOM     70  F   UNL A   1      44.417  28.998  36.835  1.00  0.00    -0.203 F 
ATOM     71  F   UNL A   1      43.781  23.920  35.041  1.00  0.00    -0.200 F 
ATOM     72  C   UNL A   1      44.255  25.425  36.787  1.00  0.00     0.200 A 
ATOM     73  F   UNL A   1      44.665  26.990  38.499  1.00  0.00    -0.200 F 
ATOM     74  F   UNL A   1      44.235  24.429  37.681  1.00  0.00    -0.200 F 
ENDBRANCH  50  64
BRANCH  51  75
ATOM     75  C   UNL A   1      42.511  24.753  26.821  1.00  0.00     0.064 A 
ATOM     76  C   UNL A   1      43.148  24.443  25.609  1.00  0.00     0.173 A 
ATOM     77  C   UNL A   1      41.862  23.688  27.477  1.00  0.00     0.173 A 
ATOM     78  F   UNL A   1      43.829  25.389  24.946  1.00  0.00    -0.203 F 
ATOM     79  C   UNL A   1      43.153  23.140  25.094  1.00  0.00     0.198 A 
ATOM     80  C   UNL A   1      41.867  22.390  26.963  1.00  0.00     0.198 A 
ATOM     81  F   UNL A   1      41.295  23.867  28.679  1.00  0.00    -0.203 F 
ATOM     82  F   UNL A   1      43.817  22.870  23.962  1.00  0.00    -0.200 F 
ATOM     83  C   UNL A   1      42.522  22.114  25.777  1.00  0.00     0.200 A 
ATOM     84  F   UNL A   1      41.287  21.398  27.655  1.00  0.00    -0.200 F 
ATOM     85  F   UNL A   1      42.577  20.856  25.317  1.00  0.00    -0.200 F 
ENDBRANCH  51  75
BRANCH  63  86
ATOM     86  C   UNL A   1      45.373  30.070  28.654  1.00  0.00     0.064 A 
ATOM     87  C   UNL A   1      44.284  30.841  28.207  1.00  0.00     0.173 A 
ATOM     88  C   UNL A   1      46.630  30.379  28.124  1.00  0.00     0.173 A 
ATOM     89  F   UNL A   1      43.066  30.682  28.732  1.00  0.00    -0.203 F 
ATOM     90  C   UNL A   1      44.443  31.843  27.250  1.00  0.00     0.198 A 
ATOM     91  C   UNL A   1      46.795  31.403  27.194  1.00  0.00     0.198 A 
ATOM     92  F   UNL A   1      47.718  29.719  28.553  1.00  0.00    -0.203 F 
ATOM     93  F   UNL A   1      43.384  32.559  26.841  1.00  0.00    -0.200 F 
ATOM     94  C   UNL A   1      45.702  32.128  26.750  1.00  0.00     0.200 A 
ATOM     95  F   UNL A   1      48.022  31.708  26.752  1.00  0.00    -0.200 F 
ATOM     96  F   UNL A   1      45.866  33.120  25.863  1.00  0.00    -0.200 F 
ENDBRANCH  63  86
ENDBRANCH  37  38
ENDBRANCH  29  32
ENDBRANCH  27  28
ENDBRANCH  26  27
ENDBRANCH  25  26
ENDBRANCH   1  25
TORSDOF 16
ENDMDL
