MODEL 1
REMARK VINA RESULT:     -12.7      0.000      0.000
REMARK SMILES Cc1cc(=O)n(CC(=O)NCCCCCCNC(=O)c2ccc(-c3c4nc(c(-c5c(F)c(F)c(F)c(F)c5F)c5ccc([nH]5)c(-c5c(F)c(F)c(F)c(F)c5F)c5nc(c(-c6c(F)c(F)c(F)c(F)c6F)c6ccc3[nH]6)C=C5)C=C4)cc2)c(N2CCC(C)CC2)n1
REMARK SMILES IDX 13 1 12 2 11 3 10 4 8 5 9 6 7 8 6 9 1 10 2 11 3 12 91 13
REMARK SMILES IDX 4 14 83 15 5 16 84 17 85 18 90 19 86 20 89 21 87 22 88 23
REMARK SMILES IDX 14 24 15 25 16 26 17 27 18 28 19 30 20 31 21 32 82 33 22 34
REMARK SMILES IDX 81 35 23 36 24 37 25 38 75 39 26 40 80 41 74 42 76 43 27 44
REMARK SMILES IDX 79 45 73 46 72 47 28 49 60 50 40 51 59 52 41 53 44 54 58 55
REMARK SMILES IDX 77 56 42 57 43 58 57 60 78 61 45 62 29 63 30 64 38 65 31 66
REMARK SMILES IDX 32 67 36 68 39 69 33 70 34 71 37 72 35 73 61 74 62 75 70 76
REMARK SMILES IDX 63 77 64 78 68 79 71 80 65 81 66 82 69 83 67 84 46 85 47 86
REMARK SMILES IDX 55 87 48 88 49 89 53 90 56 91 50 92 51 93 54 94 52 95
REMARK H PARENT 10 7 17 29 76 48 44 59
REMARK Flexibility Score: inf
ROOT
ATOM      1  C   UNL A   1      32.573  29.420  26.940  1.00  0.00     0.002 C 
ENDROOT
BRANCH   1   2
ATOM      2  C   UNL A   1      31.788  28.156  27.312  1.00  0.00     0.021 C 
BRANCH   2   3
ATOM      3  C   UNL A   1      32.193  26.925  26.511  1.00  0.00     0.116 C 
BRANCH   3   4
ATOM      4  N   UNL A   1      31.400  25.767  26.849  1.00  0.00    -0.355 N 
ATOM      5  C   UNL A   1      31.700  24.442  26.734  1.00  0.00     0.240 C 
ATOM      6  O   UNL A   1      30.964  23.656  27.341  1.00  0.00    -0.273 OA
ATOM      7  H   UNL A   1      30.509  25.963  27.215  1.00  0.00     0.163 HD
BRANCH   5   8
ATOM      8  C   UNL A   1      33.009  23.950  26.098  1.00  0.00     0.229 C 
BRANCH   8   9
ATOM      9  N   UNL A   1      32.948  22.691  25.357  1.00  0.00    -0.269 N 
ATOM     10  C   UNL A   1      32.525  18.939  23.508  1.00  0.00     0.067 C 
ATOM     11  C   UNL A   1      32.716  20.257  24.200  1.00  0.00     0.047 A 
ATOM     12  C   UNL A   1      33.307  20.301  25.395  1.00  0.00     0.095 A 
ATOM     13  N   UNL A   1      32.293  21.368  23.524  1.00  0.00    -0.220 NA
ATOM     14  C   UNL A   1      33.465  21.605  26.040  1.00  0.00     0.255 A 
ATOM     15  C   UNL A   1      32.444  22.548  24.064  1.00  0.00     0.209 A 
ATOM     16  O   UNL A   1      34.014  21.658  27.138  1.00  0.00    -0.269 OA
BRANCH  15  17
ATOM     17  N   UNL A   1      32.048  23.647  23.314  1.00  0.00    -0.342 N 
ATOM     18  C   UNL A   1      33.059  24.496  22.671  1.00  0.00     0.120 C 
ATOM     19  C   UNL A   1      30.651  24.062  23.181  1.00  0.00     0.120 C 
ATOM     20  C   UNL A   1      32.842  25.981  22.936  1.00  0.00     0.025 C 
ATOM     21  C   UNL A   1      30.463  25.545  23.481  1.00  0.00     0.025 C 
ATOM     22  C   UNL A   1      31.402  26.387  22.613  1.00  0.00    -0.011 C 
ATOM     23  C   UNL A   1      31.178  27.878  22.825  1.00  0.00     0.008 C 
ENDBRANCH  15  17
ENDBRANCH   8   9
ENDBRANCH   5   8
ENDBRANCH   3   4
ENDBRANCH   2   3
ENDBRANCH   1   2
BRANCH   1  24
ATOM     24  C   UNL A   1      31.807  30.444  26.092  1.00  0.00     0.002 C 
BRANCH  24  25
ATOM     25  C   UNL A   1      31.505  31.773  26.786  1.00  0.00     0.021 C 
BRANCH  25  26
ATOM     26  C   UNL A   1      32.736  32.543  27.252  1.00  0.00     0.116 C 
BRANCH  26  27
ATOM     27  N   UNL A   1      32.437  33.927  27.588  1.00  0.00    -0.352 N 
ATOM     28  C   UNL A   1      33.018  34.739  28.532  1.00  0.00     0.251 C 
ATOM     29  H   UNL A   1      31.715  34.342  27.063  1.00  0.00     0.163 HD
ATOM     30  O   UNL A   1      32.541  35.839  28.788  1.00  0.00    -0.269 OA
BRANCH  28  31
ATOM     31  C   UNL A   1      34.206  34.261  29.271  1.00  0.00     0.039 A 
ATOM     32  C   UNL A   1      35.492  34.527  28.795  1.00  0.00     0.014 A 
ATOM     33  C   UNL A   1      34.029  33.511  30.437  1.00  0.00     0.014 A 
ATOM     34  C   UNL A   1      36.586  33.905  29.386  1.00  0.00     0.010 A 
ATOM     35  C   UNL A   1      35.137  32.951  31.077  1.00  0.00     0.010 A 
ATOM     36  C   UNL A   1      36.420  33.101  30.527  1.00  0.00    -0.014 A 
BRANCH  36  37
ATOM     37  C   UNL A   1      37.600  32.412  31.110  1.00  0.00     0.031 A 
ATOM     38  C   UNL A   1      38.064  32.735  32.505  1.00  0.00     0.074 A 
ATOM     39  C   UNL A   1      38.213  31.443  30.403  1.00  0.00     0.049 A 
ATOM     40  N   UNL A   1      39.058  32.219  33.185  1.00  0.00    -0.248 NA
ATOM     41  C   UNL A   1      37.316  33.770  33.236  1.00  0.00     0.031 C 
ATOM     42  C   UNL A   1      37.841  31.026  29.051  1.00  0.00     0.029 A 
ATOM     43  N   UNL A   1      39.254  30.612  30.734  1.00  0.00    -0.354 N 
ATOM     44  C   UNL A   1      39.062  32.873  34.410  1.00  0.00     0.074 A 
ATOM     45  C   UNL A   1      37.992  33.847  34.374  1.00  0.00     0.031 C 
ATOM     46  C   UNL A   1      38.602  29.983  28.688  1.00  0.00     0.029 A 
ATOM     47  C   UNL A   1      39.555  29.697  29.756  1.00  0.00     0.049 A 
ATOM     48  H   UNL A   1      39.738  30.667  31.589  1.00  0.00     0.167 HD
ATOM     49  C   UNL A   1      39.875  32.668  35.475  1.00  0.00     0.037 A 
ATOM     50  C   UNL A   1      40.501  28.739  29.717  1.00  0.00     0.037 A 
ATOM     51  C   UNL A   1      40.925  31.683  35.518  1.00  0.00     0.049 A 
ATOM     52  C   UNL A   1      41.422  28.571  30.891  1.00  0.00     0.074 A 
ATOM     53  C   UNL A   1      41.794  31.396  36.555  1.00  0.00     0.029 A 
ATOM     54  N   UNL A   1      41.242  30.821  34.479  1.00  0.00    -0.354 N 
ATOM     55  N   UNL A   1      41.419  29.201  32.041  1.00  0.00    -0.248 NA
ATOM     56  C   UNL A   1      42.490  27.570  30.758  1.00  0.00     0.031 C 
ATOM     57  C   UNL A   1      42.663  30.385  36.132  1.00  0.00     0.029 A 
ATOM     58  C   UNL A   1      42.307  30.013  34.847  1.00  0.00     0.049 A 
ATOM     59  H   UNL A   1      40.780  30.787  33.611  1.00  0.00     0.167 HD
ATOM     60  C   UNL A   1      42.471  28.667  32.770  1.00  0.00     0.074 A 
ATOM     61  C   UNL A   1      43.078  27.645  31.943  1.00  0.00     0.031 C 
ATOM     62  C   UNL A   1      42.899  28.999  34.012  1.00  0.00     0.037 A 
BRANCH  49  63
ATOM     63  C   UNL A   1      39.670  33.522  36.692  1.00  0.00     0.064 A 
ATOM     64  C   UNL A   1      40.279  34.779  36.813  1.00  0.00     0.173 A 
ATOM     65  C   UNL A   1      38.793  33.115  37.707  1.00  0.00     0.173 A 
ATOM     66  F   UNL A   1      41.135  35.208  35.874  1.00  0.00    -0.203 F 
ATOM     67  C   UNL A   1      40.023  35.595  37.913  1.00  0.00     0.198 A 
ATOM     68  C   UNL A   1      38.521  33.943  38.794  1.00  0.00     0.198 A 
ATOM     69  F   UNL A   1      38.180  31.923  37.635  1.00  0.00    -0.203 F 
ATOM     70  F   UNL A   1      40.636  36.781  38.022  1.00  0.00    -0.200 F 
ATOM     71  C   UNL A   1      39.137  35.181  38.896  1.00  0.00     0.200 A 
ATOM     72  F   UNL A   1      37.654  33.546  39.737  1.00  0.00    -0.200 F 
ATOM     73  F   UNL A   1      38.879  35.975  39.945  1.00  0.00    -0.200 F 
ENDBRANCH  49  63
BRANCH  50  74
ATOM     74  C   UNL A   1      40.613  27.863  28.524  1.00  0.00     0.064 A 
ATOM     75  C   UNL A   1      39.930  26.641  28.463  1.00  0.00     0.173 A 
ATOM     76  C   UNL A   1      41.386  28.236  27.415  1.00  0.00     0.173 A 
ATOM     77  F   UNL A   1      39.195  26.232  29.508  1.00  0.00    -0.203 F 
ATOM     78  C   UNL A   1      40.019  25.823  27.339  1.00  0.00     0.198 A 
ATOM     79  C   UNL A   1      41.453  27.430  26.280  1.00  0.00     0.198 A 
ATOM     80  F   UNL A   1      42.059  29.396  27.424  1.00  0.00    -0.203 F 
ATOM     81  F   UNL A   1      39.382  24.644  27.319  1.00  0.00    -0.200 F 
ATOM     82  C   UNL A   1      40.774  26.222  26.246  1.00  0.00     0.200 A 
ATOM     83  F   UNL A   1      42.171  27.827  25.220  1.00  0.00    -0.200 F 
ATOM     84  F   UNL A   1      40.850  25.440  25.160  1.00  0.00    -0.200 F 
ENDBRANCH  50  74
BRANCH  62  85
ATOM     85  C   UNL A   1      44.072  28.247  34.563  1.00  0.00     0.064 A 
ATOM     86  C   UNL A   1      45.379  28.742  34.440  1.00  0.00     0.173 A 
ATOM     87  C   UNL A   1      43.884  27.053  35.275  1.00  0.00     0.173 A 
ATOM     88  F   UNL A   1      45.611  29.872  33.754  1.00  0.00    -0.203 F 
ATOM     89  C   UNL A   1      46.456  28.062  35.000  1.00  0.00     0.198 A 
ATOM     90  C   UNL A   1      44.961  26.389  35.856  1.00  0.00     0.198 A 
ATOM     91  F   UNL A   1      42.652  26.543  35.426  1.00  0.00    -0.203 F 
ATOM     92  F   UNL A   1      47.700  28.536  34.842  1.00  0.00    -0.200 F 
ATOM     93  C   UNL A   1      46.245  26.892  35.714  1.00  0.00     0.200 A 
ATOM     94  F   UNL A   1      44.754  25.267  36.558  1.00  0.00    -0.200 F 
ATOM     95  F   UNL A   1      47.282  26.246  36.265  1.00  0.00    -0.200 F 
ENDBRANCH  62  85
ENDBRANCH  36  37
ENDBRANCH  28  31
ENDBRANCH  26  27
ENDBRANCH  25  26
ENDBRANCH  24  25
ENDBRANCH   1  24
TORSDOF 15
ENDMDL
MODEL 2
REMARK VINA RESULT:     -12.6      0.338      1.611
REMARK SMILES Cc1cc(=O)n(CC(=O)NCCCCCCNC(=O)c2ccc(-c3c4nc(c(-c5c(F)c(F)c(F)c(F)c5F)c5ccc([nH]5)c(-c5c(F)c(F)c(F)c(F)c5F)c5nc(c(-c6c(F)c(F)c(F)c(F)c6F)c6ccc3[nH]6)C=C5)C=C4)cc2)c(N2CCC(C)CC2)n1
REMARK SMILES IDX 13 1 12 2 11 3 10 4 8 5 9 6 7 8 6 9 1 10 2 11 3 12 91 13
REMARK SMILES IDX 4 14 83 15 5 16 84 17 85 18 90 19 86 20 89 21 87 22 88 23
REMARK SMILES IDX 14 24 15 25 16 26 17 27 18 28 19 30 20 31 21 32 82 33 22 34
REMARK SMILES IDX 81 35 23 36 24 37 25 38 75 39 26 40 80 41 74 42 76 43 27 44
REMARK SMILES IDX 79 45 73 46 72 47 28 49 60 50 40 51 59 52 41 53 44 54 58 55
REMARK SMILES IDX 77 56 42 57 43 58 57 60 78 61 45 62 29 63 30 64 38 65 31 66
REMARK SMILES IDX 32 67 36 68 39 69 33 70 34 71 37 72 35 73 61 74 62 75 70 76
REMARK SMILES IDX 63 77 64 78 68 79 71 80 65 81 66 82 69 83 67 84 46 85 47 86
REMARK SMILES IDX 55 87 48 88 49 89 53 90 56 91 50 92 51 93 54 94 52 95
REMARK H PARENT 10 7 17 29 76 48 44 59
REMARK Flexibility Score: inf
ROOT
ATOM      1  C   UNL A   1      31.804  29.380  26.905  1.00  0.00     0.002 C 
ENDROOT
BRANCH   1   2
ATOM      2  C   UNL A   1      31.407  28.098  26.164  1.00  0.00     0.021 C 
BRANCH   2   3
ATOM      3  C   UNL A   1      32.252  26.887  26.539  1.00  0.00     0.116 C 
BRANCH   3   4
ATOM      4  N   UNL A   1      31.445  25.739  26.877  1.00  0.00    -0.355 N 
ATOM      5  C   UNL A   1      31.722  24.410  26.747  1.00  0.00     0.240 C 
ATOM      6  O   UNL A   1      30.981  23.631  27.357  1.00  0.00    -0.273 OA
ATOM      7  H   UNL A   1      30.562  25.946  27.257  1.00  0.00     0.163 HD
BRANCH   5   8
ATOM      8  C   UNL A   1      33.015  23.903  26.090  1.00  0.00     0.229 C 
BRANCH   8   9
ATOM      9  N   UNL A   1      32.952  22.595  25.438  1.00  0.00    -0.269 N 
ATOM     10  C   UNL A   1      32.526  18.724  23.855  1.00  0.00     0.067 C 
ATOM     11  C   UNL A   1      32.718  20.087  24.453  1.00  0.00     0.047 A 
ATOM     12  C   UNL A   1      33.314  20.214  25.640  1.00  0.00     0.095 A 
ATOM     13  N   UNL A   1      32.292  21.149  23.704  1.00  0.00    -0.220 NA
ATOM     14  C   UNL A   1      33.474  21.560  26.193  1.00  0.00     0.255 A 
ATOM     15  C   UNL A   1      32.444  22.363  24.160  1.00  0.00     0.209 A 
ATOM     16  O   UNL A   1      34.026  21.689  27.282  1.00  0.00    -0.269 OA
BRANCH  15  17
ATOM     17  N   UNL A   1      32.044  23.407  23.337  1.00  0.00    -0.342 N 
ATOM     18  C   UNL A   1      33.043  24.146  22.555  1.00  0.00     0.120 C 
ATOM     19  C   UNL A   1      30.660  23.874  23.255  1.00  0.00     0.120 C 
ATOM     20  C   UNL A   1      32.906  25.657  22.693  1.00  0.00     0.025 C 
ATOM     21  C   UNL A   1      30.554  25.386  23.427  1.00  0.00     0.025 C 
ATOM     22  C   UNL A   1      31.466  26.100  22.426  1.00  0.00    -0.011 C 
ATOM     23  C   UNL A   1      31.319  27.613  22.511  1.00  0.00     0.008 C 
ENDBRANCH  15  17
ENDBRANCH   8   9
ENDBRANCH   5   8
ENDBRANCH   3   4
ENDBRANCH   2   3
ENDBRANCH   1   2
BRANCH   1  24
ATOM     24  C   UNL A   1      31.775  30.662  26.063  1.00  0.00     0.002 C 
BRANCH  24  25
ATOM     25  C   UNL A   1      31.462  31.945  26.834  1.00  0.00     0.021 C 
BRANCH  25  26
ATOM     26  C   UNL A   1      32.685  32.742  27.271  1.00  0.00     0.116 C 
BRANCH  26  27
ATOM     27  N   UNL A   1      32.366  34.121  27.607  1.00  0.00    -0.352 N 
ATOM     28  C   UNL A   1      32.935  34.943  28.550  1.00  0.00     0.251 C 
ATOM     29  H   UNL A   1      31.637  34.525  27.082  1.00  0.00     0.163 HD
ATOM     30  O   UNL A   1      32.441  36.036  28.806  1.00  0.00    -0.269 OA
BRANCH  28  31
ATOM     31  C   UNL A   1      34.131  34.484  29.288  1.00  0.00     0.039 A 
ATOM     32  C   UNL A   1      35.404  34.617  28.730  1.00  0.00     0.014 A 
ATOM     33  C   UNL A   1      33.971  33.885  30.541  1.00  0.00     0.014 A 
ATOM     34  C   UNL A   1      36.491  34.003  29.343  1.00  0.00     0.010 A 
ATOM     35  C   UNL A   1      35.078  33.338  31.195  1.00  0.00     0.010 A 
ATOM     36  C   UNL A   1      36.339  33.347  30.576  1.00  0.00    -0.014 A 
BRANCH  36  37
ATOM     37  C   UNL A   1      37.507  32.661  31.185  1.00  0.00     0.031 A 
ATOM     38  C   UNL A   1      37.962  33.013  32.576  1.00  0.00     0.074 A 
ATOM     39  C   UNL A   1      38.116  31.669  30.507  1.00  0.00     0.049 A 
ATOM     40  N   UNL A   1      38.946  32.504  33.276  1.00  0.00    -0.248 NA
ATOM     41  C   UNL A   1      37.219  34.073  33.276  1.00  0.00     0.031 C 
ATOM     42  C   UNL A   1      37.751  31.224  29.162  1.00  0.00     0.029 A 
ATOM     43  N   UNL A   1      39.147  30.837  30.866  1.00  0.00    -0.354 N 
ATOM     44  C   UNL A   1      38.947  33.188  34.486  1.00  0.00     0.074 A 
ATOM     45  C   UNL A   1      37.886  34.170  34.418  1.00  0.00     0.031 C 
ATOM     46  C   UNL A   1      38.505  30.166  28.831  1.00  0.00     0.029 A 
ATOM     47  C   UNL A   1      39.447  29.896  29.913  1.00  0.00     0.049 A 
ATOM     48  H   UNL A   1      39.624  30.909  31.723  1.00  0.00     0.167 HD
ATOM     49  C   UNL A   1      39.748  33.000  35.561  1.00  0.00     0.037 A 
ATOM     50  C   UNL A   1      40.384  28.928  29.905  1.00  0.00     0.037 A 
ATOM     51  C   UNL A   1      40.788  32.007  35.637  1.00  0.00     0.049 A 
ATOM     52  C   UNL A   1      41.294  28.781  31.090  1.00  0.00     0.074 A 
ATOM     53  C   UNL A   1      41.647  31.736  36.688  1.00  0.00     0.029 A 
ATOM     54  N   UNL A   1      41.106  31.117  34.622  1.00  0.00    -0.354 N 
ATOM     55  N   UNL A   1      41.287  29.437  32.225  1.00  0.00    -0.248 NA
ATOM     56  C   UNL A   1      42.353  27.766  30.990  1.00  0.00     0.031 C 
ATOM     57  C   UNL A   1      42.509  30.708  36.297  1.00  0.00     0.029 A 
ATOM     58  C   UNL A   1      42.160  30.308  35.018  1.00  0.00     0.049 A 
ATOM     59  H   UNL A   1      40.651  31.067  33.750  1.00  0.00     0.167 HD
ATOM     60  C   UNL A   1      42.328  28.912  32.975  1.00  0.00     0.074 A 
ATOM     61  C   UNL A   1      42.932  27.864  32.178  1.00  0.00     0.031 C 
ATOM     62  C   UNL A   1      42.749  29.269  34.212  1.00  0.00     0.037 A 
BRANCH  49  63
ATOM     63  C   UNL A   1      39.542  33.885  36.756  1.00  0.00     0.064 A 
ATOM     64  C   UNL A   1      38.761  33.471  37.845  1.00  0.00     0.173 A 
ATOM     65  C   UNL A   1      40.196  35.122  36.848  1.00  0.00     0.173 A 
ATOM     66  F   UNL A   1      38.106  32.302  37.801  1.00  0.00    -0.203 F 
ATOM     67  C   UNL A   1      38.637  34.269  38.980  1.00  0.00     0.198 A 
ATOM     68  C   UNL A   1      40.090  35.906  37.994  1.00  0.00     0.198 A 
ATOM     69  F   UNL A   1      40.961  35.559  35.835  1.00  0.00    -0.203 F 
ATOM     70  F   UNL A   1      37.865  33.867  39.999  1.00  0.00    -0.200 F 
ATOM     71  C   UNL A   1      39.309  35.480  39.058  1.00  0.00     0.200 A 
ATOM     72  F   UNL A   1      40.750  37.070  38.072  1.00  0.00    -0.200 F 
ATOM     73  F   UNL A   1      39.202  36.238  40.158  1.00  0.00    -0.200 F 
ENDBRANCH  49  63
BRANCH  50  74
ATOM     74  C   UNL A   1      40.497  28.023  28.734  1.00  0.00     0.064 A 
ATOM     75  C   UNL A   1      39.817  26.798  28.704  1.00  0.00     0.173 A 
ATOM     76  C   UNL A   1      41.267  28.371  27.615  1.00  0.00     0.173 A 
ATOM     77  F   UNL A   1      39.085  26.414  29.760  1.00  0.00    -0.203 F 
ATOM     78  C   UNL A   1      39.908  25.952  27.602  1.00  0.00     0.198 A 
ATOM     79  C   UNL A   1      41.336  27.537  26.501  1.00  0.00     0.198 A 
ATOM     80  F   UNL A   1      41.937  29.533  27.595  1.00  0.00    -0.203 F 
ATOM     81  F   UNL A   1      39.274  24.772  27.612  1.00  0.00    -0.200 F 
ATOM     82  C   UNL A   1      40.660  26.326  26.497  1.00  0.00     0.200 A 
ATOM     83  F   UNL A   1      42.051  27.909  25.431  1.00  0.00    -0.200 F 
ATOM     84  F   UNL A   1      40.737  25.517  25.432  1.00  0.00    -0.200 F 
ENDBRANCH  50  74
BRANCH  62  85
ATOM     85  C   UNL A   1      43.911  28.519  34.791  1.00  0.00     0.064 A 
ATOM     86  C   UNL A   1      43.726  27.321  35.496  1.00  0.00     0.173 A 
ATOM     87  C   UNL A   1      45.224  28.967  34.583  1.00  0.00     0.173 A 
ATOM     88  F   UNL A   1      42.488  26.860  35.733  1.00  0.00    -0.203 F 
ATOM     89  C   UNL A   1      44.816  26.606  35.984  1.00  0.00     0.198 A 
ATOM     90  C   UNL A   1      46.312  28.235  35.050  1.00  0.00     0.198 A 
ATOM     91  F   UNL A   1      45.451  30.104  33.907  1.00  0.00    -0.203 F 
ATOM     92  F   UNL A   1      44.615  25.480  36.684  1.00  0.00    -0.200 F 
ATOM     93  C   UNL A   1      46.106  27.058  35.754  1.00  0.00     0.200 A 
ATOM     94  F   UNL A   1      47.558  28.666  34.815  1.00  0.00    -0.200 F 
ATOM     95  F   UNL A   1      47.154  26.360  36.213  1.00  0.00    -0.200 F 
ENDBRANCH  62  85
ENDBRANCH  36  37
ENDBRANCH  28  31
ENDBRANCH  26  27
ENDBRANCH  25  26
ENDBRANCH  24  25
ENDBRANCH   1  24
TORSDOF 15
ENDMDL
MODEL 3
REMARK VINA RESULT:     -12.6      0.291      1.601
REMARK SMILES Cc1cc(=O)n(CC(=O)NCCCCCCNC(=O)c2ccc(-c3c4nc(c(-c5c(F)c(F)c(F)c(F)c5F)c5ccc([nH]5)c(-c5c(F)c(F)c(F)c(F)c5F)c5nc(c(-c6c(F)c(F)c(F)c(F)c6F)c6ccc3[nH]6)C=C5)C=C4)cc2)c(N2CCC(C)CC2)n1
REMARK SMILES IDX 13 1 12 2 11 3 10 4 8 5 9 6 7 8 6 9 1 10 2 11 3 12 91 13
REMARK SMILES IDX 4 14 83 15 5 16 84 17 85 18 90 19 86 20 89 21 87 22 88 23
REMARK SMILES IDX 14 24 15 25 16 26 17 27 18 28 19 30 20 31 21 32 82 33 22 34
REMARK SMILES IDX 81 35 23 36 24 37 25 38 75 39 26 40 80 41 74 42 76 43 27 44
REMARK SMILES IDX 79 45 73 46 72 47 28 49 60 50 40 51 59 52 41 53 44 54 58 55
REMARK SMILES IDX 77 56 42 57 43 58 57 60 78 61 45 62 29 63 30 64 38 65 31 66
REMARK SMILES IDX 32 67 36 68 39 69 33 70 34 71 37 72 35 73 61 74 62 75 70 76
REMARK SMILES IDX 63 77 64 78 68 79 71 80 65 81 66 82 69 83 67 84 46 85 47 86
REMARK SMILES IDX 55 87 48 88 49 89 53 90 56 91 50 92 51 93 54 94 52 95
REMARK H PARENT 10 7 17 29 76 48 44 59
REMARK Flexibility Score: inf
ROOT
ATOM      1  C   UNL A   1      32.485  29.645  26.930  1.00  0.00     0.002 C 
ENDROOT
BRANCH   1   2
ATOM      2  C   UNL A   1      31.703  28.377  27.293  1.00  0.00     0.021 C 
BRANCH   2   3
ATOM      3  C   UNL A   1      32.216  27.121  26.599  1.00  0.00     0.116 C 
BRANCH   3   4
ATOM      4  N   UNL A   1      31.389  25.970  26.869  1.00  0.00    -0.355 N 
ATOM      5  C   UNL A   1      31.664  24.644  26.713  1.00  0.00     0.240 C 
ATOM      6  O   UNL A   1      30.893  23.853  27.268  1.00  0.00    -0.273 OA
ATOM      7  H   UNL A   1      30.492  26.172  27.218  1.00  0.00     0.163 HD
BRANCH   5   8
ATOM      8  C   UNL A   1      32.980  24.147  26.095  1.00  0.00     0.229 C 
BRANCH   8   9
ATOM      9  N   UNL A   1      32.935  22.862  25.398  1.00  0.00    -0.269 N 
ATOM     10  C   UNL A   1      32.566  19.043  23.679  1.00  0.00     0.067 C 
ATOM     11  C   UNL A   1      32.739  20.387  24.325  1.00  0.00     0.047 A 
ATOM     12  C   UNL A   1      33.342  20.483  25.511  1.00  0.00     0.095 A 
ATOM     13  N   UNL A   1      32.287  21.467  23.617  1.00  0.00    -0.220 NA
ATOM     14  C   UNL A   1      33.482  21.810  26.111  1.00  0.00     0.255 A 
ATOM     15  C   UNL A   1      32.420  22.667  24.115  1.00  0.00     0.209 A 
ATOM     16  O   UNL A   1      34.041  21.910  27.199  1.00  0.00    -0.269 OA
BRANCH  15  17
ATOM     17  N   UNL A   1      31.995  23.732  23.334  1.00  0.00    -0.342 N 
ATOM     18  C   UNL A   1      32.979  24.554  22.619  1.00  0.00     0.120 C 
ATOM     19  C   UNL A   1      30.593  24.140  23.235  1.00  0.00     0.120 C 
ATOM     20  C   UNL A   1      32.769  26.049  22.827  1.00  0.00     0.025 C 
ATOM     21  C   UNL A   1      30.413  25.635  23.478  1.00  0.00     0.025 C 
ATOM     22  C   UNL A   1      31.317  26.439  22.540  1.00  0.00    -0.011 C 
ATOM     23  C   UNL A   1      31.098  27.938  22.696  1.00  0.00     0.008 C 
ENDBRANCH  15  17
ENDBRANCH   8   9
ENDBRANCH   5   8
ENDBRANCH   3   4
ENDBRANCH   2   3
ENDBRANCH   1   2
BRANCH   1  24
ATOM     24  C   UNL A   1      31.728  30.659  26.061  1.00  0.00     0.002 C 
BRANCH  24  25
ATOM     25  C   UNL A   1      31.403  31.989  26.742  1.00  0.00     0.021 C 
BRANCH  25  26
ATOM     26  C   UNL A   1      32.613  32.738  27.288  1.00  0.00     0.116 C 
BRANCH  26  27
ATOM     27  N   UNL A   1      32.316  34.127  27.607  1.00  0.00    -0.352 N 
ATOM     28  C   UNL A   1      32.910  34.955  28.529  1.00  0.00     0.251 C 
ATOM     29  H   UNL A   1      31.585  34.532  27.086  1.00  0.00     0.163 HD
ATOM     30  O   UNL A   1      32.433  36.059  28.775  1.00  0.00    -0.269 OA
BRANCH  28  31
ATOM     31  C   UNL A   1      34.110  34.492  29.257  1.00  0.00     0.039 A 
ATOM     32  C   UNL A   1      35.377  34.610  28.684  1.00  0.00     0.014 A 
ATOM     33  C   UNL A   1      33.959  33.905  30.516  1.00  0.00     0.014 A 
ATOM     34  C   UNL A   1      36.466  33.992  29.289  1.00  0.00     0.010 A 
ATOM     35  C   UNL A   1      35.069  33.354  31.162  1.00  0.00     0.010 A 
ATOM     36  C   UNL A   1      36.322  33.347  30.529  1.00  0.00    -0.014 A 
BRANCH  36  37
ATOM     37  C   UNL A   1      37.492  32.656  31.131  1.00  0.00     0.031 A 
ATOM     38  C   UNL A   1      37.962  33.011  32.516  1.00  0.00     0.074 A 
ATOM     39  C   UNL A   1      38.088  31.658  30.451  1.00  0.00     0.049 A 
ATOM     40  N   UNL A   1      38.949  32.499  33.209  1.00  0.00    -0.248 NA
ATOM     41  C   UNL A   1      37.232  34.078  33.218  1.00  0.00     0.031 C 
ATOM     42  C   UNL A   1      37.708  31.210  29.112  1.00  0.00     0.029 A 
ATOM     43  N   UNL A   1      39.117  30.821  30.805  1.00  0.00    -0.354 N 
ATOM     44  C   UNL A   1      38.965  33.187  34.416  1.00  0.00     0.074 A 
ATOM     45  C   UNL A   1      37.910  34.176  34.353  1.00  0.00     0.031 C 
ATOM     46  C   UNL A   1      38.452  30.145  28.778  1.00  0.00     0.029 A 
ATOM     47  C   UNL A   1      39.402  29.873  29.852  1.00  0.00     0.049 A 
ATOM     48  H   UNL A   1      39.603  30.893  31.657  1.00  0.00     0.167 HD
ATOM     49  C   UNL A   1      39.775  32.999  35.485  1.00  0.00     0.037 A 
ATOM     50  C   UNL A   1      40.333  28.900  29.840  1.00  0.00     0.037 A 
ATOM     51  C   UNL A   1      40.809  32.000  35.555  1.00  0.00     0.049 A 
ATOM     52  C   UNL A   1      41.253  28.751  31.018  1.00  0.00     0.074 A 
ATOM     53  C   UNL A   1      41.676  31.728  36.600  1.00  0.00     0.029 A 
ATOM     54  N   UNL A   1      41.112  31.103  34.541  1.00  0.00    -0.354 N 
ATOM     55  N   UNL A   1      41.261  29.413  32.149  1.00  0.00    -0.248 NA
ATOM     56  C   UNL A   1      42.304  27.730  30.912  1.00  0.00     0.031 C 
ATOM     57  C   UNL A   1      42.528  30.692  36.205  1.00  0.00     0.029 A 
ATOM     58  C   UNL A   1      42.165  30.290  34.931  1.00  0.00     0.049 A 
ATOM     59  H   UNL A   1      40.649  31.053  33.674  1.00  0.00     0.167 HD
ATOM     60  C   UNL A   1      42.305  28.883  32.893  1.00  0.00     0.074 A 
ATOM     61  C   UNL A   1      42.895  27.829  32.094  1.00  0.00     0.031 C 
ATOM     62  C   UNL A   1      42.739  29.244  34.124  1.00  0.00     0.037 A 
BRANCH  49  63
ATOM     63  C   UNL A   1      39.585  33.890  36.678  1.00  0.00     0.064 A 
ATOM     64  C   UNL A   1      38.792  33.495  37.765  1.00  0.00     0.173 A 
ATOM     65  C   UNL A   1      40.266  35.112  36.769  1.00  0.00     0.173 A 
ATOM     66  F   UNL A   1      38.112  32.341  37.721  1.00  0.00    -0.203 F 
ATOM     67  C   UNL A   1      38.683  34.298  38.899  1.00  0.00     0.198 A 
ATOM     68  C   UNL A   1      40.174  35.900  37.914  1.00  0.00     0.198 A 
ATOM     69  F   UNL A   1      41.043  35.531  35.758  1.00  0.00    -0.203 F 
ATOM     70  F   UNL A   1      37.900  33.914  39.916  1.00  0.00    -0.200 F 
ATOM     71  C   UNL A   1      39.381  35.494  38.976  1.00  0.00     0.200 A 
ATOM     72  F   UNL A   1      40.859  37.050  37.992  1.00  0.00    -0.200 F 
ATOM     73  F   UNL A   1      39.288  36.255  40.075  1.00  0.00    -0.200 F 
ENDBRANCH  49  63
BRANCH  50  74
ATOM     74  C   UNL A   1      40.430  27.989  28.672  1.00  0.00     0.064 A 
ATOM     75  C   UNL A   1      41.199  28.336  27.553  1.00  0.00     0.173 A 
ATOM     76  C   UNL A   1      39.776  26.748  28.657  1.00  0.00     0.173 A 
ATOM     77  F   UNL A   1      41.825  29.521  27.513  1.00  0.00    -0.203 F 
ATOM     78  C   UNL A   1      41.306  27.478  26.461  1.00  0.00     0.198 A 
ATOM     79  C   UNL A   1      39.906  25.879  27.576  1.00  0.00     0.198 A 
ATOM     80  F   UNL A   1      39.028  26.370  29.705  1.00  0.00    -0.203 F 
ATOM     81  F   UNL A   1      42.021  27.847  25.389  1.00  0.00    -0.200 F 
ATOM     82  C   UNL A   1      40.666  26.247  26.477  1.00  0.00     0.200 A 
ATOM     83  F   UNL A   1      39.299  24.685  27.603  1.00  0.00    -0.200 F 
ATOM     84  F   UNL A   1      40.779  25.418  25.431  1.00  0.00    -0.200 F 
ENDBRANCH  50  74
BRANCH  62  85
ATOM     85  C   UNL A   1      43.902  28.488  34.695  1.00  0.00     0.064 A 
ATOM     86  C   UNL A   1      45.218  28.945  34.533  1.00  0.00     0.173 A 
ATOM     87  C   UNL A   1      43.694  27.335  35.465  1.00  0.00     0.173 A 
ATOM     88  F   UNL A   1      45.468  30.035  33.792  1.00  0.00    -0.203 F 
ATOM     89  C   UNL A   1      46.285  28.264  35.111  1.00  0.00     0.198 A 
ATOM     90  C   UNL A   1      44.762  26.672  36.064  1.00  0.00     0.198 A 
ATOM     91  F   UNL A   1      42.452  26.863  35.656  1.00  0.00    -0.203 F 
ATOM     92  F   UNL A   1      47.538  28.699  34.915  1.00  0.00    -0.200 F 
ATOM     93  C   UNL A   1      46.056  27.135  35.882  1.00  0.00     0.200 A 
ATOM     94  F   UNL A   1      44.537  25.589  36.820  1.00  0.00    -0.200 F 
ATOM     95  F   UNL A   1      47.085  26.490  36.450  1.00  0.00    -0.200 F 
ENDBRANCH  62  85
ENDBRANCH  36  37
ENDBRANCH  28  31
ENDBRANCH  26  27
ENDBRANCH  25  26
ENDBRANCH  24  25
ENDBRANCH   1  24
TORSDOF 15
ENDMDL
