MODEL 1
REMARK VINA RESULT:     -11.6      0.000      0.000
REMARK SMILES Cc1cscc1-c1nnnn1C[C@@H](C)C(=O)NCCCCCCNC(=O)c1ccc(-c2c3nc(c(-c4c(F)c(F)c(F)c(F)c4F)c4ccc([nH]4)c(-c4c(F)c(F)c(F)c(F)c4F)c4nc(c(-c5c(F)c(F)c(F)c(F)c5F)c5ccc2[nH]5)C=C4)C=C3)cc1
REMARK SMILES IDX 20 1 19 2 18 3 17 4 15 5 16 6 13 8 14 9 12 10 11 11 7 12
REMARK SMILES IDX 8 13 9 14 10 15 6 16 1 17 2 18 3 19 4 20 5 21 21 22 22 23
REMARK SMILES IDX 23 24 24 25 25 26 26 28 27 29 28 30 89 31 29 32 88 33 30 34
REMARK SMILES IDX 31 35 32 36 82 37 33 38 87 39 81 40 83 41 34 42 86 43 80 44
REMARK SMILES IDX 79 45 35 47 67 48 47 49 66 50 48 51 51 52 65 53 84 54 49 55
REMARK SMILES IDX 50 56 64 58 85 59 52 60 36 61 37 62 45 63 38 64 39 65 43 66
REMARK SMILES IDX 46 67 40 68 41 69 44 70 42 71 68 72 69 73 77 74 70 75 71 76
REMARK SMILES IDX 75 77 78 78 72 79 73 80 76 81 74 82 53 83 54 84 62 85 55 86
REMARK SMILES IDX 56 87 60 88 63 89 57 90 58 91 61 92 59 93
REMARK H PARENT 17 7 24 27 83 46 51 57
REMARK Flexibility Score: inf
ROOT
ATOM      1  C   UNL A   1      40.375  22.293  26.354  1.00  0.00     0.002 C 
ENDROOT
BRANCH   1   2
ATOM      2  C   UNL A   1      38.941  22.819  26.475  1.00  0.00     0.021 C 
BRANCH   2   3
ATOM      3  C   UNL A   1      37.901  21.956  25.763  1.00  0.00     0.116 C 
BRANCH   3   4
ATOM      4  N   UNL A   1      37.458  22.581  24.529  1.00  0.00    -0.356 N 
ATOM      5  C   UNL A   1      36.213  22.794  24.025  1.00  0.00     0.224 C 
ATOM      6  O   UNL A   1      36.127  23.311  22.910  1.00  0.00    -0.275 OA
ATOM      7  H   UNL A   1      38.188  22.908  23.956  1.00  0.00     0.163 HD
BRANCH   5   8
ATOM      8  C   UNL A   1      34.961  22.403  24.793  1.00  0.00     0.097 C 
ATOM      9  C   UNL A   1      33.832  22.052  23.827  1.00  0.00     0.020 C 
BRANCH   8  10
ATOM     10  C   UNL A   1      34.685  23.451  25.879  1.00  0.00     0.161 C 
BRANCH  10  11
ATOM     11  N   UNL A   1      33.332  23.531  26.366  1.00  0.00    -0.225 N 
ATOM     12  C   UNL A   1      32.359  24.444  26.072  1.00  0.00     0.183 A 
ATOM     13  N   UNL A   1      31.401  24.299  26.964  1.00  0.00    -0.108 NA
ATOM     14  N   UNL A   1      31.716  23.169  27.681  1.00  0.00    -0.023 NA
ATOM     15  N   UNL A   1      32.880  22.669  27.292  1.00  0.00    -0.045 NA
BRANCH  12  16
ATOM     16  C   UNL A   1      32.378  25.466  24.989  1.00  0.00     0.034 A 
ATOM     17  C   UNL A   1      33.856  27.301  26.142  1.00  0.00     0.046 C 
ATOM     18  C   UNL A   1      32.988  26.770  25.045  1.00  0.00    -0.029 A 
ATOM     19  C   UNL A   1      32.729  27.467  23.878  1.00  0.00     0.069 A 
ATOM     20  S   UNL A   1      31.849  26.555  22.732  1.00  0.00    -0.151 S 
ATOM     21  C   UNL A   1      31.810  25.196  23.764  1.00  0.00     0.077 A 
ENDBRANCH  12  16
ENDBRANCH  10  11
ENDBRANCH   8  10
ENDBRANCH   5   8
ENDBRANCH   3   4
ENDBRANCH   2   3
ENDBRANCH   1   2
BRANCH   1  22
ATOM     22  C   UNL A   1      40.882  21.460  27.542  1.00  0.00     0.002 C 
BRANCH  22  23
ATOM     23  C   UNL A   1      41.809  20.281  27.212  1.00  0.00     0.021 C 
BRANCH  23  24
ATOM     24  C   UNL A   1      41.946  19.998  25.725  1.00  0.00     0.116 C 
BRANCH  24  25
ATOM     25  N   UNL A   1      43.328  19.725  25.326  1.00  0.00    -0.352 N 
ATOM     26  C   UNL A   1      44.330  20.624  24.994  1.00  0.00     0.251 C 
ATOM     27  H   UNL A   1      43.581  18.773  25.289  1.00  0.00     0.163 HD
ATOM     28  O   UNL A   1      45.302  20.285  24.344  1.00  0.00    -0.269 OA
BRANCH  26  29
ATOM     29  C   UNL A   1      44.194  22.011  25.467  1.00  0.00     0.039 A 
ATOM     30  C   UNL A   1      43.463  22.978  24.771  1.00  0.00     0.014 A 
ATOM     31  C   UNL A   1      44.804  22.315  26.676  1.00  0.00     0.014 A 
ATOM     32  C   UNL A   1      43.299  24.235  25.350  1.00  0.00     0.010 A 
ATOM     33  C   UNL A   1      44.437  23.444  27.344  1.00  0.00     0.010 A 
ATOM     34  C   UNL A   1      43.788  24.451  26.647  1.00  0.00    -0.014 A 
BRANCH  34  35
ATOM     35  C   UNL A   1      43.620  25.712  27.349  1.00  0.00     0.031 A 
ATOM     36  C   UNL A   1      44.574  26.783  26.969  1.00  0.00     0.074 A 
ATOM     37  C   UNL A   1      42.507  25.959  28.078  1.00  0.00     0.049 A 
ATOM     38  N   UNL A   1      45.453  27.365  27.715  1.00  0.00    -0.248 NA
ATOM     39  C   UNL A   1      44.638  27.179  25.553  1.00  0.00     0.031 C 
ATOM     40  C   UNL A   1      41.320  25.107  28.262  1.00  0.00     0.029 A 
ATOM     41  N   UNL A   1      42.151  27.096  28.727  1.00  0.00    -0.354 N 
ATOM     42  C   UNL A   1      46.059  28.331  26.916  1.00  0.00     0.074 A 
ATOM     43  C   UNL A   1      45.652  28.047  25.566  1.00  0.00     0.031 C 
ATOM     44  C   UNL A   1      40.304  25.840  28.765  1.00  0.00     0.029 A 
ATOM     45  C   UNL A   1      40.817  27.150  29.111  1.00  0.00     0.049 A 
ATOM     46  H   UNL A   1      42.787  27.825  28.911  1.00  0.00     0.167 HD
ATOM     47  C   UNL A   1      46.649  29.428  27.471  1.00  0.00     0.037 A 
ATOM     48  C   UNL A   1      40.180  28.214  29.657  1.00  0.00     0.037 A 
ATOM     49  C   UNL A   1      46.892  29.216  28.879  1.00  0.00     0.049 A 
ATOM     50  C   UNL A   1      41.229  29.113  30.200  1.00  0.00     0.074 A 
ATOM     51  C   UNL A   1      47.641  28.316  29.611  1.00  0.00     0.029 A 
ATOM     52  N   UNL A   1      46.011  29.773  29.775  1.00  0.00    -0.354 N 
ATOM     53  N   UNL A   1      42.002  28.799  31.204  1.00  0.00    -0.248 NA
ATOM     54  C   UNL A   1      41.737  30.158  29.324  1.00  0.00     0.031 C 
ATOM     55  C   UNL A   1      46.845  28.024  30.761  1.00  0.00     0.029 A 
ATOM     56  C   UNL A   1      45.694  28.809  30.696  1.00  0.00     0.049 A 
ATOM     57  H   UNL A   1      45.668  30.696  29.757  1.00  0.00     0.167 HD
ATOM     58  C   UNL A   1      43.254  29.284  30.853  1.00  0.00     0.074 A 
ATOM     59  C   UNL A   1      43.010  30.184  29.728  1.00  0.00     0.031 C 
ATOM     60  C   UNL A   1      44.394  28.690  31.316  1.00  0.00     0.037 A 
BRANCH  47  61
ATOM     61  C   UNL A   1      46.656  30.814  26.860  1.00  0.00     0.064 A 
ATOM     62  C   UNL A   1      47.861  31.551  26.869  1.00  0.00     0.173 A 
ATOM     63  C   UNL A   1      45.499  31.564  26.556  1.00  0.00     0.173 A 
ATOM     64  F   UNL A   1      49.030  30.948  27.133  1.00  0.00    -0.203 F 
ATOM     65  C   UNL A   1      47.884  32.939  26.710  1.00  0.00     0.198 A 
ATOM     66  C   UNL A   1      45.534  32.942  26.345  1.00  0.00     0.198 A 
ATOM     67  F   UNL A   1      44.274  31.029  26.555  1.00  0.00    -0.203 F 
ATOM     68  F   UNL A   1      49.033  33.607  26.874  1.00  0.00    -0.200 F 
ATOM     69  C   UNL A   1      46.717  33.636  26.463  1.00  0.00     0.200 A 
ATOM     70  F   UNL A   1      44.388  33.599  26.114  1.00  0.00    -0.200 F 
ATOM     71  F   UNL A   1      46.723  34.972  26.386  1.00  0.00    -0.200 F 
ENDBRANCH  47  61
BRANCH  48  72
ATOM     72  C   UNL A   1      38.774  28.638  29.462  1.00  0.00     0.064 A 
ATOM     73  C   UNL A   1      37.937  28.900  30.557  1.00  0.00     0.173 A 
ATOM     74  C   UNL A   1      38.308  29.060  28.202  1.00  0.00     0.173 A 
ATOM     75  F   UNL A   1      38.326  28.567  31.796  1.00  0.00    -0.203 F 
ATOM     76  C   UNL A   1      36.717  29.568  30.405  1.00  0.00     0.198 A 
ATOM     77  C   UNL A   1      37.088  29.723  28.050  1.00  0.00     0.198 A 
ATOM     78  F   UNL A   1      39.067  28.923  27.104  1.00  0.00    -0.203 F 
ATOM     79  F   UNL A   1      35.973  29.855  31.482  1.00  0.00    -0.200 F 
ATOM     80  C   UNL A   1      36.300  29.989  29.153  1.00  0.00     0.200 A 
ATOM     81  F   UNL A   1      36.714  30.153  26.836  1.00  0.00    -0.200 F 
ATOM     82  F   UNL A   1      35.163  30.684  29.014  1.00  0.00    -0.200 F 
ENDBRANCH  48  72
BRANCH  60  83
ATOM     83  C   UNL A   1      44.252  27.653  32.398  1.00  0.00     0.064 A 
ATOM     84  C   UNL A   1      44.181  26.269  32.159  1.00  0.00     0.173 A 
ATOM     85  C   UNL A   1      44.339  28.066  33.733  1.00  0.00     0.173 A 
ATOM     86  F   UNL A   1      44.197  25.784  30.913  1.00  0.00    -0.203 F 
ATOM     87  C   UNL A   1      44.155  25.348  33.204  1.00  0.00     0.198 A 
ATOM     88  C   UNL A   1      44.350  27.142  34.777  1.00  0.00     0.198 A 
ATOM     89  F   UNL A   1      44.467  29.369  34.025  1.00  0.00    -0.203 F 
ATOM     90  F   UNL A   1      44.077  24.035  32.943  1.00  0.00    -0.200 F 
ATOM     91  C   UNL A   1      44.246  25.786  34.513  1.00  0.00     0.200 A 
ATOM     92  F   UNL A   1      44.488  27.568  36.040  1.00  0.00    -0.200 F 
ATOM     93  F   UNL A   1      44.264  24.901  35.519  1.00  0.00    -0.200 F 
ENDBRANCH  60  83
ENDBRANCH  34  35
ENDBRANCH  26  29
ENDBRANCH  24  25
ENDBRANCH  23  24
ENDBRANCH  22  23
ENDBRANCH   1  22
TORSDOF 16
ENDMDL
MODEL 2
REMARK VINA RESULT:     -11.1      4.697      9.937
REMARK SMILES Cc1cscc1-c1nnnn1C[C@@H](C)C(=O)NCCCCCCNC(=O)c1ccc(-c2c3nc(c(-c4c(F)c(F)c(F)c(F)c4F)c4ccc([nH]4)c(-c4c(F)c(F)c(F)c(F)c4F)c4nc(c(-c5c(F)c(F)c(F)c(F)c5F)c5ccc2[nH]5)C=C4)C=C3)cc1
REMARK SMILES IDX 20 1 19 2 18 3 17 4 15 5 16 6 13 8 14 9 12 10 11 11 7 12
REMARK SMILES IDX 8 13 9 14 10 15 6 16 1 17 2 18 3 19 4 20 5 21 21 22 22 23
REMARK SMILES IDX 23 24 24 25 25 26 26 28 27 29 28 30 89 31 29 32 88 33 30 34
REMARK SMILES IDX 31 35 32 36 82 37 33 38 87 39 81 40 83 41 34 42 86 43 80 44
REMARK SMILES IDX 79 45 35 47 67 48 47 49 66 50 48 51 51 52 65 53 84 54 49 55
REMARK SMILES IDX 50 56 64 58 85 59 52 60 36 61 37 62 45 63 38 64 39 65 43 66
REMARK SMILES IDX 46 67 40 68 41 69 44 70 42 71 68 72 69 73 77 74 70 75 71 76
REMARK SMILES IDX 75 77 78 78 72 79 73 80 76 81 74 82 53 83 54 84 62 85 55 86
REMARK SMILES IDX 56 87 60 88 63 89 57 90 58 91 61 92 59 93
REMARK H PARENT 17 7 24 27 83 46 51 57
REMARK Flexibility Score: inf
ROOT
ATOM      1  C   UNL A   1      33.698  32.649  27.800  1.00  0.00     0.002 C 
ENDROOT
BRANCH   1   2
ATOM      2  C   UNL A   1      34.523  31.460  28.306  1.00  0.00     0.021 C 
BRANCH   2   3
ATOM      3  C   UNL A   1      34.456  30.229  27.403  1.00  0.00     0.116 C 
BRANCH   3   4
ATOM      4  N   UNL A   1      33.476  29.275  27.889  1.00  0.00    -0.356 N 
ATOM      5  C   UNL A   1      32.411  28.689  27.280  1.00  0.00     0.224 C 
ATOM      6  O   UNL A   1      31.704  27.941  27.956  1.00  0.00    -0.275 OA
ATOM      7  H   UNL A   1      33.606  29.004  28.826  1.00  0.00     0.163 HD
BRANCH   5   8
ATOM      8  C   UNL A   1      32.085  28.946  25.817  1.00  0.00     0.097 C 
ATOM      9  C   UNL A   1      31.436  30.319  25.650  1.00  0.00     0.020 C 
BRANCH   8  10
ATOM     10  C   UNL A   1      31.358  27.726  25.238  1.00  0.00     0.161 C 
BRANCH  10  11
ATOM     11  N   UNL A   1      31.606  27.430  23.851  1.00  0.00    -0.225 N 
ATOM     12  C   UNL A   1      30.801  27.631  22.765  1.00  0.00     0.183 A 
ATOM     13  N   UNL A   1      31.311  26.942  21.764  1.00  0.00    -0.108 NA
ATOM     14  N   UNL A   1      32.529  26.479  22.202  1.00  0.00    -0.023 NA
ATOM     15  N   UNL A   1      32.735  26.809  23.469  1.00  0.00    -0.045 NA
BRANCH  12  16
ATOM     16  C   UNL A   1      29.543  28.425  22.710  1.00  0.00     0.034 A 
ATOM     17  C   UNL A   1      27.919  26.761  23.926  1.00  0.00     0.046 C 
ATOM     18  C   UNL A   1      28.241  28.010  23.166  1.00  0.00    -0.029 A 
ATOM     19  C   UNL A   1      27.301  28.983  22.874  1.00  0.00     0.069 A 
ATOM     20  S   UNL A   1      27.978  30.373  22.147  1.00  0.00    -0.151 S 
ATOM     21  C   UNL A   1      29.550  29.713  22.223  1.00  0.00     0.077 A 
ENDBRANCH  12  16
ENDBRANCH  10  11
ENDBRANCH   8  10
ENDBRANCH   5   8
ENDBRANCH   3   4
ENDBRANCH   2   3
ENDBRANCH   1   2
BRANCH   1  22
ATOM     22  C   UNL A   1      34.177  34.035  28.262  1.00  0.00     0.002 C 
BRANCH  22  23
ATOM     23  C   UNL A   1      33.092  35.021  28.722  1.00  0.00     0.021 C 
BRANCH  23  24
ATOM     24  C   UNL A   1      33.588  36.075  29.697  1.00  0.00     0.116 C 
BRANCH  24  25
ATOM     25  N   UNL A   1      32.897  36.020  30.988  1.00  0.00    -0.352 N 
ATOM     26  C   UNL A   1      33.068  35.117  32.026  1.00  0.00     0.251 C 
ATOM     27  H   UNL A   1      32.219  36.718  31.138  1.00  0.00     0.163 HD
ATOM     28  O   UNL A   1      32.211  34.950  32.874  1.00  0.00    -0.269 OA
BRANCH  26  29
ATOM     29  C   UNL A   1      34.334  34.369  32.087  1.00  0.00     0.039 A 
ATOM     30  C   UNL A   1      34.426  33.012  31.764  1.00  0.00     0.014 A 
ATOM     31  C   UNL A   1      35.462  35.092  32.448  1.00  0.00     0.014 A 
ATOM     32  C   UNL A   1      35.685  32.415  31.745  1.00  0.00     0.010 A 
ATOM     33  C   UNL A   1      36.697  34.577  32.189  1.00  0.00     0.010 A 
ATOM     34  C   UNL A   1      36.817  33.217  31.954  1.00  0.00    -0.014 A 
BRANCH  34  35
ATOM     35  C   UNL A   1      38.171  32.692  31.902  1.00  0.00     0.031 A 
ATOM     36  C   UNL A   1      38.891  32.664  33.200  1.00  0.00     0.074 A 
ATOM     37  C   UNL A   1      38.619  32.028  30.812  1.00  0.00     0.049 A 
ATOM     38  N   UNL A   1      39.968  33.299  33.524  1.00  0.00    -0.248 NA
ATOM     39  C   UNL A   1      38.274  31.929  34.316  1.00  0.00     0.031 C 
ATOM     40  C   UNL A   1      37.890  31.686  29.579  1.00  0.00     0.029 A 
ATOM     41  N   UNL A   1      39.813  31.410  30.624  1.00  0.00    -0.354 N 
ATOM     42  C   UNL A   1      40.274  32.903  34.824  1.00  0.00     0.074 A 
ATOM     43  C   UNL A   1      39.111  32.215  35.316  1.00  0.00     0.031 C 
ATOM     44  C   UNL A   1      38.568  30.740  28.894  1.00  0.00     0.029 A 
ATOM     45  C   UNL A   1      39.853  30.549  29.535  1.00  0.00     0.049 A 
ATOM     46  H   UNL A   1      40.587  31.559  31.213  1.00  0.00     0.167 HD
ATOM     47  C   UNL A   1      41.553  32.969  35.292  1.00  0.00     0.037 A 
ATOM     48  C   UNL A   1      40.873  29.722  29.201  1.00  0.00     0.037 A 
ATOM     49  C   UNL A   1      42.357  33.828  34.455  1.00  0.00     0.049 A 
ATOM     50  C   UNL A   1      42.084  30.229  29.895  1.00  0.00     0.074 A 
ATOM     51  C   UNL A   1      42.310  35.162  34.102  1.00  0.00     0.029 A 
ATOM     52  N   UNL A   1      43.185  33.234  33.532  1.00  0.00    -0.354 N 
ATOM     53  N   UNL A   1      42.649  31.373  29.620  1.00  0.00    -0.248 NA
ATOM     54  C   UNL A   1      42.379  29.686  31.213  1.00  0.00     0.031 C 
ATOM     55  C   UNL A   1      42.693  35.193  32.727  1.00  0.00     0.029 A 
ATOM     56  C   UNL A   1      43.015  33.892  32.342  1.00  0.00     0.049 A 
ATOM     57  H   UNL A   1      43.790  32.475  33.697  1.00  0.00     0.167 HD
ATOM     58  C   UNL A   1      43.012  31.894  30.853  1.00  0.00     0.074 A 
ATOM     59  C   UNL A   1      42.898  30.775  31.787  1.00  0.00     0.031 C 
ATOM     60  C   UNL A   1      43.087  33.245  31.052  1.00  0.00     0.037 A 
BRANCH  47  61
ATOM     61  C   UNL A   1      42.178  31.978  36.253  1.00  0.00     0.064 A 
ATOM     62  C   UNL A   1      42.859  32.474  37.386  1.00  0.00     0.173 A 
ATOM     63  C   UNL A   1      42.410  30.616  35.965  1.00  0.00     0.173 A 
ATOM     64  F   UNL A   1      42.711  33.751  37.770  1.00  0.00    -0.203 F 
ATOM     65  C   UNL A   1      43.786  31.703  38.092  1.00  0.00     0.198 A 
ATOM     66  C   UNL A   1      43.297  29.834  36.705  1.00  0.00     0.198 A 
ATOM     67  F   UNL A   1      41.881  30.005  34.900  1.00  0.00    -0.203 F 
ATOM     68  F   UNL A   1      44.514  32.266  39.066  1.00  0.00    -0.200 F 
ATOM     69  C   UNL A   1      44.016  30.387  37.741  1.00  0.00     0.200 A 
ATOM     70  F   UNL A   1      43.509  28.561  36.342  1.00  0.00    -0.200 F 
ATOM     71  F   UNL A   1      44.958  29.668  38.364  1.00  0.00    -0.200 F 
ENDBRANCH  47  61
BRANCH  48  72
ATOM     72  C   UNL A   1      40.796  28.375  28.589  1.00  0.00     0.064 A 
ATOM     73  C   UNL A   1      40.049  27.349  29.188  1.00  0.00     0.173 A 
ATOM     74  C   UNL A   1      41.228  28.147  27.269  1.00  0.00     0.173 A 
ATOM     75  F   UNL A   1      39.565  27.504  30.428  1.00  0.00    -0.203 F 
ATOM     76  C   UNL A   1      39.729  26.176  28.496  1.00  0.00     0.198 A 
ATOM     77  C   UNL A   1      40.913  26.974  26.580  1.00  0.00     0.198 A 
ATOM     78  F   UNL A   1      41.885  29.096  26.584  1.00  0.00    -0.203 F 
ATOM     79  F   UNL A   1      38.962  25.244  29.078  1.00  0.00    -0.200 F 
ATOM     80  C   UNL A   1      40.152  25.994  27.189  1.00  0.00     0.200 A 
ATOM     81  F   UNL A   1      41.301  26.829  25.305  1.00  0.00    -0.200 F 
ATOM     82  F   UNL A   1      39.793  24.900  26.504  1.00  0.00    -0.200 F 
ENDBRANCH  48  72
BRANCH  60  83
ATOM     83  C   UNL A   1      43.001  34.134  29.841  1.00  0.00     0.064 A 
ATOM     84  C   UNL A   1      44.085  34.417  28.992  1.00  0.00     0.173 A 
ATOM     85  C   UNL A   1      41.740  34.597  29.442  1.00  0.00     0.173 A 
ATOM     86  F   UNL A   1      45.303  33.927  29.244  1.00  0.00    -0.203 F 
ATOM     87  C   UNL A   1      43.924  35.163  27.825  1.00  0.00     0.198 A 
ATOM     88  C   UNL A   1      41.574  35.312  28.257  1.00  0.00     0.198 A 
ATOM     89  F   UNL A   1      40.657  34.310  30.179  1.00  0.00    -0.203 F 
ATOM     90  F   UNL A   1      44.981  35.424  27.041  1.00  0.00    -0.200 F 
ATOM     91  C   UNL A   1      42.665  35.604  27.456  1.00  0.00     0.200 A 
ATOM     92  F   UNL A   1      40.346  35.694  27.879  1.00  0.00    -0.200 F 
ATOM     93  F   UNL A   1      42.500  36.285  26.314  1.00  0.00    -0.200 F 
ENDBRANCH  60  83
ENDBRANCH  34  35
ENDBRANCH  26  29
ENDBRANCH  24  25
ENDBRANCH  23  24
ENDBRANCH  22  23
ENDBRANCH   1  22
TORSDOF 16
ENDMDL
MODEL 3
REMARK VINA RESULT:     -11.0      3.288      8.563
REMARK SMILES Cc1cscc1-c1nnnn1C[C@@H](C)C(=O)NCCCCCCNC(=O)c1ccc(-c2c3nc(c(-c4c(F)c(F)c(F)c(F)c4F)c4ccc([nH]4)c(-c4c(F)c(F)c(F)c(F)c4F)c4nc(c(-c5c(F)c(F)c(F)c(F)c5F)c5ccc2[nH]5)C=C4)C=C3)cc1
REMARK SMILES IDX 20 1 19 2 18 3 17 4 15 5 16 6 13 8 14 9 12 10 11 11 7 12
REMARK SMILES IDX 8 13 9 14 10 15 6 16 1 17 2 18 3 19 4 20 5 21 21 22 22 23
REMARK SMILES IDX 23 24 24 25 25 26 26 28 27 29 28 30 89 31 29 32 88 33 30 34
REMARK SMILES IDX 31 35 32 36 82 37 33 38 87 39 81 40 83 41 34 42 86 43 80 44
REMARK SMILES IDX 79 45 35 47 67 48 47 49 66 50 48 51 51 52 65 53 84 54 49 55
REMARK SMILES IDX 50 56 64 58 85 59 52 60 36 61 37 62 45 63 38 64 39 65 43 66
REMARK SMILES IDX 46 67 40 68 41 69 44 70 42 71 68 72 69 73 77 74 70 75 71 76
REMARK SMILES IDX 75 77 78 78 72 79 73 80 76 81 74 82 53 83 54 84 62 85 55 86
REMARK SMILES IDX 56 87 60 88 63 89 57 90 58 91 61 92 59 93
REMARK H PARENT 17 7 24 27 83 46 51 57
REMARK Flexibility Score: inf
ROOT
ATOM      1  C   UNL A   1      34.052  28.142  26.250  1.00  0.00     0.002 C 
ENDROOT
BRANCH   1   2
ATOM      2  C   UNL A   1      33.076  28.712  25.216  1.00  0.00     0.021 C 
BRANCH   2   3
ATOM      3  C   UNL A   1      33.437  28.376  23.770  1.00  0.00     0.116 C 
BRANCH   3   4
ATOM      4  N   UNL A   1      32.247  28.267  22.944  1.00  0.00    -0.356 N 
ATOM      5  C   UNL A   1      31.577  27.183  22.471  1.00  0.00     0.224 C 
ATOM      6  O   UNL A   1      30.608  27.383  21.737  1.00  0.00    -0.275 OA
ATOM      7  H   UNL A   1      31.856  29.131  22.681  1.00  0.00     0.163 HD
BRANCH   5   8
ATOM      8  C   UNL A   1      32.003  25.765  22.817  1.00  0.00     0.097 C 
ATOM      9  C   UNL A   1      32.818  25.161  21.676  1.00  0.00     0.020 C 
BRANCH   8  10
ATOM     10  C   UNL A   1      30.789  24.983  23.333  1.00  0.00     0.161 C 
BRANCH  10  11
ATOM     11  N   UNL A   1      30.621  24.926  24.762  1.00  0.00    -0.225 N 
ATOM     12  C   UNL A   1      31.120  24.021  25.656  1.00  0.00     0.183 A 
ATOM     13  N   UNL A   1      30.470  24.189  26.790  1.00  0.00    -0.108 NA
ATOM     14  N   UNL A   1      29.710  25.323  26.629  1.00  0.00    -0.023 NA
ATOM     15  N   UNL A   1      29.829  25.803  25.399  1.00  0.00    -0.045 NA
BRANCH  12  16
ATOM     16  C   UNL A   1      32.162  22.987  25.407  1.00  0.00     0.034 A 
ATOM     17  C   UNL A   1      34.304  24.500  25.453  1.00  0.00     0.046 C 
ATOM     18  C   UNL A   1      33.576  23.209  25.247  1.00  0.00    -0.029 A 
ATOM     19  C   UNL A   1      34.215  22.018  24.949  1.00  0.00     0.069 A 
ATOM     20  S   UNL A   1      33.159  20.675  24.936  1.00  0.00    -0.151 S 
ATOM     21  C   UNL A   1      31.823  21.653  25.349  1.00  0.00     0.077 A 
ENDBRANCH  12  16
ENDBRANCH  10  11
ENDBRANCH   8  10
ENDBRANCH   5   8
ENDBRANCH   3   4
ENDBRANCH   2   3
ENDBRANCH   1   2
BRANCH   1  22
ATOM     22  C   UNL A   1      34.389  29.069  27.429  1.00  0.00     0.002 C 
BRANCH  22  23
ATOM     23  C   UNL A   1      34.026  30.553  27.265  1.00  0.00     0.021 C 
BRANCH  23  24
ATOM     24  C   UNL A   1      35.142  31.509  27.651  1.00  0.00     0.116 C 
BRANCH  24  25
ATOM     25  N   UNL A   1      34.858  32.240  28.889  1.00  0.00    -0.352 N 
ATOM     26  C   UNL A   1      35.305  31.977  30.174  1.00  0.00     0.251 C 
ATOM     27  H   UNL A   1      34.268  33.023  28.795  1.00  0.00     0.163 HD
ATOM     28  O   UNL A   1      34.730  32.417  31.152  1.00  0.00    -0.269 OA
BRANCH  26  29
ATOM     29  C   UNL A   1      36.517  31.156  30.327  1.00  0.00     0.039 A 
ATOM     30  C   UNL A   1      36.480  29.762  30.411  1.00  0.00     0.014 A 
ATOM     31  C   UNL A   1      37.726  31.837  30.347  1.00  0.00     0.014 A 
ATOM     32  C   UNL A   1      37.685  29.063  30.445  1.00  0.00     0.010 A 
ATOM     33  C   UNL A   1      38.884  31.151  30.130  1.00  0.00     0.010 A 
ATOM     34  C   UNL A   1      38.884  29.775  30.295  1.00  0.00    -0.014 A 
BRANCH  34  35
ATOM     35  C   UNL A   1      40.184  29.127  30.267  1.00  0.00     0.031 A 
ATOM     36  C   UNL A   1      40.833  28.948  31.590  1.00  0.00     0.074 A 
ATOM     37  C   UNL A   1      40.622  28.493  29.155  1.00  0.00     0.049 A 
ATOM     38  N   UNL A   1      41.948  29.454  32.002  1.00  0.00    -0.248 NA
ATOM     39  C   UNL A   1      40.097  28.207  32.626  1.00  0.00     0.031 C 
ATOM     40  C   UNL A   1      39.926  28.302  27.872  1.00  0.00     0.029 A 
ATOM     41  N   UNL A   1      41.761  27.776  28.977  1.00  0.00    -0.354 N 
ATOM     42  C   UNL A   1      42.150  28.950  33.285  1.00  0.00     0.074 A 
ATOM     43  C   UNL A   1      40.905  28.346  33.679  1.00  0.00     0.031 C 
ATOM     44  C   UNL A   1      40.546  27.340  27.154  1.00  0.00     0.029 A 
ATOM     45  C   UNL A   1      41.775  26.986  27.835  1.00  0.00     0.049 A 
ATOM     46  H   UNL A   1      42.516  27.813  29.608  1.00  0.00     0.167 HD
ATOM     47  C   UNL A   1      43.405  28.862  33.811  1.00  0.00     0.037 A 
ATOM     48  C   UNL A   1      42.728  26.087  27.491  1.00  0.00     0.037 A 
ATOM     49  C   UNL A   1      44.327  29.691  33.070  1.00  0.00     0.049 A 
ATOM     50  C   UNL A   1      43.945  26.430  28.269  1.00  0.00     0.074 A 
ATOM     51  C   UNL A   1      44.421  31.043  32.806  1.00  0.00     0.029 A 
ATOM     52  N   UNL A   1      45.140  29.080  32.146  1.00  0.00    -0.354 N 
ATOM     53  N   UNL A   1      44.627  27.529  28.097  1.00  0.00    -0.248 NA
ATOM     54  C   UNL A   1      44.123  25.780  29.559  1.00  0.00     0.031 C 
ATOM     55  C   UNL A   1      44.873  31.124  31.454  1.00  0.00     0.029 A 
ATOM     56  C   UNL A   1      45.091  29.825  30.996  1.00  0.00     0.049 A 
ATOM     57  H   UNL A   1      45.662  28.257  32.284  1.00  0.00     0.167 HD
ATOM     58  C   UNL A   1      44.976  27.935  29.377  1.00  0.00     0.074 A 
ATOM     59  C   UNL A   1      44.712  26.775  30.227  1.00  0.00     0.031 C 
ATOM     60  C   UNL A   1      45.167  29.256  29.670  1.00  0.00     0.037 A 
BRANCH  47  61
ATOM     61  C   UNL A   1      43.886  27.757  34.729  1.00  0.00     0.064 A 
ATOM     62  C   UNL A   1      43.781  26.419  34.289  1.00  0.00     0.173 A 
ATOM     63  C   UNL A   1      44.148  27.914  36.107  1.00  0.00     0.173 A 
ATOM     64  F   UNL A   1      43.545  26.140  32.998  1.00  0.00    -0.203 F 
ATOM     65  C   UNL A   1      43.811  25.341  35.176  1.00  0.00     0.198 A 
ATOM     66  C   UNL A   1      44.231  26.830  36.982  1.00  0.00     0.198 A 
ATOM     67  F   UNL A   1      44.229  29.112  36.693  1.00  0.00    -0.203 F 
ATOM     68  F   UNL A   1      43.558  24.104  34.728  1.00  0.00    -0.200 F 
ATOM     69  C   UNL A   1      44.022  25.548  36.526  1.00  0.00     0.200 A 
ATOM     70  F   UNL A   1      44.429  27.056  38.289  1.00  0.00    -0.200 F 
ATOM     71  F   UNL A   1      43.976  24.527  37.389  1.00  0.00    -0.200 F 
ENDBRANCH  47  61
BRANCH  48  72
ATOM     72  C   UNL A   1      42.557  24.795  26.787  1.00  0.00     0.064 A 
ATOM     73  C   UNL A   1      43.195  24.547  25.562  1.00  0.00     0.173 A 
ATOM     74  C   UNL A   1      41.988  23.681  27.434  1.00  0.00     0.173 A 
ATOM     75  F   UNL A   1      43.798  25.547  24.903  1.00  0.00    -0.203 F 
ATOM     76  C   UNL A   1      43.282  23.257  25.028  1.00  0.00     0.198 A 
ATOM     77  C   UNL A   1      42.071  22.394  26.899  1.00  0.00     0.198 A 
ATOM     78  F   UNL A   1      41.421  23.802  28.644  1.00  0.00    -0.203 F 
ATOM     79  F   UNL A   1      43.952  23.049  23.887  1.00  0.00    -0.200 F 
ATOM     80  C   UNL A   1      42.730  22.180  25.703  1.00  0.00     0.200 A 
ATOM     81  F   UNL A   1      41.561  21.359  27.581  1.00  0.00    -0.200 F 
ATOM     82  F   UNL A   1      42.867  20.936  25.226  1.00  0.00    -0.200 F 
ENDBRANCH  48  72
BRANCH  60  83
ATOM     83  C   UNL A   1      45.224  30.225  28.519  1.00  0.00     0.064 A 
ATOM     84  C   UNL A   1      44.113  30.940  28.037  1.00  0.00     0.173 A 
ATOM     85  C   UNL A   1      46.475  30.552  27.983  1.00  0.00     0.173 A 
ATOM     86  F   UNL A   1      42.898  30.764  28.564  1.00  0.00    -0.203 F 
ATOM     87  C   UNL A   1      44.244  31.902  27.037  1.00  0.00     0.198 A 
ATOM     88  C   UNL A   1      46.610  31.539  27.009  1.00  0.00     0.198 A 
ATOM     89  F   UNL A   1      47.581  29.946  28.443  1.00  0.00    -0.203 F 
ATOM     90  F   UNL A   1      43.163  32.560  26.590  1.00  0.00    -0.200 F 
ATOM     91  C   UNL A   1      45.494  32.205  26.528  1.00  0.00     0.200 A 
ATOM     92  F   UNL A   1      47.828  31.864  26.556  1.00  0.00    -0.200 F 
ATOM     93  F   UNL A   1      45.628  33.160  25.597  1.00  0.00    -0.200 F 
ENDBRANCH  60  83
ENDBRANCH  34  35
ENDBRANCH  26  29
ENDBRANCH  24  25
ENDBRANCH  23  24
ENDBRANCH  22  23
ENDBRANCH   1  22
TORSDOF 16
ENDMDL
