MODEL 1
REMARK VINA RESULT:     -13.3      0.000      0.000
REMARK SMILES Cc1nc(-c2ccccc2)sc1C(=O)N[C@@H](CC1=c2ccccc2=NC1)C(=O)NCCCCCCNC(=O)c1ccc(-c2c3nc(c(-c4c(F)c(F)c(F)c(F)c4F)c4ccc([nH]4)c(-c4c(F)c(F)c(F)c(F)c4F)c4nc(c(-c5c(F)c(F)c(F)c(F)c5F)c5ccc2[nH]5)C=C4)C=C3)cc1
REMARK SMILES IDX 32 1 31 2 30 3 29 4 27 5 28 6 16 8 15 9 13 10 14 11 12 13
REMARK SMILES IDX 1 14 2 15 3 16 4 17 11 18 5 19 6 20 10 21 7 22 9 23 8 24
REMARK SMILES IDX 17 25 18 26 19 27 26 28 20 29 24 30 25 31 21 32 23 33 22 34
REMARK SMILES IDX 33 35 34 36 35 37 36 38 37 39 38 41 39 42 40 43 101 44 41 45
REMARK SMILES IDX 100 46 42 47 43 48 44 49 94 50 45 51 99 52 93 53 95 54 46 55
REMARK SMILES IDX 98 56 92 57 91 58 47 60 79 61 59 62 78 63 60 64 63 65 77 66
REMARK SMILES IDX 96 67 61 68 62 69 76 71 97 72 64 73 48 74 49 75 57 76 50 77
REMARK SMILES IDX 51 78 55 79 58 80 52 81 53 82 56 83 54 84 80 85 81 86 89 87
REMARK SMILES IDX 82 88 83 89 87 90 90 91 84 92 85 93 88 94 86 95 65 96 66 97
REMARK SMILES IDX 74 98 67 99 68 100 72 101 75 102 69 103 70 104 73 105 71 106
REMARK H PARENT 29 7 15 12 36 40 95 59 63 70
REMARK Flexibility Score: inf
ROOT
ATOM      1  C   UNL A   1      35.850  21.096  25.157  1.00  0.00     0.002 C 
ENDROOT
BRANCH   1   2
ATOM      2  C   UNL A   1      35.442  22.223  26.108  1.00  0.00     0.021 C 
BRANCH   2   3
ATOM      3  C   UNL A   1      34.526  23.260  25.490  1.00  0.00     0.116 C 
BRANCH   3   4
ATOM      4  N   UNL A   1      34.715  23.432  24.076  1.00  0.00    -0.354 N 
ATOM      5  C   UNL A   1      33.828  23.247  23.069  1.00  0.00     0.242 C 
ATOM      6  O   UNL A   1      34.097  23.774  21.983  1.00  0.00    -0.273 OA
ATOM      7  H   UNL A   1      35.614  23.726  23.801  1.00  0.00     0.163 HD
BRANCH   5   8
ATOM      8  C   UNL A   1      32.501  22.479  23.237  1.00  0.00     0.175 C 
BRANCH   8   9
ATOM      9  N   UNL A   1      31.299  23.192  22.856  1.00  0.00    -0.339 N 
ATOM     10  C   UNL A   1      30.580  24.196  23.449  1.00  0.00     0.263 C 
ATOM     11  O   UNL A   1      29.526  24.428  22.840  1.00  0.00    -0.268 OA
ATOM     12  H   UNL A   1      30.921  22.893  21.997  1.00  0.00     0.164 HD
BRANCH  10  13
ATOM     13  C   UNL A   1      30.981  24.945  24.640  1.00  0.00     0.115 A 
ATOM     14  C   UNL A   1      31.141  23.551  26.904  1.00  0.00     0.068 C 
ATOM     15  C   UNL A   1      31.237  24.725  25.997  1.00  0.00     0.062 A 
ATOM     16  N   UNL A   1      31.697  25.827  26.688  1.00  0.00    -0.241 NA
ATOM     17  C   UNL A   1      31.717  26.897  25.944  1.00  0.00     0.124 A 
ATOM     18  S   UNL A   1      31.217  26.671  24.344  1.00  0.00    -0.108 S 
BRANCH  17  19
ATOM     19  C   UNL A   1      32.158  28.174  26.479  1.00  0.00     0.010 A 
ATOM     20  C   UNL A   1      31.531  29.339  26.012  1.00  0.00     0.011 A 
ATOM     21  C   UNL A   1      33.310  28.276  27.265  1.00  0.00     0.011 A 
ATOM     22  C   UNL A   1      32.065  30.591  26.299  1.00  0.00     0.001 A 
ATOM     23  C   UNL A   1      33.847  29.533  27.546  1.00  0.00     0.001 A 
ATOM     24  C   UNL A   1      33.231  30.686  27.055  1.00  0.00     0.000 A 
ENDBRANCH  17  19
ENDBRANCH  10  13
ENDBRANCH   8   9
BRANCH   8  25
ATOM     25  C   UNL A   1      32.499  20.992  22.791  1.00  0.00     0.068 C 
BRANCH  25  26
ATOM     26  C   UNL A   1      32.523  19.933  23.851  1.00  0.00    -0.037 C 
ATOM     27  C   UNL A   1      32.865  18.650  23.752  1.00  0.00     0.001 A 
ATOM     28  C   UNL A   1      32.195  20.275  25.275  1.00  0.00     0.174 C 
ATOM     29  C   UNL A   1      33.252  17.778  22.689  1.00  0.00     0.010 A 
ATOM     30  C   UNL A   1      33.009  18.253  25.164  1.00  0.00     0.065 A 
ATOM     31  N   UNL A   1      32.635  19.103  26.070  1.00  0.00    -0.280 NA
ATOM     32  C   UNL A   1      33.871  16.626  22.992  1.00  0.00     0.001 A 
ATOM     33  C   UNL A   1      33.693  16.966  25.417  1.00  0.00     0.028 A 
ATOM     34  C   UNL A   1      34.126  16.243  24.370  1.00  0.00     0.002 A 
ENDBRANCH  25  26
ENDBRANCH   8  25
ENDBRANCH   5   8
ENDBRANCH   3   4
ENDBRANCH   2   3
ENDBRANCH   1   2
BRANCH   1  35
ATOM     35  C   UNL A   1      37.285  21.161  24.623  1.00  0.00     0.002 C 
BRANCH  35  36
ATOM     36  C   UNL A   1      38.178  19.967  24.965  1.00  0.00     0.021 C 
BRANCH  36  37
ATOM     37  C   UNL A   1      39.348  20.280  25.886  1.00  0.00     0.116 C 
BRANCH  37  38
ATOM     38  N   UNL A   1      40.297  19.185  25.962  1.00  0.00    -0.352 N 
ATOM     39  C   UNL A   1      41.661  19.227  26.112  1.00  0.00     0.251 C 
ATOM     40  H   UNL A   1      39.908  18.284  25.896  1.00  0.00     0.163 HD
ATOM     41  O   UNL A   1      42.337  18.218  25.971  1.00  0.00    -0.269 OA
BRANCH  39  42
ATOM     42  C   UNL A   1      42.307  20.516  26.424  1.00  0.00     0.039 A 
ATOM     43  C   UNL A   1      42.780  21.303  25.373  1.00  0.00     0.014 A 
ATOM     44  C   UNL A   1      42.413  20.954  27.748  1.00  0.00     0.014 A 
ATOM     45  C   UNL A   1      43.301  22.568  25.645  1.00  0.00     0.010 A 
ATOM     46  C   UNL A   1      42.863  22.244  28.008  1.00  0.00     0.010 A 
ATOM     47  C   UNL A   1      43.305  23.063  26.958  1.00  0.00    -0.014 A 
BRANCH  47  48
ATOM     48  C   UNL A   1      43.745  24.446  27.258  1.00  0.00     0.031 A 
ATOM     49  C   UNL A   1      42.751  25.469  27.725  1.00  0.00     0.074 A 
ATOM     50  C   UNL A   1      45.027  24.795  27.036  1.00  0.00     0.049 A 
ATOM     51  N   UNL A   1      42.920  26.747  27.947  1.00  0.00    -0.248 NA
ATOM     52  C   UNL A   1      41.377  24.994  27.947  1.00  0.00     0.031 C 
ATOM     53  C   UNL A   1      46.076  23.896  26.556  1.00  0.00     0.029 A 
ATOM     54  N   UNL A   1      45.662  26.004  27.173  1.00  0.00    -0.354 N 
ATOM     55  C   UNL A   1      41.676  27.229  28.329  1.00  0.00     0.074 A 
ATOM     56  C   UNL A   1      40.749  26.121  28.250  1.00  0.00     0.031 C 
ATOM     57  C   UNL A   1      47.230  24.576  26.463  1.00  0.00     0.029 A 
ATOM     58  C   UNL A   1      46.990  25.970  26.824  1.00  0.00     0.049 A 
ATOM     59  H   UNL A   1      45.208  26.819  27.489  1.00  0.00     0.167 HD
ATOM     60  C   UNL A   1      41.344  28.479  28.734  1.00  0.00     0.037 A 
ATOM     61  C   UNL A   1      47.906  26.955  26.786  1.00  0.00     0.037 A 
ATOM     62  C   UNL A   1      42.274  29.574  28.812  1.00  0.00     0.049 A 
ATOM     63  C   UNL A   1      47.495  28.351  27.171  1.00  0.00     0.074 A 
ATOM     64  C   UNL A   1      42.051  30.868  29.252  1.00  0.00     0.029 A 
ATOM     65  N   UNL A   1      43.606  29.508  28.427  1.00  0.00    -0.354 N 
ATOM     66  N   UNL A   1      46.332  28.784  27.595  1.00  0.00    -0.248 NA
ATOM     67  C   UNL A   1      48.522  29.397  27.066  1.00  0.00     0.031 C 
ATOM     68  C   UNL A   1      43.229  31.599  29.075  1.00  0.00     0.029 A 
ATOM     69  C   UNL A   1      44.206  30.748  28.581  1.00  0.00     0.049 A 
ATOM     70  H   UNL A   1      44.058  28.700  28.093  1.00  0.00     0.167 HD
ATOM     71  C   UNL A   1      46.493  30.143  27.830  1.00  0.00     0.074 A 
ATOM     72  C   UNL A   1      47.872  30.459  27.517  1.00  0.00     0.031 C 
ATOM     73  C   UNL A   1      45.581  31.047  28.265  1.00  0.00     0.037 A 
BRANCH  60  74
ATOM     74  C   UNL A   1      39.910  28.724  29.112  1.00  0.00     0.064 A 
ATOM     75  C   UNL A   1      38.978  29.222  28.187  1.00  0.00     0.173 A 
ATOM     76  C   UNL A   1      39.456  28.444  30.410  1.00  0.00     0.173 A 
ATOM     77  F   UNL A   1      39.361  29.515  26.935  1.00  0.00    -0.203 F 
ATOM     78  C   UNL A   1      37.660  29.470  28.558  1.00  0.00     0.198 A 
ATOM     79  C   UNL A   1      38.128  28.659  30.767  1.00  0.00     0.198 A 
ATOM     80  F   UNL A   1      40.301  27.958  31.332  1.00  0.00    -0.203 F 
ATOM     81  F   UNL A   1      36.807  30.007  27.675  1.00  0.00    -0.200 F 
ATOM     82  C   UNL A   1      37.234  29.183  29.846  1.00  0.00     0.200 A 
ATOM     83  F   UNL A   1      37.714  28.366  32.009  1.00  0.00    -0.200 F 
ATOM     84  F   UNL A   1      35.964  29.421  30.202  1.00  0.00    -0.200 F 
ENDBRANCH  60  74
BRANCH  61  85
ATOM     85  C   UNL A   1      49.303  26.656  26.379  1.00  0.00     0.064 A 
ATOM     86  C   UNL A   1      50.236  26.183  27.313  1.00  0.00     0.173 A 
ATOM     87  C   UNL A   1      49.737  26.827  25.056  1.00  0.00     0.173 A 
ATOM     88  F   UNL A   1      49.874  26.023  28.595  1.00  0.00    -0.203 F 
ATOM     89  C   UNL A   1      51.550  25.911  26.945  1.00  0.00     0.198 A 
ATOM     90  C   UNL A   1      51.045  26.527  24.682  1.00  0.00     0.198 A 
ATOM     91  F   UNL A   1      48.885  27.275  24.123  1.00  0.00    -0.203 F 
ATOM     92  F   UNL A   1      52.432  25.503  27.868  1.00  0.00    -0.200 F 
ATOM     93  C   UNL A   1      51.953  26.076  25.628  1.00  0.00     0.200 A 
ATOM     94  F   UNL A   1      51.425  26.674  23.405  1.00  0.00    -0.200 F 
ATOM     95  F   UNL A   1      53.216  25.808  25.272  1.00  0.00    -0.200 F 
ENDBRANCH  61  85
BRANCH  73  96
ATOM     96  C   UNL A   1      46.044  32.464  28.447  1.00  0.00     0.064 A 
ATOM     97  C   UNL A   1      46.583  32.910  29.662  1.00  0.00     0.173 A 
ATOM     98  C   UNL A   1      46.005  33.368  27.374  1.00  0.00     0.173 A 
ATOM     99  F   UNL A   1      46.626  32.090  30.723  1.00  0.00    -0.203 F 
ATOM    100  C   UNL A   1      47.052  34.213  29.801  1.00  0.00     0.198 A 
ATOM    101  C   UNL A   1      46.506  34.660  27.507  1.00  0.00     0.198 A 
ATOM    102  F   UNL A   1      45.504  32.990  26.189  1.00  0.00    -0.203 F 
ATOM    103  F   UNL A   1      47.527  34.630  30.983  1.00  0.00    -0.200 F 
ATOM    104  C   UNL A   1      47.024  35.084  28.721  1.00  0.00     0.200 A 
ATOM    105  F   UNL A   1      46.492  35.494  26.458  1.00  0.00    -0.200 F 
ATOM    106  F   UNL A   1      47.492  36.332  28.852  1.00  0.00    -0.200 F 
ENDBRANCH  73  96
ENDBRANCH  47  48
ENDBRANCH  39  42
ENDBRANCH  37  38
ENDBRANCH  36  37
ENDBRANCH  35  36
ENDBRANCH   1  35
TORSDOF 18
ENDMDL
MODEL 2
REMARK VINA RESULT:     -13.3      1.169      5.026
REMARK SMILES Cc1nc(-c2ccccc2)sc1C(=O)N[C@@H](CC1=c2ccccc2=NC1)C(=O)NCCCCCCNC(=O)c1ccc(-c2c3nc(c(-c4c(F)c(F)c(F)c(F)c4F)c4ccc([nH]4)c(-c4c(F)c(F)c(F)c(F)c4F)c4nc(c(-c5c(F)c(F)c(F)c(F)c5F)c5ccc2[nH]5)C=C4)C=C3)cc1
REMARK SMILES IDX 32 1 31 2 30 3 29 4 27 5 28 6 16 8 15 9 13 10 14 11 12 13
REMARK SMILES IDX 1 14 2 15 3 16 4 17 11 18 5 19 6 20 10 21 7 22 9 23 8 24
REMARK SMILES IDX 17 25 18 26 19 27 26 28 20 29 24 30 25 31 21 32 23 33 22 34
REMARK SMILES IDX 33 35 34 36 35 37 36 38 37 39 38 41 39 42 40 43 101 44 41 45
REMARK SMILES IDX 100 46 42 47 43 48 44 49 94 50 45 51 99 52 93 53 95 54 46 55
REMARK SMILES IDX 98 56 92 57 91 58 47 60 79 61 59 62 78 63 60 64 63 65 77 66
REMARK SMILES IDX 96 67 61 68 62 69 76 71 97 72 64 73 48 74 49 75 57 76 50 77
REMARK SMILES IDX 51 78 55 79 58 80 52 81 53 82 56 83 54 84 80 85 81 86 89 87
REMARK SMILES IDX 82 88 83 89 87 90 90 91 84 92 85 93 88 94 86 95 65 96 66 97
REMARK SMILES IDX 74 98 67 99 68 100 72 101 75 102 69 103 70 104 73 105 71 106
REMARK H PARENT 29 7 15 12 36 40 95 59 63 70
REMARK Flexibility Score: inf
ROOT
ATOM      1  C   UNL A   1      37.497  22.441  24.693  1.00  0.00     0.002 C 
ENDROOT
BRANCH   1   2
ATOM      2  C   UNL A   1      36.637  23.337  23.799  1.00  0.00     0.021 C 
BRANCH   2   3
ATOM      3  C   UNL A   1      35.145  23.182  24.011  1.00  0.00     0.116 C 
BRANCH   3   4
ATOM      4  N   UNL A   1      34.636  23.937  25.123  1.00  0.00    -0.354 N 
ATOM      5  C   UNL A   1      33.676  24.893  25.136  1.00  0.00     0.242 C 
ATOM      6  O   UNL A   1      33.165  25.157  26.230  1.00  0.00    -0.273 OA
ATOM      7  H   UNL A   1      35.041  23.731  25.996  1.00  0.00     0.163 HD
BRANCH   5   8
ATOM      8  C   UNL A   1      33.163  25.598  23.863  1.00  0.00     0.175 C 
BRANCH   8   9
ATOM      9  N   UNL A   1      31.796  25.309  23.480  1.00  0.00    -0.339 N 
ATOM     10  C   UNL A   1      31.039  24.168  23.509  1.00  0.00     0.263 C 
ATOM     11  O   UNL A   1      29.941  24.331  22.958  1.00  0.00    -0.268 OA
ATOM     12  H   UNL A   1      31.313  26.092  23.127  1.00  0.00     0.164 HD
BRANCH  10  13
ATOM     13  C   UNL A   1      31.429  22.899  24.124  1.00  0.00     0.115 A 
ATOM     14  C   UNL A   1      30.934  22.657  26.730  1.00  0.00     0.068 C 
ATOM     15  C   UNL A   1      31.380  22.262  25.368  1.00  0.00     0.062 A 
ATOM     16  N   UNL A   1      31.834  20.959  25.373  1.00  0.00    -0.241 NA
ATOM     17  C   UNL A   1      32.311  20.604  24.212  1.00  0.00     0.124 A 
ATOM     18  S   UNL A   1      32.228  21.788  23.006  1.00  0.00    -0.108 S 
BRANCH  17  19
ATOM     19  C   UNL A   1      32.852  19.272  24.001  1.00  0.00     0.010 A 
ATOM     20  C   UNL A   1      34.022  18.918  24.689  1.00  0.00     0.011 A 
ATOM     21  C   UNL A   1      32.367  18.440  22.988  1.00  0.00     0.011 A 
ATOM     22  C   UNL A   1      34.717  17.761  24.351  1.00  0.00     0.001 A 
ATOM     23  C   UNL A   1      33.070  17.284  22.645  1.00  0.00     0.001 A 
ATOM     24  C   UNL A   1      34.247  16.952  23.319  1.00  0.00     0.000 A 
ENDBRANCH  17  19
ENDBRANCH  10  13
ENDBRANCH   8   9
BRANCH   8  25
ATOM     25  C   UNL A   1      33.541  27.095  23.700  1.00  0.00     0.068 C 
BRANCH  25  26
ATOM     26  C   UNL A   1      32.666  28.123  24.350  1.00  0.00    -0.037 C 
ATOM     27  C   UNL A   1      32.807  28.724  25.530  1.00  0.00     0.001 A 
ATOM     28  C   UNL A   1      31.469  28.668  23.628  1.00  0.00     0.174 C 
ATOM     29  C   UNL A   1      33.719  28.619  26.624  1.00  0.00     0.010 A 
ATOM     30  C   UNL A   1      31.849  29.839  25.431  1.00  0.00     0.065 A 
ATOM     31  N   UNL A   1      31.054  29.862  24.404  1.00  0.00    -0.280 NA
ATOM     32  C   UNL A   1      33.781  29.625  27.511  1.00  0.00     0.001 A 
ATOM     33  C   UNL A   1      31.973  30.904  26.449  1.00  0.00     0.028 A 
ATOM     34  C   UNL A   1      32.926  30.793  27.392  1.00  0.00     0.002 A 
ENDBRANCH  25  26
ENDBRANCH   8  25
ENDBRANCH   5   8
ENDBRANCH   3   4
ENDBRANCH   2   3
ENDBRANCH   1   2
BRANCH   1  35
ATOM     35  C   UNL A   1      36.980  21.013  24.900  1.00  0.00     0.002 C 
BRANCH  35  36
ATOM     36  C   UNL A   1      38.049  19.924  24.990  1.00  0.00     0.021 C 
BRANCH  36  37
ATOM     37  C   UNL A   1      39.301  20.313  25.764  1.00  0.00     0.116 C 
BRANCH  37  38
ATOM     38  N   UNL A   1      40.230  19.207  25.900  1.00  0.00    -0.352 N 
ATOM     39  C   UNL A   1      41.586  19.232  26.114  1.00  0.00     0.251 C 
ATOM     40  H   UNL A   1      39.831  18.309  25.830  1.00  0.00     0.163 HD
ATOM     41  O   UNL A   1      42.253  18.212  26.019  1.00  0.00    -0.269 OA
BRANCH  39  42
ATOM     42  C   UNL A   1      42.235  20.517  26.435  1.00  0.00     0.039 A 
ATOM     43  C   UNL A   1      42.762  21.284  25.395  1.00  0.00     0.014 A 
ATOM     44  C   UNL A   1      42.292  20.972  27.756  1.00  0.00     0.014 A 
ATOM     45  C   UNL A   1      43.287  22.546  25.671  1.00  0.00     0.010 A 
ATOM     46  C   UNL A   1      42.747  22.259  28.018  1.00  0.00     0.010 A 
ATOM     47  C   UNL A   1      43.243  23.058  26.977  1.00  0.00    -0.014 A 
BRANCH  47  48
ATOM     48  C   UNL A   1      43.689  24.440  27.277  1.00  0.00     0.031 A 
ATOM     49  C   UNL A   1      42.700  25.465  27.751  1.00  0.00     0.074 A 
ATOM     50  C   UNL A   1      44.970  24.786  27.049  1.00  0.00     0.049 A 
ATOM     51  N   UNL A   1      42.872  26.742  27.974  1.00  0.00    -0.248 NA
ATOM     52  C   UNL A   1      41.325  24.993  27.980  1.00  0.00     0.031 C 
ATOM     53  C   UNL A   1      46.014  23.885  26.562  1.00  0.00     0.029 A 
ATOM     54  N   UNL A   1      45.608  25.994  27.184  1.00  0.00    -0.354 N 
ATOM     55  C   UNL A   1      41.632  27.226  28.364  1.00  0.00     0.074 A 
ATOM     56  C   UNL A   1      40.702  26.120  28.287  1.00  0.00     0.031 C 
ATOM     57  C   UNL A   1      47.169  24.563  26.464  1.00  0.00     0.029 A 
ATOM     58  C   UNL A   1      46.935  25.956  26.828  1.00  0.00     0.049 A 
ATOM     59  H   UNL A   1      45.159  26.808  27.504  1.00  0.00     0.167 HD
ATOM     60  C   UNL A   1      41.305  28.476  28.773  1.00  0.00     0.037 A 
ATOM     61  C   UNL A   1      47.853  26.940  26.786  1.00  0.00     0.037 A 
ATOM     62  C   UNL A   1      42.239  29.569  28.848  1.00  0.00     0.049 A 
ATOM     63  C   UNL A   1      47.447  28.336  27.177  1.00  0.00     0.074 A 
ATOM     64  C   UNL A   1      42.021  30.862  29.291  1.00  0.00     0.029 A 
ATOM     65  N   UNL A   1      43.569  29.500  28.456  1.00  0.00    -0.354 N 
ATOM     66  N   UNL A   1      46.289  28.771  27.607  1.00  0.00    -0.248 NA
ATOM     67  C   UNL A   1      48.477  29.379  27.068  1.00  0.00     0.031 C 
ATOM     68  C   UNL A   1      43.201  31.591  29.109  1.00  0.00     0.029 A 
ATOM     69  C   UNL A   1      44.172  30.739  28.608  1.00  0.00     0.049 A 
ATOM     70  H   UNL A   1      44.017  28.691  28.118  1.00  0.00     0.167 HD
ATOM     71  C   UNL A   1      46.454  30.129  27.844  1.00  0.00     0.074 A 
ATOM     72  C   UNL A   1      47.832  30.443  27.524  1.00  0.00     0.031 C 
ATOM     73  C   UNL A   1      45.546  31.034  28.285  1.00  0.00     0.037 A 
BRANCH  60  74
ATOM     74  C   UNL A   1      39.874  28.724  29.159  1.00  0.00     0.064 A 
ATOM     75  C   UNL A   1      39.411  28.489  30.464  1.00  0.00     0.173 A 
ATOM     76  C   UNL A   1      38.957  29.218  28.219  1.00  0.00     0.173 A 
ATOM     77  F   UNL A   1      40.244  28.008  31.399  1.00  0.00    -0.203 F 
ATOM     78  C   UNL A   1      38.077  28.698  30.800  1.00  0.00     0.198 A 
ATOM     79  C   UNL A   1      37.631  29.460  28.570  1.00  0.00     0.198 A 
ATOM     80  F   UNL A   1      39.346  29.469  26.961  1.00  0.00    -0.203 F 
ATOM     81  F   UNL A   1      37.645  28.403  32.034  1.00  0.00    -0.200 F 
ATOM     82  C   UNL A   1      37.189  29.188  29.856  1.00  0.00     0.200 A 
ATOM     83  F   UNL A   1      36.778  29.950  27.658  1.00  0.00    -0.200 F 
ATOM     84  F   UNL A   1      35.905  29.390  30.181  1.00  0.00    -0.200 F 
ENDBRANCH  60  74
BRANCH  61  85
ATOM     85  C   UNL A   1      49.247  26.637  26.372  1.00  0.00     0.064 A 
ATOM     86  C   UNL A   1      50.186  26.168  27.302  1.00  0.00     0.173 A 
ATOM     87  C   UNL A   1      49.672  26.803  25.045  1.00  0.00     0.173 A 
ATOM     88  F   UNL A   1      49.833  26.013  28.587  1.00  0.00    -0.203 F 
ATOM     89  C   UNL A   1      51.498  25.893  26.926  1.00  0.00     0.198 A 
ATOM     90  C   UNL A   1      50.977  26.500  24.664  1.00  0.00     0.198 A 
ATOM     91  F   UNL A   1      48.814  27.247  24.116  1.00  0.00    -0.203 F 
ATOM     92  F   UNL A   1      52.385  25.488  27.845  1.00  0.00    -0.200 F 
ATOM     93  C   UNL A   1      51.892  26.052  25.606  1.00  0.00     0.200 A 
ATOM     94  F   UNL A   1      51.349  26.641  23.384  1.00  0.00    -0.200 F 
ATOM     95  F   UNL A   1      53.152  25.781  25.242  1.00  0.00    -0.200 F 
ENDBRANCH  61  85
BRANCH  73  96
ATOM     96  C   UNL A   1      46.014  32.450  28.467  1.00  0.00     0.064 A 
ATOM     97  C   UNL A   1      45.888  33.402  27.445  1.00  0.00     0.173 A 
ATOM     98  C   UNL A   1      46.535  32.874  29.700  1.00  0.00     0.173 A 
ATOM     99  F   UNL A   1      45.411  33.043  26.243  1.00  0.00    -0.203 F 
ATOM    100  C   UNL A   1      46.282  34.722  27.644  1.00  0.00     0.198 A 
ATOM    101  C   UNL A   1      46.898  34.202  29.906  1.00  0.00     0.198 A 
ATOM    102  F   UNL A   1      46.671  32.004  30.711  1.00  0.00    -0.203 F 
ATOM    103  F   UNL A   1      46.191  35.606  26.641  1.00  0.00    -0.200 F 
ATOM    104  C   UNL A   1      46.776  35.124  28.877  1.00  0.00     0.200 A 
ATOM    105  F   UNL A   1      47.359  34.591  31.102  1.00  0.00    -0.200 F 
ATOM    106  F   UNL A   1      47.138  36.399  29.072  1.00  0.00    -0.200 F 
ENDBRANCH  73  96
ENDBRANCH  47  48
ENDBRANCH  39  42
ENDBRANCH  37  38
ENDBRANCH  36  37
ENDBRANCH  35  36
ENDBRANCH   1  35
TORSDOF 18
ENDMDL
MODEL 3
REMARK VINA RESULT:     -13.3      5.530     11.382
REMARK SMILES Cc1nc(-c2ccccc2)sc1C(=O)N[C@@H](CC1=c2ccccc2=NC1)C(=O)NCCCCCCNC(=O)c1ccc(-c2c3nc(c(-c4c(F)c(F)c(F)c(F)c4F)c4ccc([nH]4)c(-c4c(F)c(F)c(F)c(F)c4F)c4nc(c(-c5c(F)c(F)c(F)c(F)c5F)c5ccc2[nH]5)C=C4)C=C3)cc1
REMARK SMILES IDX 32 1 31 2 30 3 29 4 27 5 28 6 16 8 15 9 13 10 14 11 12 13
REMARK SMILES IDX 1 14 2 15 3 16 4 17 11 18 5 19 6 20 10 21 7 22 9 23 8 24
REMARK SMILES IDX 17 25 18 26 19 27 26 28 20 29 24 30 25 31 21 32 23 33 22 34
REMARK SMILES IDX 33 35 34 36 35 37 36 38 37 39 38 41 39 42 40 43 101 44 41 45
REMARK SMILES IDX 100 46 42 47 43 48 44 49 94 50 45 51 99 52 93 53 95 54 46 55
REMARK SMILES IDX 98 56 92 57 91 58 47 60 79 61 59 62 78 63 60 64 63 65 77 66
REMARK SMILES IDX 96 67 61 68 62 69 76 71 97 72 64 73 48 74 49 75 57 76 50 77
REMARK SMILES IDX 51 78 55 79 58 80 52 81 53 82 56 83 54 84 80 85 81 86 89 87
REMARK SMILES IDX 82 88 83 89 87 90 90 91 84 92 85 93 88 94 86 95 65 96 66 97
REMARK SMILES IDX 74 98 67 99 68 100 72 101 75 102 69 103 70 104 73 105 71 106
REMARK H PARENT 29 7 15 12 36 40 95 59 63 70
REMARK Flexibility Score: inf
ROOT
ATOM      1  C   UNL A   1      31.549  29.782  25.560  1.00  0.00     0.002 C 
ENDROOT
BRANCH   1   2
ATOM      2  C   UNL A   1      32.758  29.152  24.867  1.00  0.00     0.021 C 
BRANCH   2   3
ATOM      3  C   UNL A   1      32.834  27.644  24.993  1.00  0.00     0.116 C 
BRANCH   3   4
ATOM      4  N   UNL A   1      31.887  27.091  25.923  1.00  0.00    -0.354 N 
ATOM      5  C   UNL A   1      30.813  26.304  25.677  1.00  0.00     0.242 C 
ATOM      6  O   UNL A   1      30.350  25.675  26.637  1.00  0.00    -0.273 OA
ATOM      7  H   UNL A   1      32.042  27.316  26.868  1.00  0.00     0.163 HD
BRANCH   5   8
ATOM      8  C   UNL A   1      30.201  26.115  24.274  1.00  0.00     0.175 C 
BRANCH   8   9
ATOM      9  N   UNL A   1      30.028  24.746  23.832  1.00  0.00    -0.339 N 
ATOM     10  C   UNL A   1      30.908  23.773  23.438  1.00  0.00     0.263 C 
ATOM     11  O   UNL A   1      30.322  22.770  23.007  1.00  0.00    -0.268 OA
ATOM     12  H   UNL A   1      29.087  24.457  23.809  1.00  0.00     0.164 HD
BRANCH  10  13
ATOM     13  C   UNL A   1      32.367  23.856  23.520  1.00  0.00     0.115 A 
ATOM     14  C   UNL A   1      33.509  25.832  22.148  1.00  0.00     0.068 C 
ATOM     15  C   UNL A   1      33.412  24.659  23.055  1.00  0.00     0.062 A 
ATOM     16  N   UNL A   1      34.662  24.321  23.535  1.00  0.00    -0.241 NA
ATOM     17  C   UNL A   1      34.629  23.245  24.270  1.00  0.00     0.124 A 
ATOM     18  S   UNL A   1      33.096  22.561  24.477  1.00  0.00    -0.108 S 
BRANCH  17  19
ATOM     19  C   UNL A   1      35.840  22.708  24.866  1.00  0.00     0.010 A 
ATOM     20  C   UNL A   1      36.723  23.604  25.488  1.00  0.00     0.011 A 
ATOM     21  C   UNL A   1      36.236  21.385  24.648  1.00  0.00     0.011 A 
ATOM     22  C   UNL A   1      37.999  23.193  25.860  1.00  0.00     0.001 A 
ATOM     23  C   UNL A   1      37.520  20.977  25.015  1.00  0.00     0.001 A 
ATOM     24  C   UNL A   1      38.401  21.882  25.611  1.00  0.00     0.000 A 
ENDBRANCH  17  19
ENDBRANCH  10  13
ENDBRANCH   8   9
BRANCH   8  25
ATOM     25  C   UNL A   1      29.002  27.032  23.911  1.00  0.00     0.068 C 
BRANCH  25  26
ATOM     26  C   UNL A   1      29.259  28.226  23.044  1.00  0.00    -0.037 C 
ATOM     27  C   UNL A   1      28.599  29.382  22.986  1.00  0.00     0.001 A 
ATOM     28  C   UNL A   1      30.441  28.255  22.120  1.00  0.00     0.174 C 
ATOM     29  C   UNL A   1      27.430  29.919  23.604  1.00  0.00     0.010 A 
ATOM     30  C   UNL A   1      29.526  30.234  22.220  1.00  0.00     0.065 A 
ATOM     31  N   UNL A   1      30.567  29.668  21.689  1.00  0.00    -0.280 NA
ATOM     32  C   UNL A   1      27.243  31.249  23.585  1.00  0.00     0.001 A 
ATOM     33  C   UNL A   1      29.249  31.687  22.239  1.00  0.00     0.028 A 
ATOM     34  C   UNL A   1      28.187  32.137  22.930  1.00  0.00     0.002 A 
ENDBRANCH  25  26
ENDBRANCH   8  25
ENDBRANCH   5   8
ENDBRANCH   3   4
ENDBRANCH   2   3
ENDBRANCH   1   2
BRANCH   1  35
ATOM     35  C   UNL A   1      31.839  30.499  26.884  1.00  0.00     0.002 C 
BRANCH  35  36
ATOM     36  C   UNL A   1      31.671  32.019  26.869  1.00  0.00     0.021 C 
BRANCH  36  37
ATOM     37  C   UNL A   1      32.873  32.805  27.372  1.00  0.00     0.116 C 
BRANCH  37  38
ATOM     38  N   UNL A   1      32.539  34.181  27.689  1.00  0.00    -0.352 N 
ATOM     39  C   UNL A   1      33.042  34.992  28.675  1.00  0.00     0.251 C 
ATOM     40  H   UNL A   1      31.853  34.592  27.114  1.00  0.00     0.163 HD
ATOM     41  O   UNL A   1      32.520  36.068  28.927  1.00  0.00    -0.269 OA
BRANCH  39  42
ATOM     42  C   UNL A   1      34.212  34.536  29.448  1.00  0.00     0.039 A 
ATOM     43  C   UNL A   1      34.005  33.936  30.691  1.00  0.00     0.014 A 
ATOM     44  C   UNL A   1      35.504  34.674  28.929  1.00  0.00     0.014 A 
ATOM     45  C   UNL A   1      35.093  33.408  31.387  1.00  0.00     0.010 A 
ATOM     46  C   UNL A   1      36.574  34.082  29.589  1.00  0.00     0.010 A 
ATOM     47  C   UNL A   1      36.376  33.440  30.821  1.00  0.00    -0.014 A 
BRANCH  47  48
ATOM     48  C   UNL A   1      37.528  32.785  31.486  1.00  0.00     0.031 A 
ATOM     49  C   UNL A   1      38.193  31.600  30.849  1.00  0.00     0.074 A 
ATOM     50  C   UNL A   1      37.922  33.214  32.701  1.00  0.00     0.049 A 
ATOM     51  N   UNL A   1      39.147  30.836  31.314  1.00  0.00    -0.248 NA
ATOM     52  C   UNL A   1      37.700  31.208  29.520  1.00  0.00     0.031 C 
ATOM     53  C   UNL A   1      37.334  34.337  33.431  1.00  0.00     0.029 A 
ATOM     54  N   UNL A   1      38.902  32.748  33.540  1.00  0.00    -0.354 N 
ATOM     55  C   UNL A   1      39.365  29.872  30.340  1.00  0.00     0.074 A 
ATOM     56  C   UNL A   1      38.403  30.109  29.286  1.00  0.00     0.031 C 
ATOM     57  C   UNL A   1      37.981  34.490  34.597  1.00  0.00     0.029 A 
ATOM     58  C   UNL A   1      38.992  33.445  34.720  1.00  0.00     0.049 A 
ATOM     59  H   UNL A   1      39.485  31.987  33.318  1.00  0.00     0.167 HD
ATOM     60  C   UNL A   1      40.300  28.892  30.318  1.00  0.00     0.037 A 
ATOM     61  C   UNL A   1      39.789  33.251  35.787  1.00  0.00     0.037 A 
ATOM     62  C   UNL A   1      41.255  28.665  31.371  1.00  0.00     0.049 A 
ATOM     63  C   UNL A   1      40.772  32.111  35.768  1.00  0.00     0.074 A 
ATOM     64  C   UNL A   1      42.274  27.730  31.427  1.00  0.00     0.029 A 
ATOM     65  N   UNL A   1      41.299  29.376  32.563  1.00  0.00    -0.354 N 
ATOM     66  N   UNL A   1      41.017  31.246  34.815  1.00  0.00    -0.248 NA
ATOM     67  C   UNL A   1      41.585  31.918  36.977  1.00  0.00     0.031 C 
ATOM     68  C   UNL A   1      42.893  27.833  32.677  1.00  0.00     0.029 A 
ATOM     69  C   UNL A   1      42.301  28.872  33.378  1.00  0.00     0.049 A 
ATOM     70  H   UNL A   1      40.706  30.126  32.796  1.00  0.00     0.167 HD
ATOM     71  C   UNL A   1      42.025  30.422  35.297  1.00  0.00     0.074 A 
ATOM     72  C   UNL A   1      42.358  30.903  36.623  1.00  0.00     0.031 C 
ATOM     73  C   UNL A   1      42.620  29.362  34.695  1.00  0.00     0.037 A 
BRANCH  60  74
ATOM     74  C   UNL A   1      40.325  27.988  29.118  1.00  0.00     0.064 A 
ATOM     75  C   UNL A   1      39.624  26.771  29.096  1.00  0.00     0.173 A 
ATOM     76  C   UNL A   1      41.046  28.347  27.968  1.00  0.00     0.173 A 
ATOM     77  F   UNL A   1      38.926  26.376  30.171  1.00  0.00    -0.203 F 
ATOM     78  C   UNL A   1      39.678  25.931  27.987  1.00  0.00     0.198 A 
ATOM     79  C   UNL A   1      41.068  27.521  26.848  1.00  0.00     0.198 A 
ATOM     80  F   UNL A   1      41.727  29.502  27.930  1.00  0.00    -0.203 F 
ATOM     81  F   UNL A   1      39.053  24.747  28.017  1.00  0.00    -0.200 F 
ATOM     82  C   UNL A   1      40.394  26.308  26.862  1.00  0.00     0.200 A 
ATOM     83  F   UNL A   1      41.749  27.895  25.755  1.00  0.00    -0.200 F 
ATOM     84  F   UNL A   1      40.445  25.500  25.795  1.00  0.00    -0.200 F 
ENDBRANCH  60  74
BRANCH  61  85
ATOM     85  C   UNL A   1      39.701  34.165  36.956  1.00  0.00     0.064 A 
ATOM     86  C   UNL A   1      40.418  35.370  36.980  1.00  0.00     0.173 A 
ATOM     87  C   UNL A   1      38.901  33.861  38.067  1.00  0.00     0.173 A 
ATOM     88  F   UNL A   1      41.214  35.694  35.950  1.00  0.00    -0.203 F 
ATOM     89  C   UNL A   1      40.351  36.226  38.076  1.00  0.00     0.198 A 
ATOM     90  C   UNL A   1      38.812  34.732  39.150  1.00  0.00     0.198 A 
ATOM     91  F   UNL A   1      38.193  32.722  38.094  1.00  0.00    -0.203 F 
ATOM     92  F   UNL A   1      41.082  37.349  38.091  1.00  0.00    -0.200 F 
ATOM     93  C   UNL A   1      39.543  35.911  39.157  1.00  0.00     0.200 A 
ATOM     94  F   UNL A   1      38.017  34.431  40.187  1.00  0.00    -0.200 F 
ATOM     95  F   UNL A   1      39.474  36.738  40.209  1.00  0.00    -0.200 F 
ENDBRANCH  61  85
BRANCH  73  96
ATOM     96  C   UNL A   1      43.707  28.657  35.456  1.00  0.00     0.064 A 
ATOM     97  C   UNL A   1      43.423  27.603  36.337  1.00  0.00     0.173 A 
ATOM     98  C   UNL A   1      45.054  28.998  35.251  1.00  0.00     0.173 A 
ATOM     99  F   UNL A   1      42.151  27.251  36.578  1.00  0.00    -0.203 F 
ATOM    100  C   UNL A   1      44.444  26.928  36.997  1.00  0.00     0.198 A 
ATOM    101  C   UNL A   1      46.074  28.298  35.889  1.00  0.00     0.198 A 
ATOM    102  F   UNL A   1      45.380  29.994  34.416  1.00  0.00    -0.203 F 
ATOM    103  F   UNL A   1      44.147  25.951  37.866  1.00  0.00    -0.200 F 
ATOM    104  C   UNL A   1      45.769  27.268  36.765  1.00  0.00     0.200 A 
ATOM    105  F   UNL A   1      47.354  28.617  35.651  1.00  0.00    -0.200 F 
ATOM    106  F   UNL A   1      46.752  26.604  37.389  1.00  0.00    -0.200 F 
ENDBRANCH  73  96
ENDBRANCH  47  48
ENDBRANCH  39  42
ENDBRANCH  37  38
ENDBRANCH  36  37
ENDBRANCH  35  36
ENDBRANCH   1  35
TORSDOF 18
ENDMDL
