MODEL 1
REMARK VINA RESULT:     -10.6      0.000      0.000
REMARK SMILES CCCCCC[C@@H](C)N1C[C@H](C(=O)NCCCCCCNC(=O)c2ccc(-c3c4nc(c(-c5c(F)c(F)c(F)c(F)c5F)c5ccc([nH]5)c(-c5c(F)c(F)c(F)c(F)c5F)c5nc(c(-c6c(F)c(F)c(F)c(F)c6F)c6ccc3[nH]6)C=C5)C=C4)cc2)CC1=O
REMARK SMILES IDX 15 1 14 2 12 3 13 4 11 6 9 7 10 8 88 9 87 10 89 11 7 12 8 13
REMARK SMILES IDX 6 14 5 15 4 16 3 17 2 18 1 19 16 20 17 21 18 22 19 23 20 24
REMARK SMILES IDX 21 25 22 26 23 28 24 29 25 30 86 31 26 32 85 33 27 34 28 35
REMARK SMILES IDX 29 36 79 37 30 38 84 39 78 40 80 41 31 42 83 43 77 44 76 45
REMARK SMILES IDX 32 47 64 48 44 49 63 50 45 51 48 52 62 53 81 54 46 55 47 56
REMARK SMILES IDX 61 58 82 59 49 60 33 61 34 62 42 63 35 64 36 65 40 66 43 67
REMARK SMILES IDX 37 68 38 69 41 70 39 71 65 72 66 73 74 74 67 75 68 76 72 77
REMARK SMILES IDX 75 78 69 79 70 80 73 81 71 82 50 83 51 84 59 85 52 86 53 87
REMARK SMILES IDX 57 88 60 89 54 90 55 91 58 92 56 93
REMARK H PARENT 14 5 21 27 80 46 48 57
REMARK Flexibility Score: inf
ROOT
ATOM      1  C   UNL A   1      33.594  28.193  25.100  1.00  0.00     0.116 C 
ENDROOT
BRANCH   1   2
ATOM      2  N   UNL A   1      33.071  27.750  26.377  1.00  0.00    -0.356 N 
ATOM      3  C   UNL A   1      32.066  26.881  26.662  1.00  0.00     0.225 C 
ATOM      4  O   UNL A   1      31.644  26.855  27.817  1.00  0.00    -0.275 OA
ATOM      5  H   UNL A   1      33.515  28.141  27.164  1.00  0.00     0.163 HD
BRANCH   3   6
ATOM      6  C   UNL A   1      31.561  25.930  25.593  1.00  0.00     0.107 C 
ATOM      7  N   UNL A   1      31.857  23.744  26.416  1.00  0.00    -0.339 N 
ATOM      8  C   UNL A   1      32.473  24.719  25.539  1.00  0.00     0.133 C 
ATOM      9  C   UNL A   1      30.523  24.067  26.658  1.00  0.00     0.223 C 
ATOM     10  C   UNL A   1      30.203  25.362  25.960  1.00  0.00     0.115 C 
ATOM     11  O   UNL A   1      29.681  23.413  27.254  1.00  0.00    -0.275 OA
BRANCH   7  12
ATOM     12  C   UNL A   1      32.534  22.470  26.746  1.00  0.00     0.082 C 
ATOM     13  C   UNL A   1      33.617  22.602  27.823  1.00  0.00     0.031 C 
BRANCH  12  14
ATOM     14  C   UNL A   1      33.114  21.786  25.480  1.00  0.00     0.025 C 
BRANCH  14  15
ATOM     15  C   UNL A   1      34.494  21.134  25.652  1.00  0.00     0.002 C 
BRANCH  15  16
ATOM     16  C   UNL A   1      35.490  21.431  24.524  1.00  0.00     0.000 C 
BRANCH  16  17
ATOM     17  C   UNL A   1      35.458  22.869  23.996  1.00  0.00    -0.000 C 
BRANCH  17  18
ATOM     18  C   UNL A   1      36.106  23.912  24.913  1.00  0.00    -0.003 C 
ATOM     19  C   UNL A   1      37.374  23.413  25.591  1.00  0.00     0.004 C 
ENDBRANCH  17  18
ENDBRANCH  16  17
ENDBRANCH  15  16
ENDBRANCH  14  15
ENDBRANCH  12  14
ENDBRANCH   7  12
ENDBRANCH   3   6
ENDBRANCH   1   2
BRANCH   1  20
ATOM     20  C   UNL A   1      33.167  29.634  24.819  1.00  0.00     0.021 C 
BRANCH  20  21
ATOM     21  C   UNL A   1      31.727  29.951  25.249  1.00  0.00     0.002 C 
BRANCH  21  22
ATOM     22  C   UNL A   1      31.592  30.615  26.624  1.00  0.00     0.002 C 
BRANCH  22  23
ATOM     23  C   UNL A   1      31.557  32.145  26.594  1.00  0.00     0.021 C 
BRANCH  23  24
ATOM     24  C   UNL A   1      32.728  32.808  27.305  1.00  0.00     0.116 C 
BRANCH  24  25
ATOM     25  N   UNL A   1      32.448  34.194  27.645  1.00  0.00    -0.352 N 
ATOM     26  C   UNL A   1      33.000  34.964  28.640  1.00  0.00     0.251 C 
ATOM     27  H   UNL A   1      31.771  34.642  27.087  1.00  0.00     0.163 HD
ATOM     28  O   UNL A   1      32.521  36.056  28.924  1.00  0.00    -0.269 OA
BRANCH  26  29
ATOM     29  C   UNL A   1      34.171  34.451  29.380  1.00  0.00     0.039 A 
ATOM     30  C   UNL A   1      33.978  33.836  30.619  1.00  0.00     0.014 A 
ATOM     31  C   UNL A   1      35.453  34.566  28.838  1.00  0.00     0.014 A 
ATOM     32  C   UNL A   1      35.070  33.284  31.291  1.00  0.00     0.010 A 
ATOM     33  C   UNL A   1      36.524  33.944  29.467  1.00  0.00     0.010 A 
ATOM     34  C   UNL A   1      36.346  33.307  30.705  1.00  0.00    -0.014 A 
BRANCH  34  35
ATOM     35  C   UNL A   1      37.527  32.706  31.375  1.00  0.00     0.031 A 
ATOM     36  C   UNL A   1      38.250  31.565  30.718  1.00  0.00     0.074 A 
ATOM     37  C   UNL A   1      37.891  33.123  32.603  1.00  0.00     0.049 A 
ATOM     38  N   UNL A   1      39.218  30.816  31.184  1.00  0.00    -0.248 NA
ATOM     39  C   UNL A   1      37.800  31.195  29.367  1.00  0.00     0.031 C 
ATOM     40  C   UNL A   1      37.251  34.202  33.355  1.00  0.00     0.029 A 
ATOM     41  N   UNL A   1      38.882  32.674  33.440  1.00  0.00    -0.354 N 
ATOM     42  C   UNL A   1      39.470  29.874  30.195  1.00  0.00     0.074 A 
ATOM     43  C   UNL A   1      38.518  30.108  29.132  1.00  0.00     0.031 C 
ATOM     44  C   UNL A   1      37.878  34.347  34.533  1.00  0.00     0.029 A 
ATOM     45  C   UNL A   1      38.931  33.340  34.640  1.00  0.00     0.049 A 
ATOM     46  H   UNL A   1      39.497  31.944  33.203  1.00  0.00     0.167 HD
ATOM     47  C   UNL A   1      40.425  28.912  30.169  1.00  0.00     0.037 A 
ATOM     48  C   UNL A   1      39.728  33.149  35.709  1.00  0.00     0.037 A 
ATOM     49  C   UNL A   1      41.383  28.701  31.222  1.00  0.00     0.049 A 
ATOM     50  C   UNL A   1      40.763  32.057  35.669  1.00  0.00     0.074 A 
ATOM     51  C   UNL A   1      42.427  27.795  31.268  1.00  0.00     0.029 A 
ATOM     52  N   UNL A   1      41.408  29.403  32.419  1.00  0.00    -0.354 N 
ATOM     53  N   UNL A   1      41.034  31.208  34.708  1.00  0.00    -0.248 NA
ATOM     54  C   UNL A   1      41.605  31.899  36.863  1.00  0.00     0.031 C 
ATOM     55  C   UNL A   1      43.044  27.904  32.519  1.00  0.00     0.029 A 
ATOM     56  C   UNL A   1      42.431  28.929  33.224  1.00  0.00     0.049 A 
ATOM     57  H   UNL A   1      40.788  30.129  32.661  1.00  0.00     0.167 HD
ATOM     58  C   UNL A   1      42.103  30.444  35.161  1.00  0.00     0.074 A 
ATOM     59  C   UNL A   1      42.429  30.933  36.485  1.00  0.00     0.031 C 
ATOM     60  C   UNL A   1      42.757  29.437  34.533  1.00  0.00     0.037 A 
BRANCH  47  61
ATOM     61  C   UNL A   1      40.462  28.007  28.969  1.00  0.00     0.064 A 
ATOM     62  C   UNL A   1      41.224  28.314  27.830  1.00  0.00     0.173 A 
ATOM     63  C   UNL A   1      39.727  26.811  28.960  1.00  0.00     0.173 A 
ATOM     64  F   UNL A   1      41.937  29.449  27.779  1.00  0.00    -0.203 F 
ATOM     65  C   UNL A   1      41.210  27.483  26.712  1.00  0.00     0.198 A 
ATOM     66  C   UNL A   1      39.748  25.964  27.855  1.00  0.00     0.198 A 
ATOM     67  F   UNL A   1      38.987  26.463  30.024  1.00  0.00    -0.203 F 
ATOM     68  F   UNL A   1      41.887  27.834  25.610  1.00  0.00    -0.200 F 
ATOM     69  C   UNL A   1      40.476  26.307  26.728  1.00  0.00     0.200 A 
ATOM     70  F   UNL A   1      39.051  24.819  27.880  1.00  0.00    -0.200 F 
ATOM     71  F   UNL A   1      40.464  25.508  25.652  1.00  0.00    -0.200 F 
ENDBRANCH  47  61
BRANCH  48  72
ATOM     72  C   UNL A   1      39.598  34.037  36.895  1.00  0.00     0.064 A 
ATOM     73  C   UNL A   1      38.832  33.644  38.001  1.00  0.00     0.173 A 
ATOM     74  C   UNL A   1      40.239  35.283  36.954  1.00  0.00     0.173 A 
ATOM     75  F   UNL A   1      38.183  32.471  37.983  1.00  0.00    -0.203 F 
ATOM     76  C   UNL A   1      38.699  34.470  39.115  1.00  0.00     0.198 A 
ATOM     77  C   UNL A   1      40.130  36.095  38.081  1.00  0.00     0.198 A 
ATOM     78  F   UNL A   1      40.990  35.703  35.925  1.00  0.00    -0.203 F 
ATOM     79  F   UNL A   1      37.928  34.088  40.141  1.00  0.00    -0.200 F 
ATOM     80  C   UNL A   1      39.354  35.692  39.158  1.00  0.00     0.200 A 
ATOM     81  F   UNL A   1      40.778  37.267  38.125  1.00  0.00    -0.200 F 
ATOM     82  F   UNL A   1      39.234  36.482  40.233  1.00  0.00    -0.200 F 
ENDBRANCH  48  72
BRANCH  60  83
ATOM     83  C   UNL A   1      43.937  28.828  35.237  1.00  0.00     0.064 A 
ATOM     84  C   UNL A   1      43.808  27.716  36.082  1.00  0.00     0.173 A 
ATOM     85  C   UNL A   1      45.227  29.333  35.009  1.00  0.00     0.173 A 
ATOM     86  F   UNL A   1      42.596  27.204  36.345  1.00  0.00    -0.203 F 
ATOM     87  C   UNL A   1      44.924  27.146  36.688  1.00  0.00     0.198 A 
ATOM     88  C   UNL A   1      46.344  28.739  35.590  1.00  0.00     0.198 A 
ATOM     89  F   UNL A   1      45.407  30.391  34.204  1.00  0.00    -0.203 F 
ATOM     90  F   UNL A   1      44.773  26.111  37.528  1.00  0.00    -0.200 F 
ATOM     91  C   UNL A   1      46.191  27.650  36.435  1.00  0.00     0.200 A 
ATOM     92  F   UNL A   1      47.568  29.217  35.327  1.00  0.00    -0.200 F 
ATOM     93  F   UNL A   1      47.266  27.090  37.007  1.00  0.00    -0.200 F 
ENDBRANCH  60  83
ENDBRANCH  34  35
ENDBRANCH  26  29
ENDBRANCH  24  25
ENDBRANCH  23  24
ENDBRANCH  22  23
ENDBRANCH  21  22
ENDBRANCH  20  21
ENDBRANCH   1  20
TORSDOF 19
ENDMDL
MODEL 2
REMARK VINA RESULT:     -10.4      1.292      2.644
REMARK SMILES CCCCCC[C@@H](C)N1C[C@H](C(=O)NCCCCCCNC(=O)c2ccc(-c3c4nc(c(-c5c(F)c(F)c(F)c(F)c5F)c5ccc([nH]5)c(-c5c(F)c(F)c(F)c(F)c5F)c5nc(c(-c6c(F)c(F)c(F)c(F)c6F)c6ccc3[nH]6)C=C5)C=C4)cc2)CC1=O
REMARK SMILES IDX 15 1 14 2 12 3 13 4 11 6 9 7 10 8 88 9 87 10 89 11 7 12 8 13
REMARK SMILES IDX 6 14 5 15 4 16 3 17 2 18 1 19 16 20 17 21 18 22 19 23 20 24
REMARK SMILES IDX 21 25 22 26 23 28 24 29 25 30 86 31 26 32 85 33 27 34 28 35
REMARK SMILES IDX 29 36 79 37 30 38 84 39 78 40 80 41 31 42 83 43 77 44 76 45
REMARK SMILES IDX 32 47 64 48 44 49 63 50 45 51 48 52 62 53 81 54 46 55 47 56
REMARK SMILES IDX 61 58 82 59 49 60 33 61 34 62 42 63 35 64 36 65 40 66 43 67
REMARK SMILES IDX 37 68 38 69 41 70 39 71 65 72 66 73 74 74 67 75 68 76 72 77
REMARK SMILES IDX 75 78 69 79 70 80 73 81 71 82 50 83 51 84 59 85 52 86 53 87
REMARK SMILES IDX 57 88 60 89 54 90 55 91 58 92 56 93
REMARK H PARENT 14 5 21 27 80 46 48 57
REMARK Flexibility Score: inf
ROOT
ATOM      1  C   UNL A   1      30.900  29.015  23.790  1.00  0.00     0.116 C 
ENDROOT
BRANCH   1   2
ATOM      2  N   UNL A   1      30.697  27.728  24.423  1.00  0.00    -0.356 N 
ATOM      3  C   UNL A   1      31.489  26.624  24.446  1.00  0.00     0.225 C 
ATOM      4  O   UNL A   1      30.989  25.571  24.841  1.00  0.00    -0.275 OA
ATOM      5  H   UNL A   1      29.849  27.639  24.916  1.00  0.00     0.163 HD
BRANCH   3   6
ATOM      6  C   UNL A   1      32.955  26.735  24.070  1.00  0.00     0.107 C 
ATOM      7  N   UNL A   1      33.532  24.747  22.946  1.00  0.00    -0.339 N 
ATOM      8  C   UNL A   1      33.613  25.379  24.248  1.00  0.00     0.133 C 
ATOM      9  C   UNL A   1      33.280  25.690  21.952  1.00  0.00     0.223 C 
ATOM     10  C   UNL A   1      33.122  27.043  22.594  1.00  0.00     0.115 C 
ATOM     11  O   UNL A   1      33.261  25.529  20.741  1.00  0.00    -0.275 OA
BRANCH   7  12
ATOM     12  C   UNL A   1      33.940  23.339  22.748  1.00  0.00     0.082 C 
ATOM     13  C   UNL A   1      32.850  22.320  23.098  1.00  0.00     0.031 C 
BRANCH  12  14
ATOM     14  C   UNL A   1      35.249  23.010  23.513  1.00  0.00     0.025 C 
BRANCH  14  15
ATOM     15  C   UNL A   1      35.217  21.732  24.364  1.00  0.00     0.002 C 
BRANCH  15  16
ATOM     16  C   UNL A   1      35.809  21.880  25.770  1.00  0.00     0.000 C 
BRANCH  16  17
ATOM     17  C   UNL A   1      35.183  22.990  26.621  1.00  0.00    -0.000 C 
BRANCH  17  18
ATOM     18  C   UNL A   1      33.996  22.554  27.486  1.00  0.00    -0.003 C 
ATOM     19  C   UNL A   1      32.647  22.840  26.845  1.00  0.00     0.004 C 
ENDBRANCH  17  18
ENDBRANCH  16  17
ENDBRANCH  15  16
ENDBRANCH  14  15
ENDBRANCH  12  14
ENDBRANCH   7  12
ENDBRANCH   3   6
ENDBRANCH   1   2
BRANCH   1  20
ATOM     20  C   UNL A   1      31.309  30.062  24.826  1.00  0.00     0.021 C 
BRANCH  20  21
ATOM     21  C   UNL A   1      31.460  29.503  26.249  1.00  0.00     0.002 C 
BRANCH  21  22
ATOM     22  C   UNL A   1      32.151  30.441  27.245  1.00  0.00     0.002 C 
BRANCH  22  23
ATOM     23  C   UNL A   1      31.800  31.921  27.078  1.00  0.00     0.021 C 
BRANCH  23  24
ATOM     24  C   UNL A   1      32.996  32.858  27.161  1.00  0.00     0.116 C 
BRANCH  24  25
ATOM     25  N   UNL A   1      32.621  34.184  27.627  1.00  0.00    -0.352 N 
ATOM     26  C   UNL A   1      33.075  34.870  28.726  1.00  0.00     0.251 C 
ATOM     27  H   UNL A   1      31.951  34.654  27.080  1.00  0.00     0.163 HD
ATOM     28  O   UNL A   1      32.522  35.900  29.094  1.00  0.00    -0.269 OA
BRANCH  26  29
ATOM     29  C   UNL A   1      34.233  34.341  29.477  1.00  0.00     0.039 A 
ATOM     30  C   UNL A   1      34.010  33.587  30.632  1.00  0.00     0.014 A 
ATOM     31  C   UNL A   1      35.533  34.577  29.026  1.00  0.00     0.014 A 
ATOM     32  C   UNL A   1      35.094  33.022  31.305  1.00  0.00     0.010 A 
ATOM     33  C   UNL A   1      36.602  33.946  29.648  1.00  0.00     0.010 A 
ATOM     34  C   UNL A   1      36.395  33.172  30.801  1.00  0.00    -0.014 A 
BRANCH  34  35
ATOM     35  C   UNL A   1      37.571  32.563  31.473  1.00  0.00     0.031 A 
ATOM     36  C   UNL A   1      38.291  31.421  30.814  1.00  0.00     0.074 A 
ATOM     37  C   UNL A   1      37.933  32.973  32.703  1.00  0.00     0.049 A 
ATOM     38  N   UNL A   1      39.254  30.666  31.280  1.00  0.00    -0.248 NA
ATOM     39  C   UNL A   1      37.845  31.058  29.460  1.00  0.00     0.031 C 
ATOM     40  C   UNL A   1      37.295  34.052  33.457  1.00  0.00     0.029 A 
ATOM     41  N   UNL A   1      38.918  32.516  33.542  1.00  0.00    -0.354 N 
ATOM     42  C   UNL A   1      39.505  29.726  30.289  1.00  0.00     0.074 A 
ATOM     43  C   UNL A   1      38.558  29.968  29.224  1.00  0.00     0.031 C 
ATOM     44  C   UNL A   1      37.919  34.189  34.638  1.00  0.00     0.029 A 
ATOM     45  C   UNL A   1      38.966  33.178  34.746  1.00  0.00     0.049 A 
ATOM     46  H   UNL A   1      39.531  31.784  33.305  1.00  0.00     0.167 HD
ATOM     47  C   UNL A   1      40.455  28.760  30.262  1.00  0.00     0.037 A 
ATOM     48  C   UNL A   1      39.758  32.979  35.816  1.00  0.00     0.037 A 
ATOM     49  C   UNL A   1      41.409  28.541  31.318  1.00  0.00     0.049 A 
ATOM     50  C   UNL A   1      40.788  31.881  35.776  1.00  0.00     0.074 A 
ATOM     51  C   UNL A   1      42.449  27.630  31.365  1.00  0.00     0.029 A 
ATOM     52  N   UNL A   1      41.432  29.237  32.518  1.00  0.00    -0.354 N 
ATOM     53  N   UNL A   1      41.058  31.035  34.813  1.00  0.00    -0.248 NA
ATOM     54  C   UNL A   1      41.625  31.715  36.972  1.00  0.00     0.031 C 
ATOM     55  C   UNL A   1      43.061  27.731  32.618  1.00  0.00     0.029 A 
ATOM     56  C   UNL A   1      42.451  28.755  33.325  1.00  0.00     0.049 A 
ATOM     57  H   UNL A   1      40.815  29.966  32.760  1.00  0.00     0.167 HD
ATOM     58  C   UNL A   1      42.122  30.265  35.267  1.00  0.00     0.074 A 
ATOM     59  C   UNL A   1      42.446  30.746  36.594  1.00  0.00     0.031 C 
ATOM     60  C   UNL A   1      42.774  29.257  34.638  1.00  0.00     0.037 A 
BRANCH  47  61
ATOM     61  C   UNL A   1      40.493  27.859  29.060  1.00  0.00     0.064 A 
ATOM     62  C   UNL A   1      39.706  26.698  28.976  1.00  0.00     0.173 A 
ATOM     63  C   UNL A   1      41.325  28.163  27.971  1.00  0.00     0.173 A 
ATOM     64  F   UNL A   1      38.900  26.353  29.992  1.00  0.00    -0.203 F 
ATOM     65  C   UNL A   1      39.788  25.855  27.871  1.00  0.00     0.198 A 
ATOM     66  C   UNL A   1      41.373  27.337  26.851  1.00  0.00     0.198 A 
ATOM     67  F   UNL A   1      42.093  29.263  27.993  1.00  0.00    -0.203 F 
ATOM     68  F   UNL A   1      39.082  24.715  27.848  1.00  0.00    -0.200 F 
ATOM     69  C   UNL A   1      40.617  26.177  26.808  1.00  0.00     0.200 A 
ATOM     70  F   UNL A   1      42.163  27.660  25.817  1.00  0.00    -0.200 F 
ATOM     71  F   UNL A   1      40.693  25.364  25.746  1.00  0.00    -0.200 F 
ENDBRANCH  47  61
BRANCH  48  72
ATOM     72  C   UNL A   1      39.628  33.862  37.005  1.00  0.00     0.064 A 
ATOM     73  C   UNL A   1      40.302  35.092  37.059  1.00  0.00     0.173 A 
ATOM     74  C   UNL A   1      38.828  33.508  38.101  1.00  0.00     0.173 A 
ATOM     75  F   UNL A   1      41.095  35.465  36.045  1.00  0.00    -0.203 F 
ATOM     76  C   UNL A   1      40.191  35.924  38.170  1.00  0.00     0.198 A 
ATOM     77  C   UNL A   1      38.696  34.356  39.199  1.00  0.00     0.198 A 
ATOM     78  F   UNL A   1      38.158  32.346  38.096  1.00  0.00    -0.203 F 
ATOM     79  F   UNL A   1      40.878  37.074  38.212  1.00  0.00    -0.200 F 
ATOM     80  C   UNL A   1      39.383  35.560  39.236  1.00  0.00     0.200 A 
ATOM     81  F   UNL A   1      37.900  34.007  40.219  1.00  0.00    -0.200 F 
ATOM     82  F   UNL A   1      39.269  36.366  40.300  1.00  0.00    -0.200 F 
ENDBRANCH  48  72
BRANCH  60  83
ATOM     83  C   UNL A   1      43.949  28.640  35.343  1.00  0.00     0.064 A 
ATOM     84  C   UNL A   1      45.254  29.126  35.181  1.00  0.00     0.173 A 
ATOM     85  C   UNL A   1      43.749  27.581  36.244  1.00  0.00     0.173 A 
ATOM     86  F   UNL A   1      45.501  30.126  34.322  1.00  0.00    -0.203 F 
ATOM     87  C   UNL A   1      46.318  28.562  35.879  1.00  0.00     0.198 A 
ATOM     88  C   UNL A   1      44.811  27.043  36.965  1.00  0.00     0.198 A 
ATOM     89  F   UNL A   1      42.519  27.083  36.440  1.00  0.00    -0.203 F 
ATOM     90  F   UNL A   1      47.565  29.013  35.677  1.00  0.00    -0.200 F 
ATOM     91  C   UNL A   1      46.096  27.529  36.778  1.00  0.00     0.200 A 
ATOM     92  F   UNL A   1      44.588  26.058  37.847  1.00  0.00    -0.200 F 
ATOM     93  F   UNL A   1      47.119  26.998  37.461  1.00  0.00    -0.200 F 
ENDBRANCH  60  83
ENDBRANCH  34  35
ENDBRANCH  26  29
ENDBRANCH  24  25
ENDBRANCH  23  24
ENDBRANCH  22  23
ENDBRANCH  21  22
ENDBRANCH  20  21
ENDBRANCH   1  20
TORSDOF 19
ENDMDL
MODEL 3
REMARK VINA RESULT:     -10.3      3.457      8.625
REMARK SMILES CCCCCC[C@@H](C)N1C[C@H](C(=O)NCCCCCCNC(=O)c2ccc(-c3c4nc(c(-c5c(F)c(F)c(F)c(F)c5F)c5ccc([nH]5)c(-c5c(F)c(F)c(F)c(F)c5F)c5nc(c(-c6c(F)c(F)c(F)c(F)c6F)c6ccc3[nH]6)C=C5)C=C4)cc2)CC1=O
REMARK SMILES IDX 15 1 14 2 12 3 13 4 11 6 9 7 10 8 88 9 87 10 89 11 7 12 8 13
REMARK SMILES IDX 6 14 5 15 4 16 3 17 2 18 1 19 16 20 17 21 18 22 19 23 20 24
REMARK SMILES IDX 21 25 22 26 23 28 24 29 25 30 86 31 26 32 85 33 27 34 28 35
REMARK SMILES IDX 29 36 79 37 30 38 84 39 78 40 80 41 31 42 83 43 77 44 76 45
REMARK SMILES IDX 32 47 64 48 44 49 63 50 45 51 48 52 62 53 81 54 46 55 47 56
REMARK SMILES IDX 61 58 82 59 49 60 33 61 34 62 42 63 35 64 36 65 40 66 43 67
REMARK SMILES IDX 37 68 38 69 41 70 39 71 65 72 66 73 74 74 67 75 68 76 72 77
REMARK SMILES IDX 75 78 69 79 70 80 73 81 71 82 50 83 51 84 59 85 52 86 53 87
REMARK SMILES IDX 57 88 60 89 54 90 55 91 58 92 56 93
REMARK H PARENT 14 5 21 27 80 46 48 57
REMARK Flexibility Score: inf
ROOT
ATOM      1  C   UNL A   1      30.633  27.458  22.549  1.00  0.00     0.116 C 
ENDROOT
BRANCH   1   2
ATOM      2  N   UNL A   1      31.894  26.756  22.676  1.00  0.00    -0.356 N 
ATOM      3  C   UNL A   1      32.194  25.596  23.316  1.00  0.00     0.225 C 
ATOM      4  O   UNL A   1      33.383  25.332  23.491  1.00  0.00    -0.275 OA
ATOM      5  H   UNL A   1      32.655  27.190  22.227  1.00  0.00     0.163 HD
BRANCH   3   6
ATOM      6  C   UNL A   1      31.085  24.641  23.714  1.00  0.00     0.107 C 
ATOM      7  N   UNL A   1      32.031  23.050  25.170  1.00  0.00    -0.339 N 
ATOM      8  C   UNL A   1      31.647  23.233  23.785  1.00  0.00     0.133 C 
ATOM      9  C   UNL A   1      31.412  23.996  25.986  1.00  0.00     0.223 C 
ATOM     10  C   UNL A   1      30.597  24.922  25.123  1.00  0.00     0.115 C 
ATOM     11  O   UNL A   1      31.420  24.066  27.205  1.00  0.00    -0.275 OA
BRANCH   7  12
ATOM     12  C   UNL A   1      32.764  21.843  25.613  1.00  0.00     0.082 C 
ATOM     13  C   UNL A   1      34.273  21.900  25.351  1.00  0.00     0.031 C 
BRANCH  12  14
ATOM     14  C   UNL A   1      32.160  20.552  25.000  1.00  0.00     0.025 C 
BRANCH  14  15
ATOM     15  C   UNL A   1      33.084  19.772  24.053  1.00  0.00     0.002 C 
BRANCH  15  16
ATOM     16  C   UNL A   1      32.544  18.410  23.604  1.00  0.00     0.000 C 
BRANCH  16  17
ATOM     17  C   UNL A   1      33.078  17.210  24.395  1.00  0.00    -0.000 C 
BRANCH  17  18
ATOM     18  C   UNL A   1      34.597  17.185  24.589  1.00  0.00    -0.003 C 
ATOM     19  C   UNL A   1      35.107  15.880  25.182  1.00  0.00     0.004 C 
ENDBRANCH  17  18
ENDBRANCH  16  17
ENDBRANCH  15  16
ENDBRANCH  14  15
ENDBRANCH  12  14
ENDBRANCH   7  12
ENDBRANCH   3   6
ENDBRANCH   1   2
BRANCH   1  20
ATOM     20  C   UNL A   1      30.353  28.286  23.804  1.00  0.00     0.021 C 
BRANCH  20  21
ATOM     21  C   UNL A   1      31.617  28.846  24.473  1.00  0.00     0.002 C 
BRANCH  21  22
ATOM     22  C   UNL A   1      31.811  28.438  25.938  1.00  0.00     0.002 C 
BRANCH  22  23
ATOM     23  C   UNL A   1      33.043  27.570  26.202  1.00  0.00     0.021 C 
BRANCH  23  24
ATOM     24  C   UNL A   1      34.252  28.344  26.707  1.00  0.00     0.116 C 
BRANCH  24  25
ATOM     25  N   UNL A   1      33.918  29.715  27.059  1.00  0.00    -0.352 N 
ATOM     26  C   UNL A   1      34.587  30.577  27.892  1.00  0.00     0.251 C 
ATOM     27  H   UNL A   1      33.100  30.074  26.644  1.00  0.00     0.163 HD
ATOM     28  O   UNL A   1      34.076  31.635  28.240  1.00  0.00    -0.269 OA
BRANCH  26  29
ATOM     29  C   UNL A   1      35.930  30.206  28.383  1.00  0.00     0.039 A 
ATOM     30  C   UNL A   1      36.055  29.596  29.634  1.00  0.00     0.014 A 
ATOM     31  C   UNL A   1      37.060  30.445  27.597  1.00  0.00     0.014 A 
ATOM     32  C   UNL A   1      37.311  29.176  30.073  1.00  0.00     0.010 A 
ATOM     33  C   UNL A   1      38.294  29.952  27.998  1.00  0.00     0.010 A 
ATOM     34  C   UNL A   1      38.435  29.323  29.245  1.00  0.00    -0.014 A 
BRANCH  34  35
ATOM     35  C   UNL A   1      39.783  28.863  29.665  1.00  0.00     0.031 A 
ATOM     36  C   UNL A   1      40.601  29.716  30.594  1.00  0.00     0.074 A 
ATOM     37  C   UNL A   1      40.302  27.734  29.148  1.00  0.00     0.049 A 
ATOM     38  N   UNL A   1      41.842  29.567  30.982  1.00  0.00    -0.248 NA
ATOM     39  C   UNL A   1      39.943  30.917  31.130  1.00  0.00     0.031 C 
ATOM     40  C   UNL A   1      39.618  26.836  28.217  1.00  0.00     0.029 A 
ATOM     41  N   UNL A   1      41.536  27.158  29.321  1.00  0.00    -0.354 N 
ATOM     42  C   UNL A   1      42.118  30.667  31.783  1.00  0.00     0.074 A 
ATOM     43  C   UNL A   1      40.937  31.503  31.779  1.00  0.00     0.031 C 
ATOM     44  C   UNL A   1      40.432  25.812  27.918  1.00  0.00     0.029 A 
ATOM     45  C   UNL A   1      41.711  26.005  28.595  1.00  0.00     0.049 A 
ATOM     46  H   UNL A   1      42.229  27.535  29.909  1.00  0.00     0.167 HD
ATOM     47  C   UNL A   1      43.248  30.945  32.477  1.00  0.00     0.037 A 
ATOM     48  C   UNL A   1      42.788  25.204  28.481  1.00  0.00     0.037 A 
ATOM     49  C   UNL A   1      44.410  30.095  32.494  1.00  0.00     0.049 A 
ATOM     50  C   UNL A   1      44.043  25.547  29.239  1.00  0.00     0.074 A 
ATOM     51  C   UNL A   1      45.583  30.254  33.210  1.00  0.00     0.029 A 
ATOM     52  N   UNL A   1      44.547  28.930  31.753  1.00  0.00    -0.354 N 
ATOM     53  N   UNL A   1      44.277  26.557  30.040  1.00  0.00    -0.248 NA
ATOM     54  C   UNL A   1      45.183  24.634  29.078  1.00  0.00     0.031 C 
ATOM     55  C   UNL A   1      46.455  29.219  32.853  1.00  0.00     0.029 A 
ATOM     56  C   UNL A   1      45.798  28.375  31.971  1.00  0.00     0.049 A 
ATOM     57  H   UNL A   1      43.857  28.554  31.159  1.00  0.00     0.167 HD
ATOM     58  C   UNL A   1      45.572  26.381  30.512  1.00  0.00     0.074 A 
ATOM     59  C   UNL A   1      46.072  25.165  29.905  1.00  0.00     0.031 C 
ATOM     60  C   UNL A   1      46.277  27.153  31.375  1.00  0.00     0.037 A 
BRANCH  47  61
ATOM     61  C   UNL A   1      43.283  32.229  33.257  1.00  0.00     0.064 A 
ATOM     62  C   UNL A   1      43.635  33.451  32.661  1.00  0.00     0.173 A 
ATOM     63  C   UNL A   1      42.956  32.239  34.622  1.00  0.00     0.173 A 
ATOM     64  F   UNL A   1      43.968  33.498  31.362  1.00  0.00    -0.203 F 
ATOM     65  C   UNL A   1      43.704  34.622  33.411  1.00  0.00     0.198 A 
ATOM     66  C   UNL A   1      42.987  33.420  35.359  1.00  0.00     0.198 A 
ATOM     67  F   UNL A   1      42.605  31.103  35.242  1.00  0.00    -0.203 F 
ATOM     68  F   UNL A   1      44.113  35.761  32.836  1.00  0.00    -0.200 F 
ATOM     69  C   UNL A   1      43.375  34.606  34.758  1.00  0.00     0.200 A 
ATOM     70  F   UNL A   1      42.652  33.406  36.657  1.00  0.00    -0.200 F 
ATOM     71  F   UNL A   1      43.441  35.735  35.478  1.00  0.00    -0.200 F 
ENDBRANCH  47  61
BRANCH  48  72
ATOM     72  C   UNL A   1      42.713  23.981  27.640  1.00  0.00     0.064 A 
ATOM     73  C   UNL A   1      42.315  22.755  28.195  1.00  0.00     0.173 A 
ATOM     74  C   UNL A   1      43.024  24.008  26.273  1.00  0.00     0.173 A 
ATOM     75  F   UNL A   1      42.028  22.674  29.501  1.00  0.00    -0.203 F 
ATOM     76  C   UNL A   1      42.247  21.602  27.416  1.00  0.00     0.198 A 
ATOM     77  C   UNL A   1      42.926  22.860  25.490  1.00  0.00     0.198 A 
ATOM     78  F   UNL A   1      43.403  25.156  25.692  1.00  0.00    -0.203 F 
ATOM     79  F   UNL A   1      41.903  20.436  27.981  1.00  0.00    -0.200 F 
ATOM     80  C   UNL A   1      42.544  21.655  26.063  1.00  0.00     0.200 A 
ATOM     81  F   UNL A   1      43.198  22.920  24.179  1.00  0.00    -0.200 F 
ATOM     82  F   UNL A   1      42.469  20.548  25.313  1.00  0.00    -0.200 F 
ENDBRANCH  48  72
BRANCH  60  83
ATOM     83  C   UNL A   1      47.647  26.680  31.772  1.00  0.00     0.064 A 
ATOM     84  C   UNL A   1      48.806  27.127  31.120  1.00  0.00     0.173 A 
ATOM     85  C   UNL A   1      47.800  25.813  32.864  1.00  0.00     0.173 A 
ATOM     86  F   UNL A   1      48.714  27.945  30.062  1.00  0.00    -0.203 F 
ATOM     87  C   UNL A   1      50.066  26.705  31.536  1.00  0.00     0.198 A 
ATOM     88  C   UNL A   1      49.064  25.420  33.298  1.00  0.00     0.198 A 
ATOM     89  F   UNL A   1      46.724  25.361  33.526  1.00  0.00    -0.203 F 
ATOM     90  F   UNL A   1      51.159  27.109  30.872  1.00  0.00    -0.200 F 
ATOM     91  C   UNL A   1      50.195  25.861  32.630  1.00  0.00     0.200 A 
ATOM     92  F   UNL A   1      49.185  24.620  34.367  1.00  0.00    -0.200 F 
ATOM     93  F   UNL A   1      51.410  25.470  33.038  1.00  0.00    -0.200 F 
ENDBRANCH  60  83
ENDBRANCH  34  35
ENDBRANCH  26  29
ENDBRANCH  24  25
ENDBRANCH  23  24
ENDBRANCH  22  23
ENDBRANCH  21  22
ENDBRANCH  20  21
ENDBRANCH   1  20
TORSDOF 19
ENDMDL
