MODEL 1
REMARK VINA RESULT:     -12.9      0.000      0.000
REMARK SMILES O=C(NCCCCCCNC(=O)c1ccc(N2C(=O)/C(=C/c3ccco3)SC2=S)cc1)c1ccc(-c2c3nc(c(-c4c(F)c(F)c(F)c(F)c4F)c4ccc([nH]4)c(-c4c(F)c(F)c(F)c(F)c4F)c4nc(c(-c5c(F)c(F)c(F)c(F)c5F)c5ccc2[nH]5)C=C4)C=C3)cc1
REMARK SMILES IDX 6 1 5 2 4 3 3 4 1 5 2 6 32 8 33 9 94 10 34 11 93 12 35 13
REMARK SMILES IDX 36 14 37 15 87 16 38 17 92 18 86 19 88 20 39 21 91 22 85 23
REMARK SMILES IDX 84 24 40 26 72 27 52 28 71 29 53 30 56 31 70 32 89 33 54 34
REMARK SMILES IDX 55 35 69 37 90 38 57 39 41 40 42 41 50 42 43 43 44 44 48 45
REMARK SMILES IDX 51 46 45 47 46 48 49 49 47 50 73 51 74 52 82 53 75 54 76 55
REMARK SMILES IDX 80 56 83 57 77 58 78 59 81 60 79 61 58 62 59 63 67 64 60 65
REMARK SMILES IDX 61 66 65 67 68 68 62 69 63 70 66 71 64 72 7 73 8 74 9 75
REMARK SMILES IDX 10 76 11 77 12 79 13 80 14 81 31 82 15 83 30 84 16 85 17 86
REMARK SMILES IDX 18 87 28 88 19 89 20 90 27 91 29 92 21 93 22 94 23 95 26 96
REMARK SMILES IDX 24 97 25 98
REMARK H PARENT 3 7 88 25 56 36 10 78
REMARK Flexibility Score: inf
ROOT
ATOM      1  C   UNL A   1      31.765  30.574  26.877  1.00  0.00     0.002 C 
ENDROOT
BRANCH   1   2
ATOM      2  C   UNL A   1      31.499  32.078  26.851  1.00  0.00     0.021 C 
BRANCH   2   3
ATOM      3  C   UNL A   1      32.746  32.945  26.955  1.00  0.00     0.116 C 
BRANCH   3   4
ATOM      4  N   UNL A   1      32.491  34.211  27.622  1.00  0.00    -0.352 N 
ATOM      5  O   UNL A   1      32.626  35.737  29.282  1.00  0.00    -0.269 OA
ATOM      6  C   UNL A   1      33.075  34.725  28.753  1.00  0.00     0.251 C 
ATOM      7  H   UNL A   1      31.802  34.779  27.205  1.00  0.00     0.163 HD
BRANCH   6   8
ATOM      8  C   UNL A   1      34.242  34.038  29.344  1.00  0.00     0.039 A 
ATOM      9  C   UNL A   1      34.061  33.017  30.281  1.00  0.00     0.014 A 
ATOM     10  C   UNL A   1      35.529  34.419  28.957  1.00  0.00     0.014 A 
ATOM     11  C   UNL A   1      35.161  32.481  30.935  1.00  0.00     0.010 A 
ATOM     12  C   UNL A   1      36.639  33.807  29.547  1.00  0.00     0.010 A 
ATOM     13  C   UNL A   1      36.463  32.850  30.558  1.00  0.00    -0.014 A 
BRANCH  13  14
ATOM     14  C   UNL A   1      37.619  32.154  31.177  1.00  0.00     0.031 A 
ATOM     15  C   UNL A   1      38.078  32.483  32.569  1.00  0.00     0.074 A 
ATOM     16  C   UNL A   1      38.245  31.198  30.463  1.00  0.00     0.049 A 
ATOM     17  N   UNL A   1      39.066  31.962  33.254  1.00  0.00    -0.248 NA
ATOM     18  C   UNL A   1      37.342  33.534  33.284  1.00  0.00     0.031 C 
ATOM     19  C   UNL A   1      37.892  30.804  29.097  1.00  0.00     0.029 A 
ATOM     20  N   UNL A   1      39.294  30.375  30.784  1.00  0.00    -0.354 N 
ATOM     21  C   UNL A   1      39.080  32.631  34.472  1.00  0.00     0.074 A 
ATOM     22  C   UNL A   1      38.020  33.616  34.421  1.00  0.00     0.031 C 
ATOM     23  C   UNL A   1      38.679  29.789  28.713  1.00  0.00     0.029 A 
ATOM     24  C   UNL A   1      39.637  29.510  29.775  1.00  0.00     0.049 A 
ATOM     25  H   UNL A   1      39.755  30.402  31.653  1.00  0.00     0.167 HD
ATOM     26  C   UNL A   1      39.900  32.432  35.532  1.00  0.00     0.037 A 
ATOM     27  C   UNL A   1      40.630  28.606  29.700  1.00  0.00     0.037 A 
ATOM     28  C   UNL A   1      40.950  31.444  35.572  1.00  0.00     0.049 A 
ATOM     29  C   UNL A   1      41.548  28.439  30.876  1.00  0.00     0.074 A 
ATOM     30  C   UNL A   1      41.811  31.140  36.612  1.00  0.00     0.029 A 
ATOM     31  N   UNL A   1      41.290  30.606  34.517  1.00  0.00    -0.354 N 
ATOM     32  N   UNL A   1      41.524  29.046  32.038  1.00  0.00    -0.248 NA
ATOM     33  C   UNL A   1      42.632  27.460  30.731  1.00  0.00     0.031 C 
ATOM     34  C   UNL A   1      42.709  30.164  36.168  1.00  0.00     0.029 A 
ATOM     35  C   UNL A   1      42.367  29.809  34.874  1.00  0.00     0.049 A 
ATOM     36  H   UNL A   1      40.834  30.583  33.646  1.00  0.00     0.167 HD
ATOM     37  C   UNL A   1      42.573  28.508  32.770  1.00  0.00     0.074 A 
ATOM     38  C   UNL A   1      43.200  27.511  31.928  1.00  0.00     0.031 C 
ATOM     39  C   UNL A   1      42.980  28.817  34.025  1.00  0.00     0.037 A 
BRANCH  26  40
ATOM     40  C   UNL A   1      39.714  33.312  36.737  1.00  0.00     0.064 A 
ATOM     41  C   UNL A   1      40.407  34.522  36.884  1.00  0.00     0.173 A 
ATOM     42  C   UNL A   1      38.788  32.964  37.734  1.00  0.00     0.173 A 
ATOM     43  F   UNL A   1      41.310  34.900  35.966  1.00  0.00    -0.203 F 
ATOM     44  C   UNL A   1      40.201  35.338  37.996  1.00  0.00     0.198 A 
ATOM     45  C   UNL A   1      38.561  33.796  38.827  1.00  0.00     0.198 A 
ATOM     46  F   UNL A   1      38.091  31.822  37.641  1.00  0.00    -0.203 F 
ATOM     47  F   UNL A   1      40.908  36.468  38.137  1.00  0.00    -0.200 F 
ATOM     48  C   UNL A   1      39.273  34.978  38.961  1.00  0.00     0.200 A 
ATOM     49  F   UNL A   1      37.652  33.455  39.751  1.00  0.00    -0.200 F 
ATOM     50  F   UNL A   1      39.068  35.768  40.024  1.00  0.00    -0.200 F 
ENDBRANCH  26  40
BRANCH  27  51
ATOM     51  C   UNL A   1      40.808  27.806  28.461  1.00  0.00     0.064 A 
ATOM     52  C   UNL A   1      41.611  28.268  27.411  1.00  0.00     0.173 A 
ATOM     53  C   UNL A   1      40.185  26.558  28.306  1.00  0.00     0.173 A 
ATOM     54  F   UNL A   1      42.214  29.463  27.505  1.00  0.00    -0.203 F 
ATOM     55  C   UNL A   1      41.768  27.523  26.244  1.00  0.00     0.198 A 
ATOM     56  C   UNL A   1      40.372  25.797  27.155  1.00  0.00     0.198 A 
ATOM     57  F   UNL A   1      39.413  26.066  29.286  1.00  0.00    -0.203 F 
ATOM     58  F   UNL A   1      42.504  28.010  25.235  1.00  0.00    -0.200 F 
ATOM     59  C   UNL A   1      41.155  26.285  26.120  1.00  0.00     0.200 A 
ATOM     60  F   UNL A   1      39.795  24.593  27.049  1.00  0.00    -0.200 F 
ATOM     61  F   UNL A   1      41.314  25.566  25.002  1.00  0.00    -0.200 F 
ENDBRANCH  27  51
BRANCH  39  62
ATOM     62  C   UNL A   1      44.138  28.037  34.578  1.00  0.00     0.064 A 
ATOM     63  C   UNL A   1      43.958  26.814  35.241  1.00  0.00     0.173 A 
ATOM     64  C   UNL A   1      45.450  28.512  34.421  1.00  0.00     0.173 A 
ATOM     65  F   UNL A   1      42.724  26.326  35.433  1.00  0.00    -0.203 F 
ATOM     66  C   UNL A   1      45.045  26.111  35.752  1.00  0.00     0.198 A 
ATOM     67  C   UNL A   1      46.537  27.788  34.902  1.00  0.00     0.198 A 
ATOM     68  F   UNL A   1      45.678  29.674  33.791  1.00  0.00    -0.203 F 
ATOM     69  F   UNL A   1      44.844  24.973  36.432  1.00  0.00    -0.200 F 
ATOM     70  C   UNL A   1      46.333  26.594  35.576  1.00  0.00     0.200 A 
ATOM     71  F   UNL A   1      47.781  28.249  34.718  1.00  0.00    -0.200 F 
ATOM     72  F   UNL A   1      47.379  25.912  36.064  1.00  0.00    -0.200 F 
ENDBRANCH  39  62
ENDBRANCH  13  14
ENDBRANCH   6   8
ENDBRANCH   3   4
ENDBRANCH   2   3
ENDBRANCH   1   2
BRANCH   1  73
ATOM     73  C   UNL A   1      31.798  29.896  25.504  1.00  0.00     0.002 C 
BRANCH  73  74
ATOM     74  C   UNL A   1      33.158  29.328  25.086  1.00  0.00     0.021 C 
BRANCH  74  75
ATOM     75  C   UNL A   1      33.283  28.998  23.600  1.00  0.00     0.116 C 
BRANCH  75  76
ATOM     76  N   UNL A   1      31.987  28.972  22.945  1.00  0.00    -0.352 N 
ATOM     77  C   UNL A   1      31.260  27.888  22.529  1.00  0.00     0.251 C 
ATOM     78  H   UNL A   1      31.575  29.851  22.780  1.00  0.00     0.163 HD
ATOM     79  O   UNL A   1      30.280  28.030  21.806  1.00  0.00    -0.269 OA
BRANCH  77  80
ATOM     80  C   UNL A   1      31.673  26.537  22.954  1.00  0.00     0.039 A 
ATOM     81  C   UNL A   1      31.068  25.962  24.069  1.00  0.00     0.016 A 
ATOM     82  C   UNL A   1      32.664  25.848  22.252  1.00  0.00     0.016 A 
ATOM     83  C   UNL A   1      31.424  24.667  24.456  1.00  0.00     0.027 A 
ATOM     84  C   UNL A   1      33.019  24.557  22.644  1.00  0.00     0.027 A 
ATOM     85  C   UNL A   1      32.410  23.954  23.755  1.00  0.00     0.051 A 
BRANCH  85  86
ATOM     86  N   UNL A   1      32.769  22.633  24.158  1.00  0.00    -0.261 N 
ATOM     87  C   UNL A   1      32.297  21.541  23.429  1.00  0.00     0.270 C 
ATOM     88  C   UNL A   1      33.567  22.341  25.258  1.00  0.00     0.152 C 
ATOM     89  O   UNL A   1      31.591  21.557  22.432  1.00  0.00    -0.268 OA
ATOM     90  C   UNL A   1      32.812  20.273  24.015  1.00  0.00     0.084 C 
ATOM     91  S   UNL A   1      33.806  20.603  25.374  1.00  0.00    -0.054 SA
ATOM     92  S   UNL A   1      34.182  23.348  26.446  1.00  0.00    -0.051 S 
ATOM     93  C   UNL A   1      32.526  19.084  23.468  1.00  0.00     0.068 C 
BRANCH  93  94
ATOM     94  C   UNL A   1      32.979  17.854  24.014  1.00  0.00     0.127 A 
ATOM     95  C   UNL A   1      34.026  17.033  23.608  1.00  0.00     0.050 A 
ATOM     96  O   UNL A   1      32.405  17.275  25.122  1.00  0.00    -0.465 OA
ATOM     97  C   UNL A   1      34.055  15.910  24.465  1.00  0.00     0.042 A 
ATOM     98  C   UNL A   1      33.041  16.104  25.368  1.00  0.00     0.195 A 
ENDBRANCH  93  94
ENDBRANCH  85  86
ENDBRANCH  77  80
ENDBRANCH  75  76
ENDBRANCH  74  75
ENDBRANCH  73  74
ENDBRANCH   1  73
TORSDOF 15
ENDMDL
MODEL 2
REMARK VINA RESULT:     -12.5      0.375      7.230
REMARK SMILES O=C(NCCCCCCNC(=O)c1ccc(N2C(=O)/C(=C/c3ccco3)SC2=S)cc1)c1ccc(-c2c3nc(c(-c4c(F)c(F)c(F)c(F)c4F)c4ccc([nH]4)c(-c4c(F)c(F)c(F)c(F)c4F)c4nc(c(-c5c(F)c(F)c(F)c(F)c5F)c5ccc2[nH]5)C=C4)C=C3)cc1
REMARK SMILES IDX 6 1 5 2 4 3 3 4 1 5 2 6 32 8 33 9 94 10 34 11 93 12 35 13
REMARK SMILES IDX 36 14 37 15 87 16 38 17 92 18 86 19 88 20 39 21 91 22 85 23
REMARK SMILES IDX 84 24 40 26 72 27 52 28 71 29 53 30 56 31 70 32 89 33 54 34
REMARK SMILES IDX 55 35 69 37 90 38 57 39 41 40 42 41 50 42 43 43 44 44 48 45
REMARK SMILES IDX 51 46 45 47 46 48 49 49 47 50 73 51 74 52 82 53 75 54 76 55
REMARK SMILES IDX 80 56 83 57 77 58 78 59 81 60 79 61 58 62 59 63 67 64 60 65
REMARK SMILES IDX 61 66 65 67 68 68 62 69 63 70 66 71 64 72 7 73 8 74 9 75
REMARK SMILES IDX 10 76 11 77 12 79 13 80 14 81 31 82 15 83 30 84 16 85 17 86
REMARK SMILES IDX 18 87 28 88 19 89 20 90 27 91 29 92 21 93 22 94 23 95 26 96
REMARK SMILES IDX 24 97 25 98
REMARK H PARENT 3 7 88 25 56 36 10 78
REMARK Flexibility Score: inf
ROOT
ATOM      1  C   UNL A   1      32.162  30.448  27.058  1.00  0.00     0.002 C 
ENDROOT
BRANCH   1   2
ATOM      2  C   UNL A   1      31.708  31.907  27.050  1.00  0.00     0.021 C 
BRANCH   2   3
ATOM      3  C   UNL A   1      32.836  32.921  26.921  1.00  0.00     0.116 C 
BRANCH   3   4
ATOM      4  N   UNL A   1      32.540  34.172  27.601  1.00  0.00    -0.352 N 
ATOM      5  O   UNL A   1      32.613  35.680  29.282  1.00  0.00    -0.269 OA
ATOM      6  C   UNL A   1      33.094  34.687  28.746  1.00  0.00     0.251 C 
ATOM      7  H   UNL A   1      31.844  34.728  27.180  1.00  0.00     0.163 HD
BRANCH   6   8
ATOM      8  C   UNL A   1      34.269  34.020  29.347  1.00  0.00     0.039 A 
ATOM      9  C   UNL A   1      34.101  32.953  30.232  1.00  0.00     0.014 A 
ATOM     10  C   UNL A   1      35.551  34.469  29.020  1.00  0.00     0.014 A 
ATOM     11  C   UNL A   1      35.200  32.432  30.900  1.00  0.00     0.010 A 
ATOM     12  C   UNL A   1      36.666  33.875  29.619  1.00  0.00     0.010 A 
ATOM     13  C   UNL A   1      36.497  32.868  30.582  1.00  0.00    -0.014 A 
BRANCH  13  14
ATOM     14  C   UNL A   1      37.661  32.192  31.210  1.00  0.00     0.031 A 
ATOM     15  C   UNL A   1      38.447  31.144  30.476  1.00  0.00     0.074 A 
ATOM     16  C   UNL A   1      38.011  32.555  32.459  1.00  0.00     0.049 A 
ATOM     17  N   UNL A   1      39.492  30.465  30.881  1.00  0.00    -0.248 NA
ATOM     18  C   UNL A   1      38.005  30.807  29.116  1.00  0.00     0.031 C 
ATOM     19  C   UNL A   1      37.311  33.553  33.271  1.00  0.00     0.029 A 
ATOM     20  N   UNL A   1      39.044  32.142  33.260  1.00  0.00    -0.354 N 
ATOM     21  C   UNL A   1      39.821  29.611  29.836  1.00  0.00     0.074 A 
ATOM     22  C   UNL A   1      38.848  29.837  28.788  1.00  0.00     0.031 C 
ATOM     23  C   UNL A   1      37.958  33.707  34.434  1.00  0.00     0.029 A 
ATOM     24  C   UNL A   1      39.072  32.770  34.481  1.00  0.00     0.049 A 
ATOM     25  H   UNL A   1      39.702  31.463  32.986  1.00  0.00     0.167 HD
ATOM     26  C   UNL A   1      40.847  28.729  29.761  1.00  0.00     0.037 A 
ATOM     27  C   UNL A   1      39.889  32.594  35.535  1.00  0.00     0.037 A 
ATOM     28  C   UNL A   1      41.813  28.516  30.811  1.00  0.00     0.049 A 
ATOM     29  C   UNL A   1      40.991  31.578  35.436  1.00  0.00     0.074 A 
ATOM     30  C   UNL A   1      42.909  27.671  30.818  1.00  0.00     0.029 A 
ATOM     31  N   UNL A   1      41.790  29.147  32.049  1.00  0.00    -0.354 N 
ATOM     32  N   UNL A   1      41.320  30.808  34.427  1.00  0.00    -0.248 NA
ATOM     33  C   UNL A   1      41.836  31.405  36.624  1.00  0.00     0.031 C 
ATOM     34  C   UNL A   1      43.514  27.745  32.078  1.00  0.00     0.029 A 
ATOM     35  C   UNL A   1      42.835  28.687  32.835  1.00  0.00     0.049 A 
ATOM     36  H   UNL A   1      41.130  29.822  32.326  1.00  0.00     0.167 HD
ATOM     37  C   UNL A   1      42.420  30.078  34.848  1.00  0.00     0.074 A 
ATOM     38  C   UNL A   1      42.716  30.511  36.198  1.00  0.00     0.031 C 
ATOM     39  C   UNL A   1      43.120  29.130  34.177  1.00  0.00     0.037 A 
BRANCH  26  40
ATOM     40  C   UNL A   1      40.973  27.905  28.510  1.00  0.00     0.064 A 
ATOM     41  C   UNL A   1      40.310  26.677  28.362  1.00  0.00     0.173 A 
ATOM     42  C   UNL A   1      41.726  28.375  27.423  1.00  0.00     0.173 A 
ATOM     43  F   UNL A   1      39.583  26.176  29.372  1.00  0.00    -0.203 F 
ATOM     44  C   UNL A   1      40.417  25.941  27.183  1.00  0.00     0.198 A 
ATOM     45  C   UNL A   1      41.806  27.652  26.235  1.00  0.00     0.198 A 
ATOM     46  F   UNL A   1      42.374  29.546  27.506  1.00  0.00    -0.203 F 
ATOM     47  F   UNL A   1      39.811  24.749  27.082  1.00  0.00    -0.200 F 
ATOM     48  C   UNL A   1      41.158  26.432  26.119  1.00  0.00     0.200 A 
ATOM     49  F   UNL A   1      42.509  28.137  25.202  1.00  0.00    -0.200 F 
ATOM     50  F   UNL A   1      41.251  25.727  24.984  1.00  0.00    -0.200 F 
ENDBRANCH  26  40
BRANCH  27  51
ATOM     51  C   UNL A   1      39.682  33.391  36.771  1.00  0.00     0.064 A 
ATOM     52  C   UNL A   1      38.819  32.948  37.781  1.00  0.00     0.173 A 
ATOM     53  C   UNL A   1      40.351  34.609  36.971  1.00  0.00     0.173 A 
ATOM     54  F   UNL A   1      38.145  31.798  37.629  1.00  0.00    -0.203 F 
ATOM     55  C   UNL A   1      38.616  33.702  38.935  1.00  0.00     0.198 A 
ATOM     56  C   UNL A   1      40.175  35.344  38.140  1.00  0.00     0.198 A 
ATOM     57  F   UNL A   1      41.194  35.074  36.038  1.00  0.00    -0.203 F 
ATOM     58  F   UNL A   1      37.749  33.278  39.864  1.00  0.00    -0.200 F 
ATOM     59  C   UNL A   1      39.299  34.895  39.117  1.00  0.00     0.200 A 
ATOM     60  F   UNL A   1      40.853  36.484  38.320  1.00  0.00    -0.200 F 
ATOM     61  F   UNL A   1      39.110  35.614  40.231  1.00  0.00    -0.200 F 
ENDBRANCH  27  51
BRANCH  39  62
ATOM     62  C   UNL A   1      44.300  28.526  34.882  1.00  0.00     0.064 A 
ATOM     63  C   UNL A   1      44.179  27.371  35.670  1.00  0.00     0.173 A 
ATOM     64  C   UNL A   1      45.574  29.099  34.749  1.00  0.00     0.173 A 
ATOM     65  F   UNL A   1      42.980  26.795  35.845  1.00  0.00    -0.203 F 
ATOM     66  C   UNL A   1      45.284  26.831  36.321  1.00  0.00     0.198 A 
ATOM     67  C   UNL A   1      46.683  28.535  35.373  1.00  0.00     0.198 A 
ATOM     68  F   UNL A   1      45.745  30.201  34.004  1.00  0.00    -0.203 F 
ATOM     69  F   UNL A   1      45.135  25.761  37.114  1.00  0.00    -0.200 F 
ATOM     70  C   UNL A   1      46.536  27.408  36.166  1.00  0.00     0.200 A 
ATOM     71  F   UNL A   1      47.894  29.086  35.210  1.00  0.00    -0.200 F 
ATOM     72  F   UNL A   1      47.600  26.882  36.789  1.00  0.00    -0.200 F 
ENDBRANCH  39  62
ENDBRANCH  13  14
ENDBRANCH   6   8
ENDBRANCH   3   4
ENDBRANCH   2   3
ENDBRANCH   1   2
BRANCH   1  73
ATOM     73  C   UNL A   1      31.869  29.670  25.772  1.00  0.00     0.002 C 
BRANCH  73  74
ATOM     74  C   UNL A   1      33.079  28.981  25.133  1.00  0.00     0.021 C 
BRANCH  74  75
ATOM     75  C   UNL A   1      33.188  29.155  23.620  1.00  0.00     0.116 C 
BRANCH  75  76
ATOM     76  N   UNL A   1      31.882  29.174  22.986  1.00  0.00    -0.352 N 
ATOM     77  C   UNL A   1      31.118  28.117  22.567  1.00  0.00     0.251 C 
ATOM     78  H   UNL A   1      31.492  30.067  22.839  1.00  0.00     0.163 HD
ATOM     79  O   UNL A   1      30.131  28.296  21.862  1.00  0.00    -0.269 OA
BRANCH  77  80
ATOM     80  C   UNL A   1      31.499  26.749  22.967  1.00  0.00     0.039 A 
ATOM     81  C   UNL A   1      32.592  26.142  22.352  1.00  0.00     0.016 A 
ATOM     82  C   UNL A   1      30.767  26.069  23.943  1.00  0.00     0.016 A 
ATOM     83  C   UNL A   1      32.983  24.862  22.753  1.00  0.00     0.027 A 
ATOM     84  C   UNL A   1      31.160  24.790  24.337  1.00  0.00     0.027 A 
ATOM     85  C   UNL A   1      32.267  24.167  23.741  1.00  0.00     0.051 A 
BRANCH  85  86
ATOM     86  N   UNL A   1      32.673  22.859  24.142  1.00  0.00    -0.261 N 
ATOM     87  C   UNL A   1      32.214  21.750  23.431  1.00  0.00     0.270 C 
ATOM     88  C   UNL A   1      33.506  22.596  25.223  1.00  0.00     0.152 C 
ATOM     89  O   UNL A   1      31.482  21.740  22.452  1.00  0.00    -0.268 OA
ATOM     90  C   UNL A   1      32.778  20.500  24.010  1.00  0.00     0.084 C 
ATOM     91  S   UNL A   1      33.796  20.866  25.342  1.00  0.00    -0.054 SA
ATOM     92  S   UNL A   1      34.121  23.626  26.391  1.00  0.00    -0.051 S 
ATOM     93  C   UNL A   1      32.512  19.301  23.477  1.00  0.00     0.068 C 
BRANCH  93  94
ATOM     94  C   UNL A   1      33.012  18.087  24.018  1.00  0.00     0.127 A 
ATOM     95  C   UNL A   1      33.851  17.137  23.444  1.00  0.00     0.050 A 
ATOM     96  O   UNL A   1      32.726  17.668  25.296  1.00  0.00    -0.465 OA
ATOM     97  C   UNL A   1      34.036  16.098  24.383  1.00  0.00     0.042 A 
ATOM     98  C   UNL A   1      33.323  16.467  25.494  1.00  0.00     0.195 A 
ENDBRANCH  93  94
ENDBRANCH  85  86
ENDBRANCH  77  80
ENDBRANCH  75  76
ENDBRANCH  74  75
ENDBRANCH  73  74
ENDBRANCH   1  73
TORSDOF 15
ENDMDL
MODEL 3
REMARK VINA RESULT:     -12.5      1.876      2.633
REMARK SMILES O=C(NCCCCCCNC(=O)c1ccc(N2C(=O)/C(=C/c3ccco3)SC2=S)cc1)c1ccc(-c2c3nc(c(-c4c(F)c(F)c(F)c(F)c4F)c4ccc([nH]4)c(-c4c(F)c(F)c(F)c(F)c4F)c4nc(c(-c5c(F)c(F)c(F)c(F)c5F)c5ccc2[nH]5)C=C4)C=C3)cc1
REMARK SMILES IDX 6 1 5 2 4 3 3 4 1 5 2 6 32 8 33 9 94 10 34 11 93 12 35 13
REMARK SMILES IDX 36 14 37 15 87 16 38 17 92 18 86 19 88 20 39 21 91 22 85 23
REMARK SMILES IDX 84 24 40 26 72 27 52 28 71 29 53 30 56 31 70 32 89 33 54 34
REMARK SMILES IDX 55 35 69 37 90 38 57 39 41 40 42 41 50 42 43 43 44 44 48 45
REMARK SMILES IDX 51 46 45 47 46 48 49 49 47 50 73 51 74 52 82 53 75 54 76 55
REMARK SMILES IDX 80 56 83 57 77 58 78 59 81 60 79 61 58 62 59 63 67 64 60 65
REMARK SMILES IDX 61 66 65 67 68 68 62 69 63 70 66 71 64 72 7 73 8 74 9 75
REMARK SMILES IDX 10 76 11 77 12 79 13 80 14 81 31 82 15 83 30 84 16 85 17 86
REMARK SMILES IDX 18 87 28 88 19 89 20 90 27 91 29 92 21 93 22 94 23 95 26 96
REMARK SMILES IDX 24 97 25 98
REMARK H PARENT 3 7 88 25 56 36 10 78
REMARK Flexibility Score: inf
ROOT
ATOM      1  C   UNL A   1      34.594  33.783  28.641  1.00  0.00     0.002 C 
ENDROOT
BRANCH   1   2
ATOM      2  C   UNL A   1      33.293  34.575  28.749  1.00  0.00     0.021 C 
BRANCH   2   3
ATOM      3  C   UNL A   1      33.440  35.955  29.373  1.00  0.00     0.116 C 
BRANCH   3   4
ATOM      4  N   UNL A   1      32.542  36.156  30.499  1.00  0.00    -0.352 N 
ATOM      5  O   UNL A   1      31.702  35.791  32.564  1.00  0.00    -0.269 OA
ATOM      6  C   UNL A   1      32.634  35.663  31.777  1.00  0.00     0.251 C 
ATOM      7  H   UNL A   1      31.759  36.726  30.319  1.00  0.00     0.163 HD
BRANCH   6   8
ATOM      8  C   UNL A   1      33.862  34.955  32.195  1.00  0.00     0.039 A 
ATOM      9  C   UNL A   1      35.099  35.602  32.158  1.00  0.00     0.014 A 
ATOM     10  C   UNL A   1      33.773  33.629  32.628  1.00  0.00     0.014 A 
ATOM     11  C   UNL A   1      36.259  34.884  32.413  1.00  0.00     0.010 A 
ATOM     12  C   UNL A   1      34.935  32.937  32.979  1.00  0.00     0.010 A 
ATOM     13  C   UNL A   1      36.190  33.552  32.852  1.00  0.00    -0.014 A 
BRANCH  13  14
ATOM     14  C   UNL A   1      37.439  32.857  33.253  1.00  0.00     0.031 A 
ATOM     15  C   UNL A   1      38.117  33.155  34.559  1.00  0.00     0.074 A 
ATOM     16  C   UNL A   1      37.950  31.931  32.418  1.00  0.00     0.049 A 
ATOM     17  N   UNL A   1      39.209  32.630  35.059  1.00  0.00    -0.248 NA
ATOM     18  C   UNL A   1      37.496  34.174  35.417  1.00  0.00     0.031 C 
ATOM     19  C   UNL A   1      37.381  31.570  31.117  1.00  0.00     0.029 A 
ATOM     20  N   UNL A   1      39.045  31.116  32.538  1.00  0.00    -0.354 N 
ATOM     21  C   UNL A   1      39.415  33.265  36.277  1.00  0.00     0.074 A 
ATOM     22  C   UNL A   1      38.350  34.235  36.429  1.00  0.00     0.031 C 
ATOM     23  C   UNL A   1      38.106  30.578  30.580  1.00  0.00     0.029 A 
ATOM     24  C   UNL A   1      39.227  30.284  31.461  1.00  0.00     0.049 A 
ATOM     25  H   UNL A   1      39.642  31.126  33.321  1.00  0.00     0.167 HD
ATOM     26  C   UNL A   1      40.399  33.049  37.182  1.00  0.00     0.037 A 
ATOM     27  C   UNL A   1      40.204  29.398  31.198  1.00  0.00     0.037 A 
ATOM     28  C   UNL A   1      41.452  32.077  37.021  1.00  0.00     0.049 A 
ATOM     29  C   UNL A   1      41.304  29.212  32.203  1.00  0.00     0.074 A 
ATOM     30  C   UNL A   1      42.475  31.757  37.897  1.00  0.00     0.029 A 
ATOM     31  N   UNL A   1      41.624  31.273  35.900  1.00  0.00    -0.354 N 
ATOM     32  N   UNL A   1      41.464  29.786  33.371  1.00  0.00    -0.248 NA
ATOM     33  C   UNL A   1      42.360  28.254  31.854  1.00  0.00     0.031 C 
ATOM     34  C   UNL A   1      43.298  30.807  37.283  1.00  0.00     0.029 A 
ATOM     35  C   UNL A   1      42.753  30.483  36.052  1.00  0.00     0.049 A 
ATOM     36  H   UNL A   1      41.031  31.267  35.115  1.00  0.00     0.167 HD
ATOM     37  C   UNL A   1      42.624  29.244  33.905  1.00  0.00     0.074 A 
ATOM     38  C   UNL A   1      43.115  28.280  32.942  1.00  0.00     0.031 C 
ATOM     39  C   UNL A   1      43.228  29.524  35.085  1.00  0.00     0.037 A 
BRANCH  26  40
ATOM     40  C   UNL A   1      40.404  33.892  38.428  1.00  0.00     0.064 A 
ATOM     41  C   UNL A   1      41.142  35.082  38.513  1.00  0.00     0.173 A 
ATOM     42  C   UNL A   1      39.616  33.532  39.532  1.00  0.00     0.173 A 
ATOM     43  F   UNL A   1      41.919  35.471  37.490  1.00  0.00    -0.203 F 
ATOM     44  C   UNL A   1      41.112  35.865  39.667  1.00  0.00     0.198 A 
ATOM     45  C   UNL A   1      39.563  34.332  40.671  1.00  0.00     0.198 A 
ATOM     46  F   UNL A   1      38.883  32.409  39.503  1.00  0.00    -0.203 F 
ATOM     47  F   UNL A   1      41.861  36.974  39.742  1.00  0.00    -0.200 F 
ATOM     48  C   UNL A   1      40.317  35.493  40.740  1.00  0.00     0.200 A 
ATOM     49  F   UNL A   1      38.782  33.979  41.701  1.00  0.00    -0.200 F 
ATOM     50  F   UNL A   1      40.282  36.252  41.844  1.00  0.00    -0.200 F 
ENDBRANCH  26  40
BRANCH  27  51
ATOM     51  C   UNL A   1      40.185  28.635  29.924  1.00  0.00     0.064 A 
ATOM     52  C   UNL A   1      40.806  29.135  28.772  1.00  0.00     0.173 A 
ATOM     53  C   UNL A   1      39.553  27.385  29.834  1.00  0.00     0.173 A 
ATOM     54  F   UNL A   1      41.409  30.334  28.803  1.00  0.00    -0.203 F 
ATOM     55  C   UNL A   1      40.777  28.425  27.573  1.00  0.00     0.198 A 
ATOM     56  C   UNL A   1      39.557  26.659  28.646  1.00  0.00     0.198 A 
ATOM     57  F   UNL A   1      38.951  26.857  30.910  1.00  0.00    -0.203 F 
ATOM     58  F   UNL A   1      41.338  28.948  26.475  1.00  0.00    -0.200 F 
ATOM     59  C   UNL A   1      40.160  27.185  27.513  1.00  0.00     0.200 A 
ATOM     60  F   UNL A   1      38.978  25.453  28.599  1.00  0.00    -0.200 F 
ATOM     61  F   UNL A   1      40.141  26.499  26.363  1.00  0.00    -0.200 F 
ENDBRANCH  27  51
BRANCH  39  62
ATOM     62  C   UNL A   1      44.470  28.747  35.418  1.00  0.00     0.064 A 
ATOM     63  C   UNL A   1      44.416  27.524  36.104  1.00  0.00     0.173 A 
ATOM     64  C   UNL A   1      45.730  29.223  35.024  1.00  0.00     0.173 A 
ATOM     65  F   UNL A   1      43.238  27.035  36.520  1.00  0.00    -0.203 F 
ATOM     66  C   UNL A   1      45.579  26.824  36.409  1.00  0.00     0.198 A 
ATOM     67  C   UNL A   1      46.887  28.503  35.299  1.00  0.00     0.198 A 
ATOM     68  F   UNL A   1      45.837  30.385  34.361  1.00  0.00    -0.203 F 
ATOM     69  F   UNL A   1      45.508  25.687  37.115  1.00  0.00    -0.200 F 
ATOM     70  C   UNL A   1      46.813  27.308  36.000  1.00  0.00     0.200 A 
ATOM     71  F   UNL A   1      48.077  28.965  34.890  1.00  0.00    -0.200 F 
ATOM     72  F   UNL A   1      47.931  26.629  36.289  1.00  0.00    -0.200 F 
ENDBRANCH  39  62
ENDBRANCH  13  14
ENDBRANCH   6   8
ENDBRANCH   3   4
ENDBRANCH   2   3
ENDBRANCH   1   2
BRANCH   1  73
ATOM     73  C   UNL A   1      34.507  32.325  29.101  1.00  0.00     0.002 C 
BRANCH  73  74
ATOM     74  C   UNL A   1      35.293  31.321  28.251  1.00  0.00     0.021 C 
BRANCH  74  75
ATOM     75  C   UNL A   1      34.437  30.271  27.547  1.00  0.00     0.116 C 
BRANCH  75  76
ATOM     76  N   UNL A   1      33.177  30.826  27.087  1.00  0.00    -0.352 N 
ATOM     77  C   UNL A   1      32.264  30.279  26.224  1.00  0.00     0.251 C 
ATOM     78  H   UNL A   1      32.948  31.715  27.443  1.00  0.00     0.163 HD
ATOM     79  O   UNL A   1      31.348  30.954  25.768  1.00  0.00    -0.269 OA
BRANCH  77  80
ATOM     80  C   UNL A   1      32.397  28.861  25.840  1.00  0.00     0.039 A 
ATOM     81  C   UNL A   1      31.427  27.951  26.255  1.00  0.00     0.016 A 
ATOM     82  C   UNL A   1      33.486  28.435  25.077  1.00  0.00     0.016 A 
ATOM     83  C   UNL A   1      31.523  26.614  25.862  1.00  0.00     0.027 A 
ATOM     84  C   UNL A   1      33.580  27.098  24.690  1.00  0.00     0.027 A 
ATOM     85  C   UNL A   1      32.605  26.169  25.085  1.00  0.00     0.051 A 
BRANCH  85  86
ATOM     86  N   UNL A   1      32.697  24.801  24.690  1.00  0.00    -0.261 N 
ATOM     87  C   UNL A   1      32.952  23.825  25.655  1.00  0.00     0.270 C 
ATOM     88  C   UNL A   1      32.557  24.354  23.382  1.00  0.00     0.152 C 
ATOM     89  O   UNL A   1      33.105  23.983  26.856  1.00  0.00    -0.268 OA
ATOM     90  C   UNL A   1      32.984  22.477  25.022  1.00  0.00     0.084 C 
ATOM     91  S   UNL A   1      32.691  22.601  23.337  1.00  0.00    -0.054 SA
ATOM     92  S   UNL A   1      32.403  25.215  21.955  1.00  0.00    -0.051 S 
ATOM     93  C   UNL A   1      33.178  21.369  25.750  1.00  0.00     0.068 C 
BRANCH  93  94
ATOM     94  C   UNL A   1      33.239  20.071  25.178  1.00  0.00     0.127 A 
ATOM     95  C   UNL A   1      34.331  19.373  24.670  1.00  0.00     0.050 A 
ATOM     96  O   UNL A   1      32.137  19.256  25.062  1.00  0.00    -0.465 OA
ATOM     97  C   UNL A   1      33.866  18.127  24.195  1.00  0.00     0.042 A 
ATOM     98  C   UNL A   1      32.519  18.108  24.452  1.00  0.00     0.195 A 
ENDBRANCH  93  94
ENDBRANCH  85  86
ENDBRANCH  77  80
ENDBRANCH  75  76
ENDBRANCH  74  75
ENDBRANCH  73  74
ENDBRANCH   1  73
TORSDOF 15
ENDMDL
