MODEL 1
REMARK VINA RESULT:     -13.5      0.000      0.000
REMARK SMILES Cc1cccc(NS(=O)(=O)c2ccc(Br)c(C(=O)NCCCCCCNC(=O)c3ccc(-c4c5nc(c(-c6c(F)c(F)c(F)c(F)c6F)c6ccc([nH]6)c(-c6c(F)c(F)c(F)c(F)c6F)c6nc(c(-c7c(F)c(F)c(F)c(F)c7F)c7ccc4[nH]7)C=C6)C=C5)cc3)c2)c1
REMARK SMILES IDX 22 1 21 2 20 3 19 4 17 5 18 6 16 8 11 9 12 10 92 11 13 12
REMARK SMILES IDX 14 13 15 14 8 15 9 16 10 17 7 18 6 20 1 21 2 22 3 23 93 24
REMARK SMILES IDX 4 25 5 26 23 27 24 28 25 29 26 30 27 31 28 33 29 34 30 35
REMARK SMILES IDX 91 36 31 37 90 38 32 39 33 40 34 41 84 42 35 43 89 44 83 45
REMARK SMILES IDX 85 46 36 47 88 48 82 49 81 50 37 52 69 53 49 54 68 55 50 56
REMARK SMILES IDX 53 57 67 58 86 59 51 60 52 61 66 63 87 64 54 65 38 66 39 67
REMARK SMILES IDX 47 68 40 69 41 70 45 71 48 72 42 73 43 74 46 75 44 76 70 77
REMARK SMILES IDX 71 78 79 79 72 80 73 81 77 82 80 83 74 84 75 85 78 86 76 87
REMARK SMILES IDX 55 88 56 89 64 90 57 91 58 92 62 93 65 94 59 95 60 96 63 97
REMARK SMILES IDX 61 98
REMARK H PARENT 19 7 7 19 26 32 85 51 53 62
REMARK Flexibility Score: inf
ROOT
ATOM      1  C   UNL A   1      33.757  28.028  25.725  1.00  0.00     0.002 C 
ENDROOT
BRANCH   1   2
ATOM      2  C   UNL A   1      34.036  28.448  24.280  1.00  0.00     0.021 C 
BRANCH   2   3
ATOM      3  C   UNL A   1      32.953  28.245  23.229  1.00  0.00     0.116 C 
BRANCH   3   4
ATOM      4  N   UNL A   1      33.232  27.373  22.111  1.00  0.00    -0.352 N 
ATOM      5  C   UNL A   1      33.178  25.988  22.058  1.00  0.00     0.252 C 
ATOM      6  O   UNL A   1      33.279  25.439  20.963  1.00  0.00    -0.269 OA
ATOM      7  H   UNL A   1      33.497  27.822  21.276  1.00  0.00     0.163 HD
BRANCH   5   8
ATOM      8  C   UNL A   1      33.157  25.144  23.293  1.00  0.00     0.055 A 
ATOM      9  C   UNL A   1      34.459  23.778  24.833  1.00  0.00     0.088 A 
ATOM     10  C   UNL A   1      33.568  24.075  25.857  1.00  0.00     0.023 A 
ATOM     11  C   UNL A   1      34.315  24.403  23.583  1.00  0.00     0.037 A 
ATOM     12  C   UNL A   1      32.342  24.638  25.515  1.00  0.00     0.018 A 
ATOM     13  C   UNL A   1      32.100  25.043  24.198  1.00  0.00     0.030 A 
ATOM     14  Br  UNL A   1      30.274  25.044  23.654  1.00  0.00    -0.050 Br
BRANCH   9  15
ATOM     15  S   UNL A   1      35.706  22.533  25.046  1.00  0.00     0.261 S 
ATOM     16  O   UNL A   1      36.559  22.993  26.122  1.00  0.00    -0.201 OA
ATOM     17  O   UNL A   1      36.261  22.254  23.738  1.00  0.00    -0.201 OA
BRANCH  15  18
ATOM     18  N   UNL A   1      35.055  21.054  25.585  1.00  0.00    -0.280 N 
ATOM     19  H   UNL A   1      35.307  20.755  26.490  1.00  0.00     0.180 HD
BRANCH  18  20
ATOM     20  C   UNL A   1      34.174  20.207  24.836  1.00  0.00     0.049 A 
ATOM     21  C   UNL A   1      34.172  16.579  23.626  1.00  0.00     0.044 C 
ATOM     22  C   UNL A   1      33.745  17.995  23.886  1.00  0.00    -0.049 A 
ATOM     23  C   UNL A   1      32.522  18.457  23.391  1.00  0.00     0.003 A 
ATOM     24  C   UNL A   1      34.550  18.870  24.632  1.00  0.00     0.030 A 
ATOM     25  C   UNL A   1      32.180  19.802  23.524  1.00  0.00     0.002 A 
ATOM     26  C   UNL A   1      33.038  20.687  24.187  1.00  0.00     0.027 A 
ENDBRANCH  18  20
ENDBRANCH  15  18
ENDBRANCH   9  15
ENDBRANCH   5   8
ENDBRANCH   3   4
ENDBRANCH   2   3
ENDBRANCH   1   2
BRANCH   1  27
ATOM     27  C   UNL A   1      32.499  28.541  26.438  1.00  0.00     0.002 C 
BRANCH  27  28
ATOM     28  C   UNL A   1      32.589  29.830  27.254  1.00  0.00     0.021 C 
BRANCH  28  29
ATOM     29  C   UNL A   1      33.623  30.849  26.800  1.00  0.00     0.116 C 
BRANCH  29  30
ATOM     30  N   UNL A   1      34.083  31.756  27.843  1.00  0.00    -0.352 N 
ATOM     31  C   UNL A   1      35.087  31.581  28.785  1.00  0.00     0.251 C 
ATOM     32  H   UNL A   1      33.613  32.620  27.884  1.00  0.00     0.163 HD
ATOM     33  O   UNL A   1      35.305  32.438  29.621  1.00  0.00    -0.269 OA
BRANCH  31  34
ATOM     34  C   UNL A   1      35.989  30.404  28.678  1.00  0.00     0.039 A 
ATOM     35  C   UNL A   1      36.222  29.655  29.839  1.00  0.00     0.014 A 
ATOM     36  C   UNL A   1      36.752  30.181  27.538  1.00  0.00     0.014 A 
ATOM     37  C   UNL A   1      37.386  28.898  29.939  1.00  0.00     0.010 A 
ATOM     38  C   UNL A   1      37.958  29.527  27.669  1.00  0.00     0.010 A 
ATOM     39  C   UNL A   1      38.307  28.958  28.898  1.00  0.00    -0.014 A 
BRANCH  39  40
ATOM     40  C   UNL A   1      39.703  28.564  29.026  1.00  0.00     0.031 A 
ATOM     41  C   UNL A   1      40.112  27.181  28.720  1.00  0.00     0.074 A 
ATOM     42  C   UNL A   1      40.623  29.523  29.277  1.00  0.00     0.049 A 
ATOM     43  N   UNL A   1      41.275  26.697  28.991  1.00  0.00    -0.248 NA
ATOM     44  C   UNL A   1      39.201  26.193  28.150  1.00  0.00     0.031 C 
ATOM     45  C   UNL A   1      42.068  29.448  29.078  1.00  0.00     0.029 A 
ATOM     46  N   UNL A   1      40.432  30.729  29.976  1.00  0.00    -0.354 N 
ATOM     47  C   UNL A   1      41.366  25.460  28.396  1.00  0.00     0.074 A 
ATOM     48  C   UNL A   1      40.017  25.143  28.008  1.00  0.00     0.031 C 
ATOM     49  C   UNL A   1      42.663  30.364  29.859  1.00  0.00     0.029 A 
ATOM     50  C   UNL A   1      41.628  30.930  30.705  1.00  0.00     0.049 A 
ATOM     51  H   UNL A   1      39.636  31.309  29.961  1.00  0.00     0.167 HD
ATOM     52  C   UNL A   1      42.607  24.933  28.197  1.00  0.00     0.037 A 
ATOM     53  C   UNL A   1      41.646  30.895  32.069  1.00  0.00     0.037 A 
ATOM     54  C   UNL A   1      43.599  25.660  28.995  1.00  0.00     0.049 A 
ATOM     55  C   UNL A   1      42.574  29.851  32.645  1.00  0.00     0.074 A 
ATOM     56  C   UNL A   1      44.573  26.596  28.691  1.00  0.00     0.029 A 
ATOM     57  N   UNL A   1      43.474  25.658  30.383  1.00  0.00    -0.354 N 
ATOM     58  N   UNL A   1      42.978  28.796  31.992  1.00  0.00    -0.248 NA
ATOM     59  C   UNL A   1      43.098  29.904  34.006  1.00  0.00     0.031 C 
ATOM     60  C   UNL A   1      44.971  27.219  29.905  1.00  0.00     0.029 A 
ATOM     61  C   UNL A   1      44.271  26.632  30.948  1.00  0.00     0.049 A 
ATOM     62  H   UNL A   1      42.894  25.046  30.892  1.00  0.00     0.167 HD
ATOM     63  C   UNL A   1      43.771  28.031  32.808  1.00  0.00     0.074 A 
ATOM     64  C   UNL A   1      43.833  28.779  34.050  1.00  0.00     0.031 C 
ATOM     65  C   UNL A   1      44.292  26.838  32.391  1.00  0.00     0.037 A 
BRANCH  52  66
ATOM     66  C   UNL A   1      42.984  23.907  27.138  1.00  0.00     0.064 A 
ATOM     67  C   UNL A   1      42.612  22.551  27.304  1.00  0.00     0.173 A 
ATOM     68  C   UNL A   1      43.811  24.142  26.018  1.00  0.00     0.173 A 
ATOM     69  F   UNL A   1      41.819  22.164  28.312  1.00  0.00    -0.203 F 
ATOM     70  C   UNL A   1      43.061  21.531  26.454  1.00  0.00     0.198 A 
ATOM     71  C   UNL A   1      44.230  23.128  25.150  1.00  0.00     0.198 A 
ATOM     72  F   UNL A   1      44.294  25.347  25.717  1.00  0.00    -0.203 F 
ATOM     73  F   UNL A   1      42.719  20.260  26.702  1.00  0.00    -0.200 F 
ATOM     74  C   UNL A   1      43.870  21.819  25.376  1.00  0.00     0.200 A 
ATOM     75  F   UNL A   1      45.015  23.435  24.106  1.00  0.00    -0.200 F 
ATOM     76  F   UNL A   1      44.310  20.847  24.568  1.00  0.00    -0.200 F 
ENDBRANCH  52  66
BRANCH  53  77
ATOM     77  C   UNL A   1      40.358  31.317  32.682  1.00  0.00     0.064 A 
ATOM     78  C   UNL A   1      40.050  32.692  32.703  1.00  0.00     0.173 A 
ATOM     79  C   UNL A   1      39.304  30.413  32.860  1.00  0.00     0.173 A 
ATOM     80  F   UNL A   1      41.025  33.599  32.536  1.00  0.00    -0.203 F 
ATOM     81  C   UNL A   1      38.731  33.137  32.766  1.00  0.00     0.198 A 
ATOM     82  C   UNL A   1      37.985  30.865  32.941  1.00  0.00     0.198 A 
ATOM     83  F   UNL A   1      39.531  29.093  32.833  1.00  0.00    -0.203 F 
ATOM     84  F   UNL A   1      38.461  34.446  32.659  1.00  0.00    -0.200 F 
ATOM     85  C   UNL A   1      37.697  32.220  32.854  1.00  0.00     0.200 A 
ATOM     86  F   UNL A   1      36.980  29.979  32.997  1.00  0.00    -0.200 F 
ATOM     87  F   UNL A   1      36.424  32.638  32.810  1.00  0.00    -0.200 F 
ENDBRANCH  53  77
BRANCH  65  88
ATOM     88  C   UNL A   1      44.936  25.789  33.272  1.00  0.00     0.064 A 
ATOM     89  C   UNL A   1      44.227  24.937  34.138  1.00  0.00     0.173 A 
ATOM     90  C   UNL A   1      46.320  25.505  33.152  1.00  0.00     0.173 A 
ATOM     91  F   UNL A   1      42.894  25.003  34.247  1.00  0.00    -0.203 F 
ATOM     92  C   UNL A   1      44.860  23.932  34.876  1.00  0.00     0.198 A 
ATOM     93  C   UNL A   1      46.937  24.461  33.842  1.00  0.00     0.198 A 
ATOM     94  F   UNL A   1      47.114  26.213  32.335  1.00  0.00    -0.203 F 
ATOM     95  F   UNL A   1      44.141  23.179  35.721  1.00  0.00    -0.200 F 
ATOM     96  C   UNL A   1      46.211  23.686  34.720  1.00  0.00     0.200 A 
ATOM     97  F   UNL A   1      48.234  24.199  33.632  1.00  0.00    -0.200 F 
ATOM     98  F   UNL A   1      46.802  22.690  35.392  1.00  0.00    -0.200 F 
ENDBRANCH  65  88
ENDBRANCH  39  40
ENDBRANCH  31  34
ENDBRANCH  29  30
ENDBRANCH  28  29
ENDBRANCH  27  28
ENDBRANCH   1  27
TORSDOF 16
ENDMDL
MODEL 2
REMARK VINA RESULT:     -13.3      1.564      2.157
REMARK SMILES Cc1cccc(NS(=O)(=O)c2ccc(Br)c(C(=O)NCCCCCCNC(=O)c3ccc(-c4c5nc(c(-c6c(F)c(F)c(F)c(F)c6F)c6ccc([nH]6)c(-c6c(F)c(F)c(F)c(F)c6F)c6nc(c(-c7c(F)c(F)c(F)c(F)c7F)c7ccc4[nH]7)C=C6)C=C5)cc3)c2)c1
REMARK SMILES IDX 22 1 21 2 20 3 19 4 17 5 18 6 16 8 11 9 12 10 92 11 13 12
REMARK SMILES IDX 14 13 15 14 8 15 9 16 10 17 7 18 6 20 1 21 2 22 3 23 93 24
REMARK SMILES IDX 4 25 5 26 23 27 24 28 25 29 26 30 27 31 28 33 29 34 30 35
REMARK SMILES IDX 91 36 31 37 90 38 32 39 33 40 34 41 84 42 35 43 89 44 83 45
REMARK SMILES IDX 85 46 36 47 88 48 82 49 81 50 37 52 69 53 49 54 68 55 50 56
REMARK SMILES IDX 53 57 67 58 86 59 51 60 52 61 66 63 87 64 54 65 38 66 39 67
REMARK SMILES IDX 47 68 40 69 41 70 45 71 48 72 42 73 43 74 46 75 44 76 70 77
REMARK SMILES IDX 71 78 79 79 72 80 73 81 77 82 80 83 74 84 75 85 78 86 76 87
REMARK SMILES IDX 55 88 56 89 64 90 57 91 58 92 62 93 65 94 59 95 60 96 63 97
REMARK SMILES IDX 61 98
REMARK H PARENT 19 7 7 19 26 32 85 51 53 62
REMARK Flexibility Score: inf
ROOT
ATOM      1  C   UNL A   1      34.028  27.732  26.143  1.00  0.00     0.002 C 
ENDROOT
BRANCH   1   2
ATOM      2  C   UNL A   1      33.302  26.396  25.968  1.00  0.00     0.021 C 
BRANCH   2   3
ATOM      3  C   UNL A   1      31.846  26.285  26.397  1.00  0.00     0.116 C 
BRANCH   3   4
ATOM      4  N   UNL A   1      30.817  26.461  25.398  1.00  0.00    -0.352 N 
ATOM      5  C   UNL A   1      30.567  25.697  24.268  1.00  0.00     0.252 C 
ATOM      6  O   UNL A   1      29.532  25.904  23.637  1.00  0.00    -0.269 OA
ATOM      7  H   UNL A   1      30.213  27.227  25.537  1.00  0.00     0.163 HD
BRANCH   5   8
ATOM      8  C   UNL A   1      31.578  24.744  23.711  1.00  0.00     0.055 A 
ATOM      9  C   UNL A   1      32.436  22.466  23.730  1.00  0.00     0.088 A 
ATOM     10  C   UNL A   1      32.880  22.616  22.422  1.00  0.00     0.023 A 
ATOM     11  C   UNL A   1      31.687  23.490  24.333  1.00  0.00     0.037 A 
ATOM     12  C   UNL A   1      32.940  23.904  21.896  1.00  0.00     0.018 A 
ATOM     13  C   UNL A   1      32.407  24.980  22.613  1.00  0.00     0.030 A 
ATOM     14  Br  UNL A   1      33.186  26.681  22.256  1.00  0.00    -0.050 Br
BRANCH   9  15
ATOM     15  S   UNL A   1      32.901  21.046  24.689  1.00  0.00     0.261 S 
ATOM     16  O   UNL A   1      32.363  19.894  23.997  1.00  0.00    -0.201 OA
ATOM     17  O   UNL A   1      32.530  21.317  26.062  1.00  0.00    -0.201 OA
BRANCH  15  18
ATOM     18  N   UNL A   1      34.589  20.811  24.716  1.00  0.00    -0.280 N 
ATOM     19  H   UNL A   1      34.922  19.917  24.470  1.00  0.00     0.180 HD
BRANCH  18  20
ATOM     20  C   UNL A   1      35.565  21.802  25.066  1.00  0.00     0.049 A 
ATOM     21  C   UNL A   1      39.239  21.827  26.124  1.00  0.00     0.044 C 
ATOM     22  C   UNL A   1      37.861  22.291  25.748  1.00  0.00    -0.049 A 
ATOM     23  C   UNL A   1      37.556  23.654  25.758  1.00  0.00     0.003 A 
ATOM     24  C   UNL A   1      36.865  21.375  25.373  1.00  0.00     0.030 A 
ATOM     25  C   UNL A   1      36.247  24.078  25.530  1.00  0.00     0.002 A 
ATOM     26  C   UNL A   1      35.242  23.145  25.252  1.00  0.00     0.027 A 
ENDBRANCH  18  20
ENDBRANCH  15  18
ENDBRANCH   9  15
ENDBRANCH   5   8
ENDBRANCH   3   4
ENDBRANCH   2   3
ENDBRANCH   1   2
BRANCH   1  27
ATOM     27  C   UNL A   1      33.570  28.958  25.342  1.00  0.00     0.002 C 
BRANCH  27  28
ATOM     28  C   UNL A   1      32.790  30.058  26.061  1.00  0.00     0.021 C 
BRANCH  28  29
ATOM     29  C   UNL A   1      33.068  30.225  27.547  1.00  0.00     0.116 C 
BRANCH  29  30
ATOM     30  N   UNL A   1      33.806  31.431  27.897  1.00  0.00    -0.352 N 
ATOM     31  C   UNL A   1      35.110  31.565  28.356  1.00  0.00     0.251 C 
ATOM     32  H   UNL A   1      33.309  32.273  27.791  1.00  0.00     0.163 HD
ATOM     33  O   UNL A   1      35.552  32.661  28.646  1.00  0.00    -0.269 OA
BRANCH  31  34
ATOM     34  C   UNL A   1      36.008  30.381  28.353  1.00  0.00     0.039 A 
ATOM     35  C   UNL A   1      36.206  29.711  29.568  1.00  0.00     0.014 A 
ATOM     36  C   UNL A   1      36.801  30.078  27.253  1.00  0.00     0.014 A 
ATOM     37  C   UNL A   1      37.362  28.959  29.751  1.00  0.00     0.010 A 
ATOM     38  C   UNL A   1      38.000  29.432  27.460  1.00  0.00     0.010 A 
ATOM     39  C   UNL A   1      38.312  28.946  28.734  1.00  0.00    -0.014 A 
BRANCH  39  40
ATOM     40  C   UNL A   1      39.701  28.557  28.927  1.00  0.00     0.031 A 
ATOM     41  C   UNL A   1      40.133  27.179  28.627  1.00  0.00     0.074 A 
ATOM     42  C   UNL A   1      40.604  29.517  29.233  1.00  0.00     0.049 A 
ATOM     43  N   UNL A   1      41.283  26.697  28.950  1.00  0.00    -0.248 NA
ATOM     44  C   UNL A   1      39.256  26.193  28.002  1.00  0.00     0.031 C 
ATOM     45  C   UNL A   1      42.057  29.451  29.105  1.00  0.00     0.029 A 
ATOM     46  N   UNL A   1      40.372  30.715  29.934  1.00  0.00    -0.354 N 
ATOM     47  C   UNL A   1      41.410  25.467  28.347  1.00  0.00     0.074 A 
ATOM     48  C   UNL A   1      40.083  25.148  27.889  1.00  0.00     0.031 C 
ATOM     49  C   UNL A   1      42.608  30.360  29.924  1.00  0.00     0.029 A 
ATOM     50  C   UNL A   1      41.530  30.913  30.724  1.00  0.00     0.049 A 
ATOM     51  H   UNL A   1      39.575  31.291  29.887  1.00  0.00     0.167 HD
ATOM     52  C   UNL A   1      42.662  24.948  28.204  1.00  0.00     0.037 A 
ATOM     53  C   UNL A   1      41.480  30.863  32.087  1.00  0.00     0.037 A 
ATOM     54  C   UNL A   1      43.609  25.670  29.058  1.00  0.00     0.049 A 
ATOM     55  C   UNL A   1      42.384  29.817  32.697  1.00  0.00     0.074 A 
ATOM     56  C   UNL A   1      44.592  26.614  28.812  1.00  0.00     0.029 A 
ATOM     57  N   UNL A   1      43.416  25.654  30.438  1.00  0.00    -0.354 N 
ATOM     58  N   UNL A   1      42.825  28.771  32.054  1.00  0.00    -0.248 NA
ATOM     59  C   UNL A   1      42.840  29.858  34.083  1.00  0.00     0.031 C 
ATOM     60  C   UNL A   1      44.926  27.226  30.051  1.00  0.00     0.029 A 
ATOM     61  C   UNL A   1      44.179  26.625  31.051  1.00  0.00     0.049 A 
ATOM     62  H   UNL A   1      42.814  25.033  30.911  1.00  0.00     0.167 HD
ATOM     63  C   UNL A   1      43.580  28.001  32.900  1.00  0.00     0.074 A 
ATOM     64  C   UNL A   1      43.578  28.735  34.151  1.00  0.00     0.031 C 
ATOM     65  C   UNL A   1      44.127  26.815  32.496  1.00  0.00     0.037 A 
BRANCH  52  66
ATOM     66  C   UNL A   1      43.096  23.935  27.154  1.00  0.00     0.064 A 
ATOM     67  C   UNL A   1      42.699  22.582  27.272  1.00  0.00     0.173 A 
ATOM     68  C   UNL A   1      43.996  24.178  26.094  1.00  0.00     0.173 A 
ATOM     69  F   UNL A   1      41.837  22.187  28.219  1.00  0.00    -0.203 F 
ATOM     70  C   UNL A   1      43.191  21.570  26.435  1.00  0.00     0.198 A 
ATOM     71  C   UNL A   1      44.460  23.174  25.238  1.00  0.00     0.198 A 
ATOM     72  F   UNL A   1      44.512  25.383  25.847  1.00  0.00    -0.203 F 
ATOM     73  F   UNL A   1      42.819  20.299  26.638  1.00  0.00    -0.200 F 
ATOM     74  C   UNL A   1      44.072  21.866  25.417  1.00  0.00     0.200 A 
ATOM     75  F   UNL A   1      45.315  23.489  24.253  1.00  0.00    -0.200 F 
ATOM     76  F   UNL A   1      44.553  20.902  24.623  1.00  0.00    -0.200 F 
ENDBRANCH  52  66
BRANCH  53  77
ATOM     77  C   UNL A   1      40.162  31.273  32.640  1.00  0.00     0.064 A 
ATOM     78  C   UNL A   1      39.822  32.640  32.607  1.00  0.00     0.173 A 
ATOM     79  C   UNL A   1      39.123  30.350  32.807  1.00  0.00     0.173 A 
ATOM     80  F   UNL A   1      40.782  33.564  32.449  1.00  0.00    -0.203 F 
ATOM     81  C   UNL A   1      38.492  33.055  32.609  1.00  0.00     0.198 A 
ATOM     82  C   UNL A   1      37.791  30.773  32.826  1.00  0.00     0.198 A 
ATOM     83  F   UNL A   1      39.379  29.035  32.828  1.00  0.00    -0.203 F 
ATOM     84  F   UNL A   1      38.197  34.354  32.453  1.00  0.00    -0.200 F 
ATOM     85  C   UNL A   1      37.476  32.118  32.688  1.00  0.00     0.200 A 
ATOM     86  F   UNL A   1      36.805  29.865  32.873  1.00  0.00    -0.200 F 
ATOM     87  F   UNL A   1      36.197  32.503  32.586  1.00  0.00    -0.200 F 
ENDBRANCH  53  77
BRANCH  65  88
ATOM     88  C   UNL A   1      44.733  25.759  33.397  1.00  0.00     0.064 A 
ATOM     89  C   UNL A   1      43.992  24.943  34.269  1.00  0.00     0.173 A 
ATOM     90  C   UNL A   1      46.108  25.431  33.290  1.00  0.00     0.173 A 
ATOM     91  F   UNL A   1      42.660  25.051  34.369  1.00  0.00    -0.203 F 
ATOM     92  C   UNL A   1      44.588  23.929  35.027  1.00  0.00     0.198 A 
ATOM     93  C   UNL A   1      46.687  24.378  34.000  1.00  0.00     0.198 A 
ATOM     94  F   UNL A   1      46.929  26.101  32.469  1.00  0.00    -0.203 F 
ATOM     95  F   UNL A   1      43.840  23.211  35.877  1.00  0.00    -0.200 F 
ATOM     96  C   UNL A   1      45.931  23.639  34.884  1.00  0.00     0.200 A 
ATOM     97  F   UNL A   1      47.977  24.073  33.803  1.00  0.00    -0.200 F 
ATOM     98  F   UNL A   1      46.486  22.635  35.574  1.00  0.00    -0.200 F 
ENDBRANCH  65  88
ENDBRANCH  39  40
ENDBRANCH  31  34
ENDBRANCH  29  30
ENDBRANCH  28  29
ENDBRANCH  27  28
ENDBRANCH   1  27
TORSDOF 16
ENDMDL
MODEL 3
REMARK VINA RESULT:     -13.2      3.567      9.777
REMARK SMILES Cc1cccc(NS(=O)(=O)c2ccc(Br)c(C(=O)NCCCCCCNC(=O)c3ccc(-c4c5nc(c(-c6c(F)c(F)c(F)c(F)c6F)c6ccc([nH]6)c(-c6c(F)c(F)c(F)c(F)c6F)c6nc(c(-c7c(F)c(F)c(F)c(F)c7F)c7ccc4[nH]7)C=C6)C=C5)cc3)c2)c1
REMARK SMILES IDX 22 1 21 2 20 3 19 4 17 5 18 6 16 8 11 9 12 10 92 11 13 12
REMARK SMILES IDX 14 13 15 14 8 15 9 16 10 17 7 18 6 20 1 21 2 22 3 23 93 24
REMARK SMILES IDX 4 25 5 26 23 27 24 28 25 29 26 30 27 31 28 33 29 34 30 35
REMARK SMILES IDX 91 36 31 37 90 38 32 39 33 40 34 41 84 42 35 43 89 44 83 45
REMARK SMILES IDX 85 46 36 47 88 48 82 49 81 50 37 52 69 53 49 54 68 55 50 56
REMARK SMILES IDX 53 57 67 58 86 59 51 60 52 61 66 63 87 64 54 65 38 66 39 67
REMARK SMILES IDX 47 68 40 69 41 70 45 71 48 72 42 73 43 74 46 75 44 76 70 77
REMARK SMILES IDX 71 78 79 79 72 80 73 81 77 82 80 83 74 84 75 85 78 86 76 87
REMARK SMILES IDX 55 88 56 89 64 90 57 91 58 92 62 93 65 94 59 95 60 96 63 97
REMARK SMILES IDX 61 98
REMARK H PARENT 19 7 7 19 26 32 85 51 53 62
REMARK Flexibility Score: inf
ROOT
ATOM      1  C   UNL A   1      35.536  22.412  26.380  1.00  0.00     0.002 C 
ENDROOT
BRANCH   1   2
ATOM      2  C   UNL A   1      34.378  21.931  27.259  1.00  0.00     0.021 C 
BRANCH   2   3
ATOM      3  C   UNL A   1      33.286  22.919  27.648  1.00  0.00     0.116 C 
BRANCH   3   4
ATOM      4  N   UNL A   1      31.926  22.633  27.254  1.00  0.00    -0.352 N 
ATOM      5  C   UNL A   1      31.412  22.456  25.978  1.00  0.00     0.252 C 
ATOM      6  O   UNL A   1      30.260  22.043  25.861  1.00  0.00    -0.269 OA
ATOM      7  H   UNL A   1      31.276  22.555  27.990  1.00  0.00     0.163 HD
BRANCH   5   8
ATOM      8  C   UNL A   1      32.154  22.892  24.753  1.00  0.00     0.055 A 
ATOM      9  C   UNL A   1      32.964  24.778  23.444  1.00  0.00     0.088 A 
ATOM     10  C   UNL A   1      33.999  23.996  22.947  1.00  0.00     0.023 A 
ATOM     11  C   UNL A   1      32.111  24.259  24.431  1.00  0.00     0.037 A 
ATOM     12  C   UNL A   1      33.916  22.617  23.118  1.00  0.00     0.018 A 
ATOM     13  C   UNL A   1      32.905  22.068  23.914  1.00  0.00     0.030 A 
ATOM     14  Br  UNL A   1      32.383  20.288  23.481  1.00  0.00    -0.050 Br
BRANCH   9  15
ATOM     15  S   UNL A   1      32.634  26.385  22.764  1.00  0.00     0.261 S 
ATOM     16  O   UNL A   1      31.200  26.573  22.845  1.00  0.00    -0.201 OA
ATOM     17  O   UNL A   1      33.313  26.458  21.488  1.00  0.00    -0.201 OA
BRANCH  15  18
ATOM     18  N   UNL A   1      33.308  27.634  23.707  1.00  0.00    -0.280 N 
ATOM     19  H   UNL A   1      34.127  28.063  23.366  1.00  0.00     0.180 HD
BRANCH  18  20
ATOM     20  C   UNL A   1      32.787  28.114  24.953  1.00  0.00     0.049 A 
ATOM     21  C   UNL A   1      31.485  31.439  26.322  1.00  0.00     0.044 C 
ATOM     22  C   UNL A   1      31.880  29.993  26.228  1.00  0.00    -0.049 A 
ATOM     23  C   UNL A   1      31.746  29.159  27.341  1.00  0.00     0.003 A 
ATOM     24  C   UNL A   1      32.375  29.453  25.030  1.00  0.00     0.030 A 
ATOM     25  C   UNL A   1      32.226  27.850  27.293  1.00  0.00     0.002 A 
ATOM     26  C   UNL A   1      32.806  27.354  26.121  1.00  0.00     0.027 A 
ENDBRANCH  18  20
ENDBRANCH  15  18
ENDBRANCH   9  15
ENDBRANCH   5   8
ENDBRANCH   3   4
ENDBRANCH   2   3
ENDBRANCH   1   2
BRANCH   1  27
ATOM     27  C   UNL A   1      36.294  21.407  25.504  1.00  0.00     0.002 C 
BRANCH  27  28
ATOM     28  C   UNL A   1      37.810  21.542  25.371  1.00  0.00     0.021 C 
BRANCH  28  29
ATOM     29  C   UNL A   1      38.417  22.854  25.842  1.00  0.00     0.116 C 
BRANCH  29  30
ATOM     30  N   UNL A   1      39.795  22.757  26.304  1.00  0.00    -0.352 N 
ATOM     31  C   UNL A   1      40.627  23.745  26.813  1.00  0.00     0.251 C 
ATOM     32  H   UNL A   1      40.195  21.860  26.247  1.00  0.00     0.163 HD
ATOM     33  O   UNL A   1      41.780  23.490  27.108  1.00  0.00    -0.269 OA
BRANCH  31  34
ATOM     34  C   UNL A   1      40.060  25.082  27.131  1.00  0.00     0.039 A 
ATOM     35  C   UNL A   1      40.441  26.160  26.321  1.00  0.00     0.014 A 
ATOM     36  C   UNL A   1      39.362  25.309  28.311  1.00  0.00     0.014 A 
ATOM     37  C   UNL A   1      40.373  27.453  26.832  1.00  0.00     0.010 A 
ATOM     38  C   UNL A   1      39.396  26.569  28.866  1.00  0.00     0.010 A 
ATOM     39  C   UNL A   1      39.978  27.623  28.155  1.00  0.00    -0.014 A 
BRANCH  39  40
ATOM     40  C   UNL A   1      40.238  28.827  28.931  1.00  0.00     0.031 A 
ATOM     41  C   UNL A   1      39.229  29.900  28.992  1.00  0.00     0.074 A 
ATOM     42  C   UNL A   1      41.345  28.867  29.708  1.00  0.00     0.049 A 
ATOM     43  N   UNL A   1      39.449  31.070  29.485  1.00  0.00    -0.248 NA
ATOM     44  C   UNL A   1      37.893  29.765  28.418  1.00  0.00     0.031 C 
ATOM     45  C   UNL A   1      41.618  29.766  30.827  1.00  0.00     0.029 A 
ATOM     46  N   UNL A   1      42.564  28.201  29.492  1.00  0.00    -0.354 N 
ATOM     47  C   UNL A   1      38.246  31.732  29.554  1.00  0.00     0.074 A 
ATOM     48  C   UNL A   1      37.346  30.937  28.761  1.00  0.00     0.031 C 
ATOM     49  C   UNL A   1      42.945  29.827  31.021  1.00  0.00     0.029 A 
ATOM     50  C   UNL A   1      43.564  29.106  29.924  1.00  0.00     0.049 A 
ATOM     51  H   UNL A   1      42.696  27.298  29.121  1.00  0.00     0.167 HD
ATOM     52  C   UNL A   1      38.149  32.803  30.391  1.00  0.00     0.037 A 
ATOM     53  C   UNL A   1      44.453  29.656  29.047  1.00  0.00     0.037 A 
ATOM     54  C   UNL A   1      39.485  33.251  30.795  1.00  0.00     0.049 A 
ATOM     55  C   UNL A   1      44.424  31.166  29.007  1.00  0.00     0.074 A 
ATOM     56  C   UNL A   1      40.223  33.131  31.960  1.00  0.00     0.029 A 
ATOM     57  N   UNL A   1      40.368  33.696  29.813  1.00  0.00    -0.354 N 
ATOM     58  N   UNL A   1      43.404  31.884  29.389  1.00  0.00    -0.248 NA
ATOM     59  C   UNL A   1      45.531  31.979  28.515  1.00  0.00     0.031 C 
ATOM     60  C   UNL A   1      41.578  33.426  31.648  1.00  0.00     0.029 A 
ATOM     61  C   UNL A   1      41.654  33.767  30.307  1.00  0.00     0.049 A 
ATOM     62  H   UNL A   1      40.109  33.929  28.892  1.00  0.00     0.167 HD
ATOM     63  C   UNL A   1      43.680  33.212  29.185  1.00  0.00     0.074 A 
ATOM     64  C   UNL A   1      45.032  33.220  28.659  1.00  0.00     0.031 C 
ATOM     65  C   UNL A   1      42.761  34.187  29.455  1.00  0.00     0.037 A 
BRANCH  52  66
ATOM     66  C   UNL A   1      36.869  33.332  31.024  1.00  0.00     0.064 A 
ATOM     67  C   UNL A   1      36.603  33.084  32.392  1.00  0.00     0.173 A 
ATOM     68  C   UNL A   1      35.809  33.964  30.339  1.00  0.00     0.173 A 
ATOM     69  F   UNL A   1      37.513  32.503  33.186  1.00  0.00    -0.203 F 
ATOM     70  C   UNL A   1      35.379  33.400  32.997  1.00  0.00     0.198 A 
ATOM     71  C   UNL A   1      34.600  34.311  30.952  1.00  0.00     0.198 A 
ATOM     72  F   UNL A   1      35.857  34.245  29.037  1.00  0.00    -0.203 F 
ATOM     73  F   UNL A   1      35.171  33.085  34.283  1.00  0.00    -0.200 F 
ATOM     74  C   UNL A   1      34.376  34.015  32.278  1.00  0.00     0.200 A 
ATOM     75  F   UNL A   1      33.642  34.910  30.230  1.00  0.00    -0.200 F 
ATOM     76  F   UNL A   1      33.202  34.309  32.848  1.00  0.00    -0.200 F 
ENDBRANCH  52  66
BRANCH  53  77
ATOM     77  C   UNL A   1      44.740  28.781  27.878  1.00  0.00     0.064 A 
ATOM     78  C   UNL A   1      45.554  27.649  28.078  1.00  0.00     0.173 A 
ATOM     79  C   UNL A   1      43.935  28.809  26.733  1.00  0.00     0.173 A 
ATOM     80  F   UNL A   1      46.343  27.575  29.161  1.00  0.00    -0.203 F 
ATOM     81  C   UNL A   1      45.467  26.539  27.240  1.00  0.00     0.198 A 
ATOM     82  C   UNL A   1      43.866  27.700  25.886  1.00  0.00     0.198 A 
ATOM     83  F   UNL A   1      43.126  29.850  26.496  1.00  0.00    -0.203 F 
ATOM     84  F   UNL A   1      46.164  25.430  27.526  1.00  0.00    -0.200 F 
ATOM     85  C   UNL A   1      44.600  26.555  26.161  1.00  0.00     0.200 A 
ATOM     86  F   UNL A   1      43.005  27.701  24.858  1.00  0.00    -0.200 F 
ATOM     87  F   UNL A   1      44.437  25.454  25.414  1.00  0.00    -0.200 F 
ENDBRANCH  53  77
BRANCH  65  88
ATOM     88  C   UNL A   1      42.841  35.635  29.018  1.00  0.00     0.064 A 
ATOM     89  C   UNL A   1      42.169  36.164  27.903  1.00  0.00     0.173 A 
ATOM     90  C   UNL A   1      43.503  36.591  29.830  1.00  0.00     0.173 A 
ATOM     91  F   UNL A   1      41.393  35.398  27.124  1.00  0.00    -0.203 F 
ATOM     92  C   UNL A   1      42.214  37.525  27.583  1.00  0.00     0.198 A 
ATOM     93  C   UNL A   1      43.493  37.956  29.543  1.00  0.00     0.198 A 
ATOM     94  F   UNL A   1      44.155  36.234  30.945  1.00  0.00    -0.203 F 
ATOM     95  F   UNL A   1      41.592  37.967  26.481  1.00  0.00    -0.200 F 
ATOM     96  C   UNL A   1      42.866  38.422  28.408  1.00  0.00     0.200 A 
ATOM     97  F   UNL A   1      44.079  38.817  30.386  1.00  0.00    -0.200 F 
ATOM     98  F   UNL A   1      42.863  39.731  28.124  1.00  0.00    -0.200 F 
ENDBRANCH  65  88
ENDBRANCH  39  40
ENDBRANCH  31  34
ENDBRANCH  29  30
ENDBRANCH  28  29
ENDBRANCH  27  28
ENDBRANCH   1  27
TORSDOF 16
ENDMDL
