MODEL 1
REMARK VINA RESULT:     -12.3      0.000      0.000
REMARK SMILES Cc1cc(Cl)cc2c1O[C@H](C(F)(F)F)C(C(=O)NCCCCCCNC(=O)c1ccc(-c3c4nc(c(-c5c(F)c(F)c(F)c(F)c5F)c5ccc([nH]5)c(-c5c(F)c(F)c(F)c(F)c5F)c5nc(c(-c6c(F)c(F)c(F)c(F)c6F)c6ccc3[nH]6)C=C5)C=C4)cc1)=C2
REMARK SMILES IDX 22 1 21 2 20 3 19 4 18 5 16 6 17 7 15 9 1 10 2 11 3 12 8 13
REMARK SMILES IDX 4 14 7 15 9 16 5 17 6 18 91 19 10 20 11 21 12 22 13 23 14 24
REMARK SMILES IDX 23 25 24 26 25 27 26 28 27 30 28 31 29 32 90 33 30 34 89 35
REMARK SMILES IDX 31 36 32 37 33 38 83 39 34 40 88 41 82 42 84 43 35 44 87 45
REMARK SMILES IDX 81 46 80 47 36 49 68 50 48 51 67 52 49 53 52 54 66 55 85 56
REMARK SMILES IDX 50 57 51 58 65 60 86 61 53 62 37 63 38 64 46 65 39 66 40 67
REMARK SMILES IDX 44 68 47 69 41 70 42 71 45 72 43 73 69 74 70 75 78 76 71 77
REMARK SMILES IDX 72 78 76 79 79 80 73 81 74 82 77 83 75 84 54 85 55 86 63 87
REMARK SMILES IDX 56 88 57 89 61 90 64 91 58 92 59 93 62 94 60 95
REMARK H PARENT 18 8 25 29 84 48 52 59
REMARK Flexibility Score: inf
ROOT
ATOM      1  C   UNL A   1      35.448  21.757  24.405  1.00  0.00     0.002 C 
ENDROOT
BRANCH   1   2
ATOM      2  C   UNL A   1      34.071  21.717  25.081  1.00  0.00     0.002 C 
BRANCH   2   3
ATOM      3  C   UNL A   1      32.913  21.327  24.160  1.00  0.00     0.021 C 
BRANCH   3   4
ATOM      4  C   UNL A   1      31.804  22.372  24.108  1.00  0.00     0.116 C 
BRANCH   4   5
ATOM      5  N   UNL A   1      31.197  22.580  25.411  1.00  0.00    -0.352 N 
ATOM      6  C   UNL A   1      30.830  23.634  26.176  1.00  0.00     0.251 C 
ATOM      7  O   UNL A   1      30.296  23.345  27.251  1.00  0.00    -0.270 OA
ATOM      8  H   UNL A   1      31.001  21.725  25.856  1.00  0.00     0.163 HD
BRANCH   6   9
ATOM      9  C   UNL A   1      31.027  25.070  25.813  1.00  0.00     0.067 C 
ATOM     10  C   UNL A   1      32.290  30.030  25.640  1.00  0.00     0.048 C 
ATOM     11  C   UNL A   1      31.311  29.166  24.898  1.00  0.00    -0.007 A 
ATOM     12  C   UNL A   1      30.516  29.693  23.875  1.00  0.00     0.027 A 
ATOM     13  C   UNL A   1      31.189  27.804  25.210  1.00  0.00     0.131 A 
ATOM     14  C   UNL A   1      29.614  28.873  23.197  1.00  0.00     0.042 A 
ATOM     15  C   UNL A   1      30.279  26.981  24.539  1.00  0.00     0.019 A 
ATOM     16  O   UNL A   1      31.967  27.348  26.232  1.00  0.00    -0.475 OA
ATOM     17  Cl  UNL A   1      28.636  29.541  21.948  1.00  0.00    -0.084 Cl
ATOM     18  C   UNL A   1      29.488  27.523  23.524  1.00  0.00     0.032 A 
ATOM     19  C   UNL A   1      30.143  25.585  24.939  1.00  0.00     0.025 C 
ATOM     20  C   UNL A   1      32.145  25.916  26.344  1.00  0.00     0.314 C 
BRANCH  20  21
ATOM     21  C   UNL A   1      33.517  25.535  25.758  1.00  0.00     0.429 C 
ATOM     22  F   UNL A   1      34.052  24.497  26.447  1.00  0.00    -0.167 F 
ATOM     23  F   UNL A   1      33.443  25.135  24.467  1.00  0.00    -0.167 F 
ATOM     24  F   UNL A   1      34.403  26.555  25.806  1.00  0.00    -0.167 F 
ENDBRANCH  20  21
ENDBRANCH   6   9
ENDBRANCH   4   5
ENDBRANCH   3   4
ENDBRANCH   2   3
ENDBRANCH   1   2
BRANCH   1  25
ATOM     25  C   UNL A   1      35.964  23.157  24.063  1.00  0.00     0.021 C 
BRANCH  25  26
ATOM     26  C   UNL A   1      36.972  23.712  25.062  1.00  0.00     0.116 C 
BRANCH  26  27
ATOM     27  N   UNL A   1      37.919  22.695  25.491  1.00  0.00    -0.352 N 
ATOM     28  C   UNL A   1      39.120  22.847  26.132  1.00  0.00     0.251 C 
ATOM     29  H   UNL A   1      37.660  21.767  25.294  1.00  0.00     0.163 HD
ATOM     30  O   UNL A   1      39.903  21.905  26.218  1.00  0.00    -0.269 OA
BRANCH  28  31
ATOM     31  C   UNL A   1      39.474  24.156  26.710  1.00  0.00     0.039 A 
ATOM     32  C   UNL A   1      39.188  24.404  28.054  1.00  0.00     0.014 A 
ATOM     33  C   UNL A   1      40.083  25.139  25.922  1.00  0.00     0.014 A 
ATOM     34  C   UNL A   1      39.556  25.623  28.621  1.00  0.00     0.010 A 
ATOM     35  C   UNL A   1      40.516  26.323  26.507  1.00  0.00     0.010 A 
ATOM     36  C   UNL A   1      40.246  26.580  27.859  1.00  0.00    -0.014 A 
BRANCH  36  37
ATOM     37  C   UNL A   1      40.669  27.870  28.457  1.00  0.00     0.031 A 
ATOM     38  C   UNL A   1      42.115  28.099  28.794  1.00  0.00     0.074 A 
ATOM     39  C   UNL A   1      39.748  28.816  28.721  1.00  0.00     0.049 A 
ATOM     40  N   UNL A   1      42.677  29.140  29.355  1.00  0.00    -0.248 NA
ATOM     41  C   UNL A   1      43.053  27.008  28.480  1.00  0.00     0.031 C 
ATOM     42  C   UNL A   1      38.313  28.692  28.461  1.00  0.00     0.029 A 
ATOM     43  N   UNL A   1      39.880  30.069  29.263  1.00  0.00    -0.354 N 
ATOM     44  C   UNL A   1      44.026  28.831  29.454  1.00  0.00     0.074 A 
ATOM     45  C   UNL A   1      44.194  27.483  28.960  1.00  0.00     0.031 C 
ATOM     46  C   UNL A   1      37.702  29.835  28.810  1.00  0.00     0.029 A 
ATOM     47  C   UNL A   1      38.695  30.757  29.357  1.00  0.00     0.049 A 
ATOM     48  H   UNL A   1      40.743  30.440  29.557  1.00  0.00     0.167 HD
ATOM     49  C   UNL A   1      45.039  29.617  29.886  1.00  0.00     0.037 A 
ATOM     50  C   UNL A   1      38.440  31.991  29.832  1.00  0.00     0.037 A 
ATOM     51  C   UNL A   1      44.870  30.965  30.357  1.00  0.00     0.049 A 
ATOM     52  C   UNL A   1      39.582  32.825  30.350  1.00  0.00     0.074 A 
ATOM     53  C   UNL A   1      45.839  31.853  30.787  1.00  0.00     0.029 A 
ATOM     54  N   UNL A   1      43.651  31.620  30.455  1.00  0.00    -0.354 N 
ATOM     55  N   UNL A   1      40.861  32.541  30.392  1.00  0.00    -0.248 NA
ATOM     56  C   UNL A   1      39.245  34.152  30.886  1.00  0.00     0.031 C 
ATOM     57  C   UNL A   1      45.203  33.030  31.192  1.00  0.00     0.029 A 
ATOM     58  C   UNL A   1      43.843  32.895  30.961  1.00  0.00     0.049 A 
ATOM     59  H   UNL A   1      42.781  31.236  30.202  1.00  0.00     0.167 HD
ATOM     60  C   UNL A   1      41.484  33.660  30.929  1.00  0.00     0.074 A 
ATOM     61  C   UNL A   1      40.444  34.635  31.181  1.00  0.00     0.031 C 
ATOM     62  C   UNL A   1      42.798  33.859  31.192  1.00  0.00     0.037 A 
BRANCH  49  63
ATOM     63  C   UNL A   1      46.430  29.055  29.849  1.00  0.00     0.064 A 
ATOM     64  C   UNL A   1      46.962  28.353  30.942  1.00  0.00     0.173 A 
ATOM     65  C   UNL A   1      47.206  29.141  28.683  1.00  0.00     0.173 A 
ATOM     66  F   UNL A   1      46.265  28.253  32.083  1.00  0.00    -0.203 F 
ATOM     67  C   UNL A   1      48.222  27.766  30.871  1.00  0.00     0.198 A 
ATOM     68  C   UNL A   1      48.454  28.527  28.606  1.00  0.00     0.198 A 
ATOM     69  F   UNL A   1      46.743  29.798  27.609  1.00  0.00    -0.203 F 
ATOM     70  F   UNL A   1      48.721  27.125  31.937  1.00  0.00    -0.200 F 
ATOM     71  C   UNL A   1      48.961  27.842  29.699  1.00  0.00     0.200 A 
ATOM     72  F   UNL A   1      49.160  28.588  27.469  1.00  0.00    -0.200 F 
ATOM     73  F   UNL A   1      50.163  27.255  29.625  1.00  0.00    -0.200 F 
ENDBRANCH  49  63
BRANCH  50  74
ATOM     74  C   UNL A   1      37.051  32.525  29.812  1.00  0.00     0.064 A 
ATOM     75  C   UNL A   1      36.571  33.233  28.701  1.00  0.00     0.173 A 
ATOM     76  C   UNL A   1      36.179  32.343  30.894  1.00  0.00     0.173 A 
ATOM     77  F   UNL A   1      37.373  33.452  27.649  1.00  0.00    -0.203 F 
ATOM     78  C   UNL A   1      35.279  33.754  28.681  1.00  0.00     0.198 A 
ATOM     79  C   UNL A   1      34.876  32.837  30.860  1.00  0.00     0.198 A 
ATOM     80  F   UNL A   1      36.586  31.670  31.980  1.00  0.00    -0.203 F 
ATOM     81  F   UNL A   1      34.863  34.466  27.625  1.00  0.00    -0.200 F 
ATOM     82  C   UNL A   1      34.430  33.549  29.757  1.00  0.00     0.200 A 
ATOM     83  F   UNL A   1      34.053  32.623  31.897  1.00  0.00    -0.200 F 
ATOM     84  F   UNL A   1      33.185  34.044  29.735  1.00  0.00    -0.200 F 
ENDBRANCH  50  74
BRANCH  62  85
ATOM     85  C   UNL A   1      43.202  35.187  31.763  1.00  0.00     0.064 A 
ATOM     86  C   UNL A   1      43.643  36.235  30.942  1.00  0.00     0.173 A 
ATOM     87  C   UNL A   1      43.063  35.441  33.137  1.00  0.00     0.173 A 
ATOM     88  F   UNL A   1      43.802  36.039  29.625  1.00  0.00    -0.203 F 
ATOM     89  C   UNL A   1      43.944  37.484  31.478  1.00  0.00     0.198 A 
ATOM     90  C   UNL A   1      43.334  36.701  33.664  1.00  0.00     0.198 A 
ATOM     91  F   UNL A   1      42.635  34.476  33.964  1.00  0.00    -0.203 F 
ATOM     92  F   UNL A   1      44.398  38.460  30.680  1.00  0.00    -0.200 F 
ATOM     93  C   UNL A   1      43.778  37.719  32.835  1.00  0.00     0.200 A 
ATOM     94  F   UNL A   1      43.154  36.932  34.971  1.00  0.00    -0.200 F 
ATOM     95  F   UNL A   1      44.048  38.930  33.344  1.00  0.00    -0.200 F 
ENDBRANCH  62  85
ENDBRANCH  36  37
ENDBRANCH  28  31
ENDBRANCH  26  27
ENDBRANCH  25  26
ENDBRANCH   1  25
TORSDOF 14
ENDMDL
MODEL 2
REMARK VINA RESULT:     -12.3      3.709      9.004
REMARK SMILES Cc1cc(Cl)cc2c1O[C@H](C(F)(F)F)C(C(=O)NCCCCCCNC(=O)c1ccc(-c3c4nc(c(-c5c(F)c(F)c(F)c(F)c5F)c5ccc([nH]5)c(-c5c(F)c(F)c(F)c(F)c5F)c5nc(c(-c6c(F)c(F)c(F)c(F)c6F)c6ccc3[nH]6)C=C5)C=C4)cc1)=C2
REMARK SMILES IDX 22 1 21 2 20 3 19 4 18 5 16 6 17 7 15 9 1 10 2 11 3 12 8 13
REMARK SMILES IDX 4 14 7 15 9 16 5 17 6 18 91 19 10 20 11 21 12 22 13 23 14 24
REMARK SMILES IDX 23 25 24 26 25 27 26 28 27 30 28 31 29 32 90 33 30 34 89 35
REMARK SMILES IDX 31 36 32 37 33 38 83 39 34 40 88 41 82 42 84 43 35 44 87 45
REMARK SMILES IDX 81 46 80 47 36 49 68 50 48 51 67 52 49 53 52 54 66 55 85 56
REMARK SMILES IDX 50 57 51 58 65 60 86 61 53 62 37 63 38 64 46 65 39 66 40 67
REMARK SMILES IDX 44 68 47 69 41 70 42 71 45 72 43 73 69 74 70 75 78 76 71 77
REMARK SMILES IDX 72 78 76 79 79 80 73 81 74 82 77 83 75 84 54 85 55 86 63 87
REMARK SMILES IDX 56 88 57 89 61 90 64 91 58 92 59 93 62 94 60 95
REMARK H PARENT 18 8 25 29 84 48 52 59
REMARK Flexibility Score: inf
ROOT
ATOM      1  C   UNL A   1      31.632  28.066  26.648  1.00  0.00     0.002 C 
ENDROOT
BRANCH   1   2
ATOM      2  C   UNL A   1      30.993  26.979  25.774  1.00  0.00     0.002 C 
BRANCH   2   3
ATOM      3  C   UNL A   1      31.080  27.231  24.267  1.00  0.00     0.021 C 
BRANCH   3   4
ATOM      4  C   UNL A   1      30.762  25.999  23.428  1.00  0.00     0.116 C 
BRANCH   4   5
ATOM      5  N   UNL A   1      31.632  25.894  22.270  1.00  0.00    -0.352 N 
ATOM      6  C   UNL A   1      32.669  25.119  21.877  1.00  0.00     0.251 C 
ATOM      7  O   UNL A   1      33.114  25.365  20.751  1.00  0.00    -0.270 OA
ATOM      8  H   UNL A   1      31.407  26.569  21.590  1.00  0.00     0.163 HD
BRANCH   6   9
ATOM      9  C   UNL A   1      33.285  24.029  22.692  1.00  0.00     0.067 C 
ATOM     10  C   UNL A   1      36.416  20.948  25.326  1.00  0.00     0.048 C 
ATOM     11  C   UNL A   1      35.041  20.800  24.737  1.00  0.00    -0.007 A 
ATOM     12  C   UNL A   1      34.315  19.615  24.893  1.00  0.00     0.027 A 
ATOM     13  C   UNL A   1      34.454  21.860  24.032  1.00  0.00     0.131 A 
ATOM     14  C   UNL A   1      33.040  19.498  24.340  1.00  0.00     0.042 A 
ATOM     15  C   UNL A   1      33.180  21.744  23.468  1.00  0.00     0.019 A 
ATOM     16  O   UNL A   1      35.215  22.982  23.887  1.00  0.00    -0.475 OA
ATOM     17  Cl  UNL A   1      32.164  18.029  24.532  1.00  0.00    -0.084 Cl
ATOM     18  C   UNL A   1      32.469  20.552  23.627  1.00  0.00     0.032 A 
ATOM     19  C   UNL A   1      32.634  22.851  22.691  1.00  0.00     0.025 C 
ATOM     20  C   UNL A   1      34.537  24.200  23.500  1.00  0.00     0.314 C 
BRANCH  20  21
ATOM     21  C   UNL A   1      34.329  25.075  24.750  1.00  0.00     0.429 C 
ATOM     22  F   UNL A   1      34.249  26.384  24.401  1.00  0.00    -0.167 F 
ATOM     23  F   UNL A   1      33.181  24.788  25.407  1.00  0.00    -0.167 F 
ATOM     24  F   UNL A   1      35.336  24.953  25.642  1.00  0.00    -0.167 F 
ENDBRANCH  20  21
ENDBRANCH   6   9
ENDBRANCH   4   5
ENDBRANCH   3   4
ENDBRANCH   2   3
ENDBRANCH   1   2
BRANCH   1  25
ATOM     25  C   UNL A   1      33.114  27.855  26.967  1.00  0.00     0.021 C 
BRANCH  25  26
ATOM     26  C   UNL A   1      34.052  28.818  26.248  1.00  0.00     0.116 C 
BRANCH  26  27
ATOM     27  N   UNL A   1      33.877  30.185  26.712  1.00  0.00    -0.352 N 
ATOM     28  C   UNL A   1      34.590  30.875  27.655  1.00  0.00     0.251 C 
ATOM     29  H   UNL A   1      33.142  30.684  26.289  1.00  0.00     0.163 HD
ATOM     30  O   UNL A   1      34.171  31.943  28.095  1.00  0.00    -0.269 OA
BRANCH  28  31
ATOM     31  C   UNL A   1      35.864  30.323  28.151  1.00  0.00     0.039 A 
ATOM     32  C   UNL A   1      37.009  30.445  27.361  1.00  0.00     0.014 A 
ATOM     33  C   UNL A   1      35.923  29.680  29.392  1.00  0.00     0.014 A 
ATOM     34  C   UNL A   1      38.226  29.963  27.838  1.00  0.00     0.010 A 
ATOM     35  C   UNL A   1      37.151  29.267  29.897  1.00  0.00     0.010 A 
ATOM     36  C   UNL A   1      38.312  29.395  29.120  1.00  0.00    -0.014 A 
BRANCH  36  37
ATOM     37  C   UNL A   1      39.606  28.903  29.651  1.00  0.00     0.031 A 
ATOM     38  C   UNL A   1      40.292  29.652  30.759  1.00  0.00     0.074 A 
ATOM     39  C   UNL A   1      40.173  27.805  29.116  1.00  0.00     0.049 A 
ATOM     40  N   UNL A   1      41.442  29.406  31.333  1.00  0.00    -0.248 NA
ATOM     41  C   UNL A   1      39.606  30.846  31.280  1.00  0.00     0.031 C 
ATOM     42  C   UNL A   1      39.610  27.015  28.020  1.00  0.00     0.029 A 
ATOM     43  N   UNL A   1      41.344  27.161  29.424  1.00  0.00    -0.354 N 
ATOM     44  C   UNL A   1      41.612  30.407  32.279  1.00  0.00     0.074 A 
ATOM     45  C   UNL A   1      40.484  31.303  32.161  1.00  0.00     0.031 C 
ATOM     46  C   UNL A   1      40.419  25.973  27.769  1.00  0.00     0.029 A 
ATOM     47  C   UNL A   1      41.576  26.043  28.658  1.00  0.00     0.049 A 
ATOM     48  H   UNL A   1      41.960  27.470  30.126  1.00  0.00     0.167 HD
ATOM     49  C   UNL A   1      42.604  30.544  33.189  1.00  0.00     0.037 A 
ATOM     50  C   UNL A   1      42.606  25.177  28.673  1.00  0.00     0.037 A 
ATOM     51  C   UNL A   1      43.714  29.638  33.316  1.00  0.00     0.049 A 
ATOM     52  C   UNL A   1      43.720  25.383  29.666  1.00  0.00     0.074 A 
ATOM     53  C   UNL A   1      44.754  29.674  34.227  1.00  0.00     0.029 A 
ATOM     54  N   UNL A   1      43.923  28.528  32.510  1.00  0.00    -0.354 N 
ATOM     55  N   UNL A   1      43.844  26.305  30.589  1.00  0.00    -0.248 NA
ATOM     56  C   UNL A   1      44.836  24.426  29.620  1.00  0.00     0.031 C 
ATOM     57  C   UNL A   1      45.620  28.616  33.942  1.00  0.00     0.029 A 
ATOM     58  C   UNL A   1      45.090  27.886  32.890  1.00  0.00     0.049 A 
ATOM     59  H   UNL A   1      43.331  28.241  31.779  1.00  0.00     0.167 HD
ATOM     60  C   UNL A   1      45.033  26.024  31.252  1.00  0.00     0.074 A 
ATOM     61  C   UNL A   1      45.583  24.836  30.636  1.00  0.00     0.031 C 
ATOM     62  C   UNL A   1      45.617  26.694  32.275  1.00  0.00     0.037 A 
BRANCH  49  63
ATOM     63  C   UNL A   1      42.531  31.702  34.140  1.00  0.00     0.064 A 
ATOM     64  C   UNL A   1      43.109  32.942  33.827  1.00  0.00     0.173 A 
ATOM     65  C   UNL A   1      41.801  31.601  35.335  1.00  0.00     0.173 A 
ATOM     66  F   UNL A   1      43.826  33.086  32.702  1.00  0.00    -0.203 F 
ATOM     67  C   UNL A   1      42.968  34.033  34.678  1.00  0.00     0.198 A 
ATOM     68  C   UNL A   1      41.638  32.703  36.170  1.00  0.00     0.198 A 
ATOM     69  F   UNL A   1      41.226  30.439  35.680  1.00  0.00    -0.203 F 
ATOM     70  F   UNL A   1      43.553  35.199  34.371  1.00  0.00    -0.200 F 
ATOM     71  C   UNL A   1      42.222  33.917  35.842  1.00  0.00     0.200 A 
ATOM     72  F   UNL A   1      40.905  32.594  37.286  1.00  0.00    -0.200 F 
ATOM     73  F   UNL A   1      42.066  34.976  36.648  1.00  0.00    -0.200 F 
ENDBRANCH  49  63
BRANCH  50  74
ATOM     74  C   UNL A   1      42.619  24.018  27.740  1.00  0.00     0.064 A 
ATOM     75  C   UNL A   1      42.223  22.745  28.171  1.00  0.00     0.173 A 
ATOM     76  C   UNL A   1      43.026  24.156  26.405  1.00  0.00     0.173 A 
ATOM     77  F   UNL A   1      41.844  22.557  29.444  1.00  0.00    -0.203 F 
ATOM     78  C   UNL A   1      42.250  21.650  27.310  1.00  0.00     0.198 A 
ATOM     79  C   UNL A   1      43.023  23.067  25.535  1.00  0.00     0.198 A 
ATOM     80  F   UNL A   1      43.412  25.353  25.940  1.00  0.00    -0.203 F 
ATOM     81  F   UNL A   1      41.909  20.436  27.762  1.00  0.00    -0.200 F 
ATOM     82  C   UNL A   1      42.643  21.813  25.991  1.00  0.00     0.200 A 
ATOM     83  F   UNL A   1      43.389  23.232  24.256  1.00  0.00    -0.200 F 
ATOM     84  F   UNL A   1      42.663  20.762  25.160  1.00  0.00    -0.200 F 
ENDBRANCH  50  74
BRANCH  62  85
ATOM     85  C   UNL A   1      46.907  26.153  32.817  1.00  0.00     0.064 A 
ATOM     86  C   UNL A   1      46.928  25.161  33.808  1.00  0.00     0.173 A 
ATOM     87  C   UNL A   1      48.134  26.571  32.277  1.00  0.00     0.173 A 
ATOM     88  F   UNL A   1      45.782  24.737  34.362  1.00  0.00    -0.203 F 
ATOM     89  C   UNL A   1      48.131  24.617  34.249  1.00  0.00     0.198 A 
ATOM     90  C   UNL A   1      49.333  26.001  32.698  1.00  0.00     0.198 A 
ATOM     91  F   UNL A   1      48.168  27.509  31.320  1.00  0.00    -0.203 F 
ATOM     92  F   UNL A   1      48.129  23.695  35.221  1.00  0.00    -0.200 F 
ATOM     93  C   UNL A   1      49.330  25.028  33.685  1.00  0.00     0.200 A 
ATOM     94  F   UNL A   1      50.488  26.384  32.138  1.00  0.00    -0.200 F 
ATOM     95  F   UNL A   1      50.485  24.486  34.097  1.00  0.00    -0.200 F 
ENDBRANCH  62  85
ENDBRANCH  36  37
ENDBRANCH  28  31
ENDBRANCH  26  27
ENDBRANCH  25  26
ENDBRANCH   1  25
TORSDOF 14
ENDMDL
MODEL 3
REMARK VINA RESULT:     -12.2      4.230      7.937
REMARK SMILES Cc1cc(Cl)cc2c1O[C@H](C(F)(F)F)C(C(=O)NCCCCCCNC(=O)c1ccc(-c3c4nc(c(-c5c(F)c(F)c(F)c(F)c5F)c5ccc([nH]5)c(-c5c(F)c(F)c(F)c(F)c5F)c5nc(c(-c6c(F)c(F)c(F)c(F)c6F)c6ccc3[nH]6)C=C5)C=C4)cc1)=C2
REMARK SMILES IDX 22 1 21 2 20 3 19 4 18 5 16 6 17 7 15 9 1 10 2 11 3 12 8 13
REMARK SMILES IDX 4 14 7 15 9 16 5 17 6 18 91 19 10 20 11 21 12 22 13 23 14 24
REMARK SMILES IDX 23 25 24 26 25 27 26 28 27 30 28 31 29 32 90 33 30 34 89 35
REMARK SMILES IDX 31 36 32 37 33 38 83 39 34 40 88 41 82 42 84 43 35 44 87 45
REMARK SMILES IDX 81 46 80 47 36 49 68 50 48 51 67 52 49 53 52 54 66 55 85 56
REMARK SMILES IDX 50 57 51 58 65 60 86 61 53 62 37 63 38 64 46 65 39 66 40 67
REMARK SMILES IDX 44 68 47 69 41 70 42 71 45 72 43 73 69 74 70 75 78 76 71 77
REMARK SMILES IDX 72 78 76 79 79 80 73 81 74 82 77 83 75 84 54 85 55 86 63 87
REMARK SMILES IDX 56 88 57 89 61 90 64 91 58 92 59 93 62 94 60 95
REMARK H PARENT 18 8 25 29 84 48 52 59
REMARK Flexibility Score: inf
ROOT
ATOM      1  C   UNL A   1      31.465  30.718  26.249  1.00  0.00     0.002 C 
ENDROOT
BRANCH   1   2
ATOM      2  C   UNL A   1      32.702  30.003  26.807  1.00  0.00     0.002 C 
BRANCH   2   3
ATOM      3  C   UNL A   1      33.650  29.434  25.749  1.00  0.00     0.021 C 
BRANCH   3   4
ATOM      4  C   UNL A   1      33.872  27.932  25.881  1.00  0.00     0.116 C 
BRANCH   4   5
ATOM      5  N   UNL A   1      33.868  27.270  24.588  1.00  0.00    -0.352 N 
ATOM      6  C   UNL A   1      32.983  27.058  23.587  1.00  0.00     0.251 C 
ATOM      7  O   UNL A   1      33.427  26.444  22.611  1.00  0.00    -0.270 OA
ATOM      8  H   UNL A   1      34.743  26.866  24.389  1.00  0.00     0.163 HD
BRANCH   6   9
ATOM      9  C   UNL A   1      31.557  27.502  23.591  1.00  0.00     0.067 C 
ATOM     10  C   UNL A   1      26.446  27.827  23.501  1.00  0.00     0.048 C 
ATOM     11  C   UNL A   1      27.568  28.809  23.315  1.00  0.00    -0.007 A 
ATOM     12  C   UNL A   1      27.308  30.165  23.091  1.00  0.00     0.027 A 
ATOM     13  C   UNL A   1      28.902  28.383  23.380  1.00  0.00     0.131 A 
ATOM     14  C   UNL A   1      28.364  31.061  22.922  1.00  0.00     0.042 A 
ATOM     15  C   UNL A   1      29.963  29.276  23.203  1.00  0.00     0.019 A 
ATOM     16  O   UNL A   1      29.098  27.047  23.574  1.00  0.00    -0.475 OA
ATOM     17  Cl  UNL A   1      28.026  32.725  22.637  1.00  0.00    -0.084 Cl
ATOM     18  C   UNL A   1      29.688  30.626  22.973  1.00  0.00     0.032 A 
ATOM     19  C   UNL A   1      31.333  28.775  23.218  1.00  0.00     0.025 C 
ATOM     20  C   UNL A   1      30.413  26.625  24.006  1.00  0.00     0.314 C 
BRANCH  20  21
ATOM     21  C   UNL A   1      30.380  26.360  25.523  1.00  0.00     0.429 C 
ATOM     22  F   UNL A   1      29.153  25.919  25.898  1.00  0.00    -0.167 F 
ATOM     23  F   UNL A   1      31.260  25.406  25.908  1.00  0.00    -0.167 F 
ATOM     24  F   UNL A   1      30.654  27.466  26.249  1.00  0.00    -0.167 F 
ENDBRANCH  20  21
ENDBRANCH   6   9
ENDBRANCH   4   5
ENDBRANCH   3   4
ENDBRANCH   2   3
ENDBRANCH   1   2
BRANCH   1  25
ATOM     25  C   UNL A   1      31.399  32.221  26.533  1.00  0.00     0.021 C 
BRANCH  25  26
ATOM     26  C   UNL A   1      32.616  32.772  27.267  1.00  0.00     0.116 C 
BRANCH  26  27
ATOM     27  N   UNL A   1      32.439  34.170  27.625  1.00  0.00    -0.352 N 
ATOM     28  C   UNL A   1      33.017  34.882  28.642  1.00  0.00     0.251 C 
ATOM     29  H   UNL A   1      31.816  34.676  27.056  1.00  0.00     0.163 HD
ATOM     30  O   UNL A   1      32.588  35.991  28.948  1.00  0.00    -0.269 OA
BRANCH  28  31
ATOM     31  C   UNL A   1      34.155  34.302  29.378  1.00  0.00     0.039 A 
ATOM     32  C   UNL A   1      33.906  33.537  30.519  1.00  0.00     0.014 A 
ATOM     33  C   UNL A   1      35.467  34.522  28.944  1.00  0.00     0.014 A 
ATOM     34  C   UNL A   1      34.972  32.951  31.199  1.00  0.00     0.010 A 
ATOM     35  C   UNL A   1      36.522  33.876  29.579  1.00  0.00     0.010 A 
ATOM     36  C   UNL A   1      36.285  33.094  30.719  1.00  0.00    -0.014 A 
BRANCH  36  37
ATOM     37  C   UNL A   1      37.425  32.453  31.417  1.00  0.00     0.031 A 
ATOM     38  C   UNL A   1      38.179  31.337  30.749  1.00  0.00     0.074 A 
ATOM     39  C   UNL A   1      37.760  32.856  32.658  1.00  0.00     0.049 A 
ATOM     40  N   UNL A   1      39.178  30.626  31.206  1.00  0.00    -0.248 NA
ATOM     41  C   UNL A   1      37.741  30.955  29.395  1.00  0.00     0.031 C 
ATOM     42  C   UNL A   1      37.083  33.910  33.413  1.00  0.00     0.029 A 
ATOM     43  N   UNL A   1      38.755  32.430  33.500  1.00  0.00    -0.354 N 
ATOM     44  C   UNL A   1      39.487  29.722  30.200  1.00  0.00     0.074 A 
ATOM     45  C   UNL A   1      38.532  29.924  29.134  1.00  0.00     0.031 C 
ATOM     46  C   UNL A   1      37.702  34.073  34.593  1.00  0.00     0.029 A 
ATOM     47  C   UNL A   1      38.795  33.108  34.694  1.00  0.00     0.049 A 
ATOM     48  H   UNL A   1      39.382  31.706  33.271  1.00  0.00     0.167 HD
ATOM     49  C   UNL A   1      40.501  28.827  30.156  1.00  0.00     0.037 A 
ATOM     50  C   UNL A   1      39.618  32.965  35.750  1.00  0.00     0.037 A 
ATOM     51  C   UNL A   1      41.462  28.644  31.210  1.00  0.00     0.049 A 
ATOM     52  C   UNL A   1      40.708  31.928  35.691  1.00  0.00     0.074 A 
ATOM     53  C   UNL A   1      42.545  27.784  31.247  1.00  0.00     0.029 A 
ATOM     54  N   UNL A   1      41.457  29.337  32.412  1.00  0.00    -0.354 N 
ATOM     55  N   UNL A   1      41.022  31.113  34.714  1.00  0.00    -0.248 NA
ATOM     56  C   UNL A   1      41.560  31.791  36.882  1.00  0.00     0.031 C 
ATOM     57  C   UNL A   1      43.167  27.920  32.491  1.00  0.00     0.029 A 
ATOM     58  C   UNL A   1      42.506  28.906  33.207  1.00  0.00     0.049 A 
ATOM     59  H   UNL A   1      40.806  30.031  32.662  1.00  0.00     0.167 HD
ATOM     60  C   UNL A   1      42.122  30.389  35.157  1.00  0.00     0.074 A 
ATOM     61  C   UNL A   1      42.431  30.874  36.486  1.00  0.00     0.031 C 
ATOM     62  C   UNL A   1      42.809  29.410  34.523  1.00  0.00     0.037 A 
BRANCH  49  63
ATOM     63  C   UNL A   1      40.647  27.989  28.920  1.00  0.00     0.064 A 
ATOM     64  C   UNL A   1      39.934  26.790  28.763  1.00  0.00     0.173 A 
ATOM     65  C   UNL A   1      41.436  28.430  27.845  1.00  0.00     0.173 A 
ATOM     66  F   UNL A   1      39.176  26.320  29.765  1.00  0.00    -0.203 F 
ATOM     67  C   UNL A   1      40.013  26.060  27.581  1.00  0.00     0.198 A 
ATOM     68  C   UNL A   1      41.488  27.711  26.654  1.00  0.00     0.198 A 
ATOM     69  F   UNL A   1      42.134  29.571  27.943  1.00  0.00    -0.203 F 
ATOM     70  F   UNL A   1      39.346  24.903  27.465  1.00  0.00    -0.200 F 
ATOM     71  C   UNL A   1      40.779  26.527  26.523  1.00  0.00     0.200 A 
ATOM     72  F   UNL A   1      42.217  28.171  25.628  1.00  0.00    -0.200 F 
ATOM     73  F   UNL A   1      40.834  25.835  25.377  1.00  0.00    -0.200 F 
ENDBRANCH  49  63
BRANCH  50  74
ATOM     74  C   UNL A   1      39.464  33.845  36.940  1.00  0.00     0.064 A 
ATOM     75  C   UNL A   1      38.706  33.432  38.044  1.00  0.00     0.173 A 
ATOM     76  C   UNL A   1      40.066  35.109  37.000  1.00  0.00     0.173 A 
ATOM     77  F   UNL A   1      38.093  32.239  38.027  1.00  0.00    -0.203 F 
ATOM     78  C   UNL A   1      38.539  34.257  39.155  1.00  0.00     0.198 A 
ATOM     79  C   UNL A   1      39.926  35.921  38.125  1.00  0.00     0.198 A 
ATOM     80  F   UNL A   1      40.805  35.552  35.973  1.00  0.00    -0.203 F 
ATOM     81  F   UNL A   1      37.772  33.855  40.176  1.00  0.00    -0.200 F 
ATOM     82  C   UNL A   1      39.156  35.498  39.197  1.00  0.00     0.200 A 
ATOM     83  F   UNL A   1      40.536  37.114  38.167  1.00  0.00    -0.200 F 
ATOM     84  F   UNL A   1      39.002  36.289  40.268  1.00  0.00    -0.200 F 
ENDBRANCH  50  74
BRANCH  62  85
ATOM     85  C   UNL A   1      43.982  28.804  35.237  1.00  0.00     0.064 A 
ATOM     86  C   UNL A   1      43.838  27.676  36.057  1.00  0.00     0.173 A 
ATOM     87  C   UNL A   1      45.276  29.307  35.029  1.00  0.00     0.173 A 
ATOM     88  F   UNL A   1      42.622  27.166  36.295  1.00  0.00    -0.203 F 
ATOM     89  C   UNL A   1      44.946  27.082  36.655  1.00  0.00     0.198 A 
ATOM     90  C   UNL A   1      46.385  28.691  35.602  1.00  0.00     0.198 A 
ATOM     91  F   UNL A   1      45.469  30.378  34.244  1.00  0.00    -0.203 F 
ATOM     92  F   UNL A   1      44.782  26.026  37.463  1.00  0.00    -0.200 F 
ATOM     93  C   UNL A   1      46.219  27.582  36.417  1.00  0.00     0.200 A 
ATOM     94  F   UNL A   1      47.615  29.162  35.355  1.00  0.00    -0.200 F 
ATOM     95  F   UNL A   1      47.286  26.993  36.977  1.00  0.00    -0.200 F 
ENDBRANCH  62  85
ENDBRANCH  36  37
ENDBRANCH  28  31
ENDBRANCH  26  27
ENDBRANCH  25  26
ENDBRANCH   1  25
TORSDOF 14
ENDMDL
