MODEL 1
REMARK VINA RESULT:     -11.6      0.000      0.000
REMARK SMILES O=C(NCCCCCCNC(=O)[C@@]12CCC[C@@H](C[NH2+]1)C2)c1ccc(-c2c3nc(c(-c4c(F)c(F)c(F)c(F)c4F)c4ccc([nH]4)c(-c4c(F)c(F)c(F)c(F)c4F)c4nc(c(-c5c(F)c(F)c(F)c(F)c5F)c5ccc2[nH]5)C=C4)C=C3)cc1
REMARK SMILES IDX 5 1 4 2 3 3 1 4 2 5 21 7 22 8 83 9 23 10 82 11 24 12 25 13
REMARK SMILES IDX 26 14 76 15 27 16 81 17 75 18 77 19 28 20 80 21 74 22 73 23
REMARK SMILES IDX 29 25 61 26 41 27 60 28 42 29 45 30 59 31 78 32 43 33 44 34
REMARK SMILES IDX 58 36 79 37 46 38 30 39 31 40 39 41 32 42 33 43 37 44 40 45
REMARK SMILES IDX 34 46 35 47 38 48 36 49 62 50 63 51 71 52 64 53 65 54 69 55
REMARK SMILES IDX 72 56 66 57 67 58 70 59 68 60 47 61 48 62 56 63 49 64 50 65
REMARK SMILES IDX 54 66 57 67 51 68 52 69 55 70 53 71 6 72 7 73 8 74 9 75
REMARK SMILES IDX 10 76 11 77 12 79 13 80 14 81 19 82 20 83 15 84 18 85 17 88
REMARK SMILES IDX 16 89
REMARK H PARENT 3 6 77 24 45 35 10 78 19 86 19 87
REMARK Flexibility Score: inf
ROOT
ATOM      1  C   UNL A   1      31.401  32.195  26.551  1.00  0.00     0.021 C 
ENDROOT
BRANCH   1   2
ATOM      2  C   UNL A   1      32.568  32.827  27.295  1.00  0.00     0.116 C 
BRANCH   2   3
ATOM      3  N   UNL A   1      32.320  34.205  27.686  1.00  0.00    -0.352 N 
ATOM      4  O   UNL A   1      32.568  36.065  28.953  1.00  0.00    -0.269 OA
ATOM      5  C   UNL A   1      32.972  34.949  28.643  1.00  0.00     0.251 C 
ATOM      6  H   UNL A   1      31.594  34.664  27.206  1.00  0.00     0.163 HD
BRANCH   5   7
ATOM      7  C   UNL A   1      34.153  34.374  29.320  1.00  0.00     0.039 A 
ATOM      8  C   UNL A   1      35.434  34.607  28.816  1.00  0.00     0.014 A 
ATOM      9  C   UNL A   1      33.977  33.569  30.450  1.00  0.00     0.014 A 
ATOM     10  C   UNL A   1      36.515  33.917  29.344  1.00  0.00     0.010 A 
ATOM     11  C   UNL A   1      35.084  32.952  31.042  1.00  0.00     0.010 A 
ATOM     12  C   UNL A   1      36.360  33.097  30.476  1.00  0.00    -0.014 A 
BRANCH  12  13
ATOM     13  C   UNL A   1      37.571  32.484  31.076  1.00  0.00     0.031 A 
ATOM     14  C   UNL A   1      38.041  32.848  32.455  1.00  0.00     0.074 A 
ATOM     15  C   UNL A   1      38.209  31.528  30.372  1.00  0.00     0.049 A 
ATOM     16  N   UNL A   1      39.031  32.338  33.147  1.00  0.00    -0.248 NA
ATOM     17  C   UNL A   1      37.319  33.924  33.151  1.00  0.00     0.031 C 
ATOM     18  C   UNL A   1      37.857  31.115  29.010  1.00  0.00     0.029 A 
ATOM     19  N   UNL A   1      39.256  30.708  30.706  1.00  0.00    -0.354 N 
ATOM     20  C   UNL A   1      39.057  33.034  34.348  1.00  0.00     0.074 A 
ATOM     21  C   UNL A   1      38.002  34.023  34.284  1.00  0.00     0.031 C 
ATOM     22  C   UNL A   1      38.627  30.081  28.651  1.00  0.00     0.029 A 
ATOM     23  C   UNL A   1      39.569  29.798  29.727  1.00  0.00     0.049 A 
ATOM     24  H   UNL A   1      39.736  30.768  31.563  1.00  0.00     0.167 HD
ATOM     25  C   UNL A   1      39.881  32.852  35.410  1.00  0.00     0.037 A 
ATOM     26  C   UNL A   1      40.516  28.843  29.694  1.00  0.00     0.037 A 
ATOM     27  C   UNL A   1      40.927  31.861  35.469  1.00  0.00     0.049 A 
ATOM     28  C   UNL A   1      41.404  28.663  30.888  1.00  0.00     0.074 A 
ATOM     29  C   UNL A   1      41.810  31.596  36.502  1.00  0.00     0.029 A 
ATOM     30  N   UNL A   1      41.229  30.969  34.450  1.00  0.00    -0.354 N 
ATOM     31  N   UNL A   1      41.401  29.313  32.025  1.00  0.00    -0.248 NA
ATOM     32  C   UNL A   1      42.430  27.616  30.794  1.00  0.00     0.031 C 
ATOM     33  C   UNL A   1      42.669  30.568  36.094  1.00  0.00     0.029 A 
ATOM     34  C   UNL A   1      42.291  30.161  34.826  1.00  0.00     0.049 A 
ATOM     35  H   UNL A   1      40.758  30.917  33.587  1.00  0.00     0.167 HD
ATOM     36  C   UNL A   1      42.421  28.758  32.782  1.00  0.00     0.074 A 
ATOM     37  C   UNL A   1      42.995  27.688  31.991  1.00  0.00     0.031 C 
ATOM     38  C   UNL A   1      42.855  29.110  34.017  1.00  0.00     0.037 A 
BRANCH  25  39
ATOM     39  C   UNL A   1      39.695  33.747  36.602  1.00  0.00     0.064 A 
ATOM     40  C   UNL A   1      40.281  35.020  36.661  1.00  0.00     0.173 A 
ATOM     41  C   UNL A   1      38.866  33.359  37.666  1.00  0.00     0.173 A 
ATOM     42  F   UNL A   1      41.090  35.438  35.675  1.00  0.00    -0.203 F 
ATOM     43  C   UNL A   1      40.055  35.864  37.746  1.00  0.00     0.198 A 
ATOM     44  C   UNL A   1      38.623  34.214  38.737  1.00  0.00     0.198 A 
ATOM     45  F   UNL A   1      38.276  32.153  37.656  1.00  0.00    -0.203 F 
ATOM     46  F   UNL A   1      40.650  37.065  37.794  1.00  0.00    -0.200 F 
ATOM     47  C   UNL A   1      39.220  35.465  38.778  1.00  0.00     0.200 A 
ATOM     48  F   UNL A   1      37.806  33.831  39.727  1.00  0.00    -0.200 F 
ATOM     49  F   UNL A   1      38.994  36.284  39.815  1.00  0.00    -0.200 F 
ENDBRANCH  25  39
BRANCH  26  50
ATOM     50  C   UNL A   1      40.667  27.998  28.481  1.00  0.00     0.064 A 
ATOM     51  C   UNL A   1      40.035  26.752  28.380  1.00  0.00     0.173 A 
ATOM     52  C   UNL A   1      41.440  28.430  27.392  1.00  0.00     0.173 A 
ATOM     53  F   UNL A   1      39.300  26.289  29.401  1.00  0.00    -0.203 F 
ATOM     54  C   UNL A   1      40.187  25.961  27.243  1.00  0.00     0.198 A 
ATOM     55  C   UNL A   1      41.562  27.654  26.243  1.00  0.00     0.198 A 
ATOM     56  F   UNL A   1      42.058  29.620  27.437  1.00  0.00    -0.203 F 
ATOM     57  F   UNL A   1      39.608  24.753  27.189  1.00  0.00    -0.200 F 
ATOM     58  C   UNL A   1      40.943  26.416  26.172  1.00  0.00     0.200 A 
ATOM     59  F   UNL A   1      42.277  28.107  25.205  1.00  0.00    -0.200 F 
ATOM     60  F   UNL A   1      41.079  25.658  25.077  1.00  0.00    -0.200 F 
ENDBRANCH  26  50
BRANCH  38  61
ATOM     61  C   UNL A   1      44.003  28.323  34.577  1.00  0.00     0.064 A 
ATOM     62  C   UNL A   1      43.792  27.146  35.310  1.00  0.00     0.173 A 
ATOM     63  C   UNL A   1      45.324  28.752  34.382  1.00  0.00     0.173 A 
ATOM     64  F   UNL A   1      42.546  26.706  35.538  1.00  0.00    -0.203 F 
ATOM     65  C   UNL A   1      44.862  26.445  35.860  1.00  0.00     0.198 A 
ATOM     66  C   UNL A   1      46.393  28.032  34.909  1.00  0.00     0.198 A 
ATOM     67  F   UNL A   1      45.577  29.867  33.684  1.00  0.00    -0.203 F 
ATOM     68  F   UNL A   1      44.634  25.358  36.609  1.00  0.00    -0.200 F 
ATOM     69  C   UNL A   1      46.161  26.886  35.656  1.00  0.00     0.200 A 
ATOM     70  F   UNL A   1      47.648  28.454  34.703  1.00  0.00    -0.200 F 
ATOM     71  F   UNL A   1      47.190  26.215  36.192  1.00  0.00    -0.200 F 
ENDBRANCH  38  61
ENDBRANCH  12  13
ENDBRANCH   5   7
ENDBRANCH   2   3
ENDBRANCH   1   2
BRANCH   1  72
ATOM     72  C   UNL A   1      31.642  30.761  26.085  1.00  0.00     0.002 C 
BRANCH  72  73
ATOM     73  C   UNL A   1      32.175  29.807  27.159  1.00  0.00     0.002 C 
BRANCH  73  74
ATOM     74  C   UNL A   1      33.656  29.420  27.023  1.00  0.00     0.021 C 
BRANCH  74  75
ATOM     75  C   UNL A   1      33.925  28.250  26.075  1.00  0.00     0.116 C 
BRANCH  75  76
ATOM     76  N   UNL A   1      34.092  28.728  24.720  1.00  0.00    -0.351 N 
ATOM     77  C   UNL A   1      33.557  28.316  23.545  1.00  0.00     0.281 C 
ATOM     78  H   UNL A   1      34.706  29.494  24.636  1.00  0.00     0.163 HD
ATOM     79  O   UNL A   1      34.036  28.823  22.521  1.00  0.00    -0.268 OA
BRANCH  77  80
ATOM     80  C   UNL A   1      32.408  27.281  23.459  1.00  0.00     0.176 C 
ATOM     81  C   UNL A   1      31.146  27.708  24.229  1.00  0.00     0.079 C 
ATOM     82  N   UNL A   1      31.988  27.184  22.015  1.00  0.00    -0.333 N 
ATOM     83  C   UNL A   1      32.777  25.841  23.825  1.00  0.00     0.088 C 
ATOM     84  C   UNL A   1      30.209  26.529  24.537  1.00  0.00     0.008 C 
ATOM     85  C   UNL A   1      31.933  25.767  21.663  1.00  0.00     0.265 C 
ATOM     86  H   UNL A   1      32.667  27.663  21.423  1.00  0.00     0.347 HD
ATOM     87  H   UNL A   1      31.078  27.624  21.876  1.00  0.00     0.347 HD
ATOM     88  C   UNL A   1      31.732  25.088  23.011  1.00  0.00     0.051 C 
ATOM     89  C   UNL A   1      30.302  25.355  23.548  1.00  0.00     0.010 C 
ENDBRANCH  77  80
ENDBRANCH  75  76
ENDBRANCH  74  75
ENDBRANCH  73  74
ENDBRANCH  72  73
ENDBRANCH   1  72
TORSDOF 13
ENDMDL
MODEL 2
REMARK VINA RESULT:     -11.4      1.478      1.791
REMARK SMILES O=C(NCCCCCCNC(=O)[C@@]12CCC[C@@H](C[NH2+]1)C2)c1ccc(-c2c3nc(c(-c4c(F)c(F)c(F)c(F)c4F)c4ccc([nH]4)c(-c4c(F)c(F)c(F)c(F)c4F)c4nc(c(-c5c(F)c(F)c(F)c(F)c5F)c5ccc2[nH]5)C=C4)C=C3)cc1
REMARK SMILES IDX 5 1 4 2 3 3 1 4 2 5 21 7 22 8 83 9 23 10 82 11 24 12 25 13
REMARK SMILES IDX 26 14 76 15 27 16 81 17 75 18 77 19 28 20 80 21 74 22 73 23
REMARK SMILES IDX 29 25 61 26 41 27 60 28 42 29 45 30 59 31 78 32 43 33 44 34
REMARK SMILES IDX 58 36 79 37 46 38 30 39 31 40 39 41 32 42 33 43 37 44 40 45
REMARK SMILES IDX 34 46 35 47 38 48 36 49 62 50 63 51 71 52 64 53 65 54 69 55
REMARK SMILES IDX 72 56 66 57 67 58 70 59 68 60 47 61 48 62 56 63 49 64 50 65
REMARK SMILES IDX 54 66 57 67 51 68 52 69 55 70 53 71 6 72 7 73 8 74 9 75
REMARK SMILES IDX 10 76 11 77 12 79 13 80 14 81 19 82 20 83 15 84 18 85 17 88
REMARK SMILES IDX 16 89
REMARK H PARENT 3 6 77 24 45 35 10 78 19 86 19 87
REMARK Flexibility Score: inf
ROOT
ATOM      1  C   UNL A   1      31.428  31.886  26.521  1.00  0.00     0.021 C 
ENDROOT
BRANCH   1   2
ATOM      2  C   UNL A   1      32.608  32.539  27.227  1.00  0.00     0.116 C 
BRANCH   2   3
ATOM      3  N   UNL A   1      32.366  33.928  27.582  1.00  0.00    -0.352 N 
ATOM      4  O   UNL A   1      32.627  35.821  28.797  1.00  0.00    -0.269 OA
ATOM      5  C   UNL A   1      33.026  34.696  28.514  1.00  0.00     0.251 C 
ATOM      6  H   UNL A   1      31.637  34.375  27.095  1.00  0.00     0.163 HD
BRANCH   5   7
ATOM      7  C   UNL A   1      34.211  34.136  29.197  1.00  0.00     0.039 A 
ATOM      8  C   UNL A   1      35.495  34.507  28.792  1.00  0.00     0.014 A 
ATOM      9  C   UNL A   1      34.039  33.210  30.230  1.00  0.00     0.014 A 
ATOM     10  C   UNL A   1      36.597  33.842  29.310  1.00  0.00     0.010 A 
ATOM     11  C   UNL A   1      35.159  32.613  30.821  1.00  0.00     0.010 A 
ATOM     12  C   UNL A   1      36.446  32.902  30.345  1.00  0.00    -0.014 A 
BRANCH  12  13
ATOM     13  C   UNL A   1      37.668  32.315  30.950  1.00  0.00     0.031 A 
ATOM     14  C   UNL A   1      38.127  32.691  32.330  1.00  0.00     0.074 A 
ATOM     15  C   UNL A   1      38.328  31.371  30.249  1.00  0.00     0.049 A 
ATOM     16  N   UNL A   1      39.125  32.203  33.025  1.00  0.00    -0.248 NA
ATOM     17  C   UNL A   1      37.380  33.753  33.021  1.00  0.00     0.031 C 
ATOM     18  C   UNL A   1      37.988  30.950  28.887  1.00  0.00     0.029 A 
ATOM     19  N   UNL A   1      39.390  30.574  30.588  1.00  0.00    -0.354 N 
ATOM     20  C   UNL A   1      39.133  32.901  34.225  1.00  0.00     0.074 A 
ATOM     21  C   UNL A   1      38.058  33.868  34.157  1.00  0.00     0.031 C 
ATOM     22  C   UNL A   1      38.781  29.931  28.532  1.00  0.00     0.029 A 
ATOM     23  C   UNL A   1      39.725  29.669  29.611  1.00  0.00     0.049 A 
ATOM     24  H   UNL A   1      39.866  30.645  31.446  1.00  0.00     0.167 HD
ATOM     25  C   UNL A   1      39.957  32.738  35.289  1.00  0.00     0.037 A 
ATOM     26  C   UNL A   1      40.692  28.733  29.582  1.00  0.00     0.037 A 
ATOM     27  C   UNL A   1      41.023  31.769  35.353  1.00  0.00     0.049 A 
ATOM     28  C   UNL A   1      41.580  28.574  30.779  1.00  0.00     0.074 A 
ATOM     29  C   UNL A   1      41.908  31.523  36.389  1.00  0.00     0.029 A 
ATOM     30  N   UNL A   1      41.347  30.882  34.336  1.00  0.00    -0.354 N 
ATOM     31  N   UNL A   1      41.561  29.225  31.915  1.00  0.00    -0.248 NA
ATOM     32  C   UNL A   1      42.628  27.548  30.690  1.00  0.00     0.031 C 
ATOM     33  C   UNL A   1      42.789  30.513  35.986  1.00  0.00     0.029 A 
ATOM     34  C   UNL A   1      42.424  30.096  34.717  1.00  0.00     0.049 A 
ATOM     35  H   UNL A   1      40.879  30.818  33.472  1.00  0.00     0.167 HD
ATOM     36  C   UNL A   1      42.589  28.693  32.676  1.00  0.00     0.074 A 
ATOM     37  C   UNL A   1      43.187  27.634  31.888  1.00  0.00     0.031 C 
ATOM     38  C   UNL A   1      43.012  29.056  33.912  1.00  0.00     0.037 A 
BRANCH  25  39
ATOM     39  C   UNL A   1      39.749  33.631  36.480  1.00  0.00     0.064 A 
ATOM     40  C   UNL A   1      40.339  34.901  36.555  1.00  0.00     0.173 A 
ATOM     41  C   UNL A   1      38.895  33.243  37.524  1.00  0.00     0.173 A 
ATOM     42  F   UNL A   1      41.172  35.318  35.588  1.00  0.00    -0.203 F 
ATOM     43  C   UNL A   1      40.094  35.743  37.637  1.00  0.00     0.198 A 
ATOM     44  C   UNL A   1      38.633  34.097  38.592  1.00  0.00     0.198 A 
ATOM     45  F   UNL A   1      38.300  32.041  37.499  1.00  0.00    -0.203 F 
ATOM     46  F   UNL A   1      40.693  36.941  37.702  1.00  0.00    -0.200 F 
ATOM     47  C   UNL A   1      39.234  35.345  38.649  1.00  0.00     0.200 A 
ATOM     48  F   UNL A   1      37.792  33.716  39.563  1.00  0.00    -0.200 F 
ATOM     49  F   UNL A   1      38.989  36.163  39.683  1.00  0.00    -0.200 F 
ENDBRANCH  25  39
BRANCH  26  50
ATOM     50  C   UNL A   1      40.864  27.890  28.371  1.00  0.00     0.064 A 
ATOM     51  C   UNL A   1      40.241  26.641  28.261  1.00  0.00     0.173 A 
ATOM     52  C   UNL A   1      41.649  28.328  27.292  1.00  0.00     0.173 A 
ATOM     53  F   UNL A   1      39.495  26.173  29.272  1.00  0.00    -0.203 F 
ATOM     54  C   UNL A   1      40.412  25.851  27.126  1.00  0.00     0.198 A 
ATOM     55  C   UNL A   1      41.791  27.553  26.145  1.00  0.00     0.198 A 
ATOM     56  F   UNL A   1      42.259  29.521  27.346  1.00  0.00    -0.203 F 
ATOM     57  F   UNL A   1      39.842  24.640  27.064  1.00  0.00    -0.200 F 
ATOM     58  C   UNL A   1      41.180  26.311  26.066  1.00  0.00     0.200 A 
ATOM     59  F   UNL A   1      42.517  28.010  25.117  1.00  0.00    -0.200 F 
ATOM     60  F   UNL A   1      41.335  25.554  24.972  1.00  0.00    -0.200 F 
ENDBRANCH  26  50
BRANCH  38  61
ATOM     61  C   UNL A   1      44.175  28.294  34.476  1.00  0.00     0.064 A 
ATOM     62  C   UNL A   1      43.986  27.115  35.213  1.00  0.00     0.173 A 
ATOM     63  C   UNL A   1      45.487  28.748  34.282  1.00  0.00     0.173 A 
ATOM     64  F   UNL A   1      42.748  26.651  35.440  1.00  0.00    -0.203 F 
ATOM     65  C   UNL A   1      45.068  26.438  35.767  1.00  0.00     0.198 A 
ATOM     66  C   UNL A   1      46.569  28.052  34.814  1.00  0.00     0.198 A 
ATOM     67  F   UNL A   1      45.719  29.866  33.581  1.00  0.00    -0.203 F 
ATOM     68  F   UNL A   1      44.861  25.348  36.518  1.00  0.00    -0.200 F 
ATOM     69  C   UNL A   1      46.358  26.904  35.564  1.00  0.00     0.200 A 
ATOM     70  F   UNL A   1      47.816  28.498  34.609  1.00  0.00    -0.200 F 
ATOM     71  F   UNL A   1      47.399  26.255  36.104  1.00  0.00    -0.200 F 
ENDBRANCH  38  61
ENDBRANCH  12  13
ENDBRANCH   5   7
ENDBRANCH   2   3
ENDBRANCH   1   2
BRANCH   1  72
ATOM     72  C   UNL A   1      31.689  30.466  26.023  1.00  0.00     0.002 C 
BRANCH  72  73
ATOM     73  C   UNL A   1      32.355  29.531  27.037  1.00  0.00     0.002 C 
BRANCH  73  74
ATOM     74  C   UNL A   1      31.593  28.230  27.336  1.00  0.00     0.021 C 
BRANCH  74  75
ATOM     75  C   UNL A   1      31.961  27.054  26.430  1.00  0.00     0.116 C 
BRANCH  75  76
ATOM     76  N   UNL A   1      31.434  25.819  26.969  1.00  0.00    -0.351 N 
ATOM     77  C   UNL A   1      31.602  24.527  26.597  1.00  0.00     0.281 C 
ATOM     78  H   UNL A   1      30.846  25.940  27.750  1.00  0.00     0.163 HD
ATOM     79  O   UNL A   1      30.870  23.699  27.157  1.00  0.00    -0.268 OA
BRANCH  77  80
ATOM     80  C   UNL A   1      32.647  24.082  25.543  1.00  0.00     0.176 C 
ATOM     81  C   UNL A   1      34.099  24.348  25.978  1.00  0.00     0.079 C 
ATOM     82  N   UNL A   1      32.535  22.587  25.393  1.00  0.00    -0.333 N 
ATOM     83  C   UNL A   1      32.426  24.605  24.121  1.00  0.00     0.088 C 
ATOM     84  C   UNL A   1      35.083  24.351  24.796  1.00  0.00     0.008 C 
ATOM     85  C   UNL A   1      32.462  22.290  23.964  1.00  0.00     0.265 C 
ATOM     86  H   UNL A   1      31.693  22.252  25.862  1.00  0.00     0.347 HD
ATOM     87  H   UNL A   1      33.340  22.123  25.814  1.00  0.00     0.347 HD
ATOM     88  C   UNL A   1      33.120  23.505  23.327  1.00  0.00     0.051 C 
ATOM     89  C   UNL A   1      34.648  23.500  23.591  1.00  0.00     0.010 C 
ENDBRANCH  77  80
ENDBRANCH  75  76
ENDBRANCH  74  75
ENDBRANCH  73  74
ENDBRANCH  72  73
ENDBRANCH   1  72
TORSDOF 13
ENDMDL
MODEL 3
REMARK VINA RESULT:     -11.4      1.450      2.445
REMARK SMILES O=C(NCCCCCCNC(=O)[C@@]12CCC[C@@H](C[NH2+]1)C2)c1ccc(-c2c3nc(c(-c4c(F)c(F)c(F)c(F)c4F)c4ccc([nH]4)c(-c4c(F)c(F)c(F)c(F)c4F)c4nc(c(-c5c(F)c(F)c(F)c(F)c5F)c5ccc2[nH]5)C=C4)C=C3)cc1
REMARK SMILES IDX 5 1 4 2 3 3 1 4 2 5 21 7 22 8 83 9 23 10 82 11 24 12 25 13
REMARK SMILES IDX 26 14 76 15 27 16 81 17 75 18 77 19 28 20 80 21 74 22 73 23
REMARK SMILES IDX 29 25 61 26 41 27 60 28 42 29 45 30 59 31 78 32 43 33 44 34
REMARK SMILES IDX 58 36 79 37 46 38 30 39 31 40 39 41 32 42 33 43 37 44 40 45
REMARK SMILES IDX 34 46 35 47 38 48 36 49 62 50 63 51 71 52 64 53 65 54 69 55
REMARK SMILES IDX 72 56 66 57 67 58 70 59 68 60 47 61 48 62 56 63 49 64 50 65
REMARK SMILES IDX 54 66 57 67 51 68 52 69 55 70 53 71 6 72 7 73 8 74 9 75
REMARK SMILES IDX 10 76 11 77 12 79 13 80 14 81 19 82 20 83 15 84 18 85 17 88
REMARK SMILES IDX 16 89
REMARK H PARENT 3 6 77 24 45 35 10 78 19 86 19 87
REMARK Flexibility Score: inf
ROOT
ATOM      1  C   UNL A   1      31.404  32.074  26.746  1.00  0.00     0.021 C 
ENDROOT
BRANCH   1   2
ATOM      2  C   UNL A   1      32.643  32.811  27.232  1.00  0.00     0.116 C 
BRANCH   2   3
ATOM      3  N   UNL A   1      32.369  34.173  27.662  1.00  0.00    -0.352 N 
ATOM      4  O   UNL A   1      32.571  35.997  28.988  1.00  0.00    -0.269 OA
ATOM      5  C   UNL A   1      32.996  34.897  28.649  1.00  0.00     0.251 C 
ATOM      6  H   UNL A   1      31.642  34.635  27.186  1.00  0.00     0.163 HD
BRANCH   5   7
ATOM      7  C   UNL A   1      34.177  34.319  29.324  1.00  0.00     0.039 A 
ATOM      8  C   UNL A   1      35.463  34.642  28.887  1.00  0.00     0.014 A 
ATOM      9  C   UNL A   1      33.998  33.424  30.383  1.00  0.00     0.014 A 
ATOM     10  C   UNL A   1      36.555  33.957  29.401  1.00  0.00     0.010 A 
ATOM     11  C   UNL A   1      35.111  32.808  30.968  1.00  0.00     0.010 A 
ATOM     12  C   UNL A   1      36.397  33.047  30.462  1.00  0.00    -0.014 A 
BRANCH  12  13
ATOM     13  C   UNL A   1      37.612  32.439  31.058  1.00  0.00     0.031 A 
ATOM     14  C   UNL A   1      38.082  32.801  32.438  1.00  0.00     0.074 A 
ATOM     15  C   UNL A   1      38.255  31.489  30.350  1.00  0.00     0.049 A 
ATOM     16  N   UNL A   1      39.076  32.295  33.127  1.00  0.00    -0.248 NA
ATOM     17  C   UNL A   1      37.355  33.871  33.138  1.00  0.00     0.031 C 
ATOM     18  C   UNL A   1      37.903  31.079  28.987  1.00  0.00     0.029 A 
ATOM     19  N   UNL A   1      39.307  30.675  30.680  1.00  0.00    -0.354 N 
ATOM     20  C   UNL A   1      39.100  32.987  34.330  1.00  0.00     0.074 A 
ATOM     21  C   UNL A   1      38.039  33.970  34.271  1.00  0.00     0.031 C 
ATOM     22  C   UNL A   1      38.679  30.050  28.624  1.00  0.00     0.029 A 
ATOM     23  C   UNL A   1      39.624  29.769  29.698  1.00  0.00     0.049 A 
ATOM     24  H   UNL A   1      39.787  30.734  31.537  1.00  0.00     0.167 HD
ATOM     25  C   UNL A   1      39.926  32.806  35.390  1.00  0.00     0.037 A 
ATOM     26  C   UNL A   1      40.576  28.820  29.660  1.00  0.00     0.037 A 
ATOM     27  C   UNL A   1      40.978  31.821  35.444  1.00  0.00     0.049 A 
ATOM     28  C   UNL A   1      41.467  28.641  30.852  1.00  0.00     0.074 A 
ATOM     29  C   UNL A   1      41.863  31.557  36.475  1.00  0.00     0.029 A 
ATOM     30  N   UNL A   1      41.283  30.934  34.422  1.00  0.00    -0.354 N 
ATOM     31  N   UNL A   1      41.462  29.287  31.992  1.00  0.00    -0.248 NA
ATOM     32  C   UNL A   1      42.499  27.600  30.753  1.00  0.00     0.031 C 
ATOM     33  C   UNL A   1      42.727  30.536  36.063  1.00  0.00     0.029 A 
ATOM     34  C   UNL A   1      42.350  30.130  34.794  1.00  0.00     0.049 A 
ATOM     35  H   UNL A   1      40.811  30.882  33.559  1.00  0.00     0.167 HD
ATOM     36  C   UNL A   1      42.486  28.736  32.746  1.00  0.00     0.074 A 
ATOM     37  C   UNL A   1      43.064  27.671  31.950  1.00  0.00     0.031 C 
ATOM     38  C   UNL A   1      42.920  29.086  33.981  1.00  0.00     0.037 A 
BRANCH  25  39
ATOM     39  C   UNL A   1      39.736  33.696  36.585  1.00  0.00     0.064 A 
ATOM     40  C   UNL A   1      40.342  34.958  36.662  1.00  0.00     0.173 A 
ATOM     41  C   UNL A   1      38.884  33.314  37.633  1.00  0.00     0.173 A 
ATOM     42  F   UNL A   1      41.174  35.369  35.692  1.00  0.00    -0.203 F 
ATOM     43  C   UNL A   1      40.114  35.799  37.750  1.00  0.00     0.198 A 
ATOM     44  C   UNL A   1      38.639  34.167  38.707  1.00  0.00     0.198 A 
ATOM     45  F   UNL A   1      38.274  32.120  37.606  1.00  0.00    -0.203 F 
ATOM     46  F   UNL A   1      40.729  36.989  37.816  1.00  0.00    -0.200 F 
ATOM     47  C   UNL A   1      39.256  35.407  38.765  1.00  0.00     0.200 A 
ATOM     48  F   UNL A   1      37.800  33.791  39.681  1.00  0.00    -0.200 F 
ATOM     49  F   UNL A   1      39.027  36.223  39.805  1.00  0.00    -0.200 F 
ENDBRANCH  25  39
BRANCH  26  50
ATOM     50  C   UNL A   1      40.730  27.980  28.444  1.00  0.00     0.064 A 
ATOM     51  C   UNL A   1      41.524  28.398  27.368  1.00  0.00     0.173 A 
ATOM     52  C   UNL A   1      40.093  26.733  28.342  1.00  0.00     0.173 A 
ATOM     53  F   UNL A   1      42.139  29.588  27.413  1.00  0.00    -0.203 F 
ATOM     54  C   UNL A   1      41.659  27.609  26.227  1.00  0.00     0.198 A 
ATOM     55  C   UNL A   1      40.257  25.932  27.216  1.00  0.00     0.198 A 
ATOM     56  F   UNL A   1      39.329  26.285  29.349  1.00  0.00    -0.203 F 
ATOM     57  F   UNL A   1      42.388  28.051  25.194  1.00  0.00    -0.200 F 
ATOM     58  C   UNL A   1      41.032  26.373  26.156  1.00  0.00     0.200 A 
ATOM     59  F   UNL A   1      39.665  24.731  27.160  1.00  0.00    -0.200 F 
ATOM     60  F   UNL A   1      41.171  25.612  25.062  1.00  0.00    -0.200 F 
ENDBRANCH  26  50
BRANCH  38  61
ATOM     61  C   UNL A   1      44.073  28.303  34.536  1.00  0.00     0.064 A 
ATOM     62  C   UNL A   1      45.399  28.715  34.335  1.00  0.00     0.173 A 
ATOM     63  C   UNL A   1      43.850  27.130  35.271  1.00  0.00     0.173 A 
ATOM     64  F   UNL A   1      45.662  29.821  33.623  1.00  0.00    -0.203 F 
ATOM     65  C   UNL A   1      46.463  27.960  34.820  1.00  0.00     0.198 A 
ATOM     66  C   UNL A   1      44.916  26.393  35.779  1.00  0.00     0.198 A 
ATOM     67  F   UNL A   1      42.601  26.698  35.494  1.00  0.00    -0.203 F 
ATOM     68  F   UNL A   1      47.722  28.339  34.564  1.00  0.00    -0.200 F 
ATOM     69  C   UNL A   1      46.221  26.802  35.544  1.00  0.00     0.200 A 
ATOM     70  F   UNL A   1      44.682  25.280  36.486  1.00  0.00    -0.200 F 
ATOM     71  F   UNL A   1      47.246  26.072  36.004  1.00  0.00    -0.200 F 
ENDBRANCH  38  61
ENDBRANCH  12  13
ENDBRANCH   5   7
ENDBRANCH   2   3
ENDBRANCH   1   2
BRANCH   1  72
ATOM     72  C   UNL A   1      31.678  30.711  26.114  1.00  0.00     0.002 C 
BRANCH  72  73
ATOM     73  C   UNL A   1      32.379  29.699  27.026  1.00  0.00     0.002 C 
BRANCH  73  74
ATOM     74  C   UNL A   1      31.560  28.445  27.372  1.00  0.00     0.021 C 
BRANCH  74  75
ATOM     75  C   UNL A   1      31.587  27.351  26.303  1.00  0.00     0.116 C 
BRANCH  75  76
ATOM     76  N   UNL A   1      31.098  26.103  26.848  1.00  0.00    -0.351 N 
ATOM     77  C   UNL A   1      31.524  24.826  26.700  1.00  0.00     0.281 C 
ATOM     78  H   UNL A   1      30.312  26.200  27.433  1.00  0.00     0.163 HD
ATOM     79  O   UNL A   1      30.782  23.947  27.161  1.00  0.00    -0.268 OA
BRANCH  77  80
ATOM     80  C   UNL A   1      32.861  24.457  26.009  1.00  0.00     0.176 C 
ATOM     81  C   UNL A   1      33.589  23.280  26.683  1.00  0.00     0.079 C 
ATOM     82  N   UNL A   1      32.540  23.990  24.613  1.00  0.00    -0.333 N 
ATOM     83  C   UNL A   1      33.839  25.613  25.787  1.00  0.00     0.088 C 
ATOM     84  C   UNL A   1      35.081  23.215  26.317  1.00  0.00     0.008 C 
ATOM     85  C   UNL A   1      33.428  24.698  23.694  1.00  0.00     0.265 C 
ATOM     86  H   UNL A   1      31.567  24.203  24.390  1.00  0.00     0.347 HD
ATOM     87  H   UNL A   1      32.672  22.981  24.533  1.00  0.00     0.347 HD
ATOM     88  C   UNL A   1      34.604  25.082  24.581  1.00  0.00     0.051 C 
ATOM     89  C   UNL A   1      35.438  23.829  24.953  1.00  0.00     0.010 C 
ENDBRANCH  77  80
ENDBRANCH  75  76
ENDBRANCH  74  75
ENDBRANCH  73  74
ENDBRANCH  72  73
ENDBRANCH   1  72
TORSDOF 13
ENDMDL
