MODEL 1
REMARK VINA RESULT:     -13.3      0.000      0.000
REMARK SMILES CS(=O)(=O)Nc1ccc(-c2cc(Cl)cc3c2O[C@H](C(F)(F)F)C(C(=O)NCCCCCCNC(=O)c2ccc(-c4c5nc(c(-c6c(F)c(F)c(F)c(F)c6F)c6ccc([nH]6)c(-c6c(F)c(F)c(F)c(F)c6F)c6nc(c(-c7c(F)c(F)c(F)c(F)c7F)c7ccc4[nH]7)C=C6)C=C5)cc2)=C3)cc1
REMARK SMILES IDX 29 1 28 2 27 3 26 4 24 5 25 6 23 8 10 9 11 10 16 11 12 12
REMARK SMILES IDX 15 13 17 14 13 15 14 16 99 17 18 18 9 19 6 20 7 21 101 22
REMARK SMILES IDX 8 23 100 24 5 25 2 27 1 28 3 29 4 30 19 31 20 32 21 33 22 34
REMARK SMILES IDX 30 35 31 36 32 37 33 38 34 39 35 41 36 42 37 43 98 44 38 45
REMARK SMILES IDX 97 46 39 47 40 48 41 49 91 50 42 51 96 52 90 53 92 54 43 55
REMARK SMILES IDX 95 56 89 57 88 58 44 60 76 61 56 62 75 63 57 64 60 65 74 66
REMARK SMILES IDX 93 67 58 68 59 69 73 71 94 72 61 73 45 74 46 75 54 76 47 77
REMARK SMILES IDX 48 78 52 79 55 80 49 81 50 82 53 83 51 84 77 85 78 86 86 87
REMARK SMILES IDX 79 88 80 89 84 90 87 91 81 92 82 93 85 94 83 95 62 96 63 97
REMARK SMILES IDX 71 98 64 99 65 100 69 101 72 102 66 103 67 104 70 105 68 106
REMARK H PARENT 26 7 5 26 33 40 92 59 60 70
REMARK Flexibility Score: inf
ROOT
ATOM      1  C   UNL A   1      30.845  29.678  24.885  1.00  0.00     0.002 C 
ENDROOT
BRANCH   1   2
ATOM      2  C   UNL A   1      29.937  29.918  23.666  1.00  0.00     0.021 C 
BRANCH   2   3
ATOM      3  C   UNL A   1      29.661  28.671  22.812  1.00  0.00     0.116 C 
BRANCH   3   4
ATOM      4  N   UNL A   1      29.406  27.533  23.672  1.00  0.00    -0.352 N 
ATOM      5  C   UNL A   1      30.015  26.326  23.572  1.00  0.00     0.251 C 
ATOM      6  O   UNL A   1      29.345  25.301  23.546  1.00  0.00    -0.270 OA
ATOM      7  H   UNL A   1      28.737  27.646  24.386  1.00  0.00     0.163 HD
BRANCH   5   8
ATOM      8  C   UNL A   1      31.504  26.327  23.671  1.00  0.00     0.067 C 
ATOM      9  C   UNL A   1      32.063  22.421  24.634  1.00  0.00     0.026 A 
ATOM     10  C   UNL A   1      31.106  22.126  25.645  1.00  0.00     0.033 A 
ATOM     11  C   UNL A   1      32.260  23.786  24.355  1.00  0.00     0.135 A 
ATOM     12  C   UNL A   1      30.509  23.102  26.438  1.00  0.00     0.042 A 
ATOM     13  C   UNL A   1      31.742  24.755  25.257  1.00  0.00     0.019 A 
ATOM     14  O   UNL A   1      32.875  24.256  23.200  1.00  0.00    -0.475 OA
ATOM     15  Cl  UNL A   1      29.324  22.658  27.598  1.00  0.00    -0.084 Cl
ATOM     16  C   UNL A   1      30.885  24.421  26.301  1.00  0.00     0.032 A 
ATOM     17  C   UNL A   1      31.946  26.183  24.934  1.00  0.00     0.025 C 
ATOM     18  C   UNL A   1      32.226  25.482  22.633  1.00  0.00     0.314 C 
BRANCH   9  19
ATOM     19  C   UNL A   1      32.845  21.235  24.174  1.00  0.00    -0.014 A 
ATOM     20  C   UNL A   1      34.057  18.696  24.669  1.00  0.00     0.048 A 
ATOM     21  C   UNL A   1      32.757  18.786  24.165  1.00  0.00     0.027 A 
ATOM     22  C   UNL A   1      34.803  19.869  24.764  1.00  0.00     0.027 A 
ATOM     23  C   UNL A   1      32.173  20.032  23.881  1.00  0.00     0.011 A 
ATOM     24  C   UNL A   1      34.207  21.125  24.509  1.00  0.00     0.011 A 
BRANCH  20  25
ATOM     25  N   UNL A   1      34.408  17.456  25.285  1.00  0.00    -0.284 N 
ATOM     26  H   UNL A   1      34.811  17.513  26.181  1.00  0.00     0.180 HD
BRANCH  25  27
ATOM     27  S   UNL A   1      34.213  15.927  24.662  1.00  0.00     0.229 S 
ATOM     28  C   UNL A   1      32.642  15.394  25.319  1.00  0.00     0.183 C 
ATOM     29  O   UNL A   1      35.258  15.058  25.156  1.00  0.00    -0.207 OA
ATOM     30  O   UNL A   1      34.024  16.131  23.240  1.00  0.00    -0.207 OA
ENDBRANCH  25  27
ENDBRANCH  20  25
ENDBRANCH   9  19
BRANCH  18  31
ATOM     31  C   UNL A   1      33.235  26.405  21.909  1.00  0.00     0.429 C 
ATOM     32  F   UNL A   1      34.506  26.221  22.326  1.00  0.00    -0.167 F 
ATOM     33  F   UNL A   1      33.204  26.213  20.569  1.00  0.00    -0.167 F 
ATOM     34  F   UNL A   1      32.956  27.725  22.101  1.00  0.00    -0.167 F 
ENDBRANCH  18  31
ENDBRANCH   5   8
ENDBRANCH   3   4
ENDBRANCH   2   3
ENDBRANCH   1   2
BRANCH   1  35
ATOM     35  C   UNL A   1      32.346  29.724  24.589  1.00  0.00     0.002 C 
BRANCH  35  36
ATOM     36  C   UNL A   1      33.233  29.794  25.830  1.00  0.00     0.021 C 
BRANCH  36  37
ATOM     37  C   UNL A   1      32.567  30.421  27.048  1.00  0.00     0.116 C 
BRANCH  37  38
ATOM     38  N   UNL A   1      32.672  31.872  27.055  1.00  0.00    -0.352 N 
ATOM     39  C   UNL A   1      33.634  32.665  27.632  1.00  0.00     0.251 C 
ATOM     40  H   UNL A   1      31.955  32.351  26.582  1.00  0.00     0.163 HD
ATOM     41  O   UNL A   1      33.486  33.881  27.691  1.00  0.00    -0.269 OA
BRANCH  39  42
ATOM     42  C   UNL A   1      34.839  32.036  28.208  1.00  0.00     0.039 A 
ATOM     43  C   UNL A   1      36.041  32.747  28.199  1.00  0.00     0.014 A 
ATOM     44  C   UNL A   1      34.778  30.759  28.771  1.00  0.00     0.014 A 
ATOM     45  C   UNL A   1      37.169  32.199  28.811  1.00  0.00     0.010 A 
ATOM     46  C   UNL A   1      35.879  30.250  29.451  1.00  0.00     0.010 A 
ATOM     47  C   UNL A   1      37.087  30.962  29.472  1.00  0.00    -0.014 A 
BRANCH  47  48
ATOM     48  C   UNL A   1      38.257  30.398  30.192  1.00  0.00     0.031 A 
ATOM     49  C   UNL A   1      38.523  30.784  31.619  1.00  0.00     0.074 A 
ATOM     50  C   UNL A   1      39.113  29.588  29.540  1.00  0.00     0.049 A 
ATOM     51  N   UNL A   1      39.513  30.436  32.402  1.00  0.00    -0.248 NA
ATOM     52  C   UNL A   1      37.563  31.709  32.242  1.00  0.00     0.031 C 
ATOM     53  C   UNL A   1      38.987  29.176  28.141  1.00  0.00     0.029 A 
ATOM     54  N   UNL A   1      40.261  28.970  29.967  1.00  0.00    -0.354 N 
ATOM     55  C   UNL A   1      39.304  31.110  33.598  1.00  0.00     0.074 A 
ATOM     56  C   UNL A   1      38.128  31.933  33.419  1.00  0.00     0.031 C 
ATOM     57  C   UNL A   1      39.994  28.344  27.836  1.00  0.00     0.029 A 
ATOM     58  C   UNL A   1      40.862  28.199  29.002  1.00  0.00     0.049 A 
ATOM     59  H   UNL A   1      40.620  29.068  30.878  1.00  0.00     0.167 HD
ATOM     60  C   UNL A   1      40.017  31.034  34.748  1.00  0.00     0.037 A 
ATOM     61  C   UNL A   1      41.987  27.462  29.051  1.00  0.00     0.037 A 
ATOM     62  C   UNL A   1      41.176  30.196  34.923  1.00  0.00     0.049 A 
ATOM     63  C   UNL A   1      42.774  27.410  30.333  1.00  0.00     0.074 A 
ATOM     64  C   UNL A   1      41.924  29.989  36.068  1.00  0.00     0.029 A 
ATOM     65  N   UNL A   1      41.761  29.436  33.920  1.00  0.00    -0.354 N 
ATOM     66  N   UNL A   1      42.523  27.987  31.483  1.00  0.00    -0.248 NA
ATOM     67  C   UNL A   1      44.001  26.602  30.322  1.00  0.00     0.031 C 
ATOM     68  C   UNL A   1      43.001  29.158  35.741  1.00  0.00     0.029 A 
ATOM     69  C   UNL A   1      42.885  28.789  34.410  1.00  0.00     0.049 A 
ATOM     70  H   UNL A   1      41.427  29.366  32.996  1.00  0.00     0.167 HD
ATOM     71  C   UNL A   1      43.539  27.586  32.341  1.00  0.00     0.074 A 
ATOM     72  C   UNL A   1      44.403  26.707  31.581  1.00  0.00     0.031 C 
ATOM     73  C   UNL A   1      43.735  27.913  33.642  1.00  0.00     0.037 A 
BRANCH  60  74
ATOM     74  C   UNL A   1      39.572  31.892  35.898  1.00  0.00     0.064 A 
ATOM     75  C   UNL A   1      38.525  31.509  36.751  1.00  0.00     0.173 A 
ATOM     76  C   UNL A   1      40.214  33.113  36.161  1.00  0.00     0.173 A 
ATOM     77  F   UNL A   1      37.870  30.357  36.540  1.00  0.00    -0.203 F 
ATOM     78  C   UNL A   1      38.108  32.334  37.793  1.00  0.00     0.198 A 
ATOM     79  C   UNL A   1      39.820  33.917  37.227  1.00  0.00     0.198 A 
ATOM     80  F   UNL A   1      41.226  33.527  35.384  1.00  0.00    -0.203 F 
ATOM     81  F   UNL A   1      37.062  31.977  38.551  1.00  0.00    -0.200 F 
ATOM     82  C   UNL A   1      38.760  33.534  38.034  1.00  0.00     0.200 A 
ATOM     83  F   UNL A   1      40.461  35.068  37.468  1.00  0.00    -0.200 F 
ATOM     84  F   UNL A   1      38.360  34.325  39.038  1.00  0.00    -0.200 F 
ENDBRANCH  60  74
BRANCH  61  85
ATOM     85  C   UNL A   1      42.414  26.680  27.861  1.00  0.00     0.064 A 
ATOM     86  C   UNL A   1      43.310  27.227  26.931  1.00  0.00     0.173 A 
ATOM     87  C   UNL A   1      41.947  25.378  27.629  1.00  0.00     0.173 A 
ATOM     88  F   UNL A   1      43.769  28.475  27.098  1.00  0.00    -0.203 F 
ATOM     89  C   UNL A   1      43.710  26.507  25.807  1.00  0.00     0.198 A 
ATOM     90  C   UNL A   1      42.370  24.649  26.520  1.00  0.00     0.198 A 
ATOM     91  F   UNL A   1      41.092  24.808  28.490  1.00  0.00    -0.203 F 
ATOM     92  F   UNL A   1      44.535  27.069  24.913  1.00  0.00    -0.200 F 
ATOM     93  C   UNL A   1      43.245  25.216  25.606  1.00  0.00     0.200 A 
ATOM     94  F   UNL A   1      41.932  23.396  26.339  1.00  0.00    -0.200 F 
ATOM     95  F   UNL A   1      43.636  24.521  24.529  1.00  0.00    -0.200 F 
ENDBRANCH  61  85
BRANCH  73  96
ATOM     96  C   UNL A   1      44.910  27.289  34.342  1.00  0.00     0.064 A 
ATOM     97  C   UNL A   1      44.819  26.041  34.972  1.00  0.00     0.173 A 
ATOM     98  C   UNL A   1      46.156  27.937  34.347  1.00  0.00     0.173 A 
ATOM     99  F   UNL A   1      43.648  25.386  35.010  1.00  0.00    -0.203 F 
ATOM    100  C   UNL A   1      45.922  25.476  35.607  1.00  0.00     0.198 A 
ATOM    101  C   UNL A   1      47.266  27.354  34.951  1.00  0.00     0.198 A 
ATOM    102  F   UNL A   1      46.301  29.131  33.753  1.00  0.00    -0.203 F 
ATOM    103  F   UNL A   1      45.798  24.307  36.250  1.00  0.00    -0.200 F 
ATOM    104  C   UNL A   1      47.147  26.129  35.588  1.00  0.00     0.200 A 
ATOM    105  F   UNL A   1      48.451  27.978  34.916  1.00  0.00    -0.200 F 
ATOM    106  F   UNL A   1      48.210  25.580  36.191  1.00  0.00    -0.200 F 
ENDBRANCH  73  96
ENDBRANCH  47  48
ENDBRANCH  39  42
ENDBRANCH  37  38
ENDBRANCH  36  37
ENDBRANCH  35  36
ENDBRANCH   1  35
TORSDOF 17
ENDMDL
MODEL 2
REMARK VINA RESULT:     -13.2      2.453      3.031
REMARK SMILES CS(=O)(=O)Nc1ccc(-c2cc(Cl)cc3c2O[C@H](C(F)(F)F)C(C(=O)NCCCCCCNC(=O)c2ccc(-c4c5nc(c(-c6c(F)c(F)c(F)c(F)c6F)c6ccc([nH]6)c(-c6c(F)c(F)c(F)c(F)c6F)c6nc(c(-c7c(F)c(F)c(F)c(F)c7F)c7ccc4[nH]7)C=C6)C=C5)cc2)=C3)cc1
REMARK SMILES IDX 29 1 28 2 27 3 26 4 24 5 25 6 23 8 10 9 11 10 16 11 12 12
REMARK SMILES IDX 15 13 17 14 13 15 14 16 99 17 18 18 9 19 6 20 7 21 101 22
REMARK SMILES IDX 8 23 100 24 5 25 2 27 1 28 3 29 4 30 19 31 20 32 21 33 22 34
REMARK SMILES IDX 30 35 31 36 32 37 33 38 34 39 35 41 36 42 37 43 98 44 38 45
REMARK SMILES IDX 97 46 39 47 40 48 41 49 91 50 42 51 96 52 90 53 92 54 43 55
REMARK SMILES IDX 95 56 89 57 88 58 44 60 76 61 56 62 75 63 57 64 60 65 74 66
REMARK SMILES IDX 93 67 58 68 59 69 73 71 94 72 61 73 45 74 46 75 54 76 47 77
REMARK SMILES IDX 48 78 52 79 55 80 49 81 50 82 53 83 51 84 77 85 78 86 86 87
REMARK SMILES IDX 79 88 80 89 84 90 87 91 81 92 82 93 85 94 83 95 62 96 63 97
REMARK SMILES IDX 71 98 64 99 65 100 69 101 72 102 66 103 67 104 70 105 68 106
REMARK H PARENT 26 7 5 26 33 40 92 59 60 70
REMARK Flexibility Score: inf
ROOT
ATOM      1  C   UNL A   1      30.835  29.913  24.908  1.00  0.00     0.002 C 
ENDROOT
BRANCH   1   2
ATOM      2  C   UNL A   1      30.448  29.494  23.479  1.00  0.00     0.021 C 
BRANCH   2   3
ATOM      3  C   UNL A   1      31.636  29.197  22.550  1.00  0.00     0.116 C 
BRANCH   3   4
ATOM      4  N   UNL A   1      31.696  27.777  22.268  1.00  0.00    -0.352 N 
ATOM      5  C   UNL A   1      32.549  26.901  22.853  1.00  0.00     0.251 C 
ATOM      6  O   UNL A   1      33.217  26.140  22.162  1.00  0.00    -0.270 OA
ATOM      7  H   UNL A   1      31.068  27.422  21.598  1.00  0.00     0.163 HD
BRANCH   5   8
ATOM      8  C   UNL A   1      32.487  26.811  24.341  1.00  0.00     0.067 C 
ATOM      9  C   UNL A   1      34.386  23.253  24.826  1.00  0.00     0.026 A 
ATOM     10  C   UNL A   1      33.823  22.373  23.858  1.00  0.00     0.033 A 
ATOM     11  C   UNL A   1      33.683  24.451  25.048  1.00  0.00     0.135 A 
ATOM     12  C   UNL A   1      32.576  22.579  23.275  1.00  0.00     0.042 A 
ATOM     13  C   UNL A   1      32.360  24.577  24.543  1.00  0.00     0.019 A 
ATOM     14  O   UNL A   1      34.233  25.563  25.678  1.00  0.00    -0.475 OA
ATOM     15  Cl  UNL A   1      32.001  21.493  22.076  1.00  0.00    -0.084 Cl
ATOM     16  C   UNL A   1      31.800  23.645  23.675  1.00  0.00     0.032 A 
ATOM     17  C   UNL A   1      31.647  25.851  24.774  1.00  0.00     0.025 C 
ATOM     18  C   UNL A   1      33.829  26.864  25.053  1.00  0.00     0.314 C 
BRANCH   9  19
ATOM     19  C   UNL A   1      35.527  22.666  25.589  1.00  0.00    -0.014 A 
ATOM     20  C   UNL A   1      38.257  21.843  25.762  1.00  0.00     0.048 A 
ATOM     21  C   UNL A   1      37.865  23.122  26.167  1.00  0.00     0.027 A 
ATOM     22  C   UNL A   1      37.260  20.927  25.433  1.00  0.00     0.027 A 
ATOM     23  C   UNL A   1      36.517  23.515  26.122  1.00  0.00     0.011 A 
ATOM     24  C   UNL A   1      35.907  21.331  25.356  1.00  0.00     0.011 A 
BRANCH  20  25
ATOM     25  N   UNL A   1      39.645  21.674  25.472  1.00  0.00    -0.284 N 
ATOM     26  H   UNL A   1      39.986  22.147  24.678  1.00  0.00     0.180 HD
BRANCH  25  27
ATOM     27  S   UNL A   1      40.753  20.771  26.322  1.00  0.00     0.229 S 
ATOM     28  C   UNL A   1      42.320  21.524  25.917  1.00  0.00     0.183 C 
ATOM     29  O   UNL A   1      40.742  19.405  25.846  1.00  0.00    -0.207 OA
ATOM     30  O   UNL A   1      40.489  21.078  27.713  1.00  0.00    -0.207 OA
ENDBRANCH  25  27
ENDBRANCH  20  25
ENDBRANCH   9  19
BRANCH  18  31
ATOM     31  C   UNL A   1      33.758  28.017  26.082  1.00  0.00     0.429 C 
ATOM     32  F   UNL A   1      34.816  28.036  26.923  1.00  0.00    -0.167 F 
ATOM     33  F   UNL A   1      33.693  29.222  25.467  1.00  0.00    -0.167 F 
ATOM     34  F   UNL A   1      32.647  27.941  26.867  1.00  0.00    -0.167 F 
ENDBRANCH  18  31
ENDBRANCH   5   8
ENDBRANCH   3   4
ENDBRANCH   2   3
ENDBRANCH   1   2
BRANCH   1  35
ATOM     35  C   UNL A   1      30.641  31.399  25.218  1.00  0.00     0.002 C 
BRANCH  35  36
ATOM     36  C   UNL A   1      31.001  31.799  26.648  1.00  0.00     0.021 C 
BRANCH  36  37
ATOM     37  C   UNL A   1      32.377  32.433  26.799  1.00  0.00     0.116 C 
BRANCH  37  38
ATOM     38  N   UNL A   1      32.313  33.789  27.320  1.00  0.00    -0.352 N 
ATOM     39  C   UNL A   1      33.098  34.383  28.277  1.00  0.00     0.251 C 
ATOM     40  H   UNL A   1      31.610  34.359  26.935  1.00  0.00     0.163 HD
ATOM     41  O   UNL A   1      32.806  35.486  28.727  1.00  0.00    -0.269 OA
BRANCH  39  42
ATOM     42  C   UNL A   1      34.288  33.669  28.783  1.00  0.00     0.039 A 
ATOM     43  C   UNL A   1      35.547  34.246  28.609  1.00  0.00     0.014 A 
ATOM     44  C   UNL A   1      34.157  32.443  29.441  1.00  0.00     0.014 A 
ATOM     45  C   UNL A   1      36.671  33.623  29.152  1.00  0.00     0.010 A 
ATOM     46  C   UNL A   1      35.265  31.865  30.052  1.00  0.00     0.010 A 
ATOM     47  C   UNL A   1      36.534  32.446  29.907  1.00  0.00    -0.014 A 
BRANCH  47  48
ATOM     48  C   UNL A   1      37.708  31.808  30.554  1.00  0.00     0.031 A 
ATOM     49  C   UNL A   1      38.127  32.225  31.936  1.00  0.00     0.074 A 
ATOM     50  C   UNL A   1      38.433  30.901  29.874  1.00  0.00     0.049 A 
ATOM     51  N   UNL A   1      39.147  31.821  32.650  1.00  0.00    -0.248 NA
ATOM     52  C   UNL A   1      37.308  33.256  32.591  1.00  0.00     0.031 C 
ATOM     53  C   UNL A   1      38.153  30.446  28.510  1.00  0.00     0.029 A 
ATOM     54  N   UNL A   1      39.556  30.200  30.233  1.00  0.00    -0.354 N 
ATOM     55  C   UNL A   1      39.101  32.558  33.827  1.00  0.00     0.074 A 
ATOM     56  C   UNL A   1      37.989  33.475  33.706  1.00  0.00     0.031 C 
ATOM     57  C   UNL A   1      39.055  29.516  28.163  1.00  0.00     0.029 A 
ATOM     58  C   UNL A   1      40.004  29.341  29.259  1.00  0.00     0.049 A 
ATOM     59  H   UNL A   1      39.999  30.301  31.107  1.00  0.00     0.167 HD
ATOM     60  C   UNL A   1      39.901  32.464  34.916  1.00  0.00     0.037 A 
ATOM     61  C   UNL A   1      41.062  28.509  29.251  1.00  0.00     0.037 A 
ATOM     62  C   UNL A   1      40.994  31.534  35.034  1.00  0.00     0.049 A 
ATOM     63  C   UNL A   1      41.949  28.438  30.465  1.00  0.00     0.074 A 
ATOM     64  C   UNL A   1      41.817  31.306  36.123  1.00  0.00     0.029 A 
ATOM     65  N   UNL A   1      41.423  30.685  34.024  1.00  0.00    -0.354 N 
ATOM     66  N   UNL A   1      41.848  29.080  31.603  1.00  0.00    -0.248 NA
ATOM     67  C   UNL A   1      43.096  27.524  30.391  1.00  0.00     0.031 C 
ATOM     68  C   UNL A   1      42.787  30.370  35.749  1.00  0.00     0.029 A 
ATOM     69  C   UNL A   1      42.526  29.961  34.450  1.00  0.00     0.049 A 
ATOM     70  H   UNL A   1      41.007  30.609  33.135  1.00  0.00     0.167 HD
ATOM     71  C   UNL A   1      42.895  28.623  32.393  1.00  0.00     0.074 A 
ATOM     72  C   UNL A   1      43.612  27.641  31.606  1.00  0.00     0.031 C 
ATOM     73  C   UNL A   1      43.230  28.983  33.657  1.00  0.00     0.037 A 
BRANCH  60  74
ATOM     74  C   UNL A   1      39.631  33.403  36.058  1.00  0.00     0.064 A 
ATOM     75  C   UNL A   1      38.750  33.074  37.100  1.00  0.00     0.173 A 
ATOM     76  C   UNL A   1      40.276  34.648  36.118  1.00  0.00     0.173 A 
ATOM     77  F   UNL A   1      38.099  31.900  37.088  1.00  0.00    -0.203 F 
ATOM     78  C   UNL A   1      38.491  33.971  38.133  1.00  0.00     0.198 A 
ATOM     79  C   UNL A   1      40.044  35.528  37.172  1.00  0.00     0.198 A 
ATOM     80  F   UNL A   1      41.134  35.014  35.154  1.00  0.00    -0.203 F 
ATOM     81  F   UNL A   1      37.594  33.661  39.080  1.00  0.00    -0.200 F 
ATOM     82  C   UNL A   1      39.143  35.195  38.172  1.00  0.00     0.200 A 
ATOM     83  F   UNL A   1      40.687  36.703  37.216  1.00  0.00    -0.200 F 
ATOM     84  F   UNL A   1      38.894  36.057  39.167  1.00  0.00    -0.200 F 
ENDBRANCH  60  74
BRANCH  61  85
ATOM     85  C   UNL A   1      41.317  27.646  28.067  1.00  0.00     0.064 A 
ATOM     86  C   UNL A   1      42.060  28.126  26.979  1.00  0.00     0.173 A 
ATOM     87  C   UNL A   1      40.834  26.331  27.997  1.00  0.00     0.173 A 
ATOM     88  F   UNL A   1      42.526  29.384  26.990  1.00  0.00    -0.203 F 
ATOM     89  C   UNL A   1      42.297  27.330  25.861  1.00  0.00     0.198 A 
ATOM     90  C   UNL A   1      41.097  25.526  26.891  1.00  0.00     0.198 A 
ATOM     91  F   UNL A   1      40.122  25.822  29.013  1.00  0.00    -0.203 F 
ATOM     92  F   UNL A   1      42.975  27.829  24.818  1.00  0.00    -0.200 F 
ATOM     93  C   UNL A   1      41.822  26.028  25.821  1.00  0.00     0.200 A 
ATOM     94  F   UNL A   1      40.650  24.263  26.864  1.00  0.00    -0.200 F 
ATOM     95  F   UNL A   1      42.057  25.259  24.749  1.00  0.00    -0.200 F 
ENDBRANCH  61  85
BRANCH  73  96
ATOM     96  C   UNL A   1      44.402  28.285  34.286  1.00  0.00     0.064 A 
ATOM     97  C   UNL A   1      44.259  27.075  34.980  1.00  0.00     0.173 A 
ATOM     98  C   UNL A   1      45.695  28.818  34.159  1.00  0.00     0.173 A 
ATOM     99  F   UNL A   1      43.044  26.530  35.144  1.00  0.00    -0.203 F 
ATOM    100  C   UNL A   1      45.360  26.439  35.548  1.00  0.00     0.198 A 
ATOM    101  C   UNL A   1      46.799  28.163  34.697  1.00  0.00     0.198 A 
ATOM    102  F   UNL A   1      45.890  29.970  33.500  1.00  0.00    -0.203 F 
ATOM    103  F   UNL A   1      45.192  25.312  36.253  1.00  0.00    -0.200 F 
ATOM    104  C   UNL A   1      46.630  26.979  35.398  1.00  0.00     0.200 A 
ATOM    105  F   UNL A   1      48.026  28.677  34.535  1.00  0.00    -0.200 F 
ATOM    106  F   UNL A   1      47.690  26.361  35.936  1.00  0.00    -0.200 F 
ENDBRANCH  73  96
ENDBRANCH  47  48
ENDBRANCH  39  42
ENDBRANCH  37  38
ENDBRANCH  36  37
ENDBRANCH  35  36
ENDBRANCH   1  35
TORSDOF 17
ENDMDL
MODEL 3
REMARK VINA RESULT:     -13.1      2.535      7.512
REMARK SMILES CS(=O)(=O)Nc1ccc(-c2cc(Cl)cc3c2O[C@H](C(F)(F)F)C(C(=O)NCCCCCCNC(=O)c2ccc(-c4c5nc(c(-c6c(F)c(F)c(F)c(F)c6F)c6ccc([nH]6)c(-c6c(F)c(F)c(F)c(F)c6F)c6nc(c(-c7c(F)c(F)c(F)c(F)c7F)c7ccc4[nH]7)C=C6)C=C5)cc2)=C3)cc1
REMARK SMILES IDX 29 1 28 2 27 3 26 4 24 5 25 6 23 8 10 9 11 10 16 11 12 12
REMARK SMILES IDX 15 13 17 14 13 15 14 16 99 17 18 18 9 19 6 20 7 21 101 22
REMARK SMILES IDX 8 23 100 24 5 25 2 27 1 28 3 29 4 30 19 31 20 32 21 33 22 34
REMARK SMILES IDX 30 35 31 36 32 37 33 38 34 39 35 41 36 42 37 43 98 44 38 45
REMARK SMILES IDX 97 46 39 47 40 48 41 49 91 50 42 51 96 52 90 53 92 54 43 55
REMARK SMILES IDX 95 56 89 57 88 58 44 60 76 61 56 62 75 63 57 64 60 65 74 66
REMARK SMILES IDX 93 67 58 68 59 69 73 71 94 72 61 73 45 74 46 75 54 76 47 77
REMARK SMILES IDX 48 78 52 79 55 80 49 81 50 82 53 83 51 84 77 85 78 86 86 87
REMARK SMILES IDX 79 88 80 89 84 90 87 91 81 92 82 93 85 94 83 95 62 96 63 97
REMARK SMILES IDX 71 98 64 99 65 100 69 101 72 102 66 103 67 104 70 105 68 106
REMARK H PARENT 26 7 5 26 33 40 92 59 60 70
REMARK Flexibility Score: inf
ROOT
ATOM      1  C   UNL A   1      30.049  29.960  24.255  1.00  0.00     0.002 C 
ENDROOT
BRANCH   1   2
ATOM      2  C   UNL A   1      30.283  29.561  22.788  1.00  0.00     0.021 C 
BRANCH   2   3
ATOM      3  C   UNL A   1      31.719  29.121  22.462  1.00  0.00     0.116 C 
BRANCH   3   4
ATOM      4  N   UNL A   1      31.746  27.700  22.180  1.00  0.00    -0.352 N 
ATOM      5  C   UNL A   1      32.574  26.803  22.769  1.00  0.00     0.251 C 
ATOM      6  O   UNL A   1      33.226  26.026  22.082  1.00  0.00    -0.270 OA
ATOM      7  H   UNL A   1      31.112  27.360  21.508  1.00  0.00     0.163 HD
BRANCH   5   8
ATOM      8  C   UNL A   1      32.503  26.715  24.257  1.00  0.00     0.067 C 
ATOM      9  C   UNL A   1      34.391  23.154  24.758  1.00  0.00     0.026 A 
ATOM     10  C   UNL A   1      33.833  22.274  23.787  1.00  0.00     0.033 A 
ATOM     11  C   UNL A   1      33.689  24.354  24.974  1.00  0.00     0.135 A 
ATOM     12  C   UNL A   1      32.589  22.482  23.197  1.00  0.00     0.042 A 
ATOM     13  C   UNL A   1      32.370  24.482  24.461  1.00  0.00     0.019 A 
ATOM     14  O   UNL A   1      34.238  25.465  25.606  1.00  0.00    -0.475 OA
ATOM     15  Cl  UNL A   1      32.019  21.395  21.995  1.00  0.00    -0.084 Cl
ATOM     16  C   UNL A   1      31.813  23.550  23.590  1.00  0.00     0.032 A 
ATOM     17  C   UNL A   1      31.658  25.758  24.686  1.00  0.00     0.025 C 
ATOM     18  C   UNL A   1      33.841  26.766  24.977  1.00  0.00     0.314 C 
BRANCH   9  19
ATOM     19  C   UNL A   1      35.527  22.565  25.528  1.00  0.00    -0.014 A 
ATOM     20  C   UNL A   1      38.268  21.790  25.738  1.00  0.00     0.048 A 
ATOM     21  C   UNL A   1      37.842  23.048  26.173  1.00  0.00     0.027 A 
ATOM     22  C   UNL A   1      37.297  20.866  25.358  1.00  0.00     0.027 A 
ATOM     23  C   UNL A   1      36.487  23.416  26.109  1.00  0.00     0.011 A 
ATOM     24  C   UNL A   1      35.938  21.245  25.263  1.00  0.00     0.011 A 
BRANCH  20  25
ATOM     25  N   UNL A   1      39.665  21.657  25.475  1.00  0.00    -0.284 N 
ATOM     26  H   UNL A   1      40.010  22.142  24.690  1.00  0.00     0.180 HD
BRANCH  25  27
ATOM     27  S   UNL A   1      40.778  20.776  26.341  1.00  0.00     0.229 S 
ATOM     28  C   UNL A   1      42.336  21.553  25.953  1.00  0.00     0.183 C 
ATOM     29  O   UNL A   1      40.795  19.408  25.871  1.00  0.00    -0.207 OA
ATOM     30  O   UNL A   1      40.492  21.084  27.728  1.00  0.00    -0.207 OA
ENDBRANCH  25  27
ENDBRANCH  20  25
ENDBRANCH   9  19
BRANCH  18  31
ATOM     31  C   UNL A   1      33.767  27.921  26.004  1.00  0.00     0.429 C 
ATOM     32  F   UNL A   1      32.555  28.022  26.593  1.00  0.00    -0.167 F 
ATOM     33  F   UNL A   1      34.694  27.772  26.980  1.00  0.00    -0.167 F 
ATOM     34  F   UNL A   1      34.019  29.133  25.437  1.00  0.00    -0.167 F 
ENDBRANCH  18  31
ENDBRANCH   5   8
ENDBRANCH   3   4
ENDBRANCH   2   3
ENDBRANCH   1   2
BRANCH   1  35
ATOM     35  C   UNL A   1      31.287  30.485  24.986  1.00  0.00     0.002 C 
BRANCH  35  36
ATOM     36  C   UNL A   1      30.995  31.554  26.037  1.00  0.00     0.021 C 
BRANCH  36  37
ATOM     37  C   UNL A   1      32.225  32.063  26.778  1.00  0.00     0.116 C 
BRANCH  37  38
ATOM     38  N   UNL A   1      32.109  33.462  27.155  1.00  0.00    -0.352 N 
ATOM     39  C   UNL A   1      32.877  34.185  28.035  1.00  0.00     0.251 C 
ATOM     40  H   UNL A   1      31.380  33.960  26.721  1.00  0.00     0.163 HD
ATOM     41  O   UNL A   1      32.543  35.316  28.371  1.00  0.00    -0.269 OA
BRANCH  39  42
ATOM     42  C   UNL A   1      34.099  33.576  28.598  1.00  0.00     0.039 A 
ATOM     43  C   UNL A   1      35.322  34.224  28.416  1.00  0.00     0.014 A 
ATOM     44  C   UNL A   1      34.033  32.380  29.318  1.00  0.00     0.014 A 
ATOM     45  C   UNL A   1      36.472  33.704  29.010  1.00  0.00     0.010 A 
ATOM     46  C   UNL A   1      35.163  31.907  29.976  1.00  0.00     0.010 A 
ATOM     47  C   UNL A   1      36.395  32.560  29.823  1.00  0.00    -0.014 A 
BRANCH  47  48
ATOM     48  C   UNL A   1      37.594  32.034  30.523  1.00  0.00     0.031 A 
ATOM     49  C   UNL A   1      38.459  30.998  29.862  1.00  0.00     0.074 A 
ATOM     50  C   UNL A   1      37.868  32.444  31.775  1.00  0.00     0.049 A 
ATOM     51  N   UNL A   1      39.518  30.383  30.326  1.00  0.00    -0.248 NA
ATOM     52  C   UNL A   1      38.063  30.572  28.511  1.00  0.00     0.031 C 
ATOM     53  C   UNL A   1      37.079  33.413  32.539  1.00  0.00     0.029 A 
ATOM     54  N   UNL A   1      38.883  32.095  32.630  1.00  0.00    -0.354 N 
ATOM     55  C   UNL A   1      39.902  29.491  29.334  1.00  0.00     0.074 A 
ATOM     56  C   UNL A   1      38.930  29.601  28.269  1.00  0.00     0.031 C 
ATOM     57  C   UNL A   1      37.660  33.608  33.733  1.00  0.00     0.029 A 
ATOM     58  C   UNL A   1      38.835  32.747  33.838  1.00  0.00     0.049 A 
ATOM     59  H   UNL A   1      39.580  31.439  32.400  1.00  0.00     0.167 HD
ATOM     60  C   UNL A   1      40.980  28.670  29.306  1.00  0.00     0.037 A 
ATOM     61  C   UNL A   1      39.645  32.659  34.909  1.00  0.00     0.037 A 
ATOM     62  C   UNL A   1      41.953  28.583  30.363  1.00  0.00     0.049 A 
ATOM     63  C   UNL A   1      40.823  31.723  34.862  1.00  0.00     0.074 A 
ATOM     64  C   UNL A   1      43.120  27.839  30.401  1.00  0.00     0.029 A 
ATOM     65  N   UNL A   1      41.867  29.253  31.575  1.00  0.00    -0.354 N 
ATOM     66  N   UNL A   1      41.224  30.944  33.887  1.00  0.00    -0.248 NA
ATOM     67  C   UNL A   1      41.662  31.658  36.066  1.00  0.00     0.031 C 
ATOM     68  C   UNL A   1      43.703  28.007  31.661  1.00  0.00     0.029 A 
ATOM     69  C   UNL A   1      42.939  28.909  32.384  1.00  0.00     0.049 A 
ATOM     70  H   UNL A   1      41.149  29.879  31.824  1.00  0.00     0.167 HD
ATOM     71  C   UNL A   1      42.378  30.323  34.345  1.00  0.00     0.074 A 
ATOM     72  C   UNL A   1      42.619  30.826  35.682  1.00  0.00     0.031 C 
ATOM     73  C   UNL A   1      43.169  29.420  33.713  1.00  0.00     0.037 A 
BRANCH  60  74
ATOM     74  C   UNL A   1      41.150  27.790  28.099  1.00  0.00     0.064 A 
ATOM     75  C   UNL A   1      41.747  28.255  26.917  1.00  0.00     0.173 A 
ATOM     76  C   UNL A   1      40.721  26.454  28.131  1.00  0.00     0.173 A 
ATOM     77  F   UNL A   1      42.166  29.528  26.828  1.00  0.00    -0.203 F 
ATOM     78  C   UNL A   1      41.867  27.433  25.800  1.00  0.00     0.198 A 
ATOM     79  C   UNL A   1      40.878  25.622  27.025  1.00  0.00     0.198 A 
ATOM     80  F   UNL A   1      40.150  25.952  29.236  1.00  0.00    -0.203 F 
ATOM     81  F   UNL A   1      42.379  27.921  24.662  1.00  0.00    -0.200 F 
ATOM     82  C   UNL A   1      41.439  26.115  25.857  1.00  0.00     0.200 A 
ATOM     83  F   UNL A   1      40.477  24.345  27.087  1.00  0.00    -0.200 F 
ATOM     84  F   UNL A   1      41.557  25.323  24.782  1.00  0.00    -0.200 F 
ENDBRANCH  60  74
BRANCH  61  85
ATOM     85  C   UNL A   1      39.392  33.510  36.102  1.00  0.00     0.064 A 
ATOM     86  C   UNL A   1      39.945  34.795  36.193  1.00  0.00     0.173 A 
ATOM     87  C   UNL A   1      38.595  33.065  37.166  1.00  0.00     0.173 A 
ATOM     88  F   UNL A   1      40.731  35.257  35.210  1.00  0.00    -0.203 F 
ATOM     89  C   UNL A   1      39.722  35.597  37.311  1.00  0.00     0.198 A 
ATOM     90  C   UNL A   1      38.349  33.879  38.269  1.00  0.00     0.198 A 
ATOM     91  F   UNL A   1      38.039  31.845  37.126  1.00  0.00    -0.203 F 
ATOM     92  F   UNL A   1      40.297  36.805  37.390  1.00  0.00    -0.200 F 
ATOM     93  C   UNL A   1      38.919  35.141  38.345  1.00  0.00     0.200 A 
ATOM     94  F   UNL A   1      37.558  33.442  39.259  1.00  0.00    -0.200 F 
ATOM     95  F   UNL A   1      38.698  35.916  39.416  1.00  0.00    -0.200 F 
ENDBRANCH  61  85
BRANCH  73  96
ATOM     96  C   UNL A   1      44.392  28.943  34.444  1.00  0.00     0.064 A 
ATOM     97  C   UNL A   1      44.383  27.780  35.226  1.00  0.00     0.173 A 
ATOM     98  C   UNL A   1      45.604  29.643  34.327  1.00  0.00     0.173 A 
ATOM     99  F   UNL A   1      43.248  27.082  35.385  1.00  0.00    -0.203 F 
ATOM    100  C   UNL A   1      45.530  27.351  35.888  1.00  0.00     0.198 A 
ATOM    101  C   UNL A   1      46.759  29.193  34.959  1.00  0.00     0.198 A 
ATOM    102  F   UNL A   1      45.672  30.759  33.585  1.00  0.00    -0.203 F 
ATOM    103  F   UNL A   1      45.483  26.267  36.674  1.00  0.00    -0.200 F 
ATOM    104  C   UNL A   1      46.720  28.052  35.746  1.00  0.00     0.200 A 
ATOM    105  F   UNL A   1      47.910  29.862  34.806  1.00  0.00    -0.200 F 
ATOM    106  F   UNL A   1      47.825  27.632  36.375  1.00  0.00    -0.200 F 
ENDBRANCH  73  96
ENDBRANCH  47  48
ENDBRANCH  39  42
ENDBRANCH  37  38
ENDBRANCH  36  37
ENDBRANCH  35  36
ENDBRANCH   1  35
TORSDOF 17
ENDMDL
