MODEL 1
REMARK VINA RESULT:     -11.4      0.000      0.000
REMARK SMILES CCC[NH2+][C@@]1(C(=O)NCCCCCCNC(=O)c2ccc(-c3c4nc(c(-c5c(F)c(F)c(F)c(F)c5F)c5ccc([nH]5)c(-c5c(F)c(F)c(F)c(F)c5F)c5nc(c(-c6c(F)c(F)c(F)c(F)c6F)c6ccc3[nH]6)C=C5)C=C4)cc2)CC[C@@H](Sc2ccc(Cl)cc2)C1
REMARK SMILES IDX 11 1 10 2 9 3 8 4 6 5 7 6 5 8 81 9 92 10 82 11 83 12 4 13
REMARK SMILES IDX 3 16 2 17 1 18 84 19 85 20 86 21 91 22 87 23 90 24 88 25
REMARK SMILES IDX 89 26 12 27 13 28 14 29 15 30 16 31 17 33 18 34 19 35 80 36
REMARK SMILES IDX 20 37 79 38 21 39 22 40 23 41 73 42 24 43 78 44 72 45 74 46
REMARK SMILES IDX 25 47 77 48 71 49 70 50 26 52 58 53 38 54 57 55 39 56 42 57
REMARK SMILES IDX 56 58 75 59 40 60 41 61 55 63 76 64 43 65 27 66 28 67 36 68
REMARK SMILES IDX 29 69 30 70 34 71 37 72 31 73 32 74 35 75 33 76 59 77 60 78
REMARK SMILES IDX 68 79 61 80 62 81 66 82 69 83 63 84 64 85 67 86 65 87 44 88
REMARK SMILES IDX 45 89 53 90 46 91 47 92 51 93 54 94 48 95 49 96 52 97 50 98
REMARK H PARENT 8 7 4 14 4 15 15 32 74 51 42 62
REMARK Flexibility Score: inf
ROOT
ATOM      1  C   UNL A   1      32.125  29.837  26.738  1.00  0.00     0.002 C 
ENDROOT
BRANCH   1   2
ATOM      2  C   UNL A   1      32.920  28.800  25.943  1.00  0.00     0.021 C 
BRANCH   2   3
ATOM      3  C   UNL A   1      32.567  27.360  26.304  1.00  0.00     0.116 C 
BRANCH   3   4
ATOM      4  N   UNL A   1      33.669  26.468  26.060  1.00  0.00    -0.351 N 
ATOM      5  C   UNL A   1      33.850  25.430  25.204  1.00  0.00     0.281 C 
ATOM      6  O   UNL A   1      34.928  24.842  25.364  1.00  0.00    -0.268 OA
ATOM      7  H   UNL A   1      34.453  26.648  26.629  1.00  0.00     0.163 HD
BRANCH   5   8
ATOM      8  C   UNL A   1      32.786  24.972  24.117  1.00  0.00     0.176 C 
ATOM      9  C   UNL A   1      31.387  24.633  24.661  1.00  0.00     0.080 C 
ATOM     10  C   UNL A   1      33.268  23.700  23.381  1.00  0.00     0.094 C 
ATOM     11  C   UNL A   1      31.138  23.135  24.496  1.00  0.00     0.022 C 
ATOM     12  C   UNL A   1      32.378  22.541  23.833  1.00  0.00     0.058 C 
BRANCH   8  13
ATOM     13  N   UNL A   1      32.690  26.056  23.091  1.00  0.00    -0.334 N 
ATOM     14  H   UNL A   1      32.903  26.943  23.548  1.00  0.00     0.347 HD
ATOM     15  H   UNL A   1      33.351  25.809  22.355  1.00  0.00     0.347 HD
BRANCH  13  16
ATOM     16  C   UNL A   1      31.383  26.184  22.438  1.00  0.00     0.261 C 
BRANCH  16  17
ATOM     17  C   UNL A   1      30.899  27.638  22.422  1.00  0.00     0.058 C 
ATOM     18  C   UNL A   1      29.848  27.946  23.478  1.00  0.00     0.010 C 
ENDBRANCH  16  17
ENDBRANCH  13  16
ENDBRANCH   8  13
BRANCH  12  19
ATOM     19  S   UNL A   1      32.067  21.265  22.545  1.00  0.00    -0.122 SA
BRANCH  19  20
ATOM     20  C   UNL A   1      32.388  19.749  23.423  1.00  0.00     0.008 A 
ATOM     21  C   UNL A   1      32.488  18.549  22.706  1.00  0.00     0.016 A 
ATOM     22  C   UNL A   1      32.528  19.733  24.813  1.00  0.00     0.016 A 
ATOM     23  C   UNL A   1      32.770  17.352  23.371  1.00  0.00     0.021 A 
ATOM     24  C   UNL A   1      32.808  18.536  25.478  1.00  0.00     0.021 A 
ATOM     25  C   UNL A   1      32.934  17.353  24.754  1.00  0.00     0.041 A 
ATOM     26  Cl  UNL A   1      33.286  15.882  25.573  1.00  0.00    -0.084 Cl
ENDBRANCH  19  20
ENDBRANCH  12  19
ENDBRANCH   5   8
ENDBRANCH   3   4
ENDBRANCH   2   3
ENDBRANCH   1   2
BRANCH   1  27
ATOM     27  C   UNL A   1      31.395  30.881  25.881  1.00  0.00     0.002 C 
BRANCH  27  28
ATOM     28  C   UNL A   1      31.230  32.256  26.536  1.00  0.00     0.021 C 
BRANCH  28  29
ATOM     29  C   UNL A   1      32.485  32.774  27.230  1.00  0.00     0.116 C 
BRANCH  29  30
ATOM     30  N   UNL A   1      32.352  34.174  27.600  1.00  0.00    -0.352 N 
ATOM     31  C   UNL A   1      32.976  34.873  28.596  1.00  0.00     0.251 C 
ATOM     32  H   UNL A   1      31.722  34.695  27.052  1.00  0.00     0.163 HD
ATOM     33  O   UNL A   1      32.560  35.986  28.926  1.00  0.00    -0.269 OA
BRANCH  31  34
ATOM     34  C   UNL A   1      34.147  34.297  29.282  1.00  0.00     0.039 A 
ATOM     35  C   UNL A   1      33.947  33.489  30.404  1.00  0.00     0.014 A 
ATOM     36  C   UNL A   1      35.443  34.578  28.837  1.00  0.00     0.014 A 
ATOM     37  C   UNL A   1      35.045  32.928  31.056  1.00  0.00     0.010 A 
ATOM     38  C   UNL A   1      36.531  33.959  29.441  1.00  0.00     0.010 A 
ATOM     39  C   UNL A   1      36.344  33.138  30.563  1.00  0.00    -0.014 A 
BRANCH  39  40
ATOM     40  C   UNL A   1      37.522  32.521  31.220  1.00  0.00     0.031 A 
ATOM     41  C   UNL A   1      38.252  31.392  30.548  1.00  0.00     0.074 A 
ATOM     42  C   UNL A   1      37.893  32.938  32.445  1.00  0.00     0.049 A 
ATOM     43  N   UNL A   1      39.257  30.678  30.987  1.00  0.00    -0.248 NA
ATOM     44  C   UNL A   1      37.772  30.995  29.216  1.00  0.00     0.031 C 
ATOM     45  C   UNL A   1      37.234  33.995  33.214  1.00  0.00     0.029 A 
ATOM     46  N   UNL A   1      38.909  32.514  33.265  1.00  0.00    -0.354 N 
ATOM     47  C   UNL A   1      39.517  29.743  29.994  1.00  0.00     0.074 A 
ATOM     48  C   UNL A   1      38.531  29.942  28.956  1.00  0.00     0.031 C 
ATOM     49  C   UNL A   1      37.875  34.152  34.383  1.00  0.00     0.029 A 
ATOM     50  C   UNL A   1      38.963  33.184  34.462  1.00  0.00     0.049 A 
ATOM     51  H   UNL A   1      39.538  31.799  33.017  1.00  0.00     0.167 HD
ATOM     52  C   UNL A   1      40.506  28.819  29.945  1.00  0.00     0.037 A 
ATOM     53  C   UNL A   1      39.796  33.026  35.508  1.00  0.00     0.037 A 
ATOM     54  C   UNL A   1      41.498  28.642  30.973  1.00  0.00     0.049 A 
ATOM     55  C   UNL A   1      40.879  31.985  35.431  1.00  0.00     0.074 A 
ATOM     56  C   UNL A   1      42.573  27.771  30.994  1.00  0.00     0.029 A 
ATOM     57  N   UNL A   1      41.532  29.350  32.165  1.00  0.00    -0.354 N 
ATOM     58  N   UNL A   1      41.158  31.150  34.459  1.00  0.00    -0.248 NA
ATOM     59  C   UNL A   1      41.769  31.869  36.595  1.00  0.00     0.031 C 
ATOM     60  C   UNL A   1      43.230  27.917  32.220  1.00  0.00     0.029 A 
ATOM     61  C   UNL A   1      42.598  28.920  32.939  1.00  0.00     0.049 A 
ATOM     62  H   UNL A   1      40.894  30.053  32.422  1.00  0.00     0.167 HD
ATOM     63  C   UNL A   1      42.271  30.434  34.879  1.00  0.00     0.074 A 
ATOM     64  C   UNL A   1      42.624  30.942  36.188  1.00  0.00     0.031 C 
ATOM     65  C   UNL A   1      42.941  29.445  34.237  1.00  0.00     0.037 A 
BRANCH  52  66
ATOM     66  C   UNL A   1      40.564  27.929  28.736  1.00  0.00     0.064 A 
ATOM     67  C   UNL A   1      41.345  28.257  27.616  1.00  0.00     0.173 A 
ATOM     68  C   UNL A   1      39.857  26.717  28.707  1.00  0.00     0.173 A 
ATOM     69  F   UNL A   1      42.031  29.410  27.586  1.00  0.00    -0.203 F 
ATOM     70  C   UNL A   1      41.388  27.423  26.501  1.00  0.00     0.198 A 
ATOM     71  C   UNL A   1      39.930  25.870  27.604  1.00  0.00     0.198 A 
ATOM     72  F   UNL A   1      39.101  26.351  29.753  1.00  0.00    -0.203 F 
ATOM     73  F   UNL A   1      42.098  27.785  25.423  1.00  0.00    -0.200 F 
ATOM     74  C   UNL A   1      40.688  26.227  26.500  1.00  0.00     0.200 A 
ATOM     75  F   UNL A   1      39.263  24.706  27.611  1.00  0.00    -0.200 F 
ATOM     76  F   UNL A   1      40.738  25.421  25.431  1.00  0.00    -0.200 F 
ENDBRANCH  52  66
BRANCH  53  77
ATOM     77  C   UNL A   1      39.654  33.893  36.708  1.00  0.00     0.064 A 
ATOM     78  C   UNL A   1      38.865  33.492  37.795  1.00  0.00     0.173 A 
ATOM     79  C   UNL A   1      40.298  35.135  36.793  1.00  0.00     0.173 A 
ATOM     80  F   UNL A   1      38.214  32.320  37.753  1.00  0.00    -0.203 F 
ATOM     81  C   UNL A   1      38.705  34.311  38.910  1.00  0.00     0.198 A 
ATOM     82  C   UNL A   1      40.162  35.940  37.921  1.00  0.00     0.198 A 
ATOM     83  F   UNL A   1      41.071  35.563  35.783  1.00  0.00    -0.203 F 
ATOM     84  F   UNL A   1      37.907  33.924  39.914  1.00  0.00    -0.200 F 
ATOM     85  C   UNL A   1      39.359  35.532  38.975  1.00  0.00     0.200 A 
ATOM     86  F   UNL A   1      40.809  37.113  37.987  1.00  0.00    -0.200 F 
ATOM     87  F   UNL A   1      39.209  36.319  40.050  1.00  0.00    -0.200 F 
ENDBRANCH  53  77
BRANCH  65  88
ATOM     88  C   UNL A   1      44.149  28.875  34.922  1.00  0.00     0.064 A 
ATOM     89  C   UNL A   1      44.051  27.804  35.823  1.00  0.00     0.173 A 
ATOM     90  C   UNL A   1      45.427  29.383  34.642  1.00  0.00     0.173 A 
ATOM     91  F   UNL A   1      42.850  27.293  36.136  1.00  0.00    -0.203 F 
ATOM     92  C   UNL A   1      45.185  27.282  36.438  1.00  0.00     0.198 A 
ATOM     93  C   UNL A   1      46.561  28.836  35.235  1.00  0.00     0.198 A 
ATOM     94  F   UNL A   1      45.576  30.402  33.783  1.00  0.00    -0.203 F 
ATOM     95  F   UNL A   1      45.063  26.292  37.334  1.00  0.00    -0.200 F 
ATOM     96  C   UNL A   1      46.439  27.792  36.138  1.00  0.00     0.200 A 
ATOM     97  F   UNL A   1      47.773  29.321  34.930  1.00  0.00    -0.200 F 
ATOM     98  F   UNL A   1      47.530  27.281  36.725  1.00  0.00    -0.200 F 
ENDBRANCH  65  88
ENDBRANCH  39  40
ENDBRANCH  31  34
ENDBRANCH  29  30
ENDBRANCH  28  29
ENDBRANCH  27  28
ENDBRANCH   1  27
TORSDOF 18
ENDMDL
MODEL 2
REMARK VINA RESULT:     -11.2      2.442      7.974
REMARK SMILES CCC[NH2+][C@@]1(C(=O)NCCCCCCNC(=O)c2ccc(-c3c4nc(c(-c5c(F)c(F)c(F)c(F)c5F)c5ccc([nH]5)c(-c5c(F)c(F)c(F)c(F)c5F)c5nc(c(-c6c(F)c(F)c(F)c(F)c6F)c6ccc3[nH]6)C=C5)C=C4)cc2)CC[C@@H](Sc2ccc(Cl)cc2)C1
REMARK SMILES IDX 11 1 10 2 9 3 8 4 6 5 7 6 5 8 81 9 92 10 82 11 83 12 4 13
REMARK SMILES IDX 3 16 2 17 1 18 84 19 85 20 86 21 91 22 87 23 90 24 88 25
REMARK SMILES IDX 89 26 12 27 13 28 14 29 15 30 16 31 17 33 18 34 19 35 80 36
REMARK SMILES IDX 20 37 79 38 21 39 22 40 23 41 73 42 24 43 78 44 72 45 74 46
REMARK SMILES IDX 25 47 77 48 71 49 70 50 26 52 58 53 38 54 57 55 39 56 42 57
REMARK SMILES IDX 56 58 75 59 40 60 41 61 55 63 76 64 43 65 27 66 28 67 36 68
REMARK SMILES IDX 29 69 30 70 34 71 37 72 31 73 32 74 35 75 33 76 59 77 60 78
REMARK SMILES IDX 68 79 61 80 62 81 66 82 69 83 63 84 64 85 67 86 65 87 44 88
REMARK SMILES IDX 45 89 53 90 46 91 47 92 51 93 54 94 48 95 49 96 52 97 50 98
REMARK H PARENT 8 7 4 14 4 15 15 32 74 51 42 62
REMARK Flexibility Score: inf
ROOT
ATOM      1  C   UNL A   1      31.037  26.779  26.839  1.00  0.00     0.002 C 
ENDROOT
BRANCH   1   2
ATOM      2  C   UNL A   1      30.667  26.625  25.362  1.00  0.00     0.021 C 
BRANCH   2   3
ATOM      3  C   UNL A   1      30.266  25.201  24.985  1.00  0.00     0.116 C 
BRANCH   3   4
ATOM      4  N   UNL A   1      29.968  24.410  26.149  1.00  0.00    -0.351 N 
ATOM      5  C   UNL A   1      30.541  23.305  26.691  1.00  0.00     0.281 C 
ATOM      6  O   UNL A   1      29.923  22.858  27.667  1.00  0.00    -0.268 OA
ATOM      7  H   UNL A   1      29.190  24.738  26.657  1.00  0.00     0.163 HD
BRANCH   5   8
ATOM      8  C   UNL A   1      31.856  22.613  26.129  1.00  0.00     0.176 C 
ATOM      9  C   UNL A   1      33.020  22.493  27.130  1.00  0.00     0.080 C 
ATOM     10  C   UNL A   1      32.418  23.402  24.925  1.00  0.00     0.094 C 
ATOM     11  C   UNL A   1      34.161  23.400  26.674  1.00  0.00     0.022 C 
ATOM     12  C   UNL A   1      33.716  24.074  25.379  1.00  0.00     0.058 C 
BRANCH   8  13
ATOM     13  N   UNL A   1      31.474  21.259  25.620  1.00  0.00    -0.334 N 
ATOM     14  H   UNL A   1      31.335  20.647  26.424  1.00  0.00     0.347 HD
ATOM     15  H   UNL A   1      30.632  21.393  25.060  1.00  0.00     0.347 HD
BRANCH  13  16
ATOM     16  C   UNL A   1      32.456  20.626  24.732  1.00  0.00     0.261 C 
BRANCH  16  17
ATOM     17  C   UNL A   1      32.979  19.309  25.315  1.00  0.00     0.058 C 
ATOM     18  C   UNL A   1      34.091  18.673  24.495  1.00  0.00     0.010 C 
ENDBRANCH  16  17
ENDBRANCH  13  16
ENDBRANCH   8  13
BRANCH  12  19
ATOM     19  S   UNL A   1      34.999  24.228  24.071  1.00  0.00    -0.122 SA
BRANCH  19  20
ATOM     20  C   UNL A   1      36.338  23.257  24.732  1.00  0.00     0.008 A 
ATOM     21  C   UNL A   1      36.433  21.900  24.396  1.00  0.00     0.016 A 
ATOM     22  C   UNL A   1      37.286  23.821  25.589  1.00  0.00     0.016 A 
ATOM     23  C   UNL A   1      37.492  21.127  24.878  1.00  0.00     0.021 A 
ATOM     24  C   UNL A   1      38.345  23.047  26.073  1.00  0.00     0.021 A 
ATOM     25  C   UNL A   1      38.447  21.706  25.711  1.00  0.00     0.041 A 
ATOM     26  Cl  UNL A   1      39.754  20.758  26.301  1.00  0.00    -0.084 Cl
ENDBRANCH  19  20
ENDBRANCH  12  19
ENDBRANCH   5   8
ENDBRANCH   3   4
ENDBRANCH   2   3
ENDBRANCH   1   2
BRANCH   1  27
ATOM     27  C   UNL A   1      31.817  28.057  27.175  1.00  0.00     0.002 C 
BRANCH  27  28
ATOM     28  C   UNL A   1      31.797  29.134  26.086  1.00  0.00     0.021 C 
BRANCH  28  29
ATOM     29  C   UNL A   1      33.090  29.934  25.973  1.00  0.00     0.116 C 
BRANCH  29  30
ATOM     30  N   UNL A   1      32.890  31.328  26.339  1.00  0.00    -0.352 N 
ATOM     31  C   UNL A   1      33.495  32.065  27.319  1.00  0.00     0.251 C 
ATOM     32  H   UNL A   1      32.222  31.811  25.801  1.00  0.00     0.163 HD
ATOM     33  O   UNL A   1      33.027  33.156  27.652  1.00  0.00    -0.269 OA
BRANCH  31  34
ATOM     34  C   UNL A   1      34.708  31.556  27.984  1.00  0.00     0.039 A 
ATOM     35  C   UNL A   1      35.821  32.392  28.102  1.00  0.00     0.014 A 
ATOM     36  C   UNL A   1      34.758  30.243  28.464  1.00  0.00     0.014 A 
ATOM     37  C   UNL A   1      36.971  31.927  28.740  1.00  0.00     0.010 A 
ATOM     38  C   UNL A   1      35.876  29.805  29.165  1.00  0.00     0.010 A 
ATOM     39  C   UNL A   1      36.997  30.638  29.299  1.00  0.00    -0.014 A 
BRANCH  39  40
ATOM     40  C   UNL A   1      38.197  30.137  30.012  1.00  0.00     0.031 A 
ATOM     41  C   UNL A   1      38.498  30.614  31.404  1.00  0.00     0.074 A 
ATOM     42  C   UNL A   1      39.044  29.301  29.381  1.00  0.00     0.049 A 
ATOM     43  N   UNL A   1      39.529  30.349  32.167  1.00  0.00    -0.248 NA
ATOM     44  C   UNL A   1      37.524  31.534  32.012  1.00  0.00     0.031 C 
ATOM     45  C   UNL A   1      38.880  28.804  28.015  1.00  0.00     0.029 A 
ATOM     46  N   UNL A   1      40.219  28.731  29.803  1.00  0.00    -0.354 N 
ATOM     47  C   UNL A   1      39.332  31.078  33.333  1.00  0.00     0.074 A 
ATOM     48  C   UNL A   1      38.116  31.840  33.156  1.00  0.00     0.031 C 
ATOM     49  C   UNL A   1      39.902  27.986  27.719  1.00  0.00     0.029 A 
ATOM     50  C   UNL A   1      40.813  27.933  28.858  1.00  0.00     0.049 A 
ATOM     51  H   UNL A   1      40.598  28.881  30.699  1.00  0.00     0.167 HD
ATOM     52  C   UNL A   1      40.088  31.090  34.457  1.00  0.00     0.037 A 
ATOM     53  C   UNL A   1      41.967  27.242  28.905  1.00  0.00     0.037 A 
ATOM     54  C   UNL A   1      41.286  30.311  34.633  1.00  0.00     0.049 A 
ATOM     55  C   UNL A   1      42.792  27.281  30.162  1.00  0.00     0.074 A 
ATOM     56  C   UNL A   1      42.093  30.210  35.752  1.00  0.00     0.029 A 
ATOM     57  N   UNL A   1      41.848  29.500  33.658  1.00  0.00    -0.354 N 
ATOM     58  N   UNL A   1      42.564  27.920  31.284  1.00  0.00    -0.248 NA
ATOM     59  C   UNL A   1      44.033  26.494  30.163  1.00  0.00     0.031 C 
ATOM     60  C   UNL A   1      43.172  29.377  35.439  1.00  0.00     0.029 A 
ATOM     61  C   UNL A   1      43.006  28.913  34.144  1.00  0.00     0.049 A 
ATOM     62  H   UNL A   1      41.480  29.363  32.756  1.00  0.00     0.167 HD
ATOM     63  C   UNL A   1      43.612  27.590  32.132  1.00  0.00     0.074 A 
ATOM     64  C   UNL A   1      44.470  26.681  31.401  1.00  0.00     0.031 C 
ATOM     65  C   UNL A   1      43.842  28.002  33.404  1.00  0.00     0.037 A 
BRANCH  52  66
ATOM     66  C   UNL A   1      39.637  31.972  35.586  1.00  0.00     0.064 A 
ATOM     67  C   UNL A   1      40.136  33.275  35.747  1.00  0.00     0.173 A 
ATOM     68  C   UNL A   1      38.670  31.525  36.499  1.00  0.00     0.173 A 
ATOM     69  F   UNL A   1      41.071  33.749  34.909  1.00  0.00    -0.203 F 
ATOM     70  C   UNL A   1      39.710  34.081  36.800  1.00  0.00     0.198 A 
ATOM     71  C   UNL A   1      38.222  32.347  37.530  1.00  0.00     0.198 A 
ATOM     72  F   UNL A   1      38.155  30.292  36.387  1.00  0.00    -0.203 F 
ATOM     73  F   UNL A   1      40.242  35.301  36.964  1.00  0.00    -0.200 F 
ATOM     74  C   UNL A   1      38.748  33.620  37.684  1.00  0.00     0.200 A 
ATOM     75  F   UNL A   1      37.281  31.904  38.376  1.00  0.00    -0.200 F 
ATOM     76  F   UNL A   1      38.333  34.401  38.691  1.00  0.00    -0.200 F 
ENDBRANCH  52  66
BRANCH  53  77
ATOM     77  C   UNL A   1      42.397  26.433  27.734  1.00  0.00     0.064 A 
ATOM     78  C   UNL A   1      41.872  25.153  27.512  1.00  0.00     0.173 A 
ATOM     79  C   UNL A   1      43.340  26.920  26.817  1.00  0.00     0.173 A 
ATOM     80  F   UNL A   1      40.981  24.637  28.372  1.00  0.00    -0.203 F 
ATOM     81  C   UNL A   1      42.292  24.379  26.433  1.00  0.00     0.198 A 
ATOM     82  C   UNL A   1      43.737  26.157  25.721  1.00  0.00     0.198 A 
ATOM     83  F   UNL A   1      43.868  28.142  26.978  1.00  0.00    -0.203 F 
ATOM     84  F   UNL A   1      41.809  23.140  26.271  1.00  0.00    -0.200 F 
ATOM     85  C   UNL A   1      43.220  24.884  25.534  1.00  0.00     0.200 A 
ATOM     86  F   UNL A   1      44.622  26.655  24.845  1.00  0.00    -0.200 F 
ATOM     87  F   UNL A   1      43.620  24.142  24.492  1.00  0.00    -0.200 F 
ENDBRANCH  53  77
BRANCH  65  88
ATOM     88  C   UNL A   1      45.048  27.440  34.101  1.00  0.00     0.064 A 
ATOM     89  C   UNL A   1      46.272  28.126  34.128  1.00  0.00     0.173 A 
ATOM     90  C   UNL A   1      44.965  26.217  34.783  1.00  0.00     0.173 A 
ATOM     91  F   UNL A   1      46.407  29.292  33.478  1.00  0.00    -0.203 F 
ATOM     92  C   UNL A   1      47.374  27.594  34.791  1.00  0.00     0.198 A 
ATOM     93  C   UNL A   1      46.061  25.705  35.472  1.00  0.00     0.198 A 
ATOM     94  F   UNL A   1      43.816  25.525  34.794  1.00  0.00    -0.203 F 
ATOM     95  F   UNL A   1      48.547  28.242  34.761  1.00  0.00    -0.200 F 
ATOM     96  C   UNL A   1      47.266  26.389  35.469  1.00  0.00     0.200 A 
ATOM     97  F   UNL A   1      45.949  24.548  36.139  1.00  0.00    -0.200 F 
ATOM     98  F   UNL A   1      48.327  25.884  36.113  1.00  0.00    -0.200 F 
ENDBRANCH  65  88
ENDBRANCH  39  40
ENDBRANCH  31  34
ENDBRANCH  29  30
ENDBRANCH  28  29
ENDBRANCH  27  28
ENDBRANCH   1  27
TORSDOF 18
ENDMDL
MODEL 3
REMARK VINA RESULT:     -11.2      5.550     11.088
REMARK SMILES CCC[NH2+][C@@]1(C(=O)NCCCCCCNC(=O)c2ccc(-c3c4nc(c(-c5c(F)c(F)c(F)c(F)c5F)c5ccc([nH]5)c(-c5c(F)c(F)c(F)c(F)c5F)c5nc(c(-c6c(F)c(F)c(F)c(F)c6F)c6ccc3[nH]6)C=C5)C=C4)cc2)CC[C@@H](Sc2ccc(Cl)cc2)C1
REMARK SMILES IDX 11 1 10 2 9 3 8 4 6 5 7 6 5 8 81 9 92 10 82 11 83 12 4 13
REMARK SMILES IDX 3 16 2 17 1 18 84 19 85 20 86 21 91 22 87 23 90 24 88 25
REMARK SMILES IDX 89 26 12 27 13 28 14 29 15 30 16 31 17 33 18 34 19 35 80 36
REMARK SMILES IDX 20 37 79 38 21 39 22 40 23 41 73 42 24 43 78 44 72 45 74 46
REMARK SMILES IDX 25 47 77 48 71 49 70 50 26 52 58 53 38 54 57 55 39 56 42 57
REMARK SMILES IDX 56 58 75 59 40 60 41 61 55 63 76 64 43 65 27 66 28 67 36 68
REMARK SMILES IDX 29 69 30 70 34 71 37 72 31 73 32 74 35 75 33 76 59 77 60 78
REMARK SMILES IDX 68 79 61 80 62 81 66 82 69 83 63 84 64 85 67 86 65 87 44 88
REMARK SMILES IDX 45 89 53 90 46 91 47 92 51 93 54 94 48 95 49 96 52 97 50 98
REMARK H PARENT 8 7 4 14 4 15 15 32 74 51 42 62
REMARK Flexibility Score: inf
ROOT
ATOM      1  C   UNL A   1      35.629  20.379  25.364  1.00  0.00     0.002 C 
ENDROOT
BRANCH   1   2
ATOM      2  C   UNL A   1      34.430  19.731  24.669  1.00  0.00     0.021 C 
BRANCH   2   3
ATOM      3  C   UNL A   1      33.131  20.511  24.850  1.00  0.00     0.116 C 
BRANCH   3   4
ATOM      4  N   UNL A   1      32.842  21.330  23.703  1.00  0.00    -0.351 N 
ATOM      5  C   UNL A   1      32.985  22.656  23.451  1.00  0.00     0.281 C 
ATOM      6  O   UNL A   1      32.527  23.001  22.353  1.00  0.00    -0.268 OA
ATOM      7  H   UNL A   1      32.465  20.825  22.946  1.00  0.00     0.163 HD
BRANCH   5   8
ATOM      8  C   UNL A   1      33.643  23.692  24.459  1.00  0.00     0.176 C 
ATOM      9  C   UNL A   1      33.297  23.481  25.944  1.00  0.00     0.080 C 
ATOM     10  C   UNL A   1      33.200  25.136  24.127  1.00  0.00     0.094 C 
ATOM     11  C   UNL A   1      32.438  24.649  26.425  1.00  0.00     0.022 C 
ATOM     12  C   UNL A   1      32.261  25.598  25.243  1.00  0.00     0.058 C 
BRANCH   8  13
ATOM     13  N   UNL A   1      35.125  23.638  24.263  1.00  0.00    -0.334 N 
ATOM     14  H   UNL A   1      35.378  22.678  24.029  1.00  0.00     0.347 HD
ATOM     15  H   UNL A   1      35.338  24.307  23.524  1.00  0.00     0.347 HD
BRANCH  13  16
ATOM     16  C   UNL A   1      35.924  24.047  25.424  1.00  0.00     0.261 C 
BRANCH  16  17
ATOM     17  C   UNL A   1      37.412  23.749  25.219  1.00  0.00     0.058 C 
ATOM     18  C   UNL A   1      38.231  23.798  26.500  1.00  0.00     0.010 C 
ENDBRANCH  16  17
ENDBRANCH  13  16
ENDBRANCH   8  13
BRANCH  12  19
ATOM     19  S   UNL A   1      32.357  27.393  25.632  1.00  0.00    -0.122 SA
BRANCH  19  20
ATOM     20  C   UNL A   1      31.063  28.075  24.615  1.00  0.00     0.008 A 
ATOM     21  C   UNL A   1      30.985  29.463  24.443  1.00  0.00     0.016 A 
ATOM     22  C   UNL A   1      30.117  27.252  23.999  1.00  0.00     0.016 A 
ATOM     23  C   UNL A   1      29.997  30.018  23.625  1.00  0.00     0.021 A 
ATOM     24  C   UNL A   1      29.128  27.806  23.183  1.00  0.00     0.021 A 
ATOM     25  C   UNL A   1      29.076  29.186  22.994  1.00  0.00     0.041 A 
ATOM     26  Cl  UNL A   1      27.862  29.865  21.983  1.00  0.00    -0.084 Cl
ENDBRANCH  19  20
ENDBRANCH  12  19
ENDBRANCH   5   8
ENDBRANCH   3   4
ENDBRANCH   2   3
ENDBRANCH   1   2
BRANCH   1  27
ATOM     27  C   UNL A   1      36.930  20.358  24.551  1.00  0.00     0.002 C 
BRANCH  27  28
ATOM     28  C   UNL A   1      37.989  19.368  25.047  1.00  0.00     0.021 C 
BRANCH  28  29
ATOM     29  C   UNL A   1      39.142  20.013  25.808  1.00  0.00     0.116 C 
BRANCH  29  30
ATOM     30  N   UNL A   1      40.272  19.105  25.936  1.00  0.00    -0.352 N 
ATOM     31  C   UNL A   1      41.602  19.388  26.083  1.00  0.00     0.251 C 
ATOM     32  H   UNL A   1      40.045  18.148  25.917  1.00  0.00     0.163 HD
ATOM     33  O   UNL A   1      42.444  18.502  25.926  1.00  0.00    -0.269 OA
BRANCH  31  34
ATOM     34  C   UNL A   1      42.034  20.755  26.426  1.00  0.00     0.039 A 
ATOM     35  C   UNL A   1      42.265  21.079  27.764  1.00  0.00     0.014 A 
ATOM     36  C   UNL A   1      42.179  21.726  25.429  1.00  0.00     0.014 A 
ATOM     37  C   UNL A   1      42.686  22.366  28.101  1.00  0.00     0.010 A 
ATOM     38  C   UNL A   1      42.669  22.985  25.757  1.00  0.00     0.010 A 
ATOM     39  C   UNL A   1      42.915  23.321  27.096  1.00  0.00    -0.014 A 
BRANCH  39  40
ATOM     40  C   UNL A   1      43.396  24.684  27.430  1.00  0.00     0.031 A 
ATOM     41  C   UNL A   1      42.442  25.702  27.987  1.00  0.00     0.074 A 
ATOM     42  C   UNL A   1      44.675  25.018  27.174  1.00  0.00     0.049 A 
ATOM     43  N   UNL A   1      42.650  26.962  28.277  1.00  0.00    -0.248 NA
ATOM     44  C   UNL A   1      41.061  25.254  28.225  1.00  0.00     0.031 C 
ATOM     45  C   UNL A   1      45.682  24.128  26.594  1.00  0.00     0.029 A 
ATOM     46  N   UNL A   1      45.345  26.202  27.357  1.00  0.00    -0.354 N 
ATOM     47  C   UNL A   1      41.429  27.455  28.716  1.00  0.00     0.074 A 
ATOM     48  C   UNL A   1      40.472  26.377  28.601  1.00  0.00     0.031 C 
ATOM     49  C   UNL A   1      46.845  24.789  26.490  1.00  0.00     0.029 A 
ATOM     50  C   UNL A   1      46.657  26.158  26.959  1.00  0.00     0.049 A 
ATOM     51  H   UNL A   1      44.924  27.005  27.740  1.00  0.00     0.167 HD
ATOM     52  C   UNL A   1      41.141  28.688  29.194  1.00  0.00     0.037 A 
ATOM     53  C   UNL A   1      47.600  27.118  26.964  1.00  0.00     0.037 A 
ATOM     54  C   UNL A   1      42.105  29.749  29.326  1.00  0.00     0.049 A 
ATOM     55  C   UNL A   1      47.250  28.484  27.492  1.00  0.00     0.074 A 
ATOM     56  C   UNL A   1      41.927  31.018  29.849  1.00  0.00     0.029 A 
ATOM     57  N   UNL A   1      43.431  29.663  28.927  1.00  0.00    -0.354 N 
ATOM     58  N   UNL A   1      46.109  28.921  27.967  1.00  0.00    -0.248 NA
ATOM     59  C   UNL A   1      48.322  29.488  27.491  1.00  0.00     0.031 C 
ATOM     60  C   UNL A   1      43.132  31.716  29.722  1.00  0.00     0.029 A 
ATOM     61  C   UNL A   1      44.077  30.864  29.172  1.00  0.00     0.049 A 
ATOM     62  H   UNL A   1      43.849  28.867  28.529  1.00  0.00     0.167 HD
ATOM     63  C   UNL A   1      46.333  30.236  28.349  1.00  0.00     0.074 A 
ATOM     64  C   UNL A   1      47.724  30.522  28.064  1.00  0.00     0.031 C 
ATOM     65  C   UNL A   1      45.465  31.127  28.890  1.00  0.00     0.037 A 
BRANCH  52  66
ATOM     66  C   UNL A   1      39.723  28.956  29.613  1.00  0.00     0.064 A 
ATOM     67  C   UNL A   1      39.293  28.749  30.934  1.00  0.00     0.173 A 
ATOM     68  C   UNL A   1      38.789  29.457  28.693  1.00  0.00     0.173 A 
ATOM     69  F   UNL A   1      40.142  28.261  31.852  1.00  0.00    -0.203 F 
ATOM     70  C   UNL A   1      37.976  29.001  31.308  1.00  0.00     0.198 A 
ATOM     71  C   UNL A   1      37.482  29.739  29.079  1.00  0.00     0.198 A 
ATOM     72  F   UNL A   1      39.148  29.679  27.420  1.00  0.00    -0.203 F 
ATOM     73  F   UNL A   1      37.576  28.744  32.562  1.00  0.00    -0.200 F 
ATOM     74  C   UNL A   1      37.074  29.503  30.383  1.00  0.00     0.200 A 
ATOM     75  F   UNL A   1      36.615  30.238  28.186  1.00  0.00    -0.200 F 
ATOM     76  F   UNL A   1      35.808  29.753  30.746  1.00  0.00    -0.200 F 
ENDBRANCH  52  66
BRANCH  53  77
ATOM     77  C   UNL A   1      48.972  26.817  26.479  1.00  0.00     0.064 A 
ATOM     78  C   UNL A   1      49.307  26.971  25.126  1.00  0.00     0.173 A 
ATOM     79  C   UNL A   1      49.974  26.367  27.351  1.00  0.00     0.173 A 
ATOM     80  F   UNL A   1      48.377  27.380  24.250  1.00  0.00    -0.203 F 
ATOM     81  C   UNL A   1      50.582  26.663  24.659  1.00  0.00     0.198 A 
ATOM     82  C   UNL A   1      51.258  26.089  26.889  1.00  0.00     0.198 A 
ATOM     83  F   UNL A   1      49.709  26.210  28.656  1.00  0.00    -0.203 F 
ATOM     84  F   UNL A   1      50.861  26.774  23.354  1.00  0.00    -0.200 F 
ATOM     85  C   UNL A   1      51.559  26.229  25.542  1.00  0.00     0.200 A 
ATOM     86  F   UNL A   1      52.205  25.684  27.748  1.00  0.00    -0.200 F 
ATOM     87  F   UNL A   1      52.789  25.937  25.094  1.00  0.00    -0.200 F 
ENDBRANCH  53  77
BRANCH  65  88
ATOM     88  C   UNL A   1      46.004  32.482  29.248  1.00  0.00     0.064 A 
ATOM     89  C   UNL A   1      45.955  33.557  28.347  1.00  0.00     0.173 A 
ATOM     90  C   UNL A   1      46.540  32.717  30.522  1.00  0.00     0.173 A 
ATOM     91  F   UNL A   1      45.466  33.381  27.110  1.00  0.00    -0.203 F 
ATOM     92  C   UNL A   1      46.449  34.809  28.703  1.00  0.00     0.198 A 
ATOM     93  C   UNL A   1      47.003  33.979  30.885  1.00  0.00     0.198 A 
ATOM     94  F   UNL A   1      46.603  31.725  31.423  1.00  0.00    -0.203 F 
ATOM     95  F   UNL A   1      46.439  35.809  27.809  1.00  0.00    -0.200 F 
ATOM     96  C   UNL A   1      46.964  35.021  29.972  1.00  0.00     0.200 A 
ATOM     97  F   UNL A   1      47.486  34.185  32.118  1.00  0.00    -0.200 F 
ATOM     98  F   UNL A   1      47.430  36.231  30.314  1.00  0.00    -0.200 F 
ENDBRANCH  65  88
ENDBRANCH  39  40
ENDBRANCH  31  34
ENDBRANCH  29  30
ENDBRANCH  28  29
ENDBRANCH  27  28
ENDBRANCH   1  27
TORSDOF 18
ENDMDL
