MODEL 1
REMARK VINA RESULT:     -12.1      0.000      0.000
REMARK SMILES CN(CC(=O)NCCCCCCNC(=O)c1ccc(-c2c3nc(c(-c4c(F)c(F)c(F)c(F)c4F)c4ccc([nH]4)c(-c4c(F)c(F)c(F)c(F)c4F)c4nc(c(-c5c(F)c(F)c(F)c(F)c5F)c5ccc2[nH]5)C=C4)C=C3)cc1)c1ncc(-c2nnnn2-c2ccccc2)c(-c2ccc(Cl)cc2)n1
REMARK SMILES IDX 8 1 7 2 6 3 4 4 5 5 3 7 2 8 1 9 79 10 80 11 102 12 81 13
REMARK SMILES IDX 94 14 82 15 95 16 96 17 101 18 97 19 100 20 98 21 99 22
REMARK SMILES IDX 83 23 84 24 87 25 85 26 86 27 88 28 89 29 93 30 90 31 92 32
REMARK SMILES IDX 91 33 9 34 10 35 11 36 12 37 13 38 14 39 15 41 16 42 17 43
REMARK SMILES IDX 78 44 18 45 77 46 19 47 20 48 21 49 71 50 22 51 76 52 70 53
REMARK SMILES IDX 72 54 23 55 75 56 69 57 68 58 24 60 56 61 36 62 55 63 37 64
REMARK SMILES IDX 40 65 54 66 73 67 38 68 39 69 53 71 74 72 41 73 25 74 26 75
REMARK SMILES IDX 34 76 27 77 28 78 32 79 35 80 29 81 30 82 33 83 31 84 57 85
REMARK SMILES IDX 58 86 66 87 59 88 60 89 64 90 67 91 61 92 62 93 65 94 63 95
REMARK SMILES IDX 42 96 43 97 51 98 44 99 45 100 49 101 52 102 46 103 47 104
REMARK SMILES IDX 50 105 48 106
REMARK H PARENT 6 6 13 40 72 59 40 70
REMARK Flexibility Score: inf
ROOT
ATOM      1  C   UNL A   1      41.345  21.609  27.293  1.00  0.00     0.021 C 
ENDROOT
BRANCH   1   2
ATOM      2  C   UNL A   1      40.277  22.346  26.489  1.00  0.00     0.116 C 
BRANCH   2   3
ATOM      3  N   UNL A   1      39.296  21.431  25.950  1.00  0.00    -0.355 N 
ATOM      4  C   UNL A   1      37.979  21.663  25.665  1.00  0.00     0.239 C 
ATOM      5  O   UNL A   1      37.311  20.724  25.222  1.00  0.00    -0.273 OA
ATOM      6  H   UNL A   1      39.619  20.520  25.763  1.00  0.00     0.163 HD
BRANCH   4   7
ATOM      7  C   UNL A   1      37.407  23.085  25.755  1.00  0.00     0.219 C 
BRANCH   7   8
ATOM      8  N   UNL A   1      36.597  23.514  24.612  1.00  0.00    -0.335 N 
ATOM      9  C   UNL A   1      37.005  23.187  23.265  1.00  0.00     0.147 C 
BRANCH   8  10
ATOM     10  C   UNL A   1      35.260  23.757  24.833  1.00  0.00     0.226 A 
ATOM     11  N   UNL A   1      34.403  22.751  24.652  1.00  0.00    -0.221 NA
ATOM     12  N   UNL A   1      34.870  24.963  25.278  1.00  0.00    -0.212 NA
ATOM     13  C   UNL A   1      33.126  22.953  25.012  1.00  0.00     0.129 A 
ATOM     14  C   UNL A   1      33.560  25.167  25.575  1.00  0.00     0.087 A 
ATOM     15  C   UNL A   1      32.639  24.138  25.526  1.00  0.00     0.066 A 
BRANCH  14  16
ATOM     16  C   UNL A   1      33.236  26.565  25.921  1.00  0.00     0.001 A 
ATOM     17  C   UNL A   1      33.602  27.602  25.043  1.00  0.00     0.012 A 
ATOM     18  C   UNL A   1      32.573  26.920  27.109  1.00  0.00     0.012 A 
ATOM     19  C   UNL A   1      33.307  28.939  25.331  1.00  0.00     0.021 A 
ATOM     20  C   UNL A   1      32.279  28.257  27.403  1.00  0.00     0.021 A 
ATOM     21  C   UNL A   1      32.646  29.260  26.512  1.00  0.00     0.041 A 
ATOM     22  Cl  UNL A   1      32.286  30.901  26.877  1.00  0.00    -0.084 Cl
ENDBRANCH  14  16
BRANCH  15  23
ATOM     23  C   UNL A   1      31.263  24.209  25.976  1.00  0.00     0.190 A 
ATOM     24  N   UNL A   1      30.719  23.534  26.968  1.00  0.00    -0.108 NA
ATOM     25  N   UNL A   1      30.354  25.180  25.570  1.00  0.00    -0.193 N 
ATOM     26  N   UNL A   1      29.532  24.157  27.251  1.00  0.00    -0.023 NA
ATOM     27  N   UNL A   1      29.341  25.204  26.462  1.00  0.00    -0.040 NA
BRANCH  25  28
ATOM     28  C   UNL A   1      30.405  26.058  24.463  1.00  0.00     0.069 A 
ATOM     29  C   UNL A   1      29.903  27.357  24.591  1.00  0.00     0.028 A 
ATOM     30  C   UNL A   1      30.949  25.637  23.240  1.00  0.00     0.028 A 
ATOM     31  C   UNL A   1      29.991  28.241  23.512  1.00  0.00     0.002 A 
ATOM     32  C   UNL A   1      30.984  26.510  22.153  1.00  0.00     0.002 A 
ATOM     33  C   UNL A   1      30.521  27.815  22.294  1.00  0.00     0.000 A 
ENDBRANCH  25  28
ENDBRANCH  15  23
ENDBRANCH   8  10
ENDBRANCH   7   8
ENDBRANCH   4   7
ENDBRANCH   2   3
ENDBRANCH   1   2
BRANCH   1  34
ATOM     34  C   UNL A   1      41.143  20.088  27.346  1.00  0.00     0.002 C 
BRANCH  34  35
ATOM     35  C   UNL A   1      42.369  19.286  27.802  1.00  0.00     0.002 C 
BRANCH  35  36
ATOM     36  C   UNL A   1      42.918  18.303  26.768  1.00  0.00     0.021 C 
BRANCH  36  37
ATOM     37  C   UNL A   1      42.895  18.820  25.335  1.00  0.00     0.116 C 
BRANCH  37  38
ATOM     38  N   UNL A   1      44.156  18.583  24.647  1.00  0.00    -0.352 N 
ATOM     39  C   UNL A   1      45.118  19.481  24.259  1.00  0.00     0.251 C 
ATOM     40  H   UNL A   1      44.345  17.642  24.429  1.00  0.00     0.163 HD
ATOM     41  O   UNL A   1      46.027  19.136  23.509  1.00  0.00    -0.269 OA
BRANCH  39  42
ATOM     42  C   UNL A   1      45.043  20.878  24.730  1.00  0.00     0.039 A 
ATOM     43  C   UNL A   1      45.245  21.152  26.085  1.00  0.00     0.014 A 
ATOM     44  C   UNL A   1      44.794  21.917  23.829  1.00  0.00     0.014 A 
ATOM     45  C   UNL A   1      45.278  22.478  26.522  1.00  0.00     0.010 A 
ATOM     46  C   UNL A   1      44.902  23.238  24.252  1.00  0.00     0.010 A 
ATOM     47  C   UNL A   1      45.154  23.531  25.601  1.00  0.00    -0.014 A 
BRANCH  47  48
ATOM     48  C   UNL A   1      45.315  24.946  26.018  1.00  0.00     0.031 A 
ATOM     49  C   UNL A   1      46.657  25.615  25.931  1.00  0.00     0.074 A 
ATOM     50  C   UNL A   1      44.267  25.604  26.551  1.00  0.00     0.049 A 
ATOM     51  N   UNL A   1      47.014  26.812  26.321  1.00  0.00    -0.248 NA
ATOM     52  C   UNL A   1      47.750  24.820  25.352  1.00  0.00     0.031 C 
ATOM     53  C   UNL A   1      42.922  25.053  26.719  1.00  0.00     0.029 A 
ATOM     54  N   UNL A   1      44.171  26.875  27.060  1.00  0.00    -0.354 N 
ATOM     55  C   UNL A   1      48.371  26.910  26.046  1.00  0.00     0.074 A 
ATOM     56  C   UNL A   1      48.785  25.630  25.511  1.00  0.00     0.031 C 
ATOM     57  C   UNL A   1      42.127  25.989  27.260  1.00  0.00     0.029 A 
ATOM     58  C   UNL A   1      42.917  27.188  27.524  1.00  0.00     0.049 A 
ATOM     59  H   UNL A   1      44.929  27.502  27.089  1.00  0.00     0.167 HD
ATOM     60  C   UNL A   1      49.191  27.976  26.204  1.00  0.00     0.037 A 
ATOM     61  C   UNL A   1      42.459  28.313  28.105  1.00  0.00     0.037 A 
ATOM     62  C   UNL A   1      48.769  29.249  26.731  1.00  0.00     0.049 A 
ATOM     63  C   UNL A   1      43.404  29.463  28.324  1.00  0.00     0.074 A 
ATOM     64  C   UNL A   1      49.507  30.409  26.878  1.00  0.00     0.029 A 
ATOM     65  N   UNL A   1      47.497  29.522  27.213  1.00  0.00    -0.354 N 
ATOM     66  N   UNL A   1      44.668  29.572  27.994  1.00  0.00    -0.248 NA
ATOM     67  C   UNL A   1      42.857  30.647  29.002  1.00  0.00     0.031 C 
ATOM     68  C   UNL A   1      48.702  31.363  27.509  1.00  0.00     0.029 A 
ATOM     69  C   UNL A   1      47.441  30.820  27.696  1.00  0.00     0.049 A 
ATOM     70  H   UNL A   1      46.744  28.886  27.212  1.00  0.00     0.167 HD
ATOM     71  C   UNL A   1      45.058  30.844  28.390  1.00  0.00     0.074 A 
ATOM     72  C   UNL A   1      43.893  31.473  28.978  1.00  0.00     0.031 C 
ATOM     73  C   UNL A   1      46.273  31.437  28.276  1.00  0.00     0.037 A 
BRANCH  60  74
ATOM     74  C   UNL A   1      50.634  27.801  25.819  1.00  0.00     0.064 A 
ATOM     75  C   UNL A   1      51.066  27.923  24.488  1.00  0.00     0.173 A 
ATOM     76  C   UNL A   1      51.601  27.513  26.794  1.00  0.00     0.173 A 
ATOM     77  F   UNL A   1      50.183  28.189  23.513  1.00  0.00    -0.203 F 
ATOM     78  C   UNL A   1      52.398  27.715  24.143  1.00  0.00     0.198 A 
ATOM     79  C   UNL A   1      52.941  27.343  26.450  1.00  0.00     0.198 A 
ATOM     80  F   UNL A   1      51.249  27.393  28.082  1.00  0.00    -0.203 F 
ATOM     81  F   UNL A   1      52.771  27.767  22.857  1.00  0.00    -0.200 F 
ATOM     82  C   UNL A   1      53.336  27.431  25.124  1.00  0.00     0.200 A 
ATOM     83  F   UNL A   1      53.847  27.084  27.403  1.00  0.00    -0.200 F 
ATOM     84  F   UNL A   1      54.617  27.229  24.791  1.00  0.00    -0.200 F 
ENDBRANCH  60  74
BRANCH  61  85
ATOM     85  C   UNL A   1      41.028  28.418  28.492  1.00  0.00     0.064 A 
ATOM     86  C   UNL A   1      40.601  28.009  29.763  1.00  0.00     0.173 A 
ATOM     87  C   UNL A   1      40.062  28.929  27.613  1.00  0.00     0.173 A 
ATOM     88  F   UNL A   1      41.484  27.494  30.631  1.00  0.00    -0.203 F 
ATOM     89  C   UNL A   1      39.260  28.090  30.134  1.00  0.00     0.198 A 
ATOM     90  C   UNL A   1      38.726  29.038  27.996  1.00  0.00     0.198 A 
ATOM     91  F   UNL A   1      40.418  29.339  26.386  1.00  0.00    -0.203 F 
ATOM     92  F   UNL A   1      38.874  27.652  31.340  1.00  0.00    -0.200 F 
ATOM     93  C   UNL A   1      38.325  28.613  29.254  1.00  0.00     0.200 A 
ATOM     94  F   UNL A   1      37.828  29.558  27.147  1.00  0.00    -0.200 F 
ATOM     95  F   UNL A   1      37.038  28.699  29.614  1.00  0.00    -0.200 F 
ENDBRANCH  61  85
BRANCH  73  96
ATOM     96  C   UNL A   1      46.399  32.853  28.764  1.00  0.00     0.064 A 
ATOM     97  C   UNL A   1      46.130  33.948  27.931  1.00  0.00     0.173 A 
ATOM     98  C   UNL A   1      46.750  33.113  30.098  1.00  0.00     0.173 A 
ATOM     99  F   UNL A   1      45.808  33.754  26.643  1.00  0.00    -0.203 F 
ATOM    100  C   UNL A   1      46.230  35.252  28.408  1.00  0.00     0.198 A 
ATOM    101  C   UNL A   1      46.816  34.417  30.581  1.00  0.00     0.198 A 
ATOM    102  F   UNL A   1      47.014  32.102  30.939  1.00  0.00    -0.203 F 
ATOM    103  F   UNL A   1      46.017  36.285  27.582  1.00  0.00    -0.200 F 
ATOM    104  C   UNL A   1      46.563  35.486  29.735  1.00  0.00     0.200 A 
ATOM    105  F   UNL A   1      47.122  34.639  31.867  1.00  0.00    -0.200 F 
ATOM    106  F   UNL A   1      46.646  36.741  30.197  1.00  0.00    -0.200 F 
ENDBRANCH  73  96
ENDBRANCH  47  48
ENDBRANCH  39  42
ENDBRANCH  37  38
ENDBRANCH  36  37
ENDBRANCH  35  36
ENDBRANCH  34  35
ENDBRANCH   1  34
TORSDOF 18
ENDMDL
MODEL 2
REMARK VINA RESULT:     -11.4      3.393      5.379
REMARK SMILES CN(CC(=O)NCCCCCCNC(=O)c1ccc(-c2c3nc(c(-c4c(F)c(F)c(F)c(F)c4F)c4ccc([nH]4)c(-c4c(F)c(F)c(F)c(F)c4F)c4nc(c(-c5c(F)c(F)c(F)c(F)c5F)c5ccc2[nH]5)C=C4)C=C3)cc1)c1ncc(-c2nnnn2-c2ccccc2)c(-c2ccc(Cl)cc2)n1
REMARK SMILES IDX 8 1 7 2 6 3 4 4 5 5 3 7 2 8 1 9 79 10 80 11 102 12 81 13
REMARK SMILES IDX 94 14 82 15 95 16 96 17 101 18 97 19 100 20 98 21 99 22
REMARK SMILES IDX 83 23 84 24 87 25 85 26 86 27 88 28 89 29 93 30 90 31 92 32
REMARK SMILES IDX 91 33 9 34 10 35 11 36 12 37 13 38 14 39 15 41 16 42 17 43
REMARK SMILES IDX 78 44 18 45 77 46 19 47 20 48 21 49 71 50 22 51 76 52 70 53
REMARK SMILES IDX 72 54 23 55 75 56 69 57 68 58 24 60 56 61 36 62 55 63 37 64
REMARK SMILES IDX 40 65 54 66 73 67 38 68 39 69 53 71 74 72 41 73 25 74 26 75
REMARK SMILES IDX 34 76 27 77 28 78 32 79 35 80 29 81 30 82 33 83 31 84 57 85
REMARK SMILES IDX 58 86 66 87 59 88 60 89 64 90 67 91 61 92 62 93 65 94 63 95
REMARK SMILES IDX 42 96 43 97 51 98 44 99 45 100 49 101 52 102 46 103 47 104
REMARK SMILES IDX 50 105 48 106
REMARK H PARENT 6 6 13 40 72 59 40 70
REMARK Flexibility Score: inf
ROOT
ATOM      1  C   UNL A   1      39.269  28.586  28.000  1.00  0.00     0.021 C 
ENDROOT
BRANCH   1   2
ATOM      2  C   UNL A   1      38.381  29.216  29.072  1.00  0.00     0.116 C 
BRANCH   2   3
ATOM      3  N   UNL A   1      37.806  30.462  28.616  1.00  0.00    -0.355 N 
ATOM      4  C   UNL A   1      36.557  30.689  28.108  1.00  0.00     0.239 C 
ATOM      5  O   UNL A   1      36.277  31.840  27.761  1.00  0.00    -0.273 OA
ATOM      6  H   UNL A   1      38.391  31.251  28.680  1.00  0.00     0.163 HD
BRANCH   4   7
ATOM      7  C   UNL A   1      35.503  29.572  28.117  1.00  0.00     0.219 C 
BRANCH   7   8
ATOM      8  N   UNL A   1      34.218  29.912  27.501  1.00  0.00    -0.335 N 
ATOM      9  C   UNL A   1      33.669  31.241  27.644  1.00  0.00     0.147 C 
BRANCH   8  10
ATOM     10  C   UNL A   1      33.814  29.167  26.416  1.00  0.00     0.226 A 
ATOM     11  N   UNL A   1      33.378  29.819  25.337  1.00  0.00    -0.221 NA
ATOM     12  N   UNL A   1      33.928  27.829  26.452  1.00  0.00    -0.212 NA
ATOM     13  C   UNL A   1      33.129  29.095  24.235  1.00  0.00     0.129 A 
ATOM     14  C   UNL A   1      33.607  27.107  25.345  1.00  0.00     0.087 A 
ATOM     15  C   UNL A   1      33.264  27.723  24.156  1.00  0.00     0.066 A 
BRANCH  14  16
ATOM     16  C   UNL A   1      33.642  25.647  25.552  1.00  0.00     0.001 A 
ATOM     17  C   UNL A   1      34.830  24.936  25.296  1.00  0.00     0.012 A 
ATOM     18  C   UNL A   1      32.528  24.915  25.996  1.00  0.00     0.012 A 
ATOM     19  C   UNL A   1      34.907  23.553  25.486  1.00  0.00     0.021 A 
ATOM     20  C   UNL A   1      32.599  23.529  26.185  1.00  0.00     0.021 A 
ATOM     21  C   UNL A   1      33.789  22.854  25.931  1.00  0.00     0.041 A 
ATOM     22  Cl  UNL A   1      33.873  21.153  26.161  1.00  0.00    -0.084 Cl
ENDBRANCH  14  16
BRANCH  15  23
ATOM     23  C   UNL A   1      33.066  27.058  22.883  1.00  0.00     0.190 A 
ATOM     24  N   UNL A   1      33.997  26.556  22.099  1.00  0.00    -0.108 NA
ATOM     25  N   UNL A   1      31.830  26.643  22.400  1.00  0.00    -0.193 N 
ATOM     26  N   UNL A   1      33.350  25.742  21.207  1.00  0.00    -0.023 NA
ATOM     27  N   UNL A   1      32.044  25.725  21.434  1.00  0.00    -0.040 NA
BRANCH  25  28
ATOM     28  C   UNL A   1      30.528  27.024  22.803  1.00  0.00     0.069 A 
ATOM     29  C   UNL A   1      29.758  26.142  23.566  1.00  0.00     0.028 A 
ATOM     30  C   UNL A   1      30.004  28.273  22.439  1.00  0.00     0.028 A 
ATOM     31  C   UNL A   1      28.489  26.532  24.002  1.00  0.00     0.002 A 
ATOM     32  C   UNL A   1      28.715  28.633  22.834  1.00  0.00     0.002 A 
ATOM     33  C   UNL A   1      27.966  27.770  23.628  1.00  0.00     0.000 A 
ENDBRANCH  25  28
ENDBRANCH  15  23
ENDBRANCH   8  10
ENDBRANCH   7   8
ENDBRANCH   4   7
ENDBRANCH   2   3
ENDBRANCH   1   2
BRANCH   1  34
ATOM     34  C   UNL A   1      39.496  27.080  28.189  1.00  0.00     0.002 C 
BRANCH  34  35
ATOM     35  C   UNL A   1      40.158  26.370  27.002  1.00  0.00     0.002 C 
BRANCH  35  36
ATOM     36  C   UNL A   1      39.770  24.901  26.831  1.00  0.00     0.021 C 
BRANCH  36  37
ATOM     37  C   UNL A   1      40.673  23.922  27.574  1.00  0.00     0.116 C 
BRANCH  37  38
ATOM     38  N   UNL A   1      41.388  23.038  26.666  1.00  0.00    -0.352 N 
ATOM     39  C   UNL A   1      42.484  23.296  25.883  1.00  0.00     0.251 C 
ATOM     40  H   UNL A   1      41.034  22.121  26.606  1.00  0.00     0.163 HD
ATOM     41  O   UNL A   1      42.840  22.495  25.023  1.00  0.00    -0.269 OA
BRANCH  39  42
ATOM     42  C   UNL A   1      43.226  24.560  26.062  1.00  0.00     0.039 A 
ATOM     43  C   UNL A   1      43.949  24.765  27.239  1.00  0.00     0.014 A 
ATOM     44  C   UNL A   1      43.222  25.532  25.057  1.00  0.00     0.014 A 
ATOM     45  C   UNL A   1      44.736  25.911  27.374  1.00  0.00     0.010 A 
ATOM     46  C   UNL A   1      44.064  26.635  25.161  1.00  0.00     0.010 A 
ATOM     47  C   UNL A   1      44.836  26.830  26.318  1.00  0.00    -0.014 A 
BRANCH  47  48
ATOM     48  C   UNL A   1      45.764  27.987  26.383  1.00  0.00     0.031 A 
ATOM     49  C   UNL A   1      47.240  27.787  26.193  1.00  0.00     0.074 A 
ATOM     50  C   UNL A   1      45.282  29.205  26.696  1.00  0.00     0.049 A 
ATOM     51  N   UNL A   1      48.214  28.655  26.294  1.00  0.00    -0.248 NA
ATOM     52  C   UNL A   1      47.682  26.422  25.873  1.00  0.00     0.031 C 
ATOM     53  C   UNL A   1      43.874  29.521  26.936  1.00  0.00     0.029 A 
ATOM     54  N   UNL A   1      45.926  30.404  26.874  1.00  0.00    -0.354 N 
ATOM     55  C   UNL A   1      49.382  27.941  26.062  1.00  0.00     0.074 A 
ATOM     56  C   UNL A   1      48.999  26.558  25.873  1.00  0.00     0.031 C 
ATOM     57  C   UNL A   1      43.755  30.831  27.198  1.00  0.00     0.029 A 
ATOM     58  C   UNL A   1      45.082  31.439  27.194  1.00  0.00     0.049 A 
ATOM     59  H   UNL A   1      46.900  30.512  26.782  1.00  0.00     0.167 HD
ATOM     60  C   UNL A   1      50.654  28.401  25.990  1.00  0.00     0.037 A 
ATOM     61  C   UNL A   1      45.350  32.731  27.464  1.00  0.00     0.037 A 
ATOM     62  C   UNL A   1      51.026  29.781  26.173  1.00  0.00     0.049 A 
ATOM     63  C   UNL A   1      46.778  33.205  27.437  1.00  0.00     0.074 A 
ATOM     64  C   UNL A   1      52.277  30.359  26.063  1.00  0.00     0.029 A 
ATOM     65  N   UNL A   1      50.146  30.797  26.519  1.00  0.00    -0.354 N 
ATOM     66  N   UNL A   1      47.867  32.538  27.143  1.00  0.00    -0.248 NA
ATOM     67  C   UNL A   1      47.012  34.615  27.782  1.00  0.00     0.031 C 
ATOM     68  C   UNL A   1      52.168  31.710  26.409  1.00  0.00     0.029 A 
ATOM     69  C   UNL A   1      50.835  31.990  26.669  1.00  0.00     0.049 A 
ATOM     70  H   UNL A   1      49.175  30.686  26.641  1.00  0.00     0.167 HD
ATOM     71  C   UNL A   1      48.910  33.451  27.234  1.00  0.00     0.074 A 
ATOM     72  C   UNL A   1      48.321  34.722  27.601  1.00  0.00     0.031 C 
ATOM     73  C   UNL A   1      50.236  33.252  27.031  1.00  0.00     0.037 A 
BRANCH  60  74
ATOM     74  C   UNL A   1      51.738  27.394  25.721  1.00  0.00     0.064 A 
ATOM     75  C   UNL A   1      52.088  27.014  24.415  1.00  0.00     0.173 A 
ATOM     76  C   UNL A   1      52.442  26.805  26.782  1.00  0.00     0.173 A 
ATOM     77  F   UNL A   1      51.442  27.538  23.363  1.00  0.00    -0.203 F 
ATOM     78  C   UNL A   1      53.064  26.048  24.185  1.00  0.00     0.198 A 
ATOM     79  C   UNL A   1      53.445  25.868  26.547  1.00  0.00     0.198 A 
ATOM     80  F   UNL A   1      52.157  27.136  28.050  1.00  0.00    -0.203 F 
ATOM     81  F   UNL A   1      53.329  25.650  22.934  1.00  0.00    -0.200 F 
ATOM     82  C   UNL A   1      53.746  25.480  25.250  1.00  0.00     0.200 A 
ATOM     83  F   UNL A   1      54.114  25.333  27.578  1.00  0.00    -0.200 F 
ATOM     84  F   UNL A   1      54.684  24.550  25.028  1.00  0.00    -0.200 F 
ENDBRANCH  60  74
BRANCH  61  85
ATOM     85  C   UNL A   1      44.239  33.675  27.753  1.00  0.00     0.064 A 
ATOM     86  C   UNL A   1      43.651  33.716  29.025  1.00  0.00     0.173 A 
ATOM     87  C   UNL A   1      43.745  34.553  26.777  1.00  0.00     0.173 A 
ATOM     88  F   UNL A   1      44.074  32.880  29.984  1.00  0.00    -0.203 F 
ATOM     89  C   UNL A   1      42.600  34.587  29.305  1.00  0.00     0.198 A 
ATOM     90  C   UNL A   1      42.715  35.445  27.068  1.00  0.00     0.198 A 
ATOM     91  F   UNL A   1      44.275  34.557  25.545  1.00  0.00    -0.203 F 
ATOM     92  F   UNL A   1      42.028  34.575  30.516  1.00  0.00    -0.200 F 
ATOM     93  C   UNL A   1      42.138  35.457  28.329  1.00  0.00     0.200 A 
ATOM     94  F   UNL A   1      42.281  36.295  26.125  1.00  0.00    -0.200 F 
ATOM     95  F   UNL A   1      41.134  36.300  28.601  1.00  0.00    -0.200 F 
ENDBRANCH  61  85
BRANCH  73  96
ATOM     96  C   UNL A   1      51.142  34.443  27.164  1.00  0.00     0.064 A 
ATOM     97  C   UNL A   1      51.383  35.312  26.090  1.00  0.00     0.173 A 
ATOM     98  C   UNL A   1      51.739  34.744  28.398  1.00  0.00     0.173 A 
ATOM     99  F   UNL A   1      50.851  35.060  24.884  1.00  0.00    -0.203 F 
ATOM    100  C   UNL A   1      52.207  36.424  26.239  1.00  0.00     0.198 A 
ATOM    101  C   UNL A   1      52.535  35.876  28.553  1.00  0.00     0.198 A 
ATOM    102  F   UNL A   1      51.538  33.949  29.459  1.00  0.00    -0.203 F 
ATOM    103  F   UNL A   1      52.464  37.213  25.187  1.00  0.00    -0.200 F 
ATOM    104  C   UNL A   1      52.774  36.711  27.473  1.00  0.00     0.200 A 
ATOM    105  F   UNL A   1      53.068  36.160  29.749  1.00  0.00    -0.200 F 
ATOM    106  F   UNL A   1      53.557  37.790  27.619  1.00  0.00    -0.200 F 
ENDBRANCH  73  96
ENDBRANCH  47  48
ENDBRANCH  39  42
ENDBRANCH  37  38
ENDBRANCH  36  37
ENDBRANCH  35  36
ENDBRANCH  34  35
ENDBRANCH   1  34
TORSDOF 18
ENDMDL
MODEL 3
REMARK VINA RESULT:     -11.4      5.116     10.375
REMARK SMILES CN(CC(=O)NCCCCCCNC(=O)c1ccc(-c2c3nc(c(-c4c(F)c(F)c(F)c(F)c4F)c4ccc([nH]4)c(-c4c(F)c(F)c(F)c(F)c4F)c4nc(c(-c5c(F)c(F)c(F)c(F)c5F)c5ccc2[nH]5)C=C4)C=C3)cc1)c1ncc(-c2nnnn2-c2ccccc2)c(-c2ccc(Cl)cc2)n1
REMARK SMILES IDX 8 1 7 2 6 3 4 4 5 5 3 7 2 8 1 9 79 10 80 11 102 12 81 13
REMARK SMILES IDX 94 14 82 15 95 16 96 17 101 18 97 19 100 20 98 21 99 22
REMARK SMILES IDX 83 23 84 24 87 25 85 26 86 27 88 28 89 29 93 30 90 31 92 32
REMARK SMILES IDX 91 33 9 34 10 35 11 36 12 37 13 38 14 39 15 41 16 42 17 43
REMARK SMILES IDX 78 44 18 45 77 46 19 47 20 48 21 49 71 50 22 51 76 52 70 53
REMARK SMILES IDX 72 54 23 55 75 56 69 57 68 58 24 60 56 61 36 62 55 63 37 64
REMARK SMILES IDX 40 65 54 66 73 67 38 68 39 69 53 71 74 72 41 73 25 74 26 75
REMARK SMILES IDX 34 76 27 77 28 78 32 79 35 80 29 81 30 82 33 83 31 84 57 85
REMARK SMILES IDX 58 86 66 87 59 88 60 89 64 90 67 91 61 92 62 93 65 94 63 95
REMARK SMILES IDX 42 96 43 97 51 98 44 99 45 100 49 101 52 102 46 103 47 104
REMARK SMILES IDX 50 105 48 106
REMARK H PARENT 6 6 13 40 72 59 40 70
REMARK Flexibility Score: inf
ROOT
ATOM      1  C   UNL A   1      44.792  24.540  27.636  1.00  0.00     0.021 C 
ENDROOT
BRANCH   1   2
ATOM      2  C   UNL A   1      44.904  25.154  26.242  1.00  0.00     0.116 C 
BRANCH   2   3
ATOM      3  N   UNL A   1      43.966  26.240  26.066  1.00  0.00    -0.355 N 
ATOM      4  C   UNL A   1      44.226  27.571  25.892  1.00  0.00     0.239 C 
ATOM      5  O   UNL A   1      43.263  28.336  25.777  1.00  0.00    -0.273 OA
ATOM      6  H   UNL A   1      43.015  25.988  26.072  1.00  0.00     0.163 HD
BRANCH   4   7
ATOM      7  C   UNL A   1      45.669  28.059  25.697  1.00  0.00     0.219 C 
BRANCH   7   8
ATOM      8  N   UNL A   1      46.337  28.550  26.905  1.00  0.00    -0.335 N 
ATOM      9  C   UNL A   1      47.135  27.656  27.712  1.00  0.00     0.147 C 
BRANCH   8  10
ATOM     10  C   UNL A   1      46.616  29.896  26.977  1.00  0.00     0.226 A 
ATOM     11  N   UNL A   1      47.869  30.289  26.743  1.00  0.00    -0.221 NA
ATOM     12  N   UNL A   1      45.622  30.768  27.215  1.00  0.00    -0.212 NA
ATOM     13  C   UNL A   1      48.101  31.609  26.667  1.00  0.00     0.129 A 
ATOM     14  C   UNL A   1      45.891  32.100  27.199  1.00  0.00     0.087 A 
ATOM     15  C   UNL A   1      47.137  32.581  26.846  1.00  0.00     0.066 A 
BRANCH  14  16
ATOM     16  C   UNL A   1      44.753  32.945  27.607  1.00  0.00     0.001 A 
ATOM     17  C   UNL A   1      44.161  32.753  28.871  1.00  0.00     0.012 A 
ATOM     18  C   UNL A   1      44.215  33.948  26.782  1.00  0.00     0.012 A 
ATOM     19  C   UNL A   1      43.085  33.537  29.298  1.00  0.00     0.021 A 
ATOM     20  C   UNL A   1      43.136  34.734  27.205  1.00  0.00     0.021 A 
ATOM     21  C   UNL A   1      42.577  34.526  28.462  1.00  0.00     0.041 A 
ATOM     22  Cl  UNL A   1      41.250  35.490  28.977  1.00  0.00    -0.084 Cl
ENDBRANCH  14  16
BRANCH  15  23
ATOM     23  C   UNL A   1      47.482  33.974  26.639  1.00  0.00     0.190 A 
ATOM     24  N   UNL A   1      47.655  34.583  25.484  1.00  0.00    -0.108 NA
ATOM     25  N   UNL A   1      47.459  34.943  27.635  1.00  0.00    -0.193 N 
ATOM     26  N   UNL A   1      47.623  35.927  25.751  1.00  0.00    -0.023 NA
ATOM     27  N   UNL A   1      47.423  36.155  27.041  1.00  0.00    -0.040 NA
BRANCH  25  28
ATOM     28  C   UNL A   1      47.439  34.792  29.042  1.00  0.00     0.069 A 
ATOM     29  C   UNL A   1      46.441  35.427  29.788  1.00  0.00     0.028 A 
ATOM     30  C   UNL A   1      48.412  34.020  29.692  1.00  0.00     0.028 A 
ATOM     31  C   UNL A   1      46.393  35.246  31.172  1.00  0.00     0.002 A 
ATOM     32  C   UNL A   1      48.386  33.887  31.081  1.00  0.00     0.002 A 
ATOM     33  C   UNL A   1      47.369  34.486  31.818  1.00  0.00     0.000 A 
ENDBRANCH  25  28
ENDBRANCH  15  23
ENDBRANCH   8  10
ENDBRANCH   7   8
ENDBRANCH   4   7
ENDBRANCH   2   3
ENDBRANCH   1   2
BRANCH   1  34
ATOM     34  C   UNL A   1      43.349  24.427  28.150  1.00  0.00     0.002 C 
BRANCH  34  35
ATOM     35  C   UNL A   1      42.994  23.083  28.796  1.00  0.00     0.002 C 
BRANCH  35  36
ATOM     36  C   UNL A   1      42.084  22.185  27.958  1.00  0.00     0.021 C 
BRANCH  36  37
ATOM     37  C   UNL A   1      41.856  22.676  26.533  1.00  0.00     0.116 C 
BRANCH  37  38
ATOM     38  N   UNL A   1      40.476  22.496  26.105  1.00  0.00    -0.352 N 
ATOM     39  C   UNL A   1      39.369  23.253  26.393  1.00  0.00     0.251 C 
ATOM     40  H   UNL A   1      40.315  21.717  25.524  1.00  0.00     0.163 HD
ATOM     41  O   UNL A   1      38.245  22.846  26.115  1.00  0.00    -0.269 OA
BRANCH  39  42
ATOM     42  C   UNL A   1      39.534  24.558  27.065  1.00  0.00     0.039 A 
ATOM     43  C   UNL A   1      39.072  24.712  28.375  1.00  0.00     0.014 A 
ATOM     44  C   UNL A   1      40.162  25.619  26.408  1.00  0.00     0.014 A 
ATOM     45  C   UNL A   1      39.315  25.908  29.054  1.00  0.00     0.010 A 
ATOM     46  C   UNL A   1      40.469  26.780  27.110  1.00  0.00     0.010 A 
ATOM     47  C   UNL A   1      40.056  26.932  28.443  1.00  0.00    -0.014 A 
BRANCH  47  48
ATOM     48  C   UNL A   1      40.439  28.159  29.185  1.00  0.00     0.031 A 
ATOM     49  C   UNL A   1      41.802  28.274  29.807  1.00  0.00     0.074 A 
ATOM     50  C   UNL A   1      39.529  29.135  29.368  1.00  0.00     0.049 A 
ATOM     51  N   UNL A   1      42.292  29.227  30.559  1.00  0.00    -0.248 NA
ATOM     52  C   UNL A   1      42.727  27.156  29.573  1.00  0.00     0.031 C 
ATOM     53  C   UNL A   1      38.164  29.125  28.843  1.00  0.00     0.029 A 
ATOM     54  N   UNL A   1      39.611  30.320  30.055  1.00  0.00    -0.354 N 
ATOM     55  C   UNL A   1      43.575  28.819  30.896  1.00  0.00     0.074 A 
ATOM     56  C   UNL A   1      43.765  27.506  30.316  1.00  0.00     0.031 C 
ATOM     57  C   UNL A   1      37.547  30.262  29.197  1.00  0.00     0.029 A 
ATOM     58  C   UNL A   1      38.455  31.060  30.017  1.00  0.00     0.049 A 
ATOM     59  H   UNL A   1      40.423  30.612  30.530  1.00  0.00     0.167 HD
ATOM     60  C   UNL A   1      44.516  29.487  31.607  1.00  0.00     0.037 A 
ATOM     61  C   UNL A   1      38.158  32.243  30.587  1.00  0.00     0.037 A 
ATOM     62  C   UNL A   1      44.320  30.796  32.175  1.00  0.00     0.049 A 
ATOM     63  C   UNL A   1      39.200  32.938  31.420  1.00  0.00     0.074 A 
ATOM     64  C   UNL A   1      45.227  31.583  32.861  1.00  0.00     0.029 A 
ATOM     65  N   UNL A   1      43.127  31.504  32.136  1.00  0.00    -0.354 N 
ATOM     66  N   UNL A   1      40.435  32.578  31.672  1.00  0.00    -0.248 NA
ATOM     67  C   UNL A   1      38.803  34.204  32.051  1.00  0.00     0.031 C 
ATOM     68  C   UNL A   1      44.566  32.736  33.295  1.00  0.00     0.029 A 
ATOM     69  C   UNL A   1      43.263  32.700  32.823  1.00  0.00     0.049 A 
ATOM     70  H   UNL A   1      42.305  31.201  31.687  1.00  0.00     0.167 HD
ATOM     71  C   UNL A   1      40.973  33.587  32.460  1.00  0.00     0.074 A 
ATOM     72  C   UNL A   1      39.932  34.578  32.637  1.00  0.00     0.031 C 
ATOM     73  C   UNL A   1      42.219  33.682  32.988  1.00  0.00     0.037 A 
BRANCH  60  74
ATOM     74  C   UNL A   1      45.836  28.800  31.822  1.00  0.00     0.064 A 
ATOM     75  C   UNL A   1      46.972  29.123  31.063  1.00  0.00     0.173 A 
ATOM     76  C   UNL A   1      45.969  27.808  32.806  1.00  0.00     0.173 A 
ATOM     77  F   UNL A   1      46.900  30.057  30.103  1.00  0.00    -0.203 F 
ATOM     78  C   UNL A   1      48.175  28.447  31.246  1.00  0.00     0.198 A 
ATOM     79  C   UNL A   1      47.185  27.160  33.013  1.00  0.00     0.198 A 
ATOM     80  F   UNL A   1      44.921  27.463  33.567  1.00  0.00    -0.203 F 
ATOM     81  F   UNL A   1      49.224  28.724  30.460  1.00  0.00    -0.200 F 
ATOM     82  C   UNL A   1      48.283  27.470  32.225  1.00  0.00     0.200 A 
ATOM     83  F   UNL A   1      47.290  26.227  33.970  1.00  0.00    -0.200 F 
ATOM     84  F   UNL A   1      49.440  26.818  32.399  1.00  0.00    -0.200 F 
ENDBRANCH  60  74
BRANCH  61  85
ATOM     85  C   UNL A   1      36.825  32.861  30.362  1.00  0.00     0.064 A 
ATOM     86  C   UNL A   1      35.846  32.828  31.365  1.00  0.00     0.173 A 
ATOM     87  C   UNL A   1      36.501  33.496  29.155  1.00  0.00     0.173 A 
ATOM     88  F   UNL A   1      36.102  32.213  32.529  1.00  0.00    -0.203 F 
ATOM     89  C   UNL A   1      34.588  33.392  31.163  1.00  0.00     0.198 A 
ATOM     90  C   UNL A   1      35.253  34.087  28.965  1.00  0.00     0.198 A 
ATOM     91  F   UNL A   1      37.403  33.559  28.164  1.00  0.00    -0.203 F 
ATOM     92  F   UNL A   1      33.658  33.309  32.123  1.00  0.00    -0.200 F 
ATOM     93  C   UNL A   1      34.295  34.028  29.966  1.00  0.00     0.200 A 
ATOM     94  F   UNL A   1      34.979  34.714  27.812  1.00  0.00    -0.200 F 
ATOM     95  F   UNL A   1      33.089  34.578  29.775  1.00  0.00    -0.200 F 
ENDBRANCH  61  85
BRANCH  73  96
ATOM     96  C   UNL A   1      42.541  34.918  33.780  1.00  0.00     0.064 A 
ATOM     97  C   UNL A   1      42.391  34.963  35.174  1.00  0.00     0.173 A 
ATOM     98  C   UNL A   1      43.051  36.058  33.138  1.00  0.00     0.173 A 
ATOM     99  F   UNL A   1      41.892  33.907  35.834  1.00  0.00    -0.203 F 
ATOM    100  C   UNL A   1      42.717  36.110  35.893  1.00  0.00     0.198 A 
ATOM    101  C   UNL A   1      43.408  37.191  33.865  1.00  0.00     0.198 A 
ATOM    102  F   UNL A   1      43.218  36.068  31.808  1.00  0.00    -0.203 F 
ATOM    103  F   UNL A   1      42.519  36.147  37.218  1.00  0.00    -0.200 F 
ATOM    104  C   UNL A   1      43.235  37.219  35.239  1.00  0.00     0.200 A 
ATOM    105  F   UNL A   1      43.923  38.255  33.233  1.00  0.00    -0.200 F 
ATOM    106  F   UNL A   1      43.561  38.318  35.934  1.00  0.00    -0.200 F 
ENDBRANCH  73  96
ENDBRANCH  47  48
ENDBRANCH  39  42
ENDBRANCH  37  38
ENDBRANCH  36  37
ENDBRANCH  35  36
ENDBRANCH  34  35
ENDBRANCH   1  34
TORSDOF 18
ENDMDL
