MODEL 1
REMARK VINA RESULT:     -12.8      0.000      0.000
REMARK SMILES O=C(NCCCCCCNC(=O)c1c(C(=O)N2CCc3ccccc32)cccc1[N+](=O)[O-])c1ccc(-c2c3nc(c(-c4c(F)c(F)c(F)c(F)c4F)c4ccc([nH]4)c(-c4c(F)c(F)c(F)c(F)c4F)c4nc(c(-c5c(F)c(F)c(F)c(F)c5F)c5ccc2[nH]5)C=C4)C=C3)cc1
REMARK SMILES IDX 6 1 5 2 4 3 3 4 1 5 2 6 33 8 34 9 95 10 35 11 94 12 36 13
REMARK SMILES IDX 37 14 38 15 88 16 39 17 93 18 87 19 89 20 40 21 92 22 86 23
REMARK SMILES IDX 85 24 41 26 73 27 53 28 72 29 54 30 57 31 71 32 90 33 55 34
REMARK SMILES IDX 56 35 70 37 91 38 58 39 42 40 43 41 51 42 44 43 45 44 49 45
REMARK SMILES IDX 52 46 46 47 47 48 50 49 48 50 74 51 75 52 83 53 76 54 77 55
REMARK SMILES IDX 81 56 84 57 78 58 79 59 82 60 80 61 59 62 60 63 68 64 61 65
REMARK SMILES IDX 62 66 66 67 69 68 63 69 64 70 67 71 65 72 7 73 8 74 9 75
REMARK SMILES IDX 10 76 11 77 12 79 13 80 14 81 29 82 26 83 28 84 27 85 15 86
REMARK SMILES IDX 16 87 17 88 18 89 25 90 19 91 20 92 24 93 21 94 23 95 22 96
REMARK SMILES IDX 30 97 31 98 32 99
REMARK H PARENT 3 7 89 25 57 36 10 78
REMARK Flexibility Score: inf
ROOT
ATOM      1  C   UNL A   1      31.595  30.526  26.710  1.00  0.00     0.002 C 
ENDROOT
BRANCH   1   2
ATOM      2  C   UNL A   1      31.434  32.045  26.732  1.00  0.00     0.021 C 
BRANCH   2   3
ATOM      3  C   UNL A   1      32.665  32.837  27.154  1.00  0.00     0.116 C 
BRANCH   3   4
ATOM      4  N   UNL A   1      32.370  34.177  27.635  1.00  0.00    -0.352 N 
ATOM      5  O   UNL A   1      32.559  35.994  28.965  1.00  0.00    -0.269 OA
ATOM      6  C   UNL A   1      32.994  34.905  28.626  1.00  0.00     0.251 C 
ATOM      7  H   UNL A   1      31.617  34.630  27.188  1.00  0.00     0.163 HD
BRANCH   6   8
ATOM      8  C   UNL A   1      34.185  34.341  29.307  1.00  0.00     0.039 A 
ATOM      9  C   UNL A   1      35.468  34.627  28.844  1.00  0.00     0.014 A 
ATOM     10  C   UNL A   1      34.012  33.503  30.415  1.00  0.00     0.014 A 
ATOM     11  C   UNL A   1      36.559  33.947  29.371  1.00  0.00     0.010 A 
ATOM     12  C   UNL A   1      35.125  32.899  31.014  1.00  0.00     0.010 A 
ATOM     13  C   UNL A   1      36.406  33.090  30.475  1.00  0.00    -0.014 A 
BRANCH  13  14
ATOM     14  C   UNL A   1      37.624  32.480  31.071  1.00  0.00     0.031 A 
ATOM     15  C   UNL A   1      38.100  32.842  32.450  1.00  0.00     0.074 A 
ATOM     16  C   UNL A   1      38.260  31.522  30.366  1.00  0.00     0.049 A 
ATOM     17  N   UNL A   1      39.091  32.328  33.138  1.00  0.00    -0.248 NA
ATOM     18  C   UNL A   1      37.385  33.920  33.147  1.00  0.00     0.031 C 
ATOM     19  C   UNL A   1      37.904  31.109  29.006  1.00  0.00     0.029 A 
ATOM     20  N   UNL A   1      39.306  30.701  30.699  1.00  0.00    -0.354 N 
ATOM     21  C   UNL A   1      39.121  33.021  34.341  1.00  0.00     0.074 A 
ATOM     22  C   UNL A   1      38.072  34.017  34.278  1.00  0.00     0.031 C 
ATOM     23  C   UNL A   1      38.672  30.072  28.646  1.00  0.00     0.029 A 
ATOM     24  C   UNL A   1      39.618  29.790  29.719  1.00  0.00     0.049 A 
ATOM     25  H   UNL A   1      39.787  30.759  31.556  1.00  0.00     0.167 HD
ATOM     26  C   UNL A   1      39.944  32.834  35.403  1.00  0.00     0.037 A 
ATOM     27  C   UNL A   1      40.567  28.838  29.680  1.00  0.00     0.037 A 
ATOM     28  C   UNL A   1      40.986  31.838  35.461  1.00  0.00     0.049 A 
ATOM     29  C   UNL A   1      41.461  28.657  30.872  1.00  0.00     0.074 A 
ATOM     30  C   UNL A   1      41.866  31.567  36.495  1.00  0.00     0.029 A 
ATOM     31  N   UNL A   1      41.289  30.950  34.438  1.00  0.00    -0.354 N 
ATOM     32  N   UNL A   1      41.459  29.301  32.012  1.00  0.00    -0.248 NA
ATOM     33  C   UNL A   1      42.490  27.614  30.771  1.00  0.00     0.031 C 
ATOM     34  C   UNL A   1      42.725  30.542  36.084  1.00  0.00     0.029 A 
ATOM     35  C   UNL A   1      42.351  30.139  34.813  1.00  0.00     0.049 A 
ATOM     36  H   UNL A   1      40.820  30.903  33.574  1.00  0.00     0.167 HD
ATOM     37  C   UNL A   1      42.480  28.746  32.766  1.00  0.00     0.074 A 
ATOM     38  C   UNL A   1      43.053  27.680  31.968  1.00  0.00     0.031 C 
ATOM     39  C   UNL A   1      42.915  29.092  34.001  1.00  0.00     0.037 A 
BRANCH  26  40
ATOM     40  C   UNL A   1      39.758  33.725  36.600  1.00  0.00     0.064 A 
ATOM     41  C   UNL A   1      40.373  34.983  36.680  1.00  0.00     0.173 A 
ATOM     42  C   UNL A   1      38.900  33.348  37.644  1.00  0.00     0.173 A 
ATOM     43  F   UNL A   1      41.208  35.390  35.711  1.00  0.00    -0.203 F 
ATOM     44  C   UNL A   1      40.147  35.824  37.767  1.00  0.00     0.198 A 
ATOM     45  C   UNL A   1      38.656  34.202  38.718  1.00  0.00     0.198 A 
ATOM     46  F   UNL A   1      38.280  32.159  37.615  1.00  0.00    -0.203 F 
ATOM     47  F   UNL A   1      40.770  37.009  37.836  1.00  0.00    -0.200 F 
ATOM     48  C   UNL A   1      39.282  35.438  38.781  1.00  0.00     0.200 A 
ATOM     49  F   UNL A   1      37.810  33.832  39.688  1.00  0.00    -0.200 F 
ATOM     50  F   UNL A   1      39.054  36.254  39.818  1.00  0.00    -0.200 F 
ENDBRANCH  26  40
BRANCH  27  51
ATOM     51  C   UNL A   1      40.723  27.999  28.463  1.00  0.00     0.064 A 
ATOM     52  C   UNL A   1      40.097  26.751  28.353  1.00  0.00     0.173 A 
ATOM     53  C   UNL A   1      41.501  28.437  27.380  1.00  0.00     0.173 A 
ATOM     54  F   UNL A   1      39.356  26.282  29.368  1.00  0.00    -0.203 F 
ATOM     55  C   UNL A   1      40.261  25.962  27.216  1.00  0.00     0.198 A 
ATOM     56  C   UNL A   1      41.635  27.664  26.230  1.00  0.00     0.198 A 
ATOM     57  F   UNL A   1      42.114  29.629  27.431  1.00  0.00    -0.203 F 
ATOM     58  F   UNL A   1      39.691  24.751  27.157  1.00  0.00    -0.200 F 
ATOM     59  C   UNL A   1      41.023  26.423  26.153  1.00  0.00     0.200 A 
ATOM     60  F   UNL A   1      42.354  28.124  25.197  1.00  0.00    -0.200 F 
ATOM     61  F   UNL A   1      41.173  25.667  25.057  1.00  0.00    -0.200 F 
ENDBRANCH  27  51
BRANCH  39  62
ATOM     62  C   UNL A   1      44.061  28.299  34.559  1.00  0.00     0.064 A 
ATOM     63  C   UNL A   1      45.393  28.678  34.334  1.00  0.00     0.173 A 
ATOM     64  C   UNL A   1      43.826  27.146  35.323  1.00  0.00     0.173 A 
ATOM     65  F   UNL A   1      45.670  29.764  33.594  1.00  0.00    -0.203 F 
ATOM     66  C   UNL A   1      46.448  27.910  34.818  1.00  0.00     0.198 A 
ATOM     67  C   UNL A   1      44.883  26.397  35.832  1.00  0.00     0.198 A 
ATOM     68  F   UNL A   1      42.571  26.743  35.572  1.00  0.00    -0.203 F 
ATOM     69  F   UNL A   1      47.712  28.255  34.534  1.00  0.00    -0.200 F 
ATOM     70  C   UNL A   1      46.192  26.773  35.570  1.00  0.00     0.200 A 
ATOM     71  F   UNL A   1      44.635  25.304  36.566  1.00  0.00    -0.200 F 
ATOM     72  F   UNL A   1      47.208  26.030  36.030  1.00  0.00    -0.200 F 
ENDBRANCH  39  62
ENDBRANCH  13  14
ENDBRANCH   6   8
ENDBRANCH   3   4
ENDBRANCH   2   3
ENDBRANCH   1   2
BRANCH   1  73
ATOM     73  C   UNL A   1      32.457  29.950  25.582  1.00  0.00     0.002 C 
BRANCH  73  74
ATOM     74  C   UNL A   1      33.729  29.200  25.998  1.00  0.00     0.021 C 
BRANCH  74  75
ATOM     75  C   UNL A   1      33.522  27.842  26.667  1.00  0.00     0.116 C 
BRANCH  75  76
ATOM     76  N   UNL A   1      34.064  26.719  25.913  1.00  0.00    -0.352 N 
ATOM     77  C   UNL A   1      33.617  26.086  24.772  1.00  0.00     0.259 C 
ATOM     78  H   UNL A   1      34.896  26.346  26.283  1.00  0.00     0.163 HD
ATOM     79  O   UNL A   1      34.269  25.157  24.311  1.00  0.00    -0.269 OA
BRANCH  77  80
ATOM     80  C   UNL A   1      32.338  26.469  24.144  1.00  0.00     0.130 A 
ATOM     81  C   UNL A   1      31.113  26.038  24.682  1.00  0.00     0.060 A 
ATOM     82  C   UNL A   1      32.299  27.273  22.994  1.00  0.00     0.282 A 
ATOM     83  C   UNL A   1      29.908  26.526  24.137  1.00  0.00     0.015 A 
ATOM     84  C   UNL A   1      31.101  27.804  22.493  1.00  0.00     0.086 A 
ATOM     85  C   UNL A   1      29.902  27.451  23.094  1.00  0.00     0.008 A 
BRANCH  81  86
ATOM     86  C   UNL A   1      31.003  24.978  25.733  1.00  0.00     0.259 C 
ATOM     87  O   UNL A   1      30.895  25.328  26.904  1.00  0.00    -0.269 OA
BRANCH  86  88
ATOM     88  N   UNL A   1      31.203  23.668  25.330  1.00  0.00    -0.308 N 
ATOM     89  C   UNL A   1      31.068  23.232  23.933  1.00  0.00     0.131 C 
ATOM     90  C   UNL A   1      32.159  22.853  25.947  1.00  0.00     0.047 A 
ATOM     91  C   UNL A   1      32.246  22.283  23.645  1.00  0.00     0.059 C 
ATOM     92  C   UNL A   1      32.886  22.159  24.991  1.00  0.00    -0.022 A 
ATOM     93  C   UNL A   1      32.472  22.810  27.294  1.00  0.00     0.026 A 
ATOM     94  C   UNL A   1      34.076  21.549  25.345  1.00  0.00     0.006 A 
ATOM     95  C   UNL A   1      33.651  22.170  27.666  1.00  0.00     0.002 A 
ATOM     96  C   UNL A   1      34.470  21.584  26.688  1.00  0.00     0.000 A 
ENDBRANCH  86  88
ENDBRANCH  81  86
BRANCH  82  97
ATOM     97  N   UNL A   1      33.500  27.508  22.211  1.00  0.00     0.063 N 
ATOM     98  O   UNL A   1      33.794  26.647  21.369  1.00  0.00    -0.258 OA
ATOM     99  O   UNL A   1      34.154  28.528  22.451  1.00  0.00    -0.258 OA
ENDBRANCH  82  97
ENDBRANCH  77  80
ENDBRANCH  75  76
ENDBRANCH  74  75
ENDBRANCH  73  74
ENDBRANCH   1  73
TORSDOF 16
ENDMDL
MODEL 2
REMARK VINA RESULT:     -12.6      1.035      1.967
REMARK SMILES O=C(NCCCCCCNC(=O)c1c(C(=O)N2CCc3ccccc32)cccc1[N+](=O)[O-])c1ccc(-c2c3nc(c(-c4c(F)c(F)c(F)c(F)c4F)c4ccc([nH]4)c(-c4c(F)c(F)c(F)c(F)c4F)c4nc(c(-c5c(F)c(F)c(F)c(F)c5F)c5ccc2[nH]5)C=C4)C=C3)cc1
REMARK SMILES IDX 6 1 5 2 4 3 3 4 1 5 2 6 33 8 34 9 95 10 35 11 94 12 36 13
REMARK SMILES IDX 37 14 38 15 88 16 39 17 93 18 87 19 89 20 40 21 92 22 86 23
REMARK SMILES IDX 85 24 41 26 73 27 53 28 72 29 54 30 57 31 71 32 90 33 55 34
REMARK SMILES IDX 56 35 70 37 91 38 58 39 42 40 43 41 51 42 44 43 45 44 49 45
REMARK SMILES IDX 52 46 46 47 47 48 50 49 48 50 74 51 75 52 83 53 76 54 77 55
REMARK SMILES IDX 81 56 84 57 78 58 79 59 82 60 80 61 59 62 60 63 68 64 61 65
REMARK SMILES IDX 62 66 66 67 69 68 63 69 64 70 67 71 65 72 7 73 8 74 9 75
REMARK SMILES IDX 10 76 11 77 12 79 13 80 14 81 29 82 26 83 28 84 27 85 15 86
REMARK SMILES IDX 16 87 17 88 18 89 25 90 19 91 20 92 24 93 21 94 23 95 22 96
REMARK SMILES IDX 30 97 31 98 32 99
REMARK H PARENT 3 7 89 25 57 36 10 78
REMARK Flexibility Score: inf
ROOT
ATOM      1  C   UNL A   1      32.149  30.491  26.980  1.00  0.00     0.002 C 
ENDROOT
BRANCH   1   2
ATOM      2  C   UNL A   1      31.717  31.955  26.920  1.00  0.00     0.021 C 
BRANCH   2   3
ATOM      3  C   UNL A   1      32.838  32.983  27.015  1.00  0.00     0.116 C 
BRANCH   3   4
ATOM      4  N   UNL A   1      32.437  34.238  27.629  1.00  0.00    -0.352 N 
ATOM      5  O   UNL A   1      32.456  35.897  29.164  1.00  0.00    -0.269 OA
ATOM      6  C   UNL A   1      32.973  34.882  28.726  1.00  0.00     0.251 C 
ATOM      7  H   UNL A   1      31.676  34.694  27.202  1.00  0.00     0.163 HD
BRANCH   6   8
ATOM      8  C   UNL A   1      34.170  34.314  29.394  1.00  0.00     0.039 A 
ATOM      9  C   UNL A   1      35.450  34.702  29.005  1.00  0.00     0.014 A 
ATOM     10  C   UNL A   1      34.005  33.371  30.414  1.00  0.00     0.014 A 
ATOM     11  C   UNL A   1      36.557  34.029  29.506  1.00  0.00     0.010 A 
ATOM     12  C   UNL A   1      35.128  32.767  30.996  1.00  0.00     0.010 A 
ATOM     13  C   UNL A   1      36.413  33.067  30.522  1.00  0.00    -0.014 A 
BRANCH  13  14
ATOM     14  C   UNL A   1      37.641  32.463  31.102  1.00  0.00     0.031 A 
ATOM     15  C   UNL A   1      38.137  32.833  32.473  1.00  0.00     0.074 A 
ATOM     16  C   UNL A   1      38.270  31.504  30.393  1.00  0.00     0.049 A 
ATOM     17  N   UNL A   1      39.139  32.325  33.149  1.00  0.00    -0.248 NA
ATOM     18  C   UNL A   1      37.429  33.913  33.174  1.00  0.00     0.031 C 
ATOM     19  C   UNL A   1      37.895  31.083  29.040  1.00  0.00     0.029 A 
ATOM     20  N   UNL A   1      39.322  30.686  30.714  1.00  0.00    -0.354 N 
ATOM     21  C   UNL A   1      39.186  33.025  34.348  1.00  0.00     0.074 A 
ATOM     22  C   UNL A   1      38.133  34.017  34.295  1.00  0.00     0.031 C 
ATOM     23  C   UNL A   1      38.659  30.045  28.674  1.00  0.00     0.029 A 
ATOM     24  C   UNL A   1      39.622  29.771  29.735  1.00  0.00     0.049 A 
ATOM     25  H   UNL A   1      39.816  30.750  31.564  1.00  0.00     0.167 HD
ATOM     26  C   UNL A   1      40.025  32.845  35.398  1.00  0.00     0.037 A 
ATOM     27  C   UNL A   1      40.573  28.821  29.687  1.00  0.00     0.037 A 
ATOM     28  C   UNL A   1      41.070  31.852  35.445  1.00  0.00     0.049 A 
ATOM     29  C   UNL A   1      41.485  28.649  30.866  1.00  0.00     0.074 A 
ATOM     30  C   UNL A   1      41.965  31.588  36.468  1.00  0.00     0.029 A 
ATOM     31  N   UNL A   1      41.360  30.959  34.423  1.00  0.00    -0.354 N 
ATOM     32  N   UNL A   1      41.498  29.299  32.002  1.00  0.00    -0.248 NA
ATOM     33  C   UNL A   1      42.515  27.608  30.755  1.00  0.00     0.031 C 
ATOM     34  C   UNL A   1      42.821  30.563  36.049  1.00  0.00     0.029 A 
ATOM     35  C   UNL A   1      42.429  30.153  34.786  1.00  0.00     0.049 A 
ATOM     36  H   UNL A   1      40.879  30.906  33.566  1.00  0.00     0.167 HD
ATOM     37  C   UNL A   1      42.532  28.749  32.744  1.00  0.00     0.074 A 
ATOM     38  C   UNL A   1      43.096  27.681  31.943  1.00  0.00     0.031 C 
ATOM     39  C   UNL A   1      42.984  29.103  33.971  1.00  0.00     0.037 A 
BRANCH  26  40
ATOM     40  C   UNL A   1      39.854  33.741  36.593  1.00  0.00     0.064 A 
ATOM     41  C   UNL A   1      40.496  34.986  36.673  1.00  0.00     0.173 A 
ATOM     42  C   UNL A   1      38.985  33.385  37.635  1.00  0.00     0.173 A 
ATOM     43  F   UNL A   1      41.343  35.373  35.707  1.00  0.00    -0.203 F 
ATOM     44  C   UNL A   1      40.285  35.833  37.758  1.00  0.00     0.198 A 
ATOM     45  C   UNL A   1      38.756  34.245  38.706  1.00  0.00     0.198 A 
ATOM     46  F   UNL A   1      38.339  32.209  37.605  1.00  0.00    -0.203 F 
ATOM     47  F   UNL A   1      40.933  37.005  37.827  1.00  0.00    -0.200 F 
ATOM     48  C   UNL A   1      39.409  35.467  38.770  1.00  0.00     0.200 A 
ATOM     49  F   UNL A   1      37.898  33.895  39.675  1.00  0.00    -0.200 F 
ATOM     50  F   UNL A   1      39.195  36.290  39.805  1.00  0.00    -0.200 F 
ENDBRANCH  26  40
BRANCH  27  51
ATOM     51  C   UNL A   1      40.713  27.977  28.471  1.00  0.00     0.064 A 
ATOM     52  C   UNL A   1      40.081  26.731  28.374  1.00  0.00     0.173 A 
ATOM     53  C   UNL A   1      41.481  28.407  27.379  1.00  0.00     0.173 A 
ATOM     54  F   UNL A   1      39.349  26.269  29.398  1.00  0.00    -0.203 F 
ATOM     55  C   UNL A   1      40.230  25.937  27.238  1.00  0.00     0.198 A 
ATOM     56  C   UNL A   1      41.600  27.629  26.230  1.00  0.00     0.198 A 
ATOM     57  F   UNL A   1      42.099  29.597  27.418  1.00  0.00    -0.203 F 
ATOM     58  F   UNL A   1      39.655  24.727  27.190  1.00  0.00    -0.200 F 
ATOM     59  C   UNL A   1      40.983  26.390  26.165  1.00  0.00     0.200 A 
ATOM     60  F   UNL A   1      42.310  28.081  25.188  1.00  0.00    -0.200 F 
ATOM     61  F   UNL A   1      41.119  25.629  25.071  1.00  0.00    -0.200 F 
ENDBRANCH  27  51
BRANCH  39  62
ATOM     62  C   UNL A   1      44.140  28.316  34.516  1.00  0.00     0.064 A 
ATOM     63  C   UNL A   1      43.943  27.141  35.256  1.00  0.00     0.173 A 
ATOM     64  C   UNL A   1      45.459  28.743  34.298  1.00  0.00     0.173 A 
ATOM     65  F   UNL A   1      42.700  26.701  35.507  1.00  0.00    -0.203 F 
ATOM     66  C   UNL A   1      45.022  26.444  35.795  1.00  0.00     0.198 A 
ATOM     67  C   UNL A   1      46.537  28.027  34.812  1.00  0.00     0.198 A 
ATOM     68  F   UNL A   1      45.702  29.857  33.593  1.00  0.00    -0.203 F 
ATOM     69  F   UNL A   1      44.805  25.361  36.555  1.00  0.00    -0.200 F 
ATOM     70  C   UNL A   1      46.316  26.886  35.569  1.00  0.00     0.200 A 
ATOM     71  F   UNL A   1      47.788  28.448  34.585  1.00  0.00    -0.200 F 
ATOM     72  F   UNL A   1      47.354  26.218  36.092  1.00  0.00    -0.200 F 
ENDBRANCH  39  62
ENDBRANCH  13  14
ENDBRANCH   6   8
ENDBRANCH   3   4
ENDBRANCH   2   3
ENDBRANCH   1   2
BRANCH   1  73
ATOM     73  C   UNL A   1      33.584  30.224  27.445  1.00  0.00     0.002 C 
BRANCH  73  74
ATOM     74  C   UNL A   1      34.359  29.127  26.705  1.00  0.00     0.021 C 
BRANCH  74  75
ATOM     75  C   UNL A   1      33.550  28.271  25.732  1.00  0.00     0.116 C 
BRANCH  75  76
ATOM     76  N   UNL A   1      33.841  28.532  24.328  1.00  0.00    -0.352 N 
ATOM     77  C   UNL A   1      33.182  28.159  23.175  1.00  0.00     0.259 C 
ATOM     78  H   UNL A   1      34.653  29.069  24.174  1.00  0.00     0.163 HD
ATOM     79  O   UNL A   1      33.623  28.523  22.092  1.00  0.00    -0.269 OA
BRANCH  77  80
ATOM     80  C   UNL A   1      31.998  27.280  23.230  1.00  0.00     0.130 A 
ATOM     81  C   UNL A   1      32.137  25.882  23.188  1.00  0.00     0.060 A 
ATOM     82  C   UNL A   1      30.701  27.805  23.324  1.00  0.00     0.282 A 
ATOM     83  C   UNL A   1      31.000  25.069  23.372  1.00  0.00     0.015 A 
ATOM     84  C   UNL A   1      29.581  26.994  23.567  1.00  0.00     0.086 A 
ATOM     85  C   UNL A   1      29.744  25.618  23.624  1.00  0.00     0.008 A 
BRANCH  81  86
ATOM     86  C   UNL A   1      33.415  25.191  22.830  1.00  0.00     0.259 C 
ATOM     87  O   UNL A   1      33.791  25.230  21.663  1.00  0.00    -0.269 OA
BRANCH  86  88
ATOM     88  N   UNL A   1      34.003  24.406  23.809  1.00  0.00    -0.308 N 
ATOM     89  C   UNL A   1      34.528  24.955  25.065  1.00  0.00     0.131 C 
ATOM     90  C   UNL A   1      33.562  23.100  24.057  1.00  0.00     0.047 A 
ATOM     91  C   UNL A   1      34.091  23.998  26.189  1.00  0.00     0.059 C 
ATOM     92  C   UNL A   1      33.451  22.885  25.423  1.00  0.00    -0.022 A 
ATOM     93  C   UNL A   1      33.150  22.168  23.122  1.00  0.00     0.026 A 
ATOM     94  C   UNL A   1      32.739  21.794  25.889  1.00  0.00     0.006 A 
ATOM     95  C   UNL A   1      32.462  21.049  23.581  1.00  0.00     0.002 A 
ATOM     96  C   UNL A   1      32.218  20.890  24.955  1.00  0.00     0.000 A 
ENDBRANCH  86  88
ENDBRANCH  81  86
BRANCH  82  97
ATOM     97  N   UNL A   1      30.448  29.213  23.072  1.00  0.00     0.063 N 
ATOM     98  O   UNL A   1      30.339  29.556  21.885  1.00  0.00    -0.258 OA
ATOM     99  O   UNL A   1      30.384  29.970  24.045  1.00  0.00    -0.258 OA
ENDBRANCH  82  97
ENDBRANCH  77  80
ENDBRANCH  75  76
ENDBRANCH  74  75
ENDBRANCH  73  74
ENDBRANCH   1  73
TORSDOF 16
ENDMDL
MODEL 3
REMARK VINA RESULT:     -12.6      5.198     10.677
REMARK SMILES O=C(NCCCCCCNC(=O)c1c(C(=O)N2CCc3ccccc32)cccc1[N+](=O)[O-])c1ccc(-c2c3nc(c(-c4c(F)c(F)c(F)c(F)c4F)c4ccc([nH]4)c(-c4c(F)c(F)c(F)c(F)c4F)c4nc(c(-c5c(F)c(F)c(F)c(F)c5F)c5ccc2[nH]5)C=C4)C=C3)cc1
REMARK SMILES IDX 6 1 5 2 4 3 3 4 1 5 2 6 33 8 34 9 95 10 35 11 94 12 36 13
REMARK SMILES IDX 37 14 38 15 88 16 39 17 93 18 87 19 89 20 40 21 92 22 86 23
REMARK SMILES IDX 85 24 41 26 73 27 53 28 72 29 54 30 57 31 71 32 90 33 55 34
REMARK SMILES IDX 56 35 70 37 91 38 58 39 42 40 43 41 51 42 44 43 45 44 49 45
REMARK SMILES IDX 52 46 46 47 47 48 50 49 48 50 74 51 75 52 83 53 76 54 77 55
REMARK SMILES IDX 81 56 84 57 78 58 79 59 82 60 80 61 59 62 60 63 68 64 61 65
REMARK SMILES IDX 62 66 66 67 69 68 63 69 64 70 67 71 65 72 7 73 8 74 9 75
REMARK SMILES IDX 10 76 11 77 12 79 13 80 14 81 29 82 26 83 28 84 27 85 15 86
REMARK SMILES IDX 16 87 17 88 18 89 25 90 19 91 20 92 24 93 21 94 23 95 22 96
REMARK SMILES IDX 30 97 31 98 32 99
REMARK H PARENT 3 7 89 25 57 36 10 78
REMARK Flexibility Score: inf
ROOT
ATOM      1  C   UNL A   1      37.733  21.337  24.823  1.00  0.00     0.002 C 
ENDROOT
BRANCH   1   2
ATOM      2  C   UNL A   1      38.426  19.976  24.852  1.00  0.00     0.021 C 
BRANCH   2   3
ATOM      3  C   UNL A   1      39.195  19.649  26.126  1.00  0.00     0.116 C 
BRANCH   3   4
ATOM      4  N   UNL A   1      40.381  18.838  25.908  1.00  0.00    -0.352 N 
ATOM      5  O   UNL A   1      42.586  18.409  25.661  1.00  0.00    -0.269 OA
ATOM      6  C   UNL A   1      41.710  19.205  25.957  1.00  0.00     0.251 C 
ATOM      7  H   UNL A   1      40.213  17.891  25.697  1.00  0.00     0.163 HD
BRANCH   6   8
ATOM      8  C   UNL A   1      42.070  20.592  26.342  1.00  0.00     0.039 A 
ATOM      9  C   UNL A   1      42.170  21.593  25.377  1.00  0.00     0.014 A 
ATOM     10  C   UNL A   1      42.324  20.889  27.685  1.00  0.00     0.014 A 
ATOM     11  C   UNL A   1      42.688  22.835  25.723  1.00  0.00     0.010 A 
ATOM     12  C   UNL A   1      42.746  22.175  28.050  1.00  0.00     0.010 A 
ATOM     13  C   UNL A   1      42.963  23.150  27.065  1.00  0.00    -0.014 A 
BRANCH  13  14
ATOM     14  C   UNL A   1      43.405  24.531  27.391  1.00  0.00     0.031 A 
ATOM     15  C   UNL A   1      44.789  25.021  27.067  1.00  0.00     0.074 A 
ATOM     16  C   UNL A   1      42.498  25.375  27.924  1.00  0.00     0.049 A 
ATOM     17  N   UNL A   1      45.289  26.225  27.207  1.00  0.00    -0.248 NA
ATOM     18  C   UNL A   1      45.738  24.039  26.524  1.00  0.00     0.031 C 
ATOM     19  C   UNL A   1      41.133  25.003  28.308  1.00  0.00     0.029 A 
ATOM     20  N   UNL A   1      42.566  26.716  28.202  1.00  0.00    -0.354 N 
ATOM     21  C   UNL A   1      46.607  26.144  26.778  1.00  0.00     0.074 A 
ATOM     22  C   UNL A   1      46.843  24.766  26.403  1.00  0.00     0.031 C 
ATOM     23  C   UNL A   1      40.474  26.099  28.708  1.00  0.00     0.029 A 
ATOM     24  C   UNL A   1      41.386  27.237  28.674  1.00  0.00     0.049 A 
ATOM     25  H   UNL A   1      43.381  27.253  28.076  1.00  0.00     0.167 HD
ATOM     26  C   UNL A   1      47.530  27.134  26.695  1.00  0.00     0.037 A 
ATOM     27  C   UNL A   1      41.071  28.489  29.051  1.00  0.00     0.037 A 
ATOM     28  C   UNL A   1      47.288  28.507  27.067  1.00  0.00     0.049 A 
ATOM     29  C   UNL A   1      42.115  29.561  28.947  1.00  0.00     0.074 A 
ATOM     30  C   UNL A   1      48.157  29.583  27.012  1.00  0.00     0.029 A 
ATOM     31  N   UNL A   1      46.087  28.991  27.566  1.00  0.00    -0.354 N 
ATOM     32  N   UNL A   1      43.347  29.474  28.512  1.00  0.00    -0.248 NA
ATOM     33  C   UNL A   1      41.723  30.907  29.385  1.00  0.00     0.031 C 
ATOM     34  C   UNL A   1      47.495  30.710  27.513  1.00  0.00     0.029 A 
ATOM     35  C   UNL A   1      46.197  30.348  27.835  1.00  0.00     0.049 A 
ATOM     36  H   UNL A   1      45.276  28.452  27.709  1.00  0.00     0.167 HD
ATOM     37  C   UNL A   1      43.880  30.749  28.622  1.00  0.00     0.074 A 
ATOM     38  C   UNL A   1      42.820  31.601  29.124  1.00  0.00     0.031 C 
ATOM     39  C   UNL A   1      45.135  31.177  28.345  1.00  0.00     0.037 A 
BRANCH  26  40
ATOM     40  C   UNL A   1      48.897  26.778  26.181  1.00  0.00     0.064 A 
ATOM     41  C   UNL A   1      49.252  26.980  24.839  1.00  0.00     0.173 A 
ATOM     42  C   UNL A   1      49.884  26.297  27.054  1.00  0.00     0.173 A 
ATOM     43  F   UNL A   1      48.344  27.432  23.961  1.00  0.00    -0.203 F 
ATOM     44  C   UNL A   1      50.540  26.701  24.388  1.00  0.00     0.198 A 
ATOM     45  C   UNL A   1      51.179  26.042  26.605  1.00  0.00     0.198 A 
ATOM     46  F   UNL A   1      49.602  26.092  28.350  1.00  0.00    -0.203 F 
ATOM     47  F   UNL A   1      50.847  26.874  23.095  1.00  0.00    -0.200 F 
ATOM     48  C   UNL A   1      51.505  26.241  25.272  1.00  0.00     0.200 A 
ATOM     49  F   UNL A   1      52.112  25.612  27.464  1.00  0.00    -0.200 F 
ATOM     50  F   UNL A   1      52.747  25.987  24.839  1.00  0.00    -0.200 F 
ENDBRANCH  26  40
BRANCH  27  51
ATOM     51  C   UNL A   1      39.710  28.782  29.573  1.00  0.00     0.064 A 
ATOM     52  C   UNL A   1      39.404  28.638  30.932  1.00  0.00     0.173 A 
ATOM     53  C   UNL A   1      38.688  29.219  28.717  1.00  0.00     0.173 A 
ATOM     54  F   UNL A   1      40.344  28.208  31.788  1.00  0.00    -0.203 F 
ATOM     55  C   UNL A   1      38.123  28.898  31.412  1.00  0.00     0.198 A 
ATOM     56  C   UNL A   1      37.416  29.513  29.203  1.00  0.00     0.198 A 
ATOM     57  F   UNL A   1      38.931  29.382  27.408  1.00  0.00    -0.203 F 
ATOM     58  F   UNL A   1      37.844  28.705  32.709  1.00  0.00    -0.200 F 
ATOM     59  C   UNL A   1      37.132  29.342  30.549  1.00  0.00     0.200 A 
ATOM     60  F   UNL A   1      36.470  29.963  28.368  1.00  0.00    -0.200 F 
ATOM     61  F   UNL A   1      35.902  29.600  31.013  1.00  0.00    -0.200 F 
ENDBRANCH  27  51
BRANCH  39  62
ATOM     62  C   UNL A   1      45.418  32.633  28.575  1.00  0.00     0.064 A 
ATOM     63  C   UNL A   1      45.184  33.591  27.578  1.00  0.00     0.173 A 
ATOM     64  C   UNL A   1      45.931  33.074  29.804  1.00  0.00     0.173 A 
ATOM     65  F   UNL A   1      44.710  33.217  26.379  1.00  0.00    -0.203 F 
ATOM     66  C   UNL A   1      45.492  34.933  27.788  1.00  0.00     0.198 A 
ATOM     67  C   UNL A   1      46.210  34.420  30.021  1.00  0.00     0.198 A 
ATOM     68  F   UNL A   1      46.168  32.199  30.792  1.00  0.00    -0.203 F 
ATOM     69  F   UNL A   1      45.322  35.820  26.798  1.00  0.00    -0.200 F 
ATOM     70  C   UNL A   1      46.001  35.346  29.010  1.00  0.00     0.200 A 
ATOM     71  F   UNL A   1      46.692  34.820  31.205  1.00  0.00    -0.200 F 
ATOM     72  F   UNL A   1      46.303  36.636  29.209  1.00  0.00    -0.200 F 
ENDBRANCH  39  62
ENDBRANCH  13  14
ENDBRANCH   6   8
ENDBRANCH   3   4
ENDBRANCH   2   3
ENDBRANCH   1   2
BRANCH   1  73
ATOM     73  C   UNL A   1      38.309  22.414  25.749  1.00  0.00     0.002 C 
BRANCH  73  74
ATOM     74  C   UNL A   1      37.379  23.573  26.124  1.00  0.00     0.021 C 
BRANCH  74  75
ATOM     75  C   UNL A   1      35.902  23.392  25.779  1.00  0.00     0.116 C 
BRANCH  75  76
ATOM     76  N   UNL A   1      35.104  22.825  26.858  1.00  0.00    -0.352 N 
ATOM     77  C   UNL A   1      33.844  22.265  26.864  1.00  0.00     0.259 C 
ATOM     78  H   UNL A   1      35.542  22.846  27.740  1.00  0.00     0.163 HD
ATOM     79  O   UNL A   1      33.387  21.836  27.917  1.00  0.00    -0.269 OA
BRANCH  77  80
ATOM     80  C   UNL A   1      33.021  22.238  25.639  1.00  0.00     0.130 A 
ATOM     81  C   UNL A   1      32.176  23.314  25.316  1.00  0.00     0.060 A 
ATOM     82  C   UNL A   1      33.052  21.145  24.761  1.00  0.00     0.282 A 
ATOM     83  C   UNL A   1      31.503  23.315  24.077  1.00  0.00     0.015 A 
ATOM     84  C   UNL A   1      32.429  21.177  23.504  1.00  0.00     0.086 A 
ATOM     85  C   UNL A   1      31.677  22.288  23.151  1.00  0.00     0.008 A 
BRANCH  81  86
ATOM     86  C   UNL A   1      31.842  24.416  26.271  1.00  0.00     0.259 C 
ATOM     87  O   UNL A   1      31.149  24.150  27.248  1.00  0.00    -0.269 OA
BRANCH  86  88
ATOM     88  N   UNL A   1      32.196  25.703  25.897  1.00  0.00    -0.308 N 
ATOM     89  C   UNL A   1      33.591  26.137  25.752  1.00  0.00     0.131 C 
ATOM     90  C   UNL A   1      31.416  26.440  24.999  1.00  0.00     0.047 A 
ATOM     91  C   UNL A   1      33.664  26.984  24.468  1.00  0.00     0.059 C 
ATOM     92  C   UNL A   1      32.227  27.065  24.063  1.00  0.00    -0.022 A 
ATOM     93  C   UNL A   1      30.036  26.468  24.921  1.00  0.00     0.026 A 
ATOM     94  C   UNL A   1      31.669  27.578  22.906  1.00  0.00     0.006 A 
ATOM     95  C   UNL A   1      29.461  27.011  23.776  1.00  0.00     0.002 A 
ATOM     96  C   UNL A   1      30.278  27.520  22.755  1.00  0.00     0.000 A 
ENDBRANCH  86  88
ENDBRANCH  81  86
BRANCH  82  97
ATOM     97  N   UNL A   1      33.653  19.885  25.163  1.00  0.00     0.063 N 
ATOM     98  O   UNL A   1      34.846  19.717  24.867  1.00  0.00    -0.258 OA
ATOM     99  O   UNL A   1      32.938  19.065  25.746  1.00  0.00    -0.258 OA
ENDBRANCH  82  97
ENDBRANCH  77  80
ENDBRANCH  75  76
ENDBRANCH  74  75
ENDBRANCH  73  74
ENDBRANCH   1  73
TORSDOF 16
ENDMDL
