MODEL 1
REMARK VINA RESULT:     -12.9      0.000      0.000
REMARK SMILES O=C(NCCCCCCNC(=O)c1ccc(Cl)cc1-c1ccc(C(F)(F)F)cc1)c1ccc(-c2c3nc(c(-c4c(F)c(F)c(F)c(F)c4F)c4ccc([nH]4)c(-c4c(F)c(F)c(F)c(F)c4F)c4nc(c(-c5c(F)c(F)c(F)c(F)c5F)c5ccc2[nH]5)C=C4)C=C3)cc1
REMARK SMILES IDX 6 1 5 2 4 3 3 4 1 5 2 6 30 8 31 9 92 10 32 11 91 12 33 13
REMARK SMILES IDX 34 14 35 15 85 16 36 17 90 18 84 19 86 20 37 21 89 22 83 23
REMARK SMILES IDX 82 24 38 26 70 27 50 28 69 29 51 30 54 31 68 32 87 33 52 34
REMARK SMILES IDX 53 35 67 37 88 38 55 39 39 40 40 41 48 42 41 43 42 44 46 45
REMARK SMILES IDX 49 46 43 47 44 48 47 49 45 50 71 51 72 52 80 53 73 54 74 55
REMARK SMILES IDX 78 56 81 57 75 58 76 59 79 60 77 61 56 62 57 63 65 64 58 65
REMARK SMILES IDX 59 66 63 67 66 68 60 69 61 70 64 71 62 72 7 73 8 74 9 75
REMARK SMILES IDX 10 76 11 77 12 79 13 80 14 81 19 82 15 83 18 84 16 85 17 86
REMARK SMILES IDX 20 87 21 88 29 89 22 90 28 91 23 92 24 93 25 94 26 95 27 96
REMARK H PARENT 3 7 86 25 54 36 10 78
REMARK Flexibility Score: inf
ROOT
ATOM      1  C   UNL A   1      31.356  30.953  25.803  1.00  0.00     0.002 C 
ENDROOT
BRANCH   1   2
ATOM      2  C   UNL A   1      31.216  32.296  26.521  1.00  0.00     0.021 C 
BRANCH   2   3
ATOM      3  C   UNL A   1      32.496  32.824  27.161  1.00  0.00     0.116 C 
BRANCH   3   4
ATOM      4  N   UNL A   1      32.357  34.194  27.628  1.00  0.00    -0.352 N 
ATOM      5  O   UNL A   1      32.646  35.954  29.006  1.00  0.00    -0.269 OA
ATOM      6  C   UNL A   1      33.023  34.845  28.632  1.00  0.00     0.251 C 
ATOM      7  H   UNL A   1      31.684  34.732  27.153  1.00  0.00     0.163 HD
BRANCH   6   8
ATOM      8  C   UNL A   1      34.188  34.213  29.285  1.00  0.00     0.039 A 
ATOM      9  C   UNL A   1      34.024  33.314  30.344  1.00  0.00     0.014 A 
ATOM     10  C   UNL A   1      35.466  34.499  28.798  1.00  0.00     0.014 A 
ATOM     11  C   UNL A   1      35.141  32.785  30.985  1.00  0.00     0.010 A 
ATOM     12  C   UNL A   1      36.583  33.915  29.399  1.00  0.00     0.010 A 
ATOM     13  C   UNL A   1      36.431  33.071  30.510  1.00  0.00    -0.014 A 
BRANCH  13  14
ATOM     14  C   UNL A   1      37.620  32.445  31.137  1.00  0.00     0.031 A 
ATOM     15  C   UNL A   1      38.315  31.292  30.477  1.00  0.00     0.074 A 
ATOM     16  C   UNL A   1      38.037  32.890  32.337  1.00  0.00     0.049 A 
ATOM     17  N   UNL A   1      39.297  30.550  30.923  1.00  0.00    -0.248 NA
ATOM     18  C   UNL A   1      37.836  30.915  29.139  1.00  0.00     0.031 C 
ATOM     19  C   UNL A   1      37.434  33.999  33.077  1.00  0.00     0.029 A 
ATOM     20  N   UNL A   1      39.048  32.452  33.154  1.00  0.00    -0.354 N 
ATOM     21  C   UNL A   1      39.537  29.604  29.937  1.00  0.00     0.074 A 
ATOM     22  C   UNL A   1      38.583  29.851  28.876  1.00  0.00     0.031 C 
ATOM     23  C   UNL A   1      38.084  34.153  34.240  1.00  0.00     0.029 A 
ATOM     24  C   UNL A   1      39.106  33.118  34.353  1.00  0.00     0.049 A 
ATOM     25  H   UNL A   1      39.672  31.732  32.904  1.00  0.00     0.167 HD
ATOM     26  C   UNL A   1      40.470  28.621  29.920  1.00  0.00     0.037 A 
ATOM     27  C   UNL A   1      39.867  32.896  35.440  1.00  0.00     0.037 A 
ATOM     28  C   UNL A   1      41.416  28.388  30.982  1.00  0.00     0.049 A 
ATOM     29  C   UNL A   1      40.870  31.778  35.418  1.00  0.00     0.074 A 
ATOM     30  C   UNL A   1      42.434  27.454  31.041  1.00  0.00     0.029 A 
ATOM     31  N   UNL A   1      41.449  29.090  32.180  1.00  0.00    -0.354 N 
ATOM     32  N   UNL A   1      41.122  30.917  34.462  1.00  0.00    -0.248 NA
ATOM     33  C   UNL A   1      41.694  31.600  36.621  1.00  0.00     0.031 C 
ATOM     34  C   UNL A   1      43.044  27.549  32.297  1.00  0.00     0.029 A 
ATOM     35  C   UNL A   1      42.449  28.587  32.996  1.00  0.00     0.049 A 
ATOM     36  H   UNL A   1      40.849  29.835  32.414  1.00  0.00     0.167 HD
ATOM     37  C   UNL A   1      42.148  30.112  34.935  1.00  0.00     0.074 A 
ATOM     38  C   UNL A   1      42.474  30.589  36.263  1.00  0.00     0.031 C 
ATOM     39  C   UNL A   1      42.768  29.076  34.316  1.00  0.00     0.037 A 
BRANCH  26  40
ATOM     40  C   UNL A   1      40.488  27.701  28.733  1.00  0.00     0.064 A 
ATOM     41  C   UNL A   1      41.241  27.985  27.584  1.00  0.00     0.173 A 
ATOM     42  C   UNL A   1      39.747  26.508  28.751  1.00  0.00     0.173 A 
ATOM     43  F   UNL A   1      41.960  29.115  27.511  1.00  0.00    -0.203 F 
ATOM     44  C   UNL A   1      41.221  27.131  26.483  1.00  0.00     0.198 A 
ATOM     45  C   UNL A   1      39.755  25.642  27.661  1.00  0.00     0.198 A 
ATOM     46  F   UNL A   1      39.017  26.181  29.827  1.00  0.00    -0.203 F 
ATOM     47  F   UNL A   1      41.899  27.455  25.374  1.00  0.00    -0.200 F 
ATOM     48  C   UNL A   1      40.481  25.959  26.523  1.00  0.00     0.200 A 
ATOM     49  F   UNL A   1      39.051  24.502  27.708  1.00  0.00    -0.200 F 
ATOM     50  F   UNL A   1      40.460  25.140  25.463  1.00  0.00    -0.200 F 
ENDBRANCH  26  40
BRANCH  27  51
ATOM     51  C   UNL A   1      39.683  33.756  36.635  1.00  0.00     0.064 A 
ATOM     52  C   UNL A   1      40.277  35.022  36.712  1.00  0.00     0.173 A 
ATOM     53  C   UNL A   1      38.856  33.354  37.695  1.00  0.00     0.173 A 
ATOM     54  F   UNL A   1      41.086  35.442  35.730  1.00  0.00    -0.203 F 
ATOM     55  C   UNL A   1      40.048  35.855  37.805  1.00  0.00     0.198 A 
ATOM     56  C   UNL A   1      38.607  34.199  38.773  1.00  0.00     0.198 A 
ATOM     57  F   UNL A   1      38.258  32.153  37.662  1.00  0.00    -0.203 F 
ATOM     58  F   UNL A   1      40.643  37.055  37.865  1.00  0.00    -0.200 F 
ATOM     59  C   UNL A   1      39.206  35.448  38.830  1.00  0.00     0.200 A 
ATOM     60  F   UNL A   1      37.777  33.809  39.750  1.00  0.00    -0.200 F 
ATOM     61  F   UNL A   1      38.970  36.259  39.868  1.00  0.00    -0.200 F 
ENDBRANCH  27  51
BRANCH  39  62
ATOM     62  C   UNL A   1      43.895  28.406  35.046  1.00  0.00     0.064 A 
ATOM     63  C   UNL A   1      43.684  27.285  35.860  1.00  0.00     0.173 A 
ATOM     64  C   UNL A   1      45.214  28.849  34.861  1.00  0.00     0.173 A 
ATOM     65  F   UNL A   1      42.440  26.834  36.080  1.00  0.00    -0.203 F 
ATOM     66  C   UNL A   1      44.754  26.635  36.470  1.00  0.00     0.198 A 
ATOM     67  C   UNL A   1      46.282  28.180  35.451  1.00  0.00     0.198 A 
ATOM     68  F   UNL A   1      45.467  29.915  34.089  1.00  0.00    -0.203 F 
ATOM     69  F   UNL A   1      44.529  25.581  37.268  1.00  0.00    -0.200 F 
ATOM     70  C   UNL A   1      46.052  27.075  36.255  1.00  0.00     0.200 A 
ATOM     71  F   UNL A   1      47.536  28.599  35.230  1.00  0.00    -0.200 F 
ATOM     72  F   UNL A   1      47.082  26.435  36.826  1.00  0.00    -0.200 F 
ENDBRANCH  39  62
ENDBRANCH  13  14
ENDBRANCH   6   8
ENDBRANCH   3   4
ENDBRANCH   2   3
ENDBRANCH   1   2
BRANCH   1  73
ATOM     73  C   UNL A   1      31.808  29.779  26.676  1.00  0.00     0.002 C 
BRANCH  73  74
ATOM     74  C   UNL A   1      32.732  28.762  26.000  1.00  0.00     0.021 C 
BRANCH  74  75
ATOM     75  C   UNL A   1      32.718  27.362  26.606  1.00  0.00     0.116 C 
BRANCH  75  76
ATOM     76  N   UNL A   1      31.373  26.874  26.853  1.00  0.00    -0.352 N 
ATOM     77  C   UNL A   1      30.642  25.945  26.155  1.00  0.00     0.251 C 
ATOM     78  H   UNL A   1      30.918  27.266  27.634  1.00  0.00     0.163 HD
ATOM     79  O   UNL A   1      29.502  25.657  26.507  1.00  0.00    -0.269 OA
BRANCH  77  80
ATOM     80  C   UNL A   1      31.257  25.274  24.989  1.00  0.00     0.047 A 
ATOM     81  C   UNL A   1      31.921  24.056  25.218  1.00  0.00     0.016 A 
ATOM     82  C   UNL A   1      31.152  25.810  23.689  1.00  0.00    -0.004 A 
ATOM     83  C   UNL A   1      32.548  23.389  24.167  1.00  0.00     0.021 A 
ATOM     84  C   UNL A   1      31.795  25.115  22.644  1.00  0.00     0.030 A 
ATOM     85  C   UNL A   1      32.490  23.928  22.886  1.00  0.00     0.041 A 
ATOM     86  Cl  UNL A   1      33.278  23.120  21.588  1.00  0.00    -0.084 Cl
BRANCH  82  87
ATOM     87  C   UNL A   1      30.399  27.037  23.370  1.00  0.00    -0.018 A 
ATOM     88  C   UNL A   1      31.079  28.187  22.933  1.00  0.00     0.009 A 
ATOM     89  C   UNL A   1      29.004  27.104  23.501  1.00  0.00     0.009 A 
ATOM     90  C   UNL A   1      30.387  29.363  22.629  1.00  0.00     0.014 A 
ATOM     91  C   UNL A   1      28.309  28.279  23.194  1.00  0.00     0.014 A 
ATOM     92  C   UNL A   1      28.993  29.421  22.753  1.00  0.00     0.056 A 
BRANCH  92  93
ATOM     93  C   UNL A   1      28.261  30.697  22.413  1.00  0.00     0.416 C 
ATOM     94  F   UNL A   1      29.091  31.776  22.378  1.00  0.00    -0.166 F 
ATOM     95  F   UNL A   1      27.661  30.649  21.192  1.00  0.00    -0.166 F 
ATOM     96  F   UNL A   1      27.277  31.015  23.300  1.00  0.00    -0.166 F 
ENDBRANCH  92  93
ENDBRANCH  82  87
ENDBRANCH  77  80
ENDBRANCH  75  76
ENDBRANCH  74  75
ENDBRANCH  73  74
ENDBRANCH   1  73
TORSDOF 15
ENDMDL
MODEL 2
REMARK VINA RESULT:     -12.8      0.344      1.649
REMARK SMILES O=C(NCCCCCCNC(=O)c1ccc(Cl)cc1-c1ccc(C(F)(F)F)cc1)c1ccc(-c2c3nc(c(-c4c(F)c(F)c(F)c(F)c4F)c4ccc([nH]4)c(-c4c(F)c(F)c(F)c(F)c4F)c4nc(c(-c5c(F)c(F)c(F)c(F)c5F)c5ccc2[nH]5)C=C4)C=C3)cc1
REMARK SMILES IDX 6 1 5 2 4 3 3 4 1 5 2 6 30 8 31 9 92 10 32 11 91 12 33 13
REMARK SMILES IDX 34 14 35 15 85 16 36 17 90 18 84 19 86 20 37 21 89 22 83 23
REMARK SMILES IDX 82 24 38 26 70 27 50 28 69 29 51 30 54 31 68 32 87 33 52 34
REMARK SMILES IDX 53 35 67 37 88 38 55 39 39 40 40 41 48 42 41 43 42 44 46 45
REMARK SMILES IDX 49 46 43 47 44 48 47 49 45 50 71 51 72 52 80 53 73 54 74 55
REMARK SMILES IDX 78 56 81 57 75 58 76 59 79 60 77 61 56 62 57 63 65 64 58 65
REMARK SMILES IDX 59 66 63 67 66 68 60 69 61 70 64 71 62 72 7 73 8 74 9 75
REMARK SMILES IDX 10 76 11 77 12 79 13 80 14 81 19 82 15 83 18 84 16 85 17 86
REMARK SMILES IDX 20 87 21 88 29 89 22 90 28 91 23 92 24 93 25 94 26 95 27 96
REMARK H PARENT 3 7 86 25 54 36 10 78
REMARK Flexibility Score: inf
ROOT
ATOM      1  C   UNL A   1      31.396  30.734  25.864  1.00  0.00     0.002 C 
ENDROOT
BRANCH   1   2
ATOM      2  C   UNL A   1      31.259  32.121  26.495  1.00  0.00     0.021 C 
BRANCH   2   3
ATOM      3  C   UNL A   1      32.532  32.673  27.129  1.00  0.00     0.116 C 
BRANCH   3   4
ATOM      4  N   UNL A   1      32.376  34.047  27.577  1.00  0.00    -0.352 N 
ATOM      5  O   UNL A   1      32.659  35.834  28.921  1.00  0.00    -0.269 OA
ATOM      6  C   UNL A   1      33.049  34.726  28.558  1.00  0.00     0.251 C 
ATOM      7  H   UNL A   1      31.685  34.565  27.105  1.00  0.00     0.163 HD
BRANCH   6   8
ATOM      8  C   UNL A   1      34.237  34.125  29.199  1.00  0.00     0.039 A 
ATOM      9  C   UNL A   1      34.107  33.203  30.243  1.00  0.00     0.014 A 
ATOM     10  C   UNL A   1      35.503  34.464  28.715  1.00  0.00     0.014 A 
ATOM     11  C   UNL A   1      35.243  32.704  30.874  1.00  0.00     0.010 A 
ATOM     12  C   UNL A   1      36.641  33.911  29.306  1.00  0.00     0.010 A 
ATOM     13  C   UNL A   1      36.520  33.044  30.403  1.00  0.00    -0.014 A 
BRANCH  13  14
ATOM     14  C   UNL A   1      37.732  32.450  31.018  1.00  0.00     0.031 A 
ATOM     15  C   UNL A   1      38.475  31.344  30.331  1.00  0.00     0.074 A 
ATOM     16  C   UNL A   1      38.128  32.881  32.230  1.00  0.00     0.049 A 
ATOM     17  N   UNL A   1      39.485  30.630  30.763  1.00  0.00    -0.248 NA
ATOM     18  C   UNL A   1      38.015  30.981  28.983  1.00  0.00     0.031 C 
ATOM     19  C   UNL A   1      37.479  33.946  32.996  1.00  0.00     0.029 A 
ATOM     20  N   UNL A   1      39.154  32.463  33.040  1.00  0.00    -0.354 N 
ATOM     21  C   UNL A   1      39.765  29.720  29.754  1.00  0.00     0.074 A 
ATOM     22  C   UNL A   1      38.804  29.955  28.696  1.00  0.00     0.031 C 
ATOM     23  C   UNL A   1      38.119  34.096  34.165  1.00  0.00     0.029 A 
ATOM     24  C   UNL A   1      39.181  33.101  34.255  1.00  0.00     0.049 A 
ATOM     25  H   UNL A   1      39.806  31.775  32.774  1.00  0.00     0.167 HD
ATOM     26  C   UNL A   1      40.737  28.776  29.716  1.00  0.00     0.037 A 
ATOM     27  C   UNL A   1      39.948  32.882  35.339  1.00  0.00     0.037 A 
ATOM     28  C   UNL A   1      41.689  28.555  30.775  1.00  0.00     0.049 A 
ATOM     29  C   UNL A   1      40.995  31.806  35.293  1.00  0.00     0.074 A 
ATOM     30  C   UNL A   1      42.743  27.660  30.814  1.00  0.00     0.029 A 
ATOM     31  N   UNL A   1      41.690  29.227  31.990  1.00  0.00    -0.354 N 
ATOM     32  N   UNL A   1      41.284  30.980  34.316  1.00  0.00    -0.248 NA
ATOM     33  C   UNL A   1      41.822  31.631  36.494  1.00  0.00     0.031 C 
ATOM     34  C   UNL A   1      43.346  27.749  32.074  1.00  0.00     0.029 A 
ATOM     35  C   UNL A   1      42.707  28.743  32.797  1.00  0.00     0.049 A 
ATOM     36  H   UNL A   1      41.060  29.941  32.241  1.00  0.00     0.167 HD
ATOM     37  C   UNL A   1      42.341  30.206  34.772  1.00  0.00     0.074 A 
ATOM     38  C   UNL A   1      42.644  30.661  36.114  1.00  0.00     0.031 C 
ATOM     39  C   UNL A   1      43.003  29.211  34.130  1.00  0.00     0.037 A 
BRANCH  26  40
ATOM     40  C   UNL A   1      40.795  27.888  28.505  1.00  0.00     0.064 A 
ATOM     41  C   UNL A   1      40.106  26.668  28.446  1.00  0.00     0.173 A 
ATOM     42  C   UNL A   1      41.545  28.272  27.382  1.00  0.00     0.173 A 
ATOM     43  F   UNL A   1      39.382  26.249  29.494  1.00  0.00    -0.203 F 
ATOM     44  C   UNL A   1      40.197  25.846  27.324  1.00  0.00     0.198 A 
ATOM     45  C   UNL A   1      41.607  27.463  26.250  1.00  0.00     0.198 A 
ATOM     46  F   UNL A   1      42.216  29.433  27.380  1.00  0.00    -0.203 F 
ATOM     47  F   UNL A   1      39.581  24.657  27.315  1.00  0.00    -0.200 F 
ATOM     48  C   UNL A   1      40.944  26.246  26.226  1.00  0.00     0.200 A 
ATOM     49  F   UNL A   1      42.318  27.859  25.184  1.00  0.00    -0.200 F 
ATOM     50  F   UNL A   1      41.033  25.454  25.149  1.00  0.00    -0.200 F 
ENDBRANCH  26  40
BRANCH  27  51
ATOM     51  C   UNL A   1      39.727  33.703  36.555  1.00  0.00     0.064 A 
ATOM     52  C   UNL A   1      40.312  34.969  36.689  1.00  0.00     0.173 A 
ATOM     53  C   UNL A   1      38.871  33.266  37.577  1.00  0.00     0.173 A 
ATOM     54  F   UNL A   1      41.148  35.422  35.744  1.00  0.00    -0.203 F 
ATOM     55  C   UNL A   1      40.050  35.766  37.800  1.00  0.00     0.198 A 
ATOM     56  C   UNL A   1      38.588  34.075  38.674  1.00  0.00     0.198 A 
ATOM     57  F   UNL A   1      38.279  32.065  37.490  1.00  0.00    -0.203 F 
ATOM     58  F   UNL A   1      40.637  36.965  37.915  1.00  0.00    -0.200 F 
ATOM     59  C   UNL A   1      39.180  35.324  38.787  1.00  0.00     0.200 A 
ATOM     60  F   UNL A   1      37.731  33.652  39.614  1.00  0.00    -0.200 F 
ATOM     61  F   UNL A   1      38.911  36.102  39.843  1.00  0.00    -0.200 F 
ENDBRANCH  27  51
BRANCH  39  62
ATOM     62  C   UNL A   1      44.154  28.569  34.847  1.00  0.00     0.064 A 
ATOM     63  C   UNL A   1      45.445  29.110  34.804  1.00  0.00     0.173 A 
ATOM     64  C   UNL A   1      43.939  27.438  35.650  1.00  0.00     0.173 A 
ATOM     65  F   UNL A   1      45.704  30.180  34.037  1.00  0.00    -0.203 F 
ATOM     66  C   UNL A   1      46.484  28.539  35.536  1.00  0.00     0.198 A 
ATOM     67  C   UNL A   1      44.973  26.886  36.401  1.00  0.00     0.198 A 
ATOM     68  F   UNL A   1      42.720  26.885  35.727  1.00  0.00    -0.203 F 
ATOM     69  F   UNL A   1      47.718  29.056  35.459  1.00  0.00    -0.200 F 
ATOM     70  C   UNL A   1      46.244  27.436  36.342  1.00  0.00     0.200 A 
ATOM     71  F   UNL A   1      44.735  25.830  37.190  1.00  0.00    -0.200 F 
ATOM     72  F   UNL A   1      47.240  26.900  37.061  1.00  0.00    -0.200 F 
ENDBRANCH  39  62
ENDBRANCH  13  14
ENDBRANCH   6   8
ENDBRANCH   3   4
ENDBRANCH   2   3
ENDBRANCH   1   2
BRANCH   1  73
ATOM     73  C   UNL A   1      32.672  29.967  26.222  1.00  0.00     0.002 C 
BRANCH  73  74
ATOM     74  C   UNL A   1      32.500  28.811  27.211  1.00  0.00     0.021 C 
BRANCH  74  75
ATOM     75  C   UNL A   1      32.352  27.429  26.581  1.00  0.00     0.116 C 
BRANCH  75  76
ATOM     76  N   UNL A   1      31.062  26.824  26.860  1.00  0.00    -0.352 N 
ATOM     77  C   UNL A   1      30.414  25.811  26.197  1.00  0.00     0.251 C 
ATOM     78  H   UNL A   1      30.581  27.193  27.637  1.00  0.00     0.163 HD
ATOM     79  O   UNL A   1      29.310  25.426  26.573  1.00  0.00    -0.269 OA
BRANCH  77  80
ATOM     80  C   UNL A   1      31.076  25.168  25.041  1.00  0.00     0.047 A 
ATOM     81  C   UNL A   1      31.717  23.936  25.263  1.00  0.00     0.016 A 
ATOM     82  C   UNL A   1      31.039  25.745  23.755  1.00  0.00    -0.004 A 
ATOM     83  C   UNL A   1      32.386  23.295  24.222  1.00  0.00     0.021 A 
ATOM     84  C   UNL A   1      31.723  25.074  22.720  1.00  0.00     0.030 A 
ATOM     85  C   UNL A   1      32.393  23.873  22.957  1.00  0.00     0.041 A 
ATOM     86  Cl  UNL A   1      33.234  23.096  21.673  1.00  0.00    -0.084 Cl
BRANCH  82  87
ATOM     87  C   UNL A   1      30.314  26.990  23.439  1.00  0.00    -0.018 A 
ATOM     88  C   UNL A   1      31.025  28.143  23.067  1.00  0.00     0.009 A 
ATOM     89  C   UNL A   1      28.915  27.070  23.510  1.00  0.00     0.009 A 
ATOM     90  C   UNL A   1      30.360  29.336  22.767  1.00  0.00     0.014 A 
ATOM     91  C   UNL A   1      28.247  28.262  23.208  1.00  0.00     0.014 A 
ATOM     92  C   UNL A   1      28.962  29.408  22.831  1.00  0.00     0.056 A 
BRANCH  92  93
ATOM     93  C   UNL A   1      28.260  30.701  22.497  1.00  0.00     0.416 C 
ATOM     94  F   UNL A   1      27.662  30.665  21.273  1.00  0.00    -0.166 F 
ATOM     95  F   UNL A   1      27.274  31.007  23.384  1.00  0.00    -0.166 F 
ATOM     96  F   UNL A   1      29.089  31.782  22.473  1.00  0.00    -0.166 F 
ENDBRANCH  92  93
ENDBRANCH  82  87
ENDBRANCH  77  80
ENDBRANCH  75  76
ENDBRANCH  74  75
ENDBRANCH  73  74
ENDBRANCH   1  73
TORSDOF 15
ENDMDL
MODEL 3
REMARK VINA RESULT:     -12.5      6.074     11.416
REMARK SMILES O=C(NCCCCCCNC(=O)c1ccc(Cl)cc1-c1ccc(C(F)(F)F)cc1)c1ccc(-c2c3nc(c(-c4c(F)c(F)c(F)c(F)c4F)c4ccc([nH]4)c(-c4c(F)c(F)c(F)c(F)c4F)c4nc(c(-c5c(F)c(F)c(F)c(F)c5F)c5ccc2[nH]5)C=C4)C=C3)cc1
REMARK SMILES IDX 6 1 5 2 4 3 3 4 1 5 2 6 30 8 31 9 92 10 32 11 91 12 33 13
REMARK SMILES IDX 34 14 35 15 85 16 36 17 90 18 84 19 86 20 37 21 89 22 83 23
REMARK SMILES IDX 82 24 38 26 70 27 50 28 69 29 51 30 54 31 68 32 87 33 52 34
REMARK SMILES IDX 53 35 67 37 88 38 55 39 39 40 40 41 48 42 41 43 42 44 46 45
REMARK SMILES IDX 49 46 43 47 44 48 47 49 45 50 71 51 72 52 80 53 73 54 74 55
REMARK SMILES IDX 78 56 81 57 75 58 76 59 79 60 77 61 56 62 57 63 65 64 58 65
REMARK SMILES IDX 59 66 63 67 66 68 60 69 61 70 64 71 62 72 7 73 8 74 9 75
REMARK SMILES IDX 10 76 11 77 12 79 13 80 14 81 19 82 15 83 18 84 16 85 17 86
REMARK SMILES IDX 20 87 21 88 29 89 22 90 28 91 23 92 24 93 25 94 26 95 27 96
REMARK H PARENT 3 7 86 25 54 36 10 78
REMARK Flexibility Score: inf
ROOT
ATOM      1  C   UNL A   1      37.067  20.517  24.668  1.00  0.00     0.002 C 
ENDROOT
BRANCH   1   2
ATOM      2  C   UNL A   1      38.147  19.485  25.000  1.00  0.00     0.021 C 
BRANCH   2   3
ATOM      3  C   UNL A   1      39.285  19.999  25.876  1.00  0.00     0.116 C 
BRANCH   3   4
ATOM      4  N   UNL A   1      40.426  19.098  25.885  1.00  0.00    -0.352 N 
ATOM      5  O   UNL A   1      42.599  18.504  25.828  1.00  0.00    -0.269 OA
ATOM      6  C   UNL A   1      41.759  19.379  26.024  1.00  0.00     0.251 C 
ATOM      7  H   UNL A   1      40.207  18.144  25.775  1.00  0.00     0.163 HD
BRANCH   6   8
ATOM      8  C   UNL A   1      42.197  20.741  26.394  1.00  0.00     0.039 A 
ATOM      9  C   UNL A   1      42.423  21.091  27.729  1.00  0.00     0.014 A 
ATOM     10  C   UNL A   1      42.424  21.672  25.376  1.00  0.00     0.014 A 
ATOM     11  C   UNL A   1      42.769  22.400  28.055  1.00  0.00     0.010 A 
ATOM     12  C   UNL A   1      42.837  22.966  25.700  1.00  0.00     0.010 A 
ATOM     13  C   UNL A   1      42.992  23.346  27.043  1.00  0.00    -0.014 A 
BRANCH  13  14
ATOM     14  C   UNL A   1      43.442  24.718  27.380  1.00  0.00     0.031 A 
ATOM     15  C   UNL A   1      42.477  25.727  27.926  1.00  0.00     0.074 A 
ATOM     16  C   UNL A   1      44.720  25.064  27.140  1.00  0.00     0.049 A 
ATOM     17  N   UNL A   1      42.660  26.999  28.174  1.00  0.00    -0.248 NA
ATOM     18  C   UNL A   1      41.119  25.245  28.221  1.00  0.00     0.031 C 
ATOM     19  C   UNL A   1      45.746  24.168  26.604  1.00  0.00     0.029 A 
ATOM     20  N   UNL A   1      45.368  26.264  27.292  1.00  0.00    -0.354 N 
ATOM     21  C   UNL A   1      41.439  27.477  28.630  1.00  0.00     0.074 A 
ATOM     22  C   UNL A   1      40.515  26.362  28.602  1.00  0.00     0.031 C 
ATOM     23  C   UNL A   1      46.893  24.849  26.469  1.00  0.00     0.029 A 
ATOM     24  C   UNL A   1      46.667  26.239  26.850  1.00  0.00     0.049 A 
ATOM     25  H   UNL A   1      44.943  27.062  27.680  1.00  0.00     0.167 HD
ATOM     26  C   UNL A   1      41.123  28.731  29.035  1.00  0.00     0.037 A 
ATOM     27  C   UNL A   1      47.566  27.233  26.725  1.00  0.00     0.037 A 
ATOM     28  C   UNL A   1      42.054  29.830  29.061  1.00  0.00     0.049 A 
ATOM     29  C   UNL A   1      47.186  28.624  27.143  1.00  0.00     0.074 A 
ATOM     30  C   UNL A   1      41.848  31.125  29.501  1.00  0.00     0.029 A 
ATOM     31  N   UNL A   1      43.366  29.765  28.612  1.00  0.00    -0.354 N 
ATOM     32  N   UNL A   1      46.042  29.057  27.617  1.00  0.00    -0.248 NA
ATOM     33  C   UNL A   1      48.215  29.663  27.012  1.00  0.00     0.031 C 
ATOM     34  C   UNL A   1      43.016  31.859  29.264  1.00  0.00     0.029 A 
ATOM     35  C   UNL A   1      43.971  31.006  28.735  1.00  0.00     0.049 A 
ATOM     36  H   UNL A   1      43.803  28.957  28.257  1.00  0.00     0.167 HD
ATOM     37  C   UNL A   1      46.221  30.411  27.865  1.00  0.00     0.074 A 
ATOM     38  C   UNL A   1      47.584  30.728  27.491  1.00  0.00     0.031 C 
ATOM     39  C   UNL A   1      45.333  31.306  28.365  1.00  0.00     0.037 A 
BRANCH  26  40
ATOM     40  C   UNL A   1      39.701  28.989  29.448  1.00  0.00     0.064 A 
ATOM     41  C   UNL A   1      39.266  28.803  30.768  1.00  0.00     0.173 A 
ATOM     42  C   UNL A   1      38.763  29.441  28.507  1.00  0.00     0.173 A 
ATOM     43  F   UNL A   1      40.119  28.364  31.705  1.00  0.00    -0.203 F 
ATOM     44  C   UNL A   1      37.936  29.021  31.123  1.00  0.00     0.198 A 
ATOM     45  C   UNL A   1      37.442  29.689  28.872  1.00  0.00     0.198 A 
ATOM     46  F   UNL A   1      39.126  29.646  27.233  1.00  0.00    -0.203 F 
ATOM     47  F   UNL A   1      37.530  28.776  32.376  1.00  0.00    -0.200 F 
ATOM     48  C   UNL A   1      37.026  29.467  30.176  1.00  0.00     0.200 A 
ATOM     49  F   UNL A   1      36.568  30.135  27.959  1.00  0.00    -0.200 F 
ATOM     50  F   UNL A   1      35.747  29.674  30.518  1.00  0.00    -0.200 F 
ENDBRANCH  26  40
BRANCH  27  51
ATOM     51  C   UNL A   1      48.905  26.926  26.164  1.00  0.00     0.064 A 
ATOM     52  C   UNL A   1      49.926  26.410  26.972  1.00  0.00     0.173 A 
ATOM     53  C   UNL A   1      49.168  27.080  24.794  1.00  0.00     0.173 A 
ATOM     54  F   UNL A   1      49.725  26.260  28.289  1.00  0.00    -0.203 F 
ATOM     55  C   UNL A   1      51.161  26.060  26.431  1.00  0.00     0.198 A 
ATOM     56  C   UNL A   1      50.393  26.703  24.250  1.00  0.00     0.198 A 
ATOM     57  F   UNL A   1      48.218  27.561  23.978  1.00  0.00    -0.203 F 
ATOM     58  F   UNL A   1      52.129  25.587  27.228  1.00  0.00    -0.200 F 
ATOM     59  C   UNL A   1      51.390  26.196  25.069  1.00  0.00     0.200 A 
ATOM     60  F   UNL A   1      50.602  26.817  22.932  1.00  0.00    -0.200 F 
ATOM     61  F   UNL A   1      52.570  25.837  24.547  1.00  0.00    -0.200 F 
ENDBRANCH  27  51
BRANCH  39  62
ATOM     62  C   UNL A   1      45.813  32.711  28.582  1.00  0.00     0.064 A 
ATOM     63  C   UNL A   1      46.468  33.094  29.760  1.00  0.00     0.173 A 
ATOM     64  C   UNL A   1      45.680  33.665  27.561  1.00  0.00     0.173 A 
ATOM     65  F   UNL A   1      46.604  32.223  30.771  1.00  0.00    -0.203 F 
ATOM     66  C   UNL A   1      46.970  34.385  29.911  1.00  0.00     0.198 A 
ATOM     67  C   UNL A   1      46.206  34.945  27.705  1.00  0.00     0.198 A 
ATOM     68  F   UNL A   1      45.063  33.346  26.414  1.00  0.00    -0.203 F 
ATOM     69  F   UNL A   1      47.570  34.739  31.056  1.00  0.00    -0.200 F 
ATOM     70  C   UNL A   1      46.849  35.305  28.879  1.00  0.00     0.200 A 
ATOM     71  F   UNL A   1      46.101  35.828  26.701  1.00  0.00    -0.200 F 
ATOM     72  F   UNL A   1      47.351  36.540  29.018  1.00  0.00    -0.200 F 
ENDBRANCH  39  62
ENDBRANCH  13  14
ENDBRANCH   6   8
ENDBRANCH   3   4
ENDBRANCH   2   3
ENDBRANCH   1   2
BRANCH   1  73
ATOM     73  C   UNL A   1      37.052  21.767  25.552  1.00  0.00     0.002 C 
BRANCH  73  74
ATOM     74  C   UNL A   1      36.995  23.106  24.812  1.00  0.00     0.021 C 
BRANCH  74  75
ATOM     75  C   UNL A   1      35.600  23.700  24.641  1.00  0.00     0.116 C 
BRANCH  75  76
ATOM     76  N   UNL A   1      35.084  23.535  23.294  1.00  0.00    -0.352 N 
ATOM     77  C   UNL A   1      33.782  23.473  22.863  1.00  0.00     0.251 C 
ATOM     78  H   UNL A   1      35.766  23.456  22.588  1.00  0.00     0.163 HD
ATOM     79  O   UNL A   1      33.527  23.321  21.671  1.00  0.00    -0.269 OA
BRANCH  77  80
ATOM     80  C   UNL A   1      32.689  23.621  23.848  1.00  0.00     0.047 A 
ATOM     81  C   UNL A   1      32.175  24.914  24.056  1.00  0.00     0.016 A 
ATOM     82  C   UNL A   1      32.152  22.509  24.528  1.00  0.00    -0.004 A 
ATOM     83  C   UNL A   1      31.166  25.126  24.994  1.00  0.00     0.021 A 
ATOM     84  C   UNL A   1      31.131  22.752  25.470  1.00  0.00     0.030 A 
ATOM     85  C   UNL A   1      30.656  24.044  25.703  1.00  0.00     0.041 A 
ATOM     86  Cl  UNL A   1      29.424  24.301  26.876  1.00  0.00    -0.084 Cl
BRANCH  82  87
ATOM     87  C   UNL A   1      32.588  21.120  24.293  1.00  0.00    -0.018 A 
ATOM     88  C   UNL A   1      33.474  20.499  25.190  1.00  0.00     0.009 A 
ATOM     89  C   UNL A   1      32.153  20.387  23.179  1.00  0.00     0.009 A 
ATOM     90  C   UNL A   1      33.905  19.185  24.985  1.00  0.00     0.014 A 
ATOM     91  C   UNL A   1      32.581  19.070  22.974  1.00  0.00     0.014 A 
ATOM     92  C   UNL A   1      33.460  18.454  23.876  1.00  0.00     0.056 A 
BRANCH  92  93
ATOM     93  C   UNL A   1      33.929  17.034  23.675  1.00  0.00     0.416 C 
ATOM     94  F   UNL A   1      34.970  16.711  24.493  1.00  0.00    -0.166 F 
ATOM     95  F   UNL A   1      32.956  16.117  23.933  1.00  0.00    -0.166 F 
ATOM     96  F   UNL A   1      34.360  16.775  22.409  1.00  0.00    -0.166 F 
ENDBRANCH  92  93
ENDBRANCH  82  87
ENDBRANCH  77  80
ENDBRANCH  75  76
ENDBRANCH  74  75
ENDBRANCH  73  74
ENDBRANCH   1  73
TORSDOF 15
ENDMDL
