MODEL 1
REMARK VINA RESULT:     -13.3      0.000      0.000
REMARK SMILES Cc1cc2c(=O)c3ccccc3oc2c(C(=O)NCCCCCCNC(=O)c2ccc(-c3c4nc(c(-c5c(F)c(F)c(F)c(F)c5F)c5ccc([nH]5)c(-c5c(F)c(F)c(F)c(F)c5F)c5nc(c(-c6c(F)c(F)c(F)c(F)c6F)c6ccc3[nH]6)C=C5)C=C4)cc2)c1C
REMARK SMILES IDX 22 1 21 2 20 3 19 4 18 5 16 6 17 7 15 9 1 10 2 11 3 12 91 13
REMARK SMILES IDX 4 14 92 15 5 16 14 17 6 18 7 19 13 20 8 21 12 22 9 23 11 24
REMARK SMILES IDX 10 25 23 26 24 27 25 28 26 29 27 31 28 32 29 33 90 34 30 35
REMARK SMILES IDX 89 36 31 37 32 38 33 39 83 40 34 41 88 42 82 43 84 44 35 45
REMARK SMILES IDX 87 46 81 47 80 48 36 50 68 51 48 52 67 53 49 54 52 55 66 56
REMARK SMILES IDX 85 57 50 58 51 59 65 61 86 62 53 63 37 64 38 65 46 66 39 67
REMARK SMILES IDX 40 68 44 69 47 70 41 71 42 72 45 73 43 74 69 75 70 76 78 77
REMARK SMILES IDX 71 78 72 79 76 80 79 81 73 82 74 83 77 84 75 85 54 86 55 87
REMARK SMILES IDX 63 88 56 89 57 90 61 91 64 92 58 93 59 94 62 95 60 96
REMARK H PARENT 18 8 25 30 84 49 52 60
REMARK Flexibility Score: inf
ROOT
ATOM      1  C   UNL A   1      31.637  30.692  26.186  1.00  0.00     0.002 C 
ENDROOT
BRANCH   1   2
ATOM      2  C   UNL A   1      31.768  29.530  27.179  1.00  0.00     0.002 C 
BRANCH   2   3
ATOM      3  C   UNL A   1      33.112  28.795  27.124  1.00  0.00     0.021 C 
BRANCH   3   4
ATOM      4  C   UNL A   1      34.117  29.506  26.221  1.00  0.00     0.116 C 
BRANCH   4   5
ATOM      5  N   UNL A   1      34.221  28.876  24.931  1.00  0.00    -0.352 N 
ATOM      6  C   UNL A   1      33.475  28.209  24.013  1.00  0.00     0.255 C 
ATOM      7  O   UNL A   1      33.968  28.409  22.893  1.00  0.00    -0.269 OA
ATOM      8  H   UNL A   1      35.145  28.957  24.604  1.00  0.00     0.163 HD
BRANCH   6   9
ATOM      9  C   UNL A   1      32.270  27.276  24.163  1.00  0.00     0.086 A 
ATOM     10  C   UNL A   1      28.424  26.699  23.882  1.00  0.00     0.044 C 
ATOM     11  C   UNL A   1      29.902  26.522  24.151  1.00  0.00    -0.046 A 
ATOM     12  C   UNL A   1      30.289  25.266  24.618  1.00  0.00     0.019 A 
ATOM     13  C   UNL A   1      30.886  27.531  23.894  1.00  0.00    -0.032 A 
ATOM     14  C   UNL A   1      31.623  24.996  24.870  1.00  0.00     0.066 A 
ATOM     15  C   UNL A   1      30.384  28.807  23.293  1.00  0.00     0.045 C 
ATOM     16  C   UNL A   1      31.994  23.654  25.351  1.00  0.00     0.200 A 
ATOM     17  C   UNL A   1      32.600  25.971  24.666  1.00  0.00     0.151 A 
ATOM     18  O   UNL A   1      31.153  22.786  25.547  1.00  0.00    -0.288 OA
ATOM     19  C   UNL A   1      33.417  23.397  25.575  1.00  0.00     0.065 A 
ATOM     20  O   UNL A   1      33.920  25.690  24.969  1.00  0.00    -0.455 OA
ATOM     21  C   UNL A   1      33.874  22.144  25.988  1.00  0.00     0.016 A 
ATOM     22  C   UNL A   1      34.303  24.439  25.361  1.00  0.00     0.138 A 
ATOM     23  C   UNL A   1      35.240  21.942  26.184  1.00  0.00     0.001 A 
ATOM     24  C   UNL A   1      35.669  24.237  25.554  1.00  0.00     0.048 A 
ATOM     25  C   UNL A   1      36.138  22.987  25.966  1.00  0.00     0.004 A 
ENDBRANCH   6   9
ENDBRANCH   4   5
ENDBRANCH   3   4
ENDBRANCH   2   3
ENDBRANCH   1   2
BRANCH   1  26
ATOM     26  C   UNL A   1      31.416  32.058  26.832  1.00  0.00     0.021 C 
BRANCH  26  27
ATOM     27  C   UNL A   1      32.703  32.777  27.209  1.00  0.00     0.116 C 
BRANCH  27  28
ATOM     28  N   UNL A   1      32.462  34.153  27.618  1.00  0.00    -0.352 N 
ATOM     29  C   UNL A   1      33.016  34.881  28.641  1.00  0.00     0.251 C 
ATOM     30  H   UNL A   1      31.796  34.636  27.078  1.00  0.00     0.163 HD
ATOM     31  O   UNL A   1      32.523  35.951  28.977  1.00  0.00    -0.269 OA
BRANCH  29  32
ATOM     32  C   UNL A   1      34.204  34.359  29.345  1.00  0.00     0.039 A 
ATOM     33  C   UNL A   1      35.482  34.577  28.829  1.00  0.00     0.014 A 
ATOM     34  C   UNL A   1      34.038  33.643  30.533  1.00  0.00     0.014 A 
ATOM     35  C   UNL A   1      36.570  33.930  29.394  1.00  0.00     0.010 A 
ATOM     36  C   UNL A   1      35.153  33.085  31.165  1.00  0.00     0.010 A 
ATOM     37  C   UNL A   1      36.421  33.183  30.574  1.00  0.00    -0.014 A 
BRANCH  37  38
ATOM     38  C   UNL A   1      37.617  32.528  31.163  1.00  0.00     0.031 A 
ATOM     39  C   UNL A   1      38.088  32.883  32.545  1.00  0.00     0.074 A 
ATOM     40  C   UNL A   1      38.234  31.554  30.465  1.00  0.00     0.049 A 
ATOM     41  N   UNL A   1      39.074  32.367  33.237  1.00  0.00    -0.248 NA
ATOM     42  C   UNL A   1      37.368  33.957  33.248  1.00  0.00     0.031 C 
ATOM     43  C   UNL A   1      37.860  31.123  29.116  1.00  0.00     0.029 A 
ATOM     44  N   UNL A   1      39.275  30.727  30.801  1.00  0.00    -0.354 N 
ATOM     45  C   UNL A   1      39.098  33.058  34.441  1.00  0.00     0.074 A 
ATOM     46  C   UNL A   1      38.057  34.059  34.375  1.00  0.00     0.031 C 
ATOM     47  C   UNL A   1      38.612  30.070  28.767  1.00  0.00     0.029 A 
ATOM     48  C   UNL A   1      39.568  29.796  29.834  1.00  0.00     0.049 A 
ATOM     49  H   UNL A   1      39.765  30.793  31.653  1.00  0.00     0.167 HD
ATOM     50  C   UNL A   1      39.902  32.857  35.512  1.00  0.00     0.037 A 
ATOM     51  C   UNL A   1      40.509  28.834  29.803  1.00  0.00     0.037 A 
ATOM     52  C   UNL A   1      40.924  31.844  35.577  1.00  0.00     0.049 A 
ATOM     53  C   UNL A   1      41.425  28.672  30.983  1.00  0.00     0.074 A 
ATOM     54  C   UNL A   1      41.774  31.547  36.628  1.00  0.00     0.029 A 
ATOM     55  N   UNL A   1      41.235  30.964  34.550  1.00  0.00    -0.354 N 
ATOM     56  N   UNL A   1      41.415  29.312  32.127  1.00  0.00    -0.248 NA
ATOM     57  C   UNL A   1      42.484  27.662  30.867  1.00  0.00     0.031 C 
ATOM     58  C   UNL A   1      42.636  30.527  36.218  1.00  0.00     0.029 A 
ATOM     59  C   UNL A   1      42.285  30.145  34.933  1.00  0.00     0.049 A 
ATOM     60  H   UNL A   1      40.777  30.928  33.679  1.00  0.00     0.167 HD
ATOM     61  C   UNL A   1      42.456  28.774  32.872  1.00  0.00     0.074 A 
ATOM     62  C   UNL A   1      43.060  27.739  32.059  1.00  0.00     0.031 C 
ATOM     63  C   UNL A   1      42.872  29.113  34.116  1.00  0.00     0.037 A 
BRANCH  50  64
ATOM     64  C   UNL A   1      39.719  33.745  36.709  1.00  0.00     0.064 A 
ATOM     65  C   UNL A   1      40.299  35.020  36.774  1.00  0.00     0.173 A 
ATOM     66  C   UNL A   1      38.885  33.350  37.768  1.00  0.00     0.173 A 
ATOM     67  F   UNL A   1      41.112  35.443  35.793  1.00  0.00    -0.203 F 
ATOM     68  C   UNL A   1      40.064  35.861  37.859  1.00  0.00     0.198 A 
ATOM     69  C   UNL A   1      38.628  34.205  38.837  1.00  0.00     0.198 A 
ATOM     70  F   UNL A   1      38.298  32.143  37.753  1.00  0.00    -0.203 F 
ATOM     71  F   UNL A   1      40.657  37.061  37.915  1.00  0.00    -0.200 F 
ATOM     72  C   UNL A   1      39.220  35.457  38.884  1.00  0.00     0.200 A 
ATOM     73  F   UNL A   1      37.799  33.820  39.817  1.00  0.00    -0.200 F 
ATOM     74  F   UNL A   1      38.979  36.276  39.917  1.00  0.00    -0.200 F 
ENDBRANCH  50  64
BRANCH  51  75
ATOM     75  C   UNL A   1      40.617  27.951  28.612  1.00  0.00     0.064 A 
ATOM     76  C   UNL A   1      39.910  26.742  28.545  1.00  0.00     0.173 A 
ATOM     77  C   UNL A   1      41.398  28.311  27.504  1.00  0.00     0.173 A 
ATOM     78  F   UNL A   1      39.164  26.345  29.586  1.00  0.00    -0.203 F 
ATOM     79  C   UNL A   1      39.986  25.927  27.419  1.00  0.00     0.198 A 
ATOM     80  C   UNL A   1      41.446  27.511  26.364  1.00  0.00     0.198 A 
ATOM     81  F   UNL A   1      42.090  29.460  27.515  1.00  0.00    -0.203 F 
ATOM     82  F   UNL A   1      39.326  24.761  27.393  1.00  0.00    -0.200 F 
ATOM     83  C   UNL A   1      40.744  26.317  26.325  1.00  0.00     0.200 A 
ATOM     84  F   UNL A   1      42.164  27.904  25.303  1.00  0.00    -0.200 F 
ATOM     85  F   UNL A   1      40.801  25.540  25.234  1.00  0.00    -0.200 F 
ENDBRANCH  51  75
BRANCH  63  86
ATOM     86  C   UNL A   1      44.032  28.356  34.694  1.00  0.00     0.064 A 
ATOM     87  C   UNL A   1      45.343  28.842  34.598  1.00  0.00     0.173 A 
ATOM     88  C   UNL A   1      43.816  27.182  35.433  1.00  0.00     0.173 A 
ATOM     89  F   UNL A   1      45.602  29.952  33.890  1.00  0.00    -0.203 F 
ATOM     90  C   UNL A   1      46.399  28.176  35.215  1.00  0.00     0.198 A 
ATOM     91  C   UNL A   1      44.869  26.537  36.076  1.00  0.00     0.198 A 
ATOM     92  F   UNL A   1      42.579  26.681  35.562  1.00  0.00    -0.203 F 
ATOM     93  F   UNL A   1      47.648  28.642  35.087  1.00  0.00    -0.200 F 
ATOM     94  C   UNL A   1      46.159  27.034  35.964  1.00  0.00     0.200 A 
ATOM     95  F   UNL A   1      44.633  25.445  36.814  1.00  0.00    -0.200 F 
ATOM     96  F   UNL A   1      47.174  26.410  36.579  1.00  0.00    -0.200 F 
ENDBRANCH  63  86
ENDBRANCH  37  38
ENDBRANCH  29  32
ENDBRANCH  27  28
ENDBRANCH  26  27
ENDBRANCH   1  26
TORSDOF 13
ENDMDL
MODEL 2
REMARK VINA RESULT:     -13.2      5.212     10.450
REMARK SMILES Cc1cc2c(=O)c3ccccc3oc2c(C(=O)NCCCCCCNC(=O)c2ccc(-c3c4nc(c(-c5c(F)c(F)c(F)c(F)c5F)c5ccc([nH]5)c(-c5c(F)c(F)c(F)c(F)c5F)c5nc(c(-c6c(F)c(F)c(F)c(F)c6F)c6ccc3[nH]6)C=C5)C=C4)cc2)c1C
REMARK SMILES IDX 22 1 21 2 20 3 19 4 18 5 16 6 17 7 15 9 1 10 2 11 3 12 91 13
REMARK SMILES IDX 4 14 92 15 5 16 14 17 6 18 7 19 13 20 8 21 12 22 9 23 11 24
REMARK SMILES IDX 10 25 23 26 24 27 25 28 26 29 27 31 28 32 29 33 90 34 30 35
REMARK SMILES IDX 89 36 31 37 32 38 33 39 83 40 34 41 88 42 82 43 84 44 35 45
REMARK SMILES IDX 87 46 81 47 80 48 36 50 68 51 48 52 67 53 49 54 52 55 66 56
REMARK SMILES IDX 85 57 50 58 51 59 65 61 86 62 53 63 37 64 38 65 46 66 39 67
REMARK SMILES IDX 40 68 44 69 47 70 41 71 42 72 45 73 43 74 69 75 70 76 78 77
REMARK SMILES IDX 71 78 72 79 76 80 79 81 73 82 74 83 77 84 75 85 54 86 55 87
REMARK SMILES IDX 63 88 56 89 57 90 61 91 64 92 58 93 59 94 62 95 60 96
REMARK H PARENT 18 8 25 30 84 49 52 60
REMARK Flexibility Score: inf
ROOT
ATOM      1  C   UNL A   1      36.875  20.680  25.006  1.00  0.00     0.002 C 
ENDROOT
BRANCH   1   2
ATOM      2  C   UNL A   1      37.045  21.861  24.044  1.00  0.00     0.002 C 
BRANCH   2   3
ATOM      3  C   UNL A   1      36.936  23.240  24.703  1.00  0.00     0.021 C 
BRANCH   3   4
ATOM      4  C   UNL A   1      36.994  23.152  26.226  1.00  0.00     0.116 C 
BRANCH   4   5
ATOM      5  N   UNL A   1      35.681  23.140  26.815  1.00  0.00    -0.352 N 
ATOM      6  C   UNL A   1      34.387  22.855  26.517  1.00  0.00     0.255 C 
ATOM      7  O   UNL A   1      33.817  22.509  27.562  1.00  0.00    -0.269 OA
ATOM      8  H   UNL A   1      35.742  23.440  27.750  1.00  0.00     0.163 HD
BRANCH   6   9
ATOM      9  C   UNL A   1      33.596  22.959  25.211  1.00  0.00     0.086 A 
ATOM     10  C   UNL A   1      31.884  21.202  22.180  1.00  0.00     0.044 C 
ATOM     11  C   UNL A   1      32.432  22.237  23.137  1.00  0.00    -0.046 A 
ATOM     12  C   UNL A   1      32.176  23.568  22.805  1.00  0.00     0.019 A 
ATOM     13  C   UNL A   1      33.121  21.916  24.352  1.00  0.00    -0.032 A 
ATOM     14  C   UNL A   1      32.614  24.589  23.630  1.00  0.00     0.066 A 
ATOM     15  C   UNL A   1      33.252  20.460  24.672  1.00  0.00     0.045 C 
ATOM     16  C   UNL A   1      32.314  25.981  23.253  1.00  0.00     0.200 A 
ATOM     17  C   UNL A   1      33.321  24.309  24.801  1.00  0.00     0.151 A 
ATOM     18  O   UNL A   1      31.705  26.252  22.226  1.00  0.00    -0.288 OA
ATOM     19  C   UNL A   1      32.766  27.031  24.166  1.00  0.00     0.065 A 
ATOM     20  O   UNL A   1      33.787  25.350  25.584  1.00  0.00    -0.455 OA
ATOM     21  C   UNL A   1      32.492  28.378  23.920  1.00  0.00     0.016 A 
ATOM     22  C   UNL A   1      33.476  26.646  25.291  1.00  0.00     0.138 A 
ATOM     23  C   UNL A   1      32.937  29.345  24.822  1.00  0.00     0.001 A 
ATOM     24  C   UNL A   1      33.919  27.613  26.194  1.00  0.00     0.048 A 
ATOM     25  C   UNL A   1      33.649  28.963  25.959  1.00  0.00     0.004 A 
ENDBRANCH   6   9
ENDBRANCH   4   5
ENDBRANCH   3   4
ENDBRANCH   2   3
ENDBRANCH   1   2
BRANCH   1  26
ATOM     26  C   UNL A   1      38.041  19.693  25.014  1.00  0.00     0.021 C 
BRANCH  26  27
ATOM     27  C   UNL A   1      39.244  20.167  25.817  1.00  0.00     0.116 C 
BRANCH  27  28
ATOM     28  N   UNL A   1      40.287  19.154  25.888  1.00  0.00    -0.352 N 
ATOM     29  C   UNL A   1      41.641  19.291  26.072  1.00  0.00     0.251 C 
ATOM     30  H   UNL A   1      39.973  18.227  25.789  1.00  0.00     0.163 HD
ATOM     31  O   UNL A   1      42.390  18.343  25.875  1.00  0.00    -0.269 OA
BRANCH  29  32
ATOM     32  C   UNL A   1      42.189  20.595  26.495  1.00  0.00     0.039 A 
ATOM     33  C   UNL A   1      42.234  20.936  27.847  1.00  0.00     0.014 A 
ATOM     34  C   UNL A   1      42.663  21.485  25.528  1.00  0.00     0.014 A 
ATOM     35  C   UNL A   1      42.578  22.226  28.218  1.00  0.00     0.010 A 
ATOM     36  C   UNL A   1      43.116  22.749  25.917  1.00  0.00     0.010 A 
ATOM     37  C   UNL A   1      43.032  23.147  27.259  1.00  0.00    -0.014 A 
BRANCH  37  38
ATOM     38  C   UNL A   1      43.417  24.512  27.702  1.00  0.00     0.031 A 
ATOM     39  C   UNL A   1      44.858  24.938  27.721  1.00  0.00     0.074 A 
ATOM     40  C   UNL A   1      42.446  25.389  28.019  1.00  0.00     0.049 A 
ATOM     41  N   UNL A   1      45.366  26.108  28.019  1.00  0.00    -0.248 NA
ATOM     42  C   UNL A   1      45.865  23.926  27.364  1.00  0.00     0.031 C 
ATOM     43  C   UNL A   1      41.012  25.087  28.032  1.00  0.00     0.029 A 
ATOM     44  N   UNL A   1      42.507  26.718  28.354  1.00  0.00    -0.354 N 
ATOM     45  C   UNL A   1      46.743  25.968  27.898  1.00  0.00     0.074 A 
ATOM     46  C   UNL A   1      46.998  24.590  27.540  1.00  0.00     0.031 C 
ATOM     47  C   UNL A   1      40.328  26.210  28.290  1.00  0.00     0.029 A 
ATOM     48  C   UNL A   1      41.273  27.295  28.532  1.00  0.00     0.049 A 
ATOM     49  H   UNL A   1      43.353  27.211  28.457  1.00  0.00     0.167 HD
ATOM     50  C   UNL A   1      47.702  26.911  28.050  1.00  0.00     0.037 A 
ATOM     51  C   UNL A   1      40.936  28.555  28.864  1.00  0.00     0.037 A 
ATOM     52  C   UNL A   1      47.438  28.287  28.387  1.00  0.00     0.049 A 
ATOM     53  C   UNL A   1      42.025  29.567  29.082  1.00  0.00     0.074 A 
ATOM     54  C   UNL A   1      48.342  29.323  28.540  1.00  0.00     0.029 A 
ATOM     55  N   UNL A   1      46.178  28.817  28.625  1.00  0.00    -0.354 N 
ATOM     56  N   UNL A   1      43.320  29.428  28.933  1.00  0.00    -0.248 NA
ATOM     57  C   UNL A   1      41.610  30.905  29.520  1.00  0.00     0.031 C 
ATOM     58  C   UNL A   1      47.636  30.465  28.924  1.00  0.00     0.029 A 
ATOM     59  C   UNL A   1      46.285  30.158  28.953  1.00  0.00     0.049 A 
ATOM     60  H   UNL A   1      45.333  28.313  28.569  1.00  0.00     0.167 HD
ATOM     61  C   UNL A   1      43.873  30.663  29.245  1.00  0.00     0.074 A 
ATOM     62  C   UNL A   1      42.771  31.545  29.568  1.00  0.00     0.031 C 
ATOM     63  C   UNL A   1      45.178  31.027  29.265  1.00  0.00     0.037 A 
BRANCH  50  64
ATOM     64  C   UNL A   1      49.134  26.501  27.854  1.00  0.00     0.064 A 
ATOM     65  C   UNL A   1      49.699  26.396  26.574  1.00  0.00     0.173 A 
ATOM     66  C   UNL A   1      49.972  26.291  28.960  1.00  0.00     0.173 A 
ATOM     67  F   UNL A   1      48.939  26.578  25.483  1.00  0.00    -0.203 F 
ATOM     68  C   UNL A   1      51.045  26.082  26.408  1.00  0.00     0.198 A 
ATOM     69  C   UNL A   1      51.325  26.007  28.791  1.00  0.00     0.198 A 
ATOM     70  F   UNL A   1      49.486  26.386  30.206  1.00  0.00    -0.203 F 
ATOM     71  F   UNL A   1      51.555  25.955  25.176  1.00  0.00    -0.200 F 
ATOM     72  C   UNL A   1      51.860  25.899  27.516  1.00  0.00     0.200 A 
ATOM     73  F   UNL A   1      52.114  25.848  29.862  1.00  0.00    -0.200 F 
ATOM     74  F   UNL A   1      53.160  25.618  27.355  1.00  0.00    -0.200 F 
ENDBRANCH  50  64
BRANCH  51  75
ATOM     75  C   UNL A   1      39.501  28.921  28.998  1.00  0.00     0.064 A 
ATOM     76  C   UNL A   1      38.757  29.337  27.886  1.00  0.00     0.173 A 
ATOM     77  C   UNL A   1      38.837  28.828  30.231  1.00  0.00     0.173 A 
ATOM     78  F   UNL A   1      39.351  29.459  26.690  1.00  0.00    -0.203 F 
ATOM     79  C   UNL A   1      37.405  29.652  28.004  1.00  0.00     0.198 A 
ATOM     80  C   UNL A   1      37.477  29.111  30.339  1.00  0.00     0.198 A 
ATOM     81  F   UNL A   1      39.502  28.430  31.324  1.00  0.00    -0.203 F 
ATOM     82  F   UNL A   1      36.723  30.078  26.932  1.00  0.00    -0.200 F 
ATOM     83  C   UNL A   1      36.764  29.528  29.227  1.00  0.00     0.200 A 
ATOM     84  F   UNL A   1      36.858  28.969  31.520  1.00  0.00    -0.200 F 
ATOM     85  F   UNL A   1      35.459  29.813  29.334  1.00  0.00    -0.200 F 
ENDBRANCH  51  75
BRANCH  63  86
ATOM     86  C   UNL A   1      45.501  32.445  29.636  1.00  0.00     0.064 A 
ATOM     87  C   UNL A   1      45.520  33.465  28.676  1.00  0.00     0.173 A 
ATOM     88  C   UNL A   1      45.699  32.800  30.980  1.00  0.00     0.173 A 
ATOM     89  F   UNL A   1      45.351  33.174  27.377  1.00  0.00    -0.203 F 
ATOM     90  C   UNL A   1      45.732  34.791  29.046  1.00  0.00     0.198 A 
ATOM     91  C   UNL A   1      45.878  34.130  31.350  1.00  0.00     0.198 A 
ATOM     92  F   UNL A   1      45.682  31.862  31.938  1.00  0.00    -0.203 F 
ATOM     93  F   UNL A   1      45.775  35.747  28.108  1.00  0.00    -0.200 F 
ATOM     94  C   UNL A   1      45.897  35.123  30.382  1.00  0.00     0.200 A 
ATOM     95  F   UNL A   1      46.019  34.451  32.642  1.00  0.00    -0.200 F 
ATOM     96  F   UNL A   1      46.075  36.403  30.738  1.00  0.00    -0.200 F 
ENDBRANCH  63  86
ENDBRANCH  37  38
ENDBRANCH  29  32
ENDBRANCH  27  28
ENDBRANCH  26  27
ENDBRANCH   1  26
TORSDOF 13
ENDMDL
MODEL 3
REMARK VINA RESULT:     -13.2      0.929      2.964
REMARK SMILES Cc1cc2c(=O)c3ccccc3oc2c(C(=O)NCCCCCCNC(=O)c2ccc(-c3c4nc(c(-c5c(F)c(F)c(F)c(F)c5F)c5ccc([nH]5)c(-c5c(F)c(F)c(F)c(F)c5F)c5nc(c(-c6c(F)c(F)c(F)c(F)c6F)c6ccc3[nH]6)C=C5)C=C4)cc2)c1C
REMARK SMILES IDX 22 1 21 2 20 3 19 4 18 5 16 6 17 7 15 9 1 10 2 11 3 12 91 13
REMARK SMILES IDX 4 14 92 15 5 16 14 17 6 18 7 19 13 20 8 21 12 22 9 23 11 24
REMARK SMILES IDX 10 25 23 26 24 27 25 28 26 29 27 31 28 32 29 33 90 34 30 35
REMARK SMILES IDX 89 36 31 37 32 38 33 39 83 40 34 41 88 42 82 43 84 44 35 45
REMARK SMILES IDX 87 46 81 47 80 48 36 50 68 51 48 52 67 53 49 54 52 55 66 56
REMARK SMILES IDX 85 57 50 58 51 59 65 61 86 62 53 63 37 64 38 65 46 66 39 67
REMARK SMILES IDX 40 68 44 69 47 70 41 71 42 72 45 73 43 74 69 75 70 76 78 77
REMARK SMILES IDX 71 78 72 79 76 80 79 81 73 82 74 83 77 84 75 85 54 86 55 87
REMARK SMILES IDX 63 88 56 89 57 90 61 91 64 92 58 93 59 94 62 95 60 96
REMARK H PARENT 18 8 25 30 84 49 52 60
REMARK Flexibility Score: inf
ROOT
ATOM      1  C   UNL A   1      31.632  30.775  26.087  1.00  0.00     0.002 C 
ENDROOT
BRANCH   1   2
ATOM      2  C   UNL A   1      31.722  29.567  27.028  1.00  0.00     0.002 C 
BRANCH   2   3
ATOM      3  C   UNL A   1      33.140  29.022  27.229  1.00  0.00     0.021 C 
BRANCH   3   4
ATOM      4  C   UNL A   1      34.117  29.571  26.192  1.00  0.00     0.116 C 
BRANCH   4   5
ATOM      5  N   UNL A   1      34.323  28.649  25.106  1.00  0.00    -0.352 N 
ATOM      6  C   UNL A   1      33.662  27.733  24.352  1.00  0.00     0.255 C 
ATOM      7  O   UNL A   1      34.209  27.679  23.241  1.00  0.00    -0.269 OA
ATOM      8  H   UNL A   1      35.260  28.700  24.811  1.00  0.00     0.163 HD
BRANCH   6   9
ATOM      9  C   UNL A   1      32.494  26.798  24.677  1.00  0.00     0.086 A 
ATOM     10  C   UNL A   1      31.197  23.479  26.260  1.00  0.00     0.044 C 
ATOM     11  C   UNL A   1      31.286  24.800  25.528  1.00  0.00    -0.046 A 
ATOM     12  C   UNL A   1      30.080  25.312  25.048  1.00  0.00     0.019 A 
ATOM     13  C   UNL A   1      32.499  25.546  25.372  1.00  0.00    -0.032 A 
ATOM     14  C   UNL A   1      30.052  26.528  24.387  1.00  0.00     0.066 A 
ATOM     15  C   UNL A   1      33.720  24.965  26.015  1.00  0.00     0.045 C 
ATOM     16  C   UNL A   1      28.758  27.041  23.905  1.00  0.00     0.200 A 
ATOM     17  C   UNL A   1      31.224  27.259  24.185  1.00  0.00     0.151 A 
ATOM     18  O   UNL A   1      27.718  26.413  24.061  1.00  0.00    -0.288 OA
ATOM     19  C   UNL A   1      28.764  28.344  23.240  1.00  0.00     0.065 A 
ATOM     20  O   UNL A   1      31.175  28.448  23.482  1.00  0.00    -0.455 OA
ATOM     21  C   UNL A   1      27.584  28.936  22.787  1.00  0.00     0.016 A 
ATOM     22  C   UNL A   1      29.984  28.978  23.074  1.00  0.00     0.138 A 
ATOM     23  C   UNL A   1      27.636  30.183  22.164  1.00  0.00     0.001 A 
ATOM     24  C   UNL A   1      30.037  30.225  22.452  1.00  0.00     0.048 A 
ATOM     25  C   UNL A   1      28.862  30.828  21.997  1.00  0.00     0.004 A 
ENDBRANCH   6   9
ENDBRANCH   4   5
ENDBRANCH   3   4
ENDBRANCH   2   3
ENDBRANCH   1   2
BRANCH   1  26
ATOM     26  C   UNL A   1      31.392  32.111  26.788  1.00  0.00     0.021 C 
BRANCH  26  27
ATOM     27  C   UNL A   1      32.669  32.830  27.196  1.00  0.00     0.116 C 
BRANCH  27  28
ATOM     28  N   UNL A   1      32.417  34.209  27.593  1.00  0.00    -0.352 N 
ATOM     29  C   UNL A   1      32.965  34.949  28.611  1.00  0.00     0.251 C 
ATOM     30  H   UNL A   1      31.749  34.683  27.047  1.00  0.00     0.163 HD
ATOM     31  O   UNL A   1      32.463  36.018  28.936  1.00  0.00    -0.269 OA
BRANCH  29  32
ATOM     32  C   UNL A   1      34.155  34.441  29.321  1.00  0.00     0.039 A 
ATOM     33  C   UNL A   1      35.428  34.616  28.778  1.00  0.00     0.014 A 
ATOM     34  C   UNL A   1      33.995  33.782  30.542  1.00  0.00     0.014 A 
ATOM     35  C   UNL A   1      36.514  33.979  29.357  1.00  0.00     0.010 A 
ATOM     36  C   UNL A   1      35.110  33.236  31.183  1.00  0.00     0.010 A 
ATOM     37  C   UNL A   1      36.371  33.288  30.571  1.00  0.00    -0.014 A 
BRANCH  37  38
ATOM     38  C   UNL A   1      37.566  32.642  31.174  1.00  0.00     0.031 A 
ATOM     39  C   UNL A   1      38.030  33.013  32.554  1.00  0.00     0.074 A 
ATOM     40  C   UNL A   1      38.188  31.662  30.489  1.00  0.00     0.049 A 
ATOM     41  N   UNL A   1      39.014  32.507  33.255  1.00  0.00    -0.248 NA
ATOM     42  C   UNL A   1      37.304  34.093  33.241  1.00  0.00     0.031 C 
ATOM     43  C   UNL A   1      37.823  31.217  29.143  1.00  0.00     0.029 A 
ATOM     44  N   UNL A   1      39.230  30.841  30.839  1.00  0.00    -0.354 N 
ATOM     45  C   UNL A   1      39.030  33.211  34.453  1.00  0.00     0.074 A 
ATOM     46  C   UNL A   1      37.987  34.209  34.371  1.00  0.00     0.031 C 
ATOM     47  C   UNL A   1      38.578  30.161  28.809  1.00  0.00     0.029 A 
ATOM     48  C   UNL A   1      39.530  29.901  29.883  1.00  0.00     0.049 A 
ATOM     49  H   UNL A   1      39.716  30.918  31.692  1.00  0.00     0.167 HD
ATOM     50  C   UNL A   1      39.830  33.023  35.529  1.00  0.00     0.037 A 
ATOM     51  C   UNL A   1      40.473  28.941  29.866  1.00  0.00     0.037 A 
ATOM     52  C   UNL A   1      40.854  32.013  35.610  1.00  0.00     0.049 A 
ATOM     53  C   UNL A   1      41.384  28.794  31.052  1.00  0.00     0.074 A 
ATOM     54  C   UNL A   1      41.700  31.730  36.668  1.00  0.00     0.029 A 
ATOM     55  N   UNL A   1      41.172  31.124  34.594  1.00  0.00    -0.354 N 
ATOM     56  N   UNL A   1      41.367  29.446  32.189  1.00  0.00    -0.248 NA
ATOM     57  C   UNL A   1      42.446  27.785  30.952  1.00  0.00     0.031 C 
ATOM     58  C   UNL A   1      42.565  30.708  36.273  1.00  0.00     0.029 A 
ATOM     59  C   UNL A   1      42.221  30.311  34.991  1.00  0.00     0.049 A 
ATOM     60  H   UNL A   1      40.718  31.077  33.721  1.00  0.00     0.167 HD
ATOM     61  C   UNL A   1      42.405  28.918  32.946  1.00  0.00     0.074 A 
ATOM     62  C   UNL A   1      43.016  27.876  32.146  1.00  0.00     0.031 C 
ATOM     63  C   UNL A   1      42.815  29.272  34.187  1.00  0.00     0.037 A 
BRANCH  50  64
ATOM     64  C   UNL A   1      39.639  33.923  36.716  1.00  0.00     0.064 A 
ATOM     65  C   UNL A   1      38.825  33.551  37.797  1.00  0.00     0.173 A 
ATOM     66  C   UNL A   1      40.342  35.135  36.812  1.00  0.00     0.173 A 
ATOM     67  F   UNL A   1      38.124  32.408  37.752  1.00  0.00    -0.203 F 
ATOM     68  C   UNL A   1      38.711  34.363  38.922  1.00  0.00     0.198 A 
ATOM     69  C   UNL A   1      40.249  35.930  37.952  1.00  0.00     0.198 A 
ATOM     70  F   UNL A   1      41.140  35.536  35.811  1.00  0.00    -0.203 F 
ATOM     71  F   UNL A   1      37.901  34.003  39.927  1.00  0.00    -0.200 F 
ATOM     72  C   UNL A   1      39.431  35.546  39.004  1.00  0.00     0.200 A 
ATOM     73  F   UNL A   1      40.959  37.063  38.036  1.00  0.00    -0.200 F 
ATOM     74  F   UNL A   1      39.336  36.317  40.096  1.00  0.00    -0.200 F 
ENDBRANCH  50  64
BRANCH  51  75
ATOM     75  C   UNL A   1      40.589  28.045  28.686  1.00  0.00     0.064 A 
ATOM     76  C   UNL A   1      39.902  26.824  28.638  1.00  0.00     0.173 A 
ATOM     77  C   UNL A   1      41.357  28.406  27.568  1.00  0.00     0.173 A 
ATOM     78  F   UNL A   1      39.169  26.427  29.688  1.00  0.00    -0.203 F 
ATOM     79  C   UNL A   1      39.985  25.997  27.521  1.00  0.00     0.198 A 
ATOM     80  C   UNL A   1      41.411  27.593  26.438  1.00  0.00     0.198 A 
ATOM     81  F   UNL A   1      42.029  29.566  27.561  1.00  0.00    -0.203 F 
ATOM     82  F   UNL A   1      39.345  24.819  27.513  1.00  0.00    -0.200 F 
ATOM     83  C   UNL A   1      40.730  26.386  26.418  1.00  0.00     0.200 A 
ATOM     84  F   UNL A   1      42.116  27.985  25.367  1.00  0.00    -0.200 F 
ATOM     85  F   UNL A   1      40.794  25.598  25.336  1.00  0.00    -0.200 F 
ENDBRANCH  51  75
BRANCH  63  86
ATOM     86  C   UNL A   1      43.974  28.524  34.779  1.00  0.00     0.064 A 
ATOM     87  C   UNL A   1      45.286  29.006  34.674  1.00  0.00     0.173 A 
ATOM     88  C   UNL A   1      43.757  27.364  35.540  1.00  0.00     0.173 A 
ATOM     89  F   UNL A   1      45.546  30.102  33.945  1.00  0.00    -0.203 F 
ATOM     90  C   UNL A   1      46.341  28.350  35.303  1.00  0.00     0.198 A 
ATOM     91  C   UNL A   1      44.809  26.729  36.194  1.00  0.00     0.198 A 
ATOM     92  F   UNL A   1      42.519  26.867  35.678  1.00  0.00    -0.203 F 
ATOM     93  F   UNL A   1      47.591  28.812  35.165  1.00  0.00    -0.200 F 
ATOM     94  C   UNL A   1      46.100  27.222  36.072  1.00  0.00     0.200 A 
ATOM     95  F   UNL A   1      44.571  25.651  36.952  1.00  0.00    -0.200 F 
ATOM     96  F   UNL A   1      47.113  26.608  36.699  1.00  0.00    -0.200 F 
ENDBRANCH  63  86
ENDBRANCH  37  38
ENDBRANCH  29  32
ENDBRANCH  27  28
ENDBRANCH  26  27
ENDBRANCH   1  26
TORSDOF 13
ENDMDL
