MODEL 1
REMARK VINA RESULT:     -11.6      0.000      0.000
REMARK SMILES CCC1(CC)CCN(C(=O)NC(CC)(CC)C(=O)NCCCCCCNC(=O)c2ccc(-c3c4nc(c(-c5c(F)c(F)c(F)c(F)c5F)c5ccc([nH]5)c(-c5c(F)c(F)c(F)c(F)c5F)c5nc(c(-c6c(F)c(F)c(F)c(F)c6F)c6ccc3[nH]6)C=C5)C=C4)cc2)CC1
REMARK SMILES IDX 22 1 21 2 20 3 19 4 17 5 18 6 12 8 11 9 3 10 6 11 93 12 7 13
REMARK SMILES IDX 92 14 8 15 9 16 10 17 2 19 1 20 4 21 5 22 13 23 14 24 15 25
REMARK SMILES IDX 16 26 23 27 24 28 25 29 26 30 27 31 28 33 29 34 30 35 91 36
REMARK SMILES IDX 31 37 90 38 32 39 33 40 34 41 84 42 35 43 89 44 83 45 85 46
REMARK SMILES IDX 36 47 88 48 82 49 81 50 37 52 69 53 49 54 68 55 50 56 53 57
REMARK SMILES IDX 67 58 86 59 51 60 52 61 66 63 87 64 54 65 38 66 39 67 47 68
REMARK SMILES IDX 40 69 41 70 45 71 48 72 42 73 43 74 46 75 44 76 70 77 71 78
REMARK SMILES IDX 79 79 72 80 73 81 77 82 80 83 74 84 75 85 78 86 76 87 55 88
REMARK SMILES IDX 56 89 64 90 57 91 58 92 62 93 65 94 59 95 60 96 63 97 61 98
REMARK H PARENT 19 7 11 18 26 32 85 51 53 62
REMARK Flexibility Score: inf
ROOT
ATOM      1  C   UNL A   1      37.632  21.933  25.384  1.00  0.00     0.002 C 
ENDROOT
BRANCH   1   2
ATOM      2  C   UNL A   1      37.433  23.135  24.449  1.00  0.00     0.021 C 
BRANCH   2   3
ATOM      3  C   UNL A   1      36.316  22.958  23.419  1.00  0.00     0.116 C 
BRANCH   3   4
ATOM      4  N   UNL A   1      35.084  23.586  23.841  1.00  0.00    -0.354 N 
ATOM      5  C   UNL A   1      33.930  22.835  23.817  1.00  0.00     0.245 C 
ATOM      6  O   UNL A   1      33.382  22.651  22.733  1.00  0.00    -0.272 OA
ATOM      7  H   UNL A   1      35.070  24.525  24.136  1.00  0.00     0.163 HD
BRANCH   5   8
ATOM      8  C   UNL A   1      33.432  22.243  25.170  1.00  0.00     0.120 C 
BRANCH   8   9
ATOM      9  N   UNL A   1      31.978  22.435  25.480  1.00  0.00    -0.323 N 
ATOM     10  C   UNL A   1      31.050  27.012  24.113  1.00  0.00    -0.027 C 
ATOM     11  C   UNL A   1      29.786  26.224  24.595  1.00  0.00     0.028 C 
ATOM     12  C   UNL A   1      32.289  26.091  24.346  1.00  0.00     0.028 C 
ATOM     13  C   UNL A   1      29.952  25.471  25.935  1.00  0.00     0.122 C 
ATOM     14  C   UNL A   1      32.347  25.470  25.740  1.00  0.00     0.122 C 
ATOM     15  N   UNL A   1      31.172  24.657  25.927  1.00  0.00    -0.325 N 
ATOM     16  C   UNL A   1      31.053  23.302  25.910  1.00  0.00     0.318 C 
ATOM     17  O   UNL A   1      29.986  22.758  26.226  1.00  0.00    -0.249 OA
ATOM     18  H   UNL A   1      31.521  21.583  25.292  1.00  0.00     0.166 HD
BRANCH  10  19
ATOM     19  C   UNL A   1      31.267  28.308  24.962  1.00  0.00     0.004 C 
ATOM     20  C   UNL A   1      32.590  29.046  24.837  1.00  0.00     0.004 C 
ENDBRANCH  10  19
BRANCH  10  21
ATOM     21  C   UNL A   1      30.983  27.230  22.563  1.00  0.00     0.004 C 
ATOM     22  C   UNL A   1      31.552  26.150  21.650  1.00  0.00     0.004 C 
ENDBRANCH  10  21
ENDBRANCH   8   9
BRANCH   8  23
ATOM     23  C   UNL A   1      34.285  22.742  26.386  1.00  0.00     0.035 C 
ATOM     24  C   UNL A   1      34.080  22.009  27.712  1.00  0.00     0.007 C 
ENDBRANCH   8  23
BRANCH   8  25
ATOM     25  C   UNL A   1      33.626  20.691  24.954  1.00  0.00     0.035 C 
ATOM     26  C   UNL A   1      32.345  19.880  24.705  1.00  0.00     0.007 C 
ENDBRANCH   8  25
ENDBRANCH   5   8
ENDBRANCH   3   4
ENDBRANCH   2   3
ENDBRANCH   1   2
BRANCH   1  27
ATOM     27  C   UNL A   1      37.271  20.571  24.784  1.00  0.00     0.002 C 
BRANCH  27  28
ATOM     28  C   UNL A   1      38.309  19.474  25.013  1.00  0.00     0.021 C 
BRANCH  28  29
ATOM     29  C   UNL A   1      39.527  19.911  25.814  1.00  0.00     0.116 C 
BRANCH  29  30
ATOM     30  N   UNL A   1      40.539  18.873  25.895  1.00  0.00    -0.352 N 
ATOM     31  C   UNL A   1      41.890  19.019  26.084  1.00  0.00     0.251 C 
ATOM     32  H   UNL A   1      40.214  17.948  25.803  1.00  0.00     0.163 HD
ATOM     33  O   UNL A   1      42.649  18.061  25.969  1.00  0.00    -0.269 OA
BRANCH  31  34
ATOM     34  C   UNL A   1      42.432  20.360  26.389  1.00  0.00     0.039 A 
ATOM     35  C   UNL A   1      42.989  21.111  25.354  1.00  0.00     0.014 A 
ATOM     36  C   UNL A   1      42.341  20.890  27.680  1.00  0.00     0.014 A 
ATOM     37  C   UNL A   1      43.394  22.425  25.597  1.00  0.00     0.010 A 
ATOM     38  C   UNL A   1      42.679  22.221  27.905  1.00  0.00     0.010 A 
ATOM     39  C   UNL A   1      43.204  23.002  26.864  1.00  0.00    -0.014 A 
BRANCH  39  40
ATOM     40  C   UNL A   1      43.527  24.430  27.109  1.00  0.00     0.031 A 
ATOM     41  C   UNL A   1      44.917  24.946  26.869  1.00  0.00     0.074 A 
ATOM     42  C   UNL A   1      42.580  25.248  27.608  1.00  0.00     0.049 A 
ATOM     43  N   UNL A   1      45.402  26.144  27.078  1.00  0.00    -0.248 NA
ATOM     44  C   UNL A   1      45.898  23.983  26.347  1.00  0.00     0.031 C 
ATOM     45  C   UNL A   1      41.206  24.853  27.929  1.00  0.00     0.029 A 
ATOM     46  N   UNL A   1      42.629  26.578  27.942  1.00  0.00    -0.354 N 
ATOM     47  C   UNL A   1      46.742  26.075  26.722  1.00  0.00     0.074 A 
ATOM     48  C   UNL A   1      47.008  24.707  26.333  1.00  0.00     0.031 C 
ATOM     49  C   UNL A   1      40.539  25.922  28.393  1.00  0.00     0.029 A 
ATOM     50  C   UNL A   1      41.444  27.066  28.441  1.00  0.00     0.049 A 
ATOM     51  H   UNL A   1      43.436  27.131  27.837  1.00  0.00     0.167 HD
ATOM     52  C   UNL A   1      47.661  27.069  26.698  1.00  0.00     0.037 A 
ATOM     53  C   UNL A   1      41.128  28.294  28.893  1.00  0.00     0.037 A 
ATOM     54  C   UNL A   1      47.389  28.435  27.066  1.00  0.00     0.049 A 
ATOM     55  C   UNL A   1      42.174  29.376  28.874  1.00  0.00     0.074 A 
ATOM     56  C   UNL A   1      48.235  29.528  27.013  1.00  0.00     0.029 A 
ATOM     57  N   UNL A   1      46.177  28.891  27.564  1.00  0.00    -0.354 N 
ATOM     58  N   UNL A   1      43.416  29.317  28.464  1.00  0.00    -0.248 NA
ATOM     59  C   UNL A   1      41.770  30.695  29.380  1.00  0.00     0.031 C 
ATOM     60  C   UNL A   1      47.551  30.636  27.524  1.00  0.00     0.029 A 
ATOM     61  C   UNL A   1      46.262  30.245  27.849  1.00  0.00     0.049 A 
ATOM     62  H   UNL A   1      45.374  28.335  27.694  1.00  0.00     0.167 HD
ATOM     63  C   UNL A   1      43.937  30.591  28.641  1.00  0.00     0.074 A 
ATOM     64  C   UNL A   1      42.869  31.408  29.177  1.00  0.00     0.031 C 
ATOM     65  C   UNL A   1      45.190  31.043  28.386  1.00  0.00     0.037 A 
BRANCH  52  66
ATOM     66  C   UNL A   1      49.053  26.721  26.256  1.00  0.00     0.064 A 
ATOM     67  C   UNL A   1      49.986  26.159  27.141  1.00  0.00     0.173 A 
ATOM     68  C   UNL A   1      49.444  26.907  24.922  1.00  0.00     0.173 A 
ATOM     69  F   UNL A   1      49.665  25.970  28.430  1.00  0.00    -0.203 F 
ATOM     70  C   UNL A   1      51.267  25.820  26.713  1.00  0.00     0.198 A 
ATOM     71  C   UNL A   1      50.715  26.540  24.490  1.00  0.00     0.198 A 
ATOM     72  F   UNL A   1      48.589  27.436  24.033  1.00  0.00    -0.203 F 
ATOM     73  F   UNL A   1      52.155  25.327  27.586  1.00  0.00    -0.200 F 
ATOM     74  C   UNL A   1      51.628  26.004  25.386  1.00  0.00     0.200 A 
ATOM     75  F   UNL A   1      51.059  26.706  23.205  1.00  0.00    -0.200 F 
ATOM     76  F   UNL A   1      52.858  25.669  24.973  1.00  0.00    -0.200 F 
ENDBRANCH  52  66
BRANCH  53  77
ATOM     77  C   UNL A   1      39.755  28.571  29.392  1.00  0.00     0.064 A 
ATOM     78  C   UNL A   1      38.771  29.089  28.540  1.00  0.00     0.173 A 
ATOM     79  C   UNL A   1      39.402  28.331  30.728  1.00  0.00     0.173 A 
ATOM     80  F   UNL A   1      39.066  29.356  27.259  1.00  0.00    -0.203 F 
ATOM     81  C   UNL A   1      37.491  29.376  29.009  1.00  0.00     0.198 A 
ATOM     82  C   UNL A   1      38.113  28.590  31.189  1.00  0.00     0.198 A 
ATOM     83  F   UNL A   1      40.306  27.831  31.583  1.00  0.00    -0.203 F 
ATOM     84  F   UNL A   1      36.581  29.914  28.184  1.00  0.00    -0.200 F 
ATOM     85  C   UNL A   1      37.161  29.121  30.331  1.00  0.00     0.200 A 
ATOM     86  F   UNL A   1      37.795  28.329  32.464  1.00  0.00    -0.200 F 
ATOM     87  F   UNL A   1      35.929  29.393  30.782  1.00  0.00    -0.200 F 
ENDBRANCH  53  77
BRANCH  65  88
ATOM     88  C   UNL A   1      45.467  32.491  28.666  1.00  0.00     0.064 A 
ATOM     89  C   UNL A   1      45.205  33.486  27.712  1.00  0.00     0.173 A 
ATOM     90  C   UNL A   1      45.962  32.892  29.916  1.00  0.00     0.173 A 
ATOM     91  F   UNL A   1      44.747  33.151  26.496  1.00  0.00    -0.203 F 
ATOM     92  C   UNL A   1      45.453  34.827  27.992  1.00  0.00     0.198 A 
ATOM     93  C   UNL A   1      46.180  34.237  30.203  1.00  0.00     0.198 A 
ATOM     94  F   UNL A   1      46.222  31.981  30.865  1.00  0.00    -0.203 F 
ATOM     95  F   UNL A   1      45.241  35.755  27.048  1.00  0.00    -0.200 F 
ATOM     96  C   UNL A   1      45.933  35.202  29.238  1.00  0.00     0.200 A 
ATOM     97  F   UNL A   1      46.630  34.599  31.411  1.00  0.00    -0.200 F 
ATOM     98  F   UNL A   1      46.163  36.495  29.507  1.00  0.00    -0.200 F 
ENDBRANCH  65  88
ENDBRANCH  39  40
ENDBRANCH  31  34
ENDBRANCH  29  30
ENDBRANCH  28  29
ENDBRANCH  27  28
ENDBRANCH   1  27
TORSDOF 18
ENDMDL
MODEL 2
REMARK VINA RESULT:     -11.6      0.997      7.262
REMARK SMILES CCC1(CC)CCN(C(=O)NC(CC)(CC)C(=O)NCCCCCCNC(=O)c2ccc(-c3c4nc(c(-c5c(F)c(F)c(F)c(F)c5F)c5ccc([nH]5)c(-c5c(F)c(F)c(F)c(F)c5F)c5nc(c(-c6c(F)c(F)c(F)c(F)c6F)c6ccc3[nH]6)C=C5)C=C4)cc2)CC1
REMARK SMILES IDX 22 1 21 2 20 3 19 4 17 5 18 6 12 8 11 9 3 10 6 11 93 12 7 13
REMARK SMILES IDX 92 14 8 15 9 16 10 17 2 19 1 20 4 21 5 22 13 23 14 24 15 25
REMARK SMILES IDX 16 26 23 27 24 28 25 29 26 30 27 31 28 33 29 34 30 35 91 36
REMARK SMILES IDX 31 37 90 38 32 39 33 40 34 41 84 42 35 43 89 44 83 45 85 46
REMARK SMILES IDX 36 47 88 48 82 49 81 50 37 52 69 53 49 54 68 55 50 56 53 57
REMARK SMILES IDX 67 58 86 59 51 60 52 61 66 63 87 64 54 65 38 66 39 67 47 68
REMARK SMILES IDX 40 69 41 70 45 71 48 72 42 73 43 74 46 75 44 76 70 77 71 78
REMARK SMILES IDX 79 79 72 80 73 81 77 82 80 83 74 84 75 85 78 86 76 87 55 88
REMARK SMILES IDX 56 89 64 90 57 91 58 92 62 93 65 94 59 95 60 96 63 97 61 98
REMARK H PARENT 19 7 11 18 26 32 85 51 53 62
REMARK Flexibility Score: inf
ROOT
ATOM      1  C   UNL A   1      36.955  22.171  24.543  1.00  0.00     0.002 C 
ENDROOT
BRANCH   1   2
ATOM      2  C   UNL A   1      37.104  23.262  25.614  1.00  0.00     0.021 C 
BRANCH   2   3
ATOM      3  C   UNL A   1      35.820  24.039  25.909  1.00  0.00     0.116 C 
BRANCH   3   4
ATOM      4  N   UNL A   1      34.768  23.181  26.406  1.00  0.00    -0.354 N 
ATOM      5  C   UNL A   1      33.465  23.512  26.110  1.00  0.00     0.245 C 
ATOM      6  O   UNL A   1      32.936  24.414  26.755  1.00  0.00    -0.272 OA
ATOM      7  H   UNL A   1      34.978  22.382  26.942  1.00  0.00     0.163 HD
BRANCH   5   8
ATOM      8  C   UNL A   1      32.774  22.737  24.948  1.00  0.00     0.120 C 
BRANCH   8   9
ATOM      9  N   UNL A   1      33.253  23.056  23.564  1.00  0.00    -0.323 N 
ATOM     10  C   UNL A   1      32.836  27.893  23.233  1.00  0.00    -0.027 C 
ATOM     11  C   UNL A   1      33.497  27.225  21.981  1.00  0.00     0.028 C 
ATOM     12  C   UNL A   1      32.382  26.744  24.188  1.00  0.00     0.028 C 
ATOM     13  C   UNL A   1      32.744  25.999  21.416  1.00  0.00     0.122 C 
ATOM     14  C   UNL A   1      31.593  25.637  23.493  1.00  0.00     0.122 C 
ATOM     15  N   UNL A   1      32.432  25.042  22.484  1.00  0.00    -0.325 N 
ATOM     16  C   UNL A   1      33.076  23.845  22.496  1.00  0.00     0.318 C 
ATOM     17  O   UNL A   1      33.650  23.425  21.481  1.00  0.00    -0.249 OA
ATOM     18  H   UNL A   1      33.993  22.441  23.358  1.00  0.00     0.166 HD
BRANCH  10  19
ATOM     19  C   UNL A   1      31.556  28.701  22.834  1.00  0.00     0.004 C 
ATOM     20  C   UNL A   1      30.698  29.293  23.940  1.00  0.00     0.004 C 
ENDBRANCH  10  19
BRANCH  10  21
ATOM     21  C   UNL A   1      33.913  28.699  24.038  1.00  0.00     0.004 C 
ATOM     22  C   UNL A   1      33.949  28.550  25.554  1.00  0.00     0.004 C 
ENDBRANCH  10  21
ENDBRANCH   8   9
BRANCH   8  23
ATOM     23  C   UNL A   1      31.213  22.868  24.992  1.00  0.00     0.035 C 
ATOM     24  C   UNL A   1      30.540  22.579  26.334  1.00  0.00     0.007 C 
ENDBRANCH   8  23
BRANCH   8  25
ATOM     25  C   UNL A   1      33.215  21.246  25.223  1.00  0.00     0.035 C 
ATOM     26  C   UNL A   1      32.594  20.180  24.309  1.00  0.00     0.007 C 
ENDBRANCH   8  25
ENDBRANCH   5   8
ENDBRANCH   3   4
ENDBRANCH   2   3
ENDBRANCH   1   2
BRANCH   1  27
ATOM     27  C   UNL A   1      36.890  20.736  25.076  1.00  0.00     0.002 C 
BRANCH  27  28
ATOM     28  C   UNL A   1      38.148  19.904  24.830  1.00  0.00     0.021 C 
BRANCH  28  29
ATOM     29  C   UNL A   1      39.307  20.214  25.766  1.00  0.00     0.116 C 
BRANCH  29  30
ATOM     30  N   UNL A   1      40.230  19.101  25.893  1.00  0.00    -0.352 N 
ATOM     31  C   UNL A   1      41.583  19.143  26.115  1.00  0.00     0.251 C 
ATOM     32  H   UNL A   1      39.835  18.203  25.811  1.00  0.00     0.163 HD
ATOM     33  O   UNL A   1      42.265  18.125  26.039  1.00  0.00    -0.269 OA
BRANCH  31  34
ATOM     34  C   UNL A   1      42.223  20.443  26.408  1.00  0.00     0.039 A 
ATOM     35  C   UNL A   1      42.727  21.198  25.348  1.00  0.00     0.014 A 
ATOM     36  C   UNL A   1      42.277  20.933  27.716  1.00  0.00     0.014 A 
ATOM     37  C   UNL A   1      43.224  22.480  25.591  1.00  0.00     0.010 A 
ATOM     38  C   UNL A   1      42.706  22.236  27.947  1.00  0.00     0.010 A 
ATOM     39  C   UNL A   1      43.179  23.024  26.886  1.00  0.00    -0.014 A 
BRANCH  39  40
ATOM     40  C   UNL A   1      43.602  24.424  27.141  1.00  0.00     0.031 A 
ATOM     41  C   UNL A   1      42.612  25.437  27.640  1.00  0.00     0.074 A 
ATOM     42  C   UNL A   1      44.866  24.796  26.862  1.00  0.00     0.049 A 
ATOM     43  N   UNL A   1      42.779  26.714  27.868  1.00  0.00    -0.248 NA
ATOM     44  C   UNL A   1      41.246  24.954  27.896  1.00  0.00     0.031 C 
ATOM     45  C   UNL A   1      45.908  23.916  26.327  1.00  0.00     0.029 A 
ATOM     46  N   UNL A   1      45.490  26.013  26.981  1.00  0.00    -0.354 N 
ATOM     47  C   UNL A   1      41.542  27.189  28.284  1.00  0.00     0.074 A 
ATOM     48  C   UNL A   1      40.620  26.075  28.229  1.00  0.00     0.031 C 
ATOM     49  C   UNL A   1      47.044  24.616  26.184  1.00  0.00     0.029 A 
ATOM     50  C   UNL A   1      46.804  26.001  26.578  1.00  0.00     0.049 A 
ATOM     51  H   UNL A   1      45.039  26.819  27.322  1.00  0.00     0.167 HD
ATOM     52  C   UNL A   1      41.212  28.435  28.698  1.00  0.00     0.037 A 
ATOM     53  C   UNL A   1      47.709  26.996  26.525  1.00  0.00     0.037 A 
ATOM     54  C   UNL A   1      42.137  29.537  28.772  1.00  0.00     0.049 A 
ATOM     55  C   UNL A   1      47.310  28.377  26.972  1.00  0.00     0.074 A 
ATOM     56  C   UNL A   1      41.914  30.819  29.240  1.00  0.00     0.029 A 
ATOM     57  N   UNL A   1      43.460  29.486  28.358  1.00  0.00    -0.354 N 
ATOM     58  N   UNL A   1      46.158  28.794  27.435  1.00  0.00    -0.248 NA
ATOM     59  C   UNL A   1      48.340  29.421  26.891  1.00  0.00     0.031 C 
ATOM     60  C   UNL A   1      43.089  31.559  29.065  1.00  0.00     0.029 A 
ATOM     61  C   UNL A   1      44.058  30.724  28.532  1.00  0.00     0.049 A 
ATOM     62  H   UNL A   1      43.908  28.688  27.994  1.00  0.00     0.167 HD
ATOM     63  C   UNL A   1      46.328  30.142  27.721  1.00  0.00     0.074 A 
ATOM     64  C   UNL A   1      47.702  30.467  27.397  1.00  0.00     0.031 C 
ATOM     65  C   UNL A   1      45.426  31.032  28.203  1.00  0.00     0.037 A 
BRANCH  52  66
ATOM     66  C   UNL A   1      39.789  28.678  29.109  1.00  0.00     0.064 A 
ATOM     67  C   UNL A   1      39.364  28.486  30.432  1.00  0.00     0.173 A 
ATOM     68  C   UNL A   1      38.850  29.151  28.181  1.00  0.00     0.173 A 
ATOM     69  F   UNL A   1      40.219  28.024  31.357  1.00  0.00    -0.203 F 
ATOM     70  C   UNL A   1      38.045  28.735  30.805  1.00  0.00     0.198 A 
ATOM     71  C   UNL A   1      37.540  29.428  28.563  1.00  0.00     0.198 A 
ATOM     72  F   UNL A   1      39.205  29.357  26.903  1.00  0.00    -0.203 F 
ATOM     73  F   UNL A   1      37.651  28.503  32.064  1.00  0.00    -0.200 F 
ATOM     74  C   UNL A   1      37.137  29.213  29.872  1.00  0.00     0.200 A 
ATOM     75  F   UNL A   1      36.667  29.902  27.664  1.00  0.00    -0.200 F 
ATOM     76  F   UNL A   1      35.871  29.462  30.234  1.00  0.00    -0.200 F 
ENDBRANCH  52  66
BRANCH  53  77
ATOM     77  C   UNL A   1      49.087  26.722  26.039  1.00  0.00     0.064 A 
ATOM     78  C   UNL A   1      49.444  26.975  24.708  1.00  0.00     0.173 A 
ATOM     79  C   UNL A   1      50.070  26.197  26.891  1.00  0.00     0.173 A 
ATOM     80  F   UNL A   1      48.533  27.458  23.850  1.00  0.00    -0.203 F 
ATOM     81  C   UNL A   1      50.727  26.696  24.242  1.00  0.00     0.198 A 
ATOM     82  C   UNL A   1      51.361  25.944  26.431  1.00  0.00     0.198 A 
ATOM     83  F   UNL A   1      49.780  25.941  28.175  1.00  0.00    -0.203 F 
ATOM     84  F   UNL A   1      51.029  26.904  22.952  1.00  0.00    -0.200 F 
ATOM     85  C   UNL A   1      51.686  26.186  25.104  1.00  0.00     0.200 A 
ATOM     86  F   UNL A   1      52.287  25.466  27.271  1.00  0.00    -0.200 F 
ATOM     87  F   UNL A   1      52.920  25.920  24.656  1.00  0.00    -0.200 F 
ENDBRANCH  53  77
BRANCH  65  88
ATOM     88  C   UNL A   1      45.902  32.438  28.428  1.00  0.00     0.064 A 
ATOM     89  C   UNL A   1      45.771  33.423  27.438  1.00  0.00     0.173 A 
ATOM     90  C   UNL A   1      46.458  32.812  29.660  1.00  0.00     0.173 A 
ATOM     91  F   UNL A   1      45.261  33.110  26.237  1.00  0.00    -0.203 F 
ATOM     92  C   UNL A   1      46.203  34.726  27.666  1.00  0.00     0.198 A 
ATOM     93  C   UNL A   1      46.861  34.124  29.895  1.00  0.00     0.198 A 
ATOM     94  F   UNL A   1      46.598  31.910  30.642  1.00  0.00    -0.203 F 
ATOM     95  F   UNL A   1      46.113  35.640  26.689  1.00  0.00    -0.200 F 
ATOM     96  C   UNL A   1      46.740  35.078  28.896  1.00  0.00     0.200 A 
ATOM     97  F   UNL A   1      47.367  34.465  31.088  1.00  0.00    -0.200 F 
ATOM     98  F   UNL A   1      47.148  36.335  29.115  1.00  0.00    -0.200 F 
ENDBRANCH  65  88
ENDBRANCH  39  40
ENDBRANCH  31  34
ENDBRANCH  29  30
ENDBRANCH  28  29
ENDBRANCH  27  28
ENDBRANCH   1  27
TORSDOF 18
ENDMDL
MODEL 3
REMARK VINA RESULT:     -11.4      5.391     11.003
REMARK SMILES CCC1(CC)CCN(C(=O)NC(CC)(CC)C(=O)NCCCCCCNC(=O)c2ccc(-c3c4nc(c(-c5c(F)c(F)c(F)c(F)c5F)c5ccc([nH]5)c(-c5c(F)c(F)c(F)c(F)c5F)c5nc(c(-c6c(F)c(F)c(F)c(F)c6F)c6ccc3[nH]6)C=C5)C=C4)cc2)CC1
REMARK SMILES IDX 22 1 21 2 20 3 19 4 17 5 18 6 12 8 11 9 3 10 6 11 93 12 7 13
REMARK SMILES IDX 92 14 8 15 9 16 10 17 2 19 1 20 4 21 5 22 13 23 14 24 15 25
REMARK SMILES IDX 16 26 23 27 24 28 25 29 26 30 27 31 28 33 29 34 30 35 91 36
REMARK SMILES IDX 31 37 90 38 32 39 33 40 34 41 84 42 35 43 89 44 83 45 85 46
REMARK SMILES IDX 36 47 88 48 82 49 81 50 37 52 69 53 49 54 68 55 50 56 53 57
REMARK SMILES IDX 67 58 86 59 51 60 52 61 66 63 87 64 54 65 38 66 39 67 47 68
REMARK SMILES IDX 40 69 41 70 45 71 48 72 42 73 43 74 46 75 44 76 70 77 71 78
REMARK SMILES IDX 79 79 72 80 73 81 77 82 80 83 74 84 75 85 78 86 76 87 55 88
REMARK SMILES IDX 56 89 64 90 57 91 58 92 62 93 65 94 59 95 60 96 63 97 61 98
REMARK H PARENT 19 7 11 18 26 32 85 51 53 62
REMARK Flexibility Score: inf
ROOT
ATOM      1  C   UNL A   1      33.155  30.158  27.245  1.00  0.00     0.002 C 
ENDROOT
BRANCH   1   2
ATOM      2  C   UNL A   1      33.482  28.691  26.929  1.00  0.00     0.021 C 
BRANCH   2   3
ATOM      3  C   UNL A   1      33.963  28.443  25.498  1.00  0.00     0.116 C 
BRANCH   3   4
ATOM      4  N   UNL A   1      33.275  29.281  24.541  1.00  0.00    -0.354 N 
ATOM      5  C   UNL A   1      33.085  28.793  23.268  1.00  0.00     0.245 C 
ATOM      6  O   UNL A   1      34.037  28.812  22.493  1.00  0.00    -0.272 OA
ATOM      7  H   UNL A   1      32.953  30.177  24.794  1.00  0.00     0.163 HD
BRANCH   5   8
ATOM      8  C   UNL A   1      31.678  28.216  22.924  1.00  0.00     0.120 C 
BRANCH   8   9
ATOM      9  N   UNL A   1      31.649  27.089  21.938  1.00  0.00    -0.323 N 
ATOM     10  C   UNL A   1      33.098  23.214  24.500  1.00  0.00    -0.027 C 
ATOM     11  C   UNL A   1      32.664  22.880  23.033  1.00  0.00     0.028 C 
ATOM     12  C   UNL A   1      33.049  24.766  24.658  1.00  0.00     0.028 C 
ATOM     13  C   UNL A   1      33.276  23.789  21.944  1.00  0.00     0.122 C 
ATOM     14  C   UNL A   1      33.752  25.525  23.535  1.00  0.00     0.122 C 
ATOM     15  N   UNL A   1      33.103  25.205  22.290  1.00  0.00    -0.325 N 
ATOM     16  C   UNL A   1      32.251  25.959  21.545  1.00  0.00     0.318 C 
ATOM     17  O   UNL A   1      31.888  25.580  20.422  1.00  0.00    -0.249 OA
ATOM     18  H   UNL A   1      30.879  27.237  21.342  1.00  0.00     0.166 HD
BRANCH  10  19
ATOM     19  C   UNL A   1      34.572  22.764  24.771  1.00  0.00     0.004 C 
ATOM     20  C   UNL A   1      35.107  22.846  26.191  1.00  0.00     0.004 C 
ENDBRANCH  10  19
BRANCH  10  21
ATOM     21  C   UNL A   1      32.033  22.661  25.509  1.00  0.00     0.004 C 
ATOM     22  C   UNL A   1      31.244  23.657  26.351  1.00  0.00     0.004 C 
ENDBRANCH  10  21
ENDBRANCH   8   9
BRANCH   8  23
ATOM     23  C   UNL A   1      30.678  29.330  22.459  1.00  0.00     0.035 C 
ATOM     24  C   UNL A   1      29.900  30.054  23.558  1.00  0.00     0.007 C 
ENDBRANCH   8  23
BRANCH   8  25
ATOM     25  C   UNL A   1      31.218  27.597  24.302  1.00  0.00     0.035 C 
ATOM     26  C   UNL A   1      30.011  26.649  24.245  1.00  0.00     0.007 C 
ENDBRANCH   8  25
ENDBRANCH   5   8
ENDBRANCH   3   4
ENDBRANCH   2   3
ENDBRANCH   1   2
BRANCH   1  27
ATOM     27  C   UNL A   1      31.774  30.634  26.785  1.00  0.00     0.002 C 
BRANCH  27  28
ATOM     28  C   UNL A   1      31.559  32.145  26.858  1.00  0.00     0.021 C 
BRANCH  28  29
ATOM     29  C   UNL A   1      32.794  32.943  27.252  1.00  0.00     0.116 C 
BRANCH  29  30
ATOM     30  N   UNL A   1      32.469  34.290  27.683  1.00  0.00    -0.352 N 
ATOM     31  C   UNL A   1      33.017  35.004  28.720  1.00  0.00     0.251 C 
ATOM     32  H   UNL A   1      31.768  34.750  27.167  1.00  0.00     0.163 HD
ATOM     33  O   UNL A   1      32.531  36.074  29.072  1.00  0.00    -0.269 OA
BRANCH  31  34
ATOM     34  C   UNL A   1      34.181  34.446  29.440  1.00  0.00     0.039 A 
ATOM     35  C   UNL A   1      33.965  33.745  30.626  1.00  0.00     0.014 A 
ATOM     36  C   UNL A   1      35.472  34.572  28.916  1.00  0.00     0.014 A 
ATOM     37  C   UNL A   1      35.036  33.108  31.254  1.00  0.00     0.010 A 
ATOM     38  C   UNL A   1      36.525  33.879  29.504  1.00  0.00     0.010 A 
ATOM     39  C   UNL A   1      36.316  33.136  30.676  1.00  0.00    -0.014 A 
BRANCH  39  40
ATOM     40  C   UNL A   1      37.441  32.373  31.273  1.00  0.00     0.031 A 
ATOM     41  C   UNL A   1      37.955  32.721  32.640  1.00  0.00     0.074 A 
ATOM     42  C   UNL A   1      38.041  31.405  30.553  1.00  0.00     0.049 A 
ATOM     43  N   UNL A   1      38.960  32.208  33.302  1.00  0.00    -0.248 NA
ATOM     44  C   UNL A   1      37.260  33.807  33.349  1.00  0.00     0.031 C 
ATOM     45  C   UNL A   1      37.665  31.006  29.194  1.00  0.00     0.029 A 
ATOM     46  N   UNL A   1      39.099  30.585  30.858  1.00  0.00    -0.354 N 
ATOM     47  C   UNL A   1      39.024  32.911  34.497  1.00  0.00     0.074 A 
ATOM     48  C   UNL A   1      37.990  33.922  34.450  1.00  0.00     0.031 C 
ATOM     49  C   UNL A   1      38.466  30.006  28.792  1.00  0.00     0.029 A 
ATOM     50  C   UNL A   1      39.435  29.719  29.845  1.00  0.00     0.049 A 
ATOM     51  H   UNL A   1      39.573  30.615  31.719  1.00  0.00     0.167 HD
ATOM     52  C   UNL A   1      39.854  32.715  35.549  1.00  0.00     0.037 A 
ATOM     53  C   UNL A   1      40.419  28.803  29.771  1.00  0.00     0.037 A 
ATOM     54  C   UNL A   1      40.869  31.694  35.602  1.00  0.00     0.049 A 
ATOM     55  C   UNL A   1      41.340  28.619  30.947  1.00  0.00     0.074 A 
ATOM     56  C   UNL A   1      41.715  31.372  36.648  1.00  0.00     0.029 A 
ATOM     57  N   UNL A   1      41.178  30.834  34.558  1.00  0.00    -0.354 N 
ATOM     58  N   UNL A   1      41.342  29.238  32.101  1.00  0.00    -0.248 NA
ATOM     59  C   UNL A   1      42.394  27.604  30.808  1.00  0.00     0.031 C 
ATOM     60  C   UNL A   1      42.570  30.350  36.221  1.00  0.00     0.029 A 
ATOM     61  C   UNL A   1      42.223  30.002  34.926  1.00  0.00     0.049 A 
ATOM     62  H   UNL A   1      40.721  30.817  33.685  1.00  0.00     0.167 HD
ATOM     63  C   UNL A   1      42.379  28.678  32.834  1.00  0.00     0.074 A 
ATOM     64  C   UNL A   1      42.972  27.653  32.001  1.00  0.00     0.031 C 
ATOM     65  C   UNL A   1      42.804  28.988  34.083  1.00  0.00     0.037 A 
BRANCH  52  66
ATOM     66  C   UNL A   1      39.700  33.621  36.736  1.00  0.00     0.064 A 
ATOM     67  C   UNL A   1      40.383  34.845  36.819  1.00  0.00     0.173 A 
ATOM     68  C   UNL A   1      38.827  33.285  37.780  1.00  0.00     0.173 A 
ATOM     69  F   UNL A   1      41.238  35.208  35.851  1.00  0.00    -0.203 F 
ATOM     70  C   UNL A   1      40.214  35.686  37.916  1.00  0.00     0.198 A 
ATOM     71  C   UNL A   1      38.638  34.142  38.861  1.00  0.00     0.198 A 
ATOM     72  F   UNL A   1      38.146  32.129  37.748  1.00  0.00    -0.203 F 
ATOM     73  F   UNL A   1      40.909  36.829  37.994  1.00  0.00    -0.200 F 
ATOM     74  C   UNL A   1      39.337  35.338  38.932  1.00  0.00     0.200 A 
ATOM     75  F   UNL A   1      37.781  33.810  39.836  1.00  0.00    -0.200 F 
ATOM     76  F   UNL A   1      39.169  36.152  39.982  1.00  0.00    -0.200 F 
ENDBRANCH  52  66
BRANCH  53  77
ATOM     77  C   UNL A   1      40.578  27.980  28.544  1.00  0.00     0.064 A 
ATOM     78  C   UNL A   1      39.920  26.750  28.411  1.00  0.00     0.173 A 
ATOM     79  C   UNL A   1      41.394  28.402  27.484  1.00  0.00     0.173 A 
ATOM     80  F   UNL A   1      39.146  26.294  29.407  1.00  0.00    -0.203 F 
ATOM     81  C   UNL A   1      40.087  25.963  27.274  1.00  0.00     0.198 A 
ATOM     82  C   UNL A   1      41.537  27.627  26.334  1.00  0.00     0.198 A 
ATOM     83  F   UNL A   1      42.042  29.573  27.558  1.00  0.00    -0.203 F 
ATOM     84  F   UNL A   1      39.483  24.769  27.193  1.00  0.00    -0.200 F 
ATOM     85  C   UNL A   1      40.890  26.404  26.234  1.00  0.00     0.200 A 
ATOM     86  F   UNL A   1      42.303  28.064  25.326  1.00  0.00    -0.200 F 
ATOM     87  F   UNL A   1      41.048  25.649  25.139  1.00  0.00    -0.200 F 
ENDBRANCH  53  77
BRANCH  65  88
ATOM     88  C   UNL A   1      43.955  28.196  34.632  1.00  0.00     0.064 A 
ATOM     89  C   UNL A   1      43.760  26.955  35.258  1.00  0.00     0.173 A 
ATOM     90  C   UNL A   1      45.271  28.664  34.495  1.00  0.00     0.173 A 
ATOM     91  F   UNL A   1      42.520  26.473  35.427  1.00  0.00    -0.203 F 
ATOM     92  C   UNL A   1      44.838  26.225  35.748  1.00  0.00     0.198 A 
ATOM     93  C   UNL A   1      46.350  27.916  34.960  1.00  0.00     0.198 A 
ATOM     94  F   UNL A   1      45.512  29.841  33.899  1.00  0.00    -0.203 F 
ATOM     95  F   UNL A   1      44.625  25.065  36.385  1.00  0.00    -0.200 F 
ATOM     96  C   UNL A   1      46.132  26.701  35.593  1.00  0.00     0.200 A 
ATOM     97  F   UNL A   1      47.599  28.371  34.797  1.00  0.00    -0.200 F 
ATOM     98  F   UNL A   1      47.169  25.992  36.060  1.00  0.00    -0.200 F 
ENDBRANCH  65  88
ENDBRANCH  39  40
ENDBRANCH  31  34
ENDBRANCH  29  30
ENDBRANCH  28  29
ENDBRANCH  27  28
ENDBRANCH   1  27
TORSDOF 18
ENDMDL
