MODEL 1
REMARK VINA RESULT:     -11.5      0.000      0.000
REMARK SMILES CC[C@@H](C)N(CC)c1cc(C(=O)NCCCCCCNC(=O)c2ccc(-c3c4nc(c(-c5c(F)c(F)c(F)c(F)c5F)c5ccc([nH]5)c(-c5c(F)c(F)c(F)c(F)c5F)c5nc(c(-c6c(F)c(F)c(F)c(F)c6F)c6ccc3[nH]6)C=C5)C=C4)cc2)c2ccccc2n1
REMARK SMILES IDX 16 1 15 2 14 3 13 4 11 5 12 6 10 8 8 9 9 10 92 11 91 12
REMARK SMILES IDX 86 13 90 14 87 15 89 16 88 17 5 18 3 19 4 20 2 21 1 22 6 23
REMARK SMILES IDX 7 24 17 25 18 26 19 27 20 28 21 29 22 31 23 32 24 33 85 34
REMARK SMILES IDX 25 35 84 36 26 37 27 38 28 39 78 40 29 41 83 42 77 43 79 44
REMARK SMILES IDX 30 45 82 46 76 47 75 48 31 50 63 51 43 52 62 53 44 54 47 55
REMARK SMILES IDX 61 56 80 57 45 58 46 59 60 61 81 62 48 63 32 64 33 65 41 66
REMARK SMILES IDX 34 67 35 68 39 69 42 70 36 71 37 72 40 73 38 74 64 75 65 76
REMARK SMILES IDX 73 77 66 78 67 79 71 80 74 81 68 82 69 83 72 84 70 85 49 86
REMARK SMILES IDX 50 87 58 88 51 89 52 90 56 91 59 92 53 93 54 94 57 95 55 96
REMARK H PARENT 13 7 20 30 79 49 47 60
REMARK Flexibility Score: inf
ROOT
ATOM      1  C   UNL A   1      34.113  24.805  24.274  1.00  0.00     0.002 C 
ENDROOT
BRANCH   1   2
ATOM      2  C   UNL A   1      32.733  24.605  23.645  1.00  0.00     0.021 C 
BRANCH   2   3
ATOM      3  C   UNL A   1      32.633  25.073  22.185  1.00  0.00     0.116 C 
BRANCH   3   4
ATOM      4  N   UNL A   1      33.549  26.179  22.005  1.00  0.00    -0.352 N 
ATOM      5  C   UNL A   1      33.459  27.527  22.216  1.00  0.00     0.252 C 
ATOM      6  O   UNL A   1      34.324  28.212  21.661  1.00  0.00    -0.269 OA
ATOM      7  H   UNL A   1      34.424  25.901  21.653  1.00  0.00     0.163 HD
BRANCH   5   8
ATOM      8  C   UNL A   1      32.525  28.209  23.159  1.00  0.00     0.052 A 
ATOM      9  C   UNL A   1      30.192  28.860  23.348  1.00  0.00     0.130 A 
ATOM     10  C   UNL A   1      31.223  28.286  22.636  1.00  0.00     0.061 A 
ATOM     11  N   UNL A   1      30.470  29.490  24.496  1.00  0.00    -0.231 NA
ATOM     12  C   UNL A   1      31.685  29.410  25.046  1.00  0.00     0.073 A 
ATOM     13  C   UNL A   1      32.756  28.707  24.463  1.00  0.00     0.013 A 
ATOM     14  C   UNL A   1      31.849  30.031  26.277  1.00  0.00     0.029 A 
ATOM     15  C   UNL A   1      33.915  28.539  25.258  1.00  0.00     0.011 A 
ATOM     16  C   UNL A   1      33.042  29.950  26.992  1.00  0.00     0.002 A 
ATOM     17  C   UNL A   1      34.074  29.180  26.488  1.00  0.00     0.001 A 
BRANCH   9  18
ATOM     18  N   UNL A   1      28.877  28.792  22.907  1.00  0.00    -0.354 N 
BRANCH  18  19
ATOM     19  C   UNL A   1      28.222  29.975  22.303  1.00  0.00     0.080 C 
ATOM     20  C   UNL A   1      29.164  30.620  21.285  1.00  0.00     0.031 C 
BRANCH  19  21
ATOM     21  C   UNL A   1      27.652  30.964  23.341  1.00  0.00     0.021 C 
ATOM     22  C   UNL A   1      28.435  32.267  23.439  1.00  0.00     0.006 C 
ENDBRANCH  19  21
ENDBRANCH  18  19
BRANCH  18  23
ATOM     23  C   UNL A   1      28.011  27.750  23.479  1.00  0.00     0.115 C 
ATOM     24  C   UNL A   1      28.779  26.489  23.853  1.00  0.00     0.027 C 
ENDBRANCH  18  23
ENDBRANCH   9  18
ENDBRANCH   5   8
ENDBRANCH   3   4
ENDBRANCH   2   3
ENDBRANCH   1   2
BRANCH   1  25
ATOM     25  C   UNL A   1      34.190  24.408  25.750  1.00  0.00     0.002 C 
BRANCH  25  26
ATOM     26  C   UNL A   1      35.282  23.388  26.096  1.00  0.00     0.021 C 
BRANCH  26  27
ATOM     27  C   UNL A   1      36.679  23.750  25.597  1.00  0.00     0.116 C 
BRANCH  27  28
ATOM     28  N   UNL A   1      37.655  22.730  25.947  1.00  0.00    -0.352 N 
ATOM     29  C   UNL A   1      38.919  22.876  26.445  1.00  0.00     0.251 C 
ATOM     30  H   UNL A   1      37.362  21.801  25.805  1.00  0.00     0.163 HD
ATOM     31  O   UNL A   1      39.701  21.919  26.437  1.00  0.00    -0.269 OA
BRANCH  29  32
ATOM     32  C   UNL A   1      39.364  24.172  26.994  1.00  0.00     0.039 A 
ATOM     33  C   UNL A   1      40.036  25.068  26.158  1.00  0.00     0.014 A 
ATOM     34  C   UNL A   1      39.162  24.485  28.341  1.00  0.00     0.014 A 
ATOM     35  C   UNL A   1      40.468  26.296  26.662  1.00  0.00     0.010 A 
ATOM     36  C   UNL A   1      39.536  25.735  28.827  1.00  0.00     0.010 A 
ATOM     37  C   UNL A   1      40.203  26.647  27.997  1.00  0.00    -0.014 A 
BRANCH  37  38
ATOM     38  C   UNL A   1      40.634  27.959  28.541  1.00  0.00     0.031 A 
ATOM     39  C   UNL A   1      42.073  28.185  28.915  1.00  0.00     0.074 A 
ATOM     40  C   UNL A   1      39.720  28.925  28.752  1.00  0.00     0.049 A 
ATOM     41  N   UNL A   1      42.632  29.235  29.463  1.00  0.00    -0.248 NA
ATOM     42  C   UNL A   1      43.002  27.073  28.664  1.00  0.00     0.031 C 
ATOM     43  C   UNL A   1      38.288  28.807  28.473  1.00  0.00     0.029 A 
ATOM     44  N   UNL A   1      39.857  30.192  29.260  1.00  0.00    -0.354 N 
ATOM     45  C   UNL A   1      43.970  28.906  29.632  1.00  0.00     0.074 A 
ATOM     46  C   UNL A   1      44.130  27.541  29.178  1.00  0.00     0.031 C 
ATOM     47  C   UNL A   1      37.682  29.960  28.797  1.00  0.00     0.029 A 
ATOM     48  C   UNL A   1      38.675  30.885  29.337  1.00  0.00     0.049 A 
ATOM     49  H   UNL A   1      40.722  30.568  29.543  1.00  0.00     0.167 HD
ATOM     50  C   UNL A   1      44.977  29.680  30.101  1.00  0.00     0.037 A 
ATOM     51  C   UNL A   1      38.421  32.125  29.795  1.00  0.00     0.037 A 
ATOM     52  C   UNL A   1      44.818  31.045  30.529  1.00  0.00     0.049 A 
ATOM     53  C   UNL A   1      39.559  32.966  30.305  1.00  0.00     0.074 A 
ATOM     54  C   UNL A   1      45.785  31.930  30.971  1.00  0.00     0.029 A 
ATOM     55  N   UNL A   1      43.608  31.722  30.566  1.00  0.00    -0.354 N 
ATOM     56  N   UNL A   1      40.831  32.665  30.403  1.00  0.00    -0.248 NA
ATOM     57  C   UNL A   1      39.226  34.323  30.761  1.00  0.00     0.031 C 
ATOM     58  C   UNL A   1      45.154  33.132  31.313  1.00  0.00     0.029 A 
ATOM     59  C   UNL A   1      43.803  33.011  31.039  1.00  0.00     0.049 A 
ATOM     60  H   UNL A   1      42.740  31.344  30.295  1.00  0.00     0.167 HD
ATOM     61  C   UNL A   1      41.454  33.801  30.904  1.00  0.00     0.074 A 
ATOM     62  C   UNL A   1      40.422  34.802  31.076  1.00  0.00     0.031 C 
ATOM     63  C   UNL A   1      42.763  33.995  31.197  1.00  0.00     0.037 A 
BRANCH  50  64
ATOM     64  C   UNL A   1      46.347  29.067  30.170  1.00  0.00     0.064 A 
ATOM     65  C   UNL A   1      47.235  29.131  29.085  1.00  0.00     0.173 A 
ATOM     66  C   UNL A   1      46.790  28.439  31.343  1.00  0.00     0.173 A 
ATOM     67  F   UNL A   1      46.856  29.711  27.935  1.00  0.00    -0.203 F 
ATOM     68  C   UNL A   1      48.504  28.564  29.163  1.00  0.00     0.198 A 
ATOM     69  C   UNL A   1      48.071  27.899  31.427  1.00  0.00     0.198 A 
ATOM     70  F   UNL A   1      45.985  28.355  32.411  1.00  0.00    -0.203 F 
ATOM     71  F   UNL A   1      49.316  28.595  28.097  1.00  0.00    -0.200 F 
ATOM     72  C   UNL A   1      48.924  27.955  30.334  1.00  0.00     0.200 A 
ATOM     73  F   UNL A   1      48.480  27.321  32.565  1.00  0.00    -0.200 F 
ATOM     74  F   UNL A   1      50.148  27.414  30.410  1.00  0.00    -0.200 F 
ENDBRANCH  50  64
BRANCH  51  75
ATOM     75  C   UNL A   1      37.033  32.655  29.768  1.00  0.00     0.064 A 
ATOM     76  C   UNL A   1      36.186  32.510  30.876  1.00  0.00     0.173 A 
ATOM     77  C   UNL A   1      36.526  33.315  28.639  1.00  0.00     0.173 A 
ATOM     78  F   UNL A   1      36.621  31.869  31.971  1.00  0.00    -0.203 F 
ATOM     79  C   UNL A   1      34.878  32.988  30.849  1.00  0.00     0.198 A 
ATOM     80  C   UNL A   1      35.226  33.817  28.624  1.00  0.00     0.198 A 
ATOM     81  F   UNL A   1      37.297  33.484  27.557  1.00  0.00    -0.203 F 
ATOM     82  F   UNL A   1      34.076  32.797  31.905  1.00  0.00    -0.200 F 
ATOM     83  C   UNL A   1      34.401  33.645  29.725  1.00  0.00     0.200 A 
ATOM     84  F   UNL A   1      34.773  34.464  27.541  1.00  0.00    -0.200 F 
ATOM     85  F   UNL A   1      33.143  34.109  29.701  1.00  0.00    -0.200 F 
ENDBRANCH  51  75
BRANCH  63  86
ATOM     86  C   UNL A   1      43.157  35.351  31.703  1.00  0.00     0.064 A 
ATOM     87  C   UNL A   1      43.092  35.675  33.067  1.00  0.00     0.173 A 
ATOM     88  C   UNL A   1      43.639  36.327  30.818  1.00  0.00     0.173 A 
ATOM     89  F   UNL A   1      42.624  34.781  33.950  1.00  0.00    -0.203 F 
ATOM     90  C   UNL A   1      43.471  36.935  33.521  1.00  0.00     0.198 A 
ATOM     91  C   UNL A   1      44.043  37.576  31.279  1.00  0.00     0.198 A 
ATOM     92  F   UNL A   1      43.726  36.065  29.504  1.00  0.00    -0.203 F 
ATOM     93  F   UNL A   1      43.356  37.239  34.821  1.00  0.00    -0.200 F 
ATOM     94  C   UNL A   1      43.952  37.882  32.628  1.00  0.00     0.200 A 
ATOM     95  F   UNL A   1      44.520  38.485  30.416  1.00  0.00    -0.200 F 
ATOM     96  F   UNL A   1      44.321  39.093  33.069  1.00  0.00    -0.200 F 
ENDBRANCH  63  86
ENDBRANCH  37  38
ENDBRANCH  29  32
ENDBRANCH  27  28
ENDBRANCH  26  27
ENDBRANCH  25  26
ENDBRANCH   1  25
TORSDOF 17
ENDMDL
MODEL 2
REMARK VINA RESULT:     -11.4      3.815      9.353
REMARK SMILES CC[C@@H](C)N(CC)c1cc(C(=O)NCCCCCCNC(=O)c2ccc(-c3c4nc(c(-c5c(F)c(F)c(F)c(F)c5F)c5ccc([nH]5)c(-c5c(F)c(F)c(F)c(F)c5F)c5nc(c(-c6c(F)c(F)c(F)c(F)c6F)c6ccc3[nH]6)C=C5)C=C4)cc2)c2ccccc2n1
REMARK SMILES IDX 16 1 15 2 14 3 13 4 11 5 12 6 10 8 8 9 9 10 92 11 91 12
REMARK SMILES IDX 86 13 90 14 87 15 89 16 88 17 5 18 3 19 4 20 2 21 1 22 6 23
REMARK SMILES IDX 7 24 17 25 18 26 19 27 20 28 21 29 22 31 23 32 24 33 85 34
REMARK SMILES IDX 25 35 84 36 26 37 27 38 28 39 78 40 29 41 83 42 77 43 79 44
REMARK SMILES IDX 30 45 82 46 76 47 75 48 31 50 63 51 43 52 62 53 44 54 47 55
REMARK SMILES IDX 61 56 80 57 45 58 46 59 60 61 81 62 48 63 32 64 33 65 41 66
REMARK SMILES IDX 34 67 35 68 39 69 42 70 36 71 37 72 40 73 38 74 64 75 65 76
REMARK SMILES IDX 73 77 66 78 67 79 71 80 74 81 68 82 69 83 72 84 70 85 49 86
REMARK SMILES IDX 50 87 58 88 51 89 52 90 56 91 59 92 53 93 54 94 57 95 55 96
REMARK H PARENT 13 7 20 30 79 49 47 60
REMARK Flexibility Score: inf
ROOT
ATOM      1  C   UNL A   1      31.095  26.715  25.289  1.00  0.00     0.002 C 
ENDROOT
BRANCH   1   2
ATOM      2  C   UNL A   1      30.588  25.351  25.759  1.00  0.00     0.021 C 
BRANCH   2   3
ATOM      3  C   UNL A   1      31.574  24.197  25.524  1.00  0.00     0.116 C 
BRANCH   3   4
ATOM      4  N   UNL A   1      32.019  23.716  26.814  1.00  0.00    -0.352 N 
ATOM      5  C   UNL A   1      32.779  22.654  27.218  1.00  0.00     0.252 C 
ATOM      6  O   UNL A   1      32.701  22.369  28.418  1.00  0.00    -0.269 OA
ATOM      7  H   UNL A   1      31.706  24.273  27.562  1.00  0.00     0.163 HD
BRANCH   5   8
ATOM      8  C   UNL A   1      33.786  21.927  26.391  1.00  0.00     0.052 A 
ATOM      9  C   UNL A   1      34.015  19.911  25.055  1.00  0.00     0.130 A 
ATOM     10  C   UNL A   1      33.263  20.733  25.866  1.00  0.00     0.061 A 
ATOM     11  N   UNL A   1      35.315  20.181  24.887  1.00  0.00    -0.231 NA
ATOM     12  C   UNL A   1      35.844  21.324  25.337  1.00  0.00     0.073 A 
ATOM     13  C   UNL A   1      35.106  22.295  26.038  1.00  0.00     0.013 A 
ATOM     14  C   UNL A   1      37.182  21.546  25.041  1.00  0.00     0.029 A 
ATOM     15  C   UNL A   1      35.746  23.536  26.269  1.00  0.00     0.011 A 
ATOM     16  C   UNL A   1      37.826  22.732  25.382  1.00  0.00     0.002 A 
ATOM     17  C   UNL A   1      37.097  23.744  25.980  1.00  0.00     0.001 A 
BRANCH   9  18
ATOM     18  N   UNL A   1      33.454  18.820  24.405  1.00  0.00    -0.354 N 
BRANCH  18  19
ATOM     19  C   UNL A   1      34.257  17.605  24.139  1.00  0.00     0.080 C 
ATOM     20  C   UNL A   1      33.821  16.981  22.812  1.00  0.00     0.031 C 
BRANCH  19  21
ATOM     21  C   UNL A   1      34.283  16.610  25.318  1.00  0.00     0.021 C 
ATOM     22  C   UNL A   1      33.072  15.687  25.366  1.00  0.00     0.006 C 
ENDBRANCH  19  21
ENDBRANCH  18  19
BRANCH  18  23
ATOM     23  C   UNL A   1      32.271  19.054  23.563  1.00  0.00     0.115 C 
ATOM     24  C   UNL A   1      32.327  20.388  22.829  1.00  0.00     0.027 C 
ENDBRANCH  18  23
ENDBRANCH   9  18
ENDBRANCH   5   8
ENDBRANCH   3   4
ENDBRANCH   2   3
ENDBRANCH   1   2
BRANCH   1  25
ATOM     25  C   UNL A   1      31.646  27.598  26.412  1.00  0.00     0.002 C 
BRANCH  25  26
ATOM     26  C   UNL A   1      33.154  27.473  26.660  1.00  0.00     0.021 C 
BRANCH  26  27
ATOM     27  C   UNL A   1      34.014  28.487  25.907  1.00  0.00     0.116 C 
BRANCH  27  28
ATOM     28  N   UNL A   1      33.721  29.850  26.320  1.00  0.00    -0.352 N 
ATOM     29  C   UNL A   1      34.316  30.608  27.289  1.00  0.00     0.251 C 
ATOM     30  H   UNL A   1      32.989  30.289  25.831  1.00  0.00     0.163 HD
ATOM     31  O   UNL A   1      33.772  31.645  27.683  1.00  0.00    -0.269 OA
BRANCH  29  32
ATOM     32  C   UNL A   1      35.608  30.198  27.874  1.00  0.00     0.039 A 
ATOM     33  C   UNL A   1      35.621  29.581  29.128  1.00  0.00     0.014 A 
ATOM     34  C   UNL A   1      36.810  30.463  27.210  1.00  0.00     0.014 A 
ATOM     35  C   UNL A   1      36.834  29.193  29.698  1.00  0.00     0.010 A 
ATOM     36  C   UNL A   1      38.014  30.018  27.749  1.00  0.00     0.010 A 
ATOM     37  C   UNL A   1      38.039  29.390  29.002  1.00  0.00    -0.014 A 
BRANCH  37  38
ATOM     38  C   UNL A   1      39.336  28.959  29.583  1.00  0.00     0.031 A 
ATOM     39  C   UNL A   1      39.980  29.770  30.673  1.00  0.00     0.074 A 
ATOM     40  C   UNL A   1      39.958  27.872  29.090  1.00  0.00     0.049 A 
ATOM     41  N   UNL A   1      41.136  29.595  31.263  1.00  0.00    -0.248 NA
ATOM     42  C   UNL A   1      39.239  30.950  31.145  1.00  0.00     0.031 C 
ATOM     43  C   UNL A   1      39.454  27.032  28.003  1.00  0.00     0.029 A 
ATOM     44  N   UNL A   1      41.153  27.293  29.432  1.00  0.00    -0.354 N 
ATOM     45  C   UNL A   1      41.264  30.645  32.162  1.00  0.00     0.074 A 
ATOM     46  C   UNL A   1      40.095  31.482  32.004  1.00  0.00     0.031 C 
ATOM     47  C   UNL A   1      40.326  26.036  27.778  1.00  0.00     0.029 A 
ATOM     48  C   UNL A   1      41.464  26.186  28.681  1.00  0.00     0.049 A 
ATOM     49  H   UNL A   1      41.735  27.639  30.147  1.00  0.00     0.167 HD
ATOM     50  C   UNL A   1      42.257  30.877  33.055  1.00  0.00     0.037 A 
ATOM     51  C   UNL A   1      42.546  25.386  28.715  1.00  0.00     0.037 A 
ATOM     52  C   UNL A   1      43.407  30.028  33.225  1.00  0.00     0.049 A 
ATOM     53  C   UNL A   1      43.630  25.662  29.720  1.00  0.00     0.074 A 
ATOM     54  C   UNL A   1      44.442  30.147  34.136  1.00  0.00     0.029 A 
ATOM     55  N   UNL A   1      43.672  28.899  32.464  1.00  0.00    -0.354 N 
ATOM     56  N   UNL A   1      43.711  26.623  30.607  1.00  0.00    -0.248 NA
ATOM     57  C   UNL A   1      44.772  24.736  29.732  1.00  0.00     0.031 C 
ATOM     58  C   UNL A   1      45.353  29.112  33.901  1.00  0.00     0.029 A 
ATOM     59  C   UNL A   1      44.863  28.321  32.875  1.00  0.00     0.049 A 
ATOM     60  H   UNL A   1      43.099  28.558  31.740  1.00  0.00     0.167 HD
ATOM     61  C   UNL A   1      44.894  26.403  31.301  1.00  0.00     0.074 A 
ATOM     62  C   UNL A   1      45.490  25.208  30.741  1.00  0.00     0.031 C 
ATOM     63  C   UNL A   1      45.437  27.128  32.310  1.00  0.00     0.037 A 
BRANCH  50  64
ATOM     64  C   UNL A   1      42.137  32.097  33.922  1.00  0.00     0.064 A 
ATOM     65  C   UNL A   1      41.389  32.083  35.110  1.00  0.00     0.173 A 
ATOM     66  C   UNL A   1      42.805  33.283  33.583  1.00  0.00     0.173 A 
ATOM     67  F   UNL A   1      40.722  30.977  35.475  1.00  0.00    -0.203 F 
ATOM     68  C   UNL A   1      41.290  33.219  35.908  1.00  0.00     0.198 A 
ATOM     69  C   UNL A   1      42.727  34.408  34.399  1.00  0.00     0.198 A 
ATOM     70  F   UNL A   1      43.538  33.349  32.462  1.00  0.00    -0.203 F 
ATOM     71  F   UNL A   1      40.529  33.196  37.012  1.00  0.00    -0.200 F 
ATOM     72  C   UNL A   1      41.964  34.378  35.557  1.00  0.00     0.200 A 
ATOM     73  F   UNL A   1      43.389  35.524  34.065  1.00  0.00    -0.200 F 
ATOM     74  F   UNL A   1      41.872  35.469  36.330  1.00  0.00    -0.200 F 
ENDBRANCH  50  64
BRANCH  51  75
ATOM     75  C   UNL A   1      42.643  24.233  27.784  1.00  0.00     0.064 A 
ATOM     76  C   UNL A   1      42.253  22.947  28.188  1.00  0.00     0.173 A 
ATOM     77  C   UNL A   1      43.125  24.388  26.476  1.00  0.00     0.173 A 
ATOM     78  F   UNL A   1      41.803  22.747  29.435  1.00  0.00    -0.203 F 
ATOM     79  C   UNL A   1      42.360  21.859  27.326  1.00  0.00     0.198 A 
ATOM     80  C   UNL A   1      43.206  23.303  25.606  1.00  0.00     0.198 A 
ATOM     81  F   UNL A   1      43.505  25.597  26.040  1.00  0.00    -0.203 F 
ATOM     82  F   UNL A   1      42.022  20.635  27.751  1.00  0.00    -0.200 F 
ATOM     83  C   UNL A   1      42.831  22.038  26.034  1.00  0.00     0.200 A 
ATOM     84  F   UNL A   1      43.649  23.483  24.354  1.00  0.00    -0.200 F 
ATOM     85  F   UNL A   1      42.931  20.991  25.203  1.00  0.00    -0.200 F 
ENDBRANCH  51  75
BRANCH  63  86
ATOM     86  C   UNL A   1      46.726  26.629  32.894  1.00  0.00     0.064 A 
ATOM     87  C   UNL A   1      46.745  25.697  33.943  1.00  0.00     0.173 A 
ATOM     88  C   UNL A   1      47.955  27.061  32.375  1.00  0.00     0.173 A 
ATOM     89  F   UNL A   1      45.596  25.266  34.484  1.00  0.00    -0.203 F 
ATOM     90  C   UNL A   1      47.950  25.237  34.467  1.00  0.00     0.198 A 
ATOM     91  C   UNL A   1      49.158  26.577  32.883  1.00  0.00     0.198 A 
ATOM     92  F   UNL A   1      47.990  27.947  31.368  1.00  0.00    -0.203 F 
ATOM     93  F   UNL A   1      47.947  24.383  35.500  1.00  0.00    -0.200 F 
ATOM     94  C   UNL A   1      49.154  25.672  33.932  1.00  0.00     0.200 A 
ATOM     95  F   UNL A   1      50.320  26.989  32.356  1.00  0.00    -0.200 F 
ATOM     96  F   UNL A   1      50.313  25.222  34.435  1.00  0.00    -0.200 F 
ENDBRANCH  63  86
ENDBRANCH  37  38
ENDBRANCH  29  32
ENDBRANCH  27  28
ENDBRANCH  26  27
ENDBRANCH  25  26
ENDBRANCH   1  25
TORSDOF 17
ENDMDL
MODEL 3
REMARK VINA RESULT:     -11.3      4.604      9.492
REMARK SMILES CC[C@@H](C)N(CC)c1cc(C(=O)NCCCCCCNC(=O)c2ccc(-c3c4nc(c(-c5c(F)c(F)c(F)c(F)c5F)c5ccc([nH]5)c(-c5c(F)c(F)c(F)c(F)c5F)c5nc(c(-c6c(F)c(F)c(F)c(F)c6F)c6ccc3[nH]6)C=C5)C=C4)cc2)c2ccccc2n1
REMARK SMILES IDX 16 1 15 2 14 3 13 4 11 5 12 6 10 8 8 9 9 10 92 11 91 12
REMARK SMILES IDX 86 13 90 14 87 15 89 16 88 17 5 18 3 19 4 20 2 21 1 22 6 23
REMARK SMILES IDX 7 24 17 25 18 26 19 27 20 28 21 29 22 31 23 32 24 33 85 34
REMARK SMILES IDX 25 35 84 36 26 37 27 38 28 39 78 40 29 41 83 42 77 43 79 44
REMARK SMILES IDX 30 45 82 46 76 47 75 48 31 50 63 51 43 52 62 53 44 54 47 55
REMARK SMILES IDX 61 56 80 57 45 58 46 59 60 61 81 62 48 63 32 64 33 65 41 66
REMARK SMILES IDX 34 67 35 68 39 69 42 70 36 71 37 72 40 73 38 74 64 75 65 76
REMARK SMILES IDX 73 77 66 78 67 79 71 80 74 81 68 82 69 83 72 84 70 85 49 86
REMARK SMILES IDX 50 87 58 88 51 89 52 90 56 91 59 92 53 93 54 94 57 95 55 96
REMARK H PARENT 13 7 20 30 79 49 47 60
REMARK Flexibility Score: inf
ROOT
ATOM      1  C   UNL A   1      34.472  32.139  28.634  1.00  0.00     0.002 C 
ENDROOT
BRANCH   1   2
ATOM      2  C   UNL A   1      33.566  31.529  27.563  1.00  0.00     0.021 C 
BRANCH   2   3
ATOM      3  C   UNL A   1      33.964  30.109  27.136  1.00  0.00     0.116 C 
BRANCH   3   4
ATOM      4  N   UNL A   1      33.094  29.175  27.818  1.00  0.00    -0.352 N 
ATOM      5  C   UNL A   1      32.202  28.228  27.395  1.00  0.00     0.252 C 
ATOM      6  O   UNL A   1      31.404  27.829  28.249  1.00  0.00    -0.269 OA
ATOM      7  H   UNL A   1      33.157  29.235  28.798  1.00  0.00     0.163 HD
BRANCH   5   8
ATOM      8  C   UNL A   1      32.210  27.543  26.069  1.00  0.00     0.052 A 
ATOM      9  C   UNL A   1      32.999  25.500  25.017  1.00  0.00     0.130 A 
ATOM     10  C   UNL A   1      32.886  26.312  26.125  1.00  0.00     0.061 A 
ATOM     11  N   UNL A   1      32.587  25.963  23.831  1.00  0.00    -0.231 NA
ATOM     12  C   UNL A   1      31.909  27.111  23.739  1.00  0.00     0.073 A 
ATOM     13  C   UNL A   1      31.610  27.925  24.847  1.00  0.00     0.013 A 
ATOM     14  C   UNL A   1      31.457  27.464  22.474  1.00  0.00     0.029 A 
ATOM     15  C   UNL A   1      30.713  28.997  24.625  1.00  0.00     0.011 A 
ATOM     16  C   UNL A   1      30.669  28.591  22.260  1.00  0.00     0.002 A 
ATOM     17  C   UNL A   1      30.275  29.351  23.347  1.00  0.00     0.001 A 
BRANCH   9  18
ATOM     18  N   UNL A   1      33.519  24.216  25.107  1.00  0.00    -0.354 N 
BRANCH  18  19
ATOM     19  C   UNL A   1      32.696  23.103  25.631  1.00  0.00     0.080 C 
ATOM     20  C   UNL A   1      33.462  22.377  26.740  1.00  0.00     0.031 C 
BRANCH  19  21
ATOM     21  C   UNL A   1      32.150  22.166  24.533  1.00  0.00     0.021 C 
ATOM     22  C   UNL A   1      33.000  20.923  24.311  1.00  0.00     0.006 C 
ENDBRANCH  19  21
ENDBRANCH  18  19
BRANCH  18  23
ATOM     23  C   UNL A   1      34.982  24.068  25.161  1.00  0.00     0.115 C 
ATOM     24  C   UNL A   1      35.574  23.597  23.838  1.00  0.00     0.027 C 
ENDBRANCH  18  23
ENDBRANCH   9  18
ENDBRANCH   5   8
ENDBRANCH   3   4
ENDBRANCH   2   3
ENDBRANCH   1   2
BRANCH   1  25
ATOM     25  C   UNL A   1      34.540  33.668  28.597  1.00  0.00     0.002 C 
BRANCH  25  26
ATOM     26  C   UNL A   1      33.200  34.386  28.802  1.00  0.00     0.021 C 
BRANCH  26  27
ATOM     27  C   UNL A   1      33.314  35.865  29.164  1.00  0.00     0.116 C 
BRANCH  27  28
ATOM     28  N   UNL A   1      32.529  36.191  30.343  1.00  0.00    -0.352 N 
ATOM     29  C   UNL A   1      32.637  35.708  31.617  1.00  0.00     0.251 C 
ATOM     30  H   UNL A   1      31.817  36.856  30.204  1.00  0.00     0.163 HD
ATOM     31  O   UNL A   1      31.726  35.896  32.429  1.00  0.00    -0.269 OA
BRANCH  29  32
ATOM     32  C   UNL A   1      33.838  34.959  32.035  1.00  0.00     0.039 A 
ATOM     33  C   UNL A   1      33.700  33.631  32.450  1.00  0.00     0.014 A 
ATOM     34  C   UNL A   1      35.093  35.575  32.063  1.00  0.00     0.014 A 
ATOM     35  C   UNL A   1      34.824  32.910  32.853  1.00  0.00     0.010 A 
ATOM     36  C   UNL A   1      36.223  34.837  32.404  1.00  0.00     0.010 A 
ATOM     37  C   UNL A   1      36.098  33.501  32.814  1.00  0.00    -0.014 A 
BRANCH  37  38
ATOM     38  C   UNL A   1      37.307  32.740  33.215  1.00  0.00     0.031 A 
ATOM     39  C   UNL A   1      38.002  33.056  34.511  1.00  0.00     0.074 A 
ATOM     40  C   UNL A   1      37.811  31.805  32.388  1.00  0.00     0.049 A 
ATOM     41  N   UNL A   1      39.103  32.548  35.007  1.00  0.00    -0.248 NA
ATOM     42  C   UNL A   1      37.392  34.099  35.350  1.00  0.00     0.031 C 
ATOM     43  C   UNL A   1      37.252  31.443  31.085  1.00  0.00     0.029 A 
ATOM     44  N   UNL A   1      38.912  30.997  32.515  1.00  0.00    -0.354 N 
ATOM     45  C   UNL A   1      39.322  33.217  36.203  1.00  0.00     0.074 A 
ATOM     46  C   UNL A   1      38.272  34.203  36.335  1.00  0.00     0.031 C 
ATOM     47  C   UNL A   1      38.004  30.473  30.540  1.00  0.00     0.029 A 
ATOM     48  C   UNL A   1      39.114  30.169  31.438  1.00  0.00     0.049 A 
ATOM     49  H   UNL A   1      39.502  31.009  33.303  1.00  0.00     0.167 HD
ATOM     50  C   UNL A   1      40.299  33.012  37.119  1.00  0.00     0.037 A 
ATOM     51  C   UNL A   1      40.087  29.270  31.202  1.00  0.00     0.037 A 
ATOM     52  C   UNL A   1      41.328  32.013  36.995  1.00  0.00     0.049 A 
ATOM     53  C   UNL A   1      41.156  29.057  32.239  1.00  0.00     0.074 A 
ATOM     54  C   UNL A   1      42.332  31.691  37.892  1.00  0.00     0.029 A 
ATOM     55  N   UNL A   1      41.484  31.174  35.902  1.00  0.00    -0.354 N 
ATOM     56  N   UNL A   1      41.318  29.653  33.394  1.00  0.00    -0.248 NA
ATOM     57  C   UNL A   1      42.174  28.038  31.940  1.00  0.00     0.031 C 
ATOM     58  C   UNL A   1      43.118  30.683  37.324  1.00  0.00     0.029 A 
ATOM     59  C   UNL A   1      42.577  30.345  36.095  1.00  0.00     0.049 A 
ATOM     60  H   UNL A   1      40.903  31.168  35.107  1.00  0.00     0.167 HD
ATOM     61  C   UNL A   1      42.436  29.065  33.973  1.00  0.00     0.074 A 
ATOM     62  C   UNL A   1      42.904  28.055  33.047  1.00  0.00     0.031 C 
ATOM     63  C   UNL A   1      43.023  29.340  35.164  1.00  0.00     0.037 A 
BRANCH  50  64
ATOM     64  C   UNL A   1      40.295  33.882  38.343  1.00  0.00     0.064 A 
ATOM     65  C   UNL A   1      39.552  33.541  39.485  1.00  0.00     0.173 A 
ATOM     66  C   UNL A   1      41.067  35.053  38.390  1.00  0.00     0.173 A 
ATOM     67  F   UNL A   1      38.788  32.438  39.488  1.00  0.00    -0.203 F 
ATOM     68  C   UNL A   1      39.561  34.354  40.615  1.00  0.00     0.198 A 
ATOM     69  C   UNL A   1      41.096  35.847  39.533  1.00  0.00     0.198 A 
ATOM     70  F   UNL A   1      41.800  35.422  37.330  1.00  0.00    -0.203 F 
ATOM     71  F   UNL A   1      38.805  34.033  41.674  1.00  0.00    -0.200 F 
ATOM     72  C   UNL A   1      40.337  35.501  40.641  1.00  0.00     0.200 A 
ATOM     73  F   UNL A   1      41.856  36.950  39.562  1.00  0.00    -0.200 F 
ATOM     74  F   UNL A   1      40.348  36.280  41.732  1.00  0.00    -0.200 F 
ENDBRANCH  50  64
BRANCH  51  75
ATOM     75  C   UNL A   1      40.080  28.485  29.941  1.00  0.00     0.064 A 
ATOM     76  C   UNL A   1      40.689  28.984  28.779  1.00  0.00     0.173 A 
ATOM     77  C   UNL A   1      39.470  27.225  29.868  1.00  0.00     0.173 A 
ATOM     78  F   UNL A   1      41.269  30.193  28.796  1.00  0.00    -0.203 F 
ATOM     79  C   UNL A   1      40.668  28.261  27.589  1.00  0.00     0.198 A 
ATOM     80  C   UNL A   1      39.474  26.491  28.684  1.00  0.00     0.198 A 
ATOM     81  F   UNL A   1      38.879  26.701  30.951  1.00  0.00    -0.203 F 
ATOM     82  F   UNL A   1      41.219  28.781  26.484  1.00  0.00    -0.200 F 
ATOM     83  C   UNL A   1      40.066  27.013  27.544  1.00  0.00     0.200 A 
ATOM     84  F   UNL A   1      38.903  25.279  28.647  1.00  0.00    -0.200 F 
ATOM     85  F   UNL A   1      40.050  26.316  26.399  1.00  0.00    -0.200 F 
ENDBRANCH  51  75
BRANCH  63  86
ATOM     86  C   UNL A   1      44.216  28.514  35.546  1.00  0.00     0.064 A 
ATOM     87  C   UNL A   1      44.082  27.321  36.272  1.00  0.00     0.173 A 
ATOM     88  C   UNL A   1      45.505  28.904  35.152  1.00  0.00     0.173 A 
ATOM     89  F   UNL A   1      42.872  26.915  36.685  1.00  0.00    -0.203 F 
ATOM     90  C   UNL A   1      45.199  26.561  36.609  1.00  0.00     0.198 A 
ATOM     91  C   UNL A   1      46.616  28.127  35.467  1.00  0.00     0.198 A 
ATOM     92  F   UNL A   1      45.685  30.034  34.451  1.00  0.00    -0.203 F 
ATOM     93  F   UNL A   1      45.053  25.450  37.343  1.00  0.00    -0.200 F 
ATOM     94  C   UNL A   1      46.463  26.962  36.201  1.00  0.00     0.200 A 
ATOM     95  F   UNL A   1      47.835  28.509  35.061  1.00  0.00    -0.200 F 
ATOM     96  F   UNL A   1      47.536  26.225  36.523  1.00  0.00    -0.200 F 
ENDBRANCH  63  86
ENDBRANCH  37  38
ENDBRANCH  29  32
ENDBRANCH  27  28
ENDBRANCH  26  27
ENDBRANCH  25  26
ENDBRANCH   1  25
TORSDOF 17
ENDMDL
