MODEL 1
REMARK VINA RESULT:     -12.6      0.000      0.000
REMARK SMILES O=C(NCCCCCCNC(=O)c1cc(Br)ccc1OCc1ccccc1F)c1ccc(-c2c3nc(c(-c4c(F)c(F)c(F)c(F)c4F)c4ccc([nH]4)c(-c4c(F)c(F)c(F)c(F)c4F)c4nc(c(-c5c(F)c(F)c(F)c(F)c5F)c5ccc2[nH]5)C=C4)C=C3)cc1
REMARK SMILES IDX 7 1 6 2 5 3 4 4 3 5 1 6 2 7 29 9 30 10 91 11 31 12 90 13
REMARK SMILES IDX 32 14 33 15 34 16 84 17 35 18 89 19 83 20 85 21 36 22 88 23
REMARK SMILES IDX 82 24 81 25 37 27 69 28 49 29 68 30 50 31 53 32 67 33 86 34
REMARK SMILES IDX 51 35 52 36 66 38 87 39 54 40 38 41 39 42 47 43 40 44 41 45
REMARK SMILES IDX 45 46 48 47 42 48 43 49 46 50 44 51 70 52 71 53 79 54 72 55
REMARK SMILES IDX 73 56 77 57 80 58 74 59 75 60 78 61 76 62 55 63 56 64 64 65
REMARK SMILES IDX 57 66 58 67 62 68 65 69 59 70 60 71 63 72 61 73 8 74 9 75
REMARK SMILES IDX 10 76 11 77 12 79 13 80 14 81 19 82 15 83 18 84 16 85 17 86
REMARK SMILES IDX 20 87 21 88 22 89 23 90 27 91 24 92 26 93 28 94 25 95
REMARK H PARENT 3 8 85 26 53 37 10 78
REMARK Flexibility Score: inf
ROOT
ATOM      1  C   UNL A   1      32.752  29.992  27.105  1.00  0.00     0.002 C 
ENDROOT
BRANCH   1   2
ATOM      2  C   UNL A   1      31.542  30.657  26.440  1.00  0.00     0.002 C 
BRANCH   2   3
ATOM      3  C   UNL A   1      31.427  32.179  26.577  1.00  0.00     0.021 C 
BRANCH   3   4
ATOM      4  C   UNL A   1      32.602  32.888  27.244  1.00  0.00     0.116 C 
BRANCH   4   5
ATOM      5  N   UNL A   1      32.299  34.232  27.695  1.00  0.00    -0.352 N 
ATOM      6  O   UNL A   1      32.526  36.069  28.991  1.00  0.00    -0.269 OA
ATOM      7  C   UNL A   1      32.962  34.978  28.644  1.00  0.00     0.251 C 
ATOM      8  H   UNL A   1      31.523  34.665  27.272  1.00  0.00     0.163 HD
BRANCH   7   9
ATOM      9  C   UNL A   1      34.185  34.439  29.290  1.00  0.00     0.039 A 
ATOM     10  C   UNL A   1      35.451  34.628  28.731  1.00  0.00     0.014 A 
ATOM     11  C   UNL A   1      34.053  33.740  30.495  1.00  0.00     0.014 A 
ATOM     12  C   UNL A   1      36.567  34.027  29.315  1.00  0.00     0.010 A 
ATOM     13  C   UNL A   1      35.177  33.169  31.101  1.00  0.00     0.010 A 
ATOM     14  C   UNL A   1      36.437  33.279  30.495  1.00  0.00    -0.014 A 
BRANCH  14  15
ATOM     15  C   UNL A   1      37.627  32.606  31.068  1.00  0.00     0.031 A 
ATOM     16  C   UNL A   1      38.077  32.919  32.467  1.00  0.00     0.074 A 
ATOM     17  C   UNL A   1      38.269  31.665  30.353  1.00  0.00     0.049 A 
ATOM     18  N   UNL A   1      39.054  32.385  33.158  1.00  0.00    -0.248 NA
ATOM     19  C   UNL A   1      37.334  33.966  33.183  1.00  0.00     0.031 C 
ATOM     20  C   UNL A   1      37.930  31.267  28.987  1.00  0.00     0.029 A 
ATOM     21  N   UNL A   1      39.320  30.852  30.690  1.00  0.00    -0.354 N 
ATOM     22  C   UNL A   1      39.056  33.043  34.379  1.00  0.00     0.074 A 
ATOM     23  C   UNL A   1      37.982  34.014  34.340  1.00  0.00     0.031 C 
ATOM     24  C   UNL A   1      38.725  30.248  28.620  1.00  0.00     0.029 A 
ATOM     25  C   UNL A   1      39.634  29.935  29.720  1.00  0.00     0.049 A 
ATOM     26  H   UNL A   1      39.803  30.919  31.546  1.00  0.00     0.167 HD
ATOM     27  C   UNL A   1      39.880  32.857  35.436  1.00  0.00     0.037 A 
ATOM     28  C   UNL A   1      40.539  28.939  29.724  1.00  0.00     0.037 A 
ATOM     29  C   UNL A   1      40.940  31.887  35.495  1.00  0.00     0.049 A 
ATOM     30  C   UNL A   1      41.403  28.716  30.930  1.00  0.00     0.074 A 
ATOM     31  C   UNL A   1      41.850  31.658  36.513  1.00  0.00     0.029 A 
ATOM     32  N   UNL A   1      41.221  30.972  34.494  1.00  0.00    -0.354 N 
ATOM     33  N   UNL A   1      41.415  29.366  32.067  1.00  0.00    -0.248 NA
ATOM     34  C   UNL A   1      42.381  27.622  30.850  1.00  0.00     0.031 C 
ATOM     35  C   UNL A   1      42.682  30.600  36.128  1.00  0.00     0.029 A 
ATOM     36  C   UNL A   1      42.282  30.167  34.874  1.00  0.00     0.049 A 
ATOM     37  H   UNL A   1      40.738  30.903  33.639  1.00  0.00     0.167 HD
ATOM     38  C   UNL A   1      42.402  28.769  32.834  1.00  0.00     0.074 A 
ATOM     39  C   UNL A   1      42.957  27.689  32.044  1.00  0.00     0.031 C 
ATOM     40  C   UNL A   1      42.819  29.097  34.080  1.00  0.00     0.037 A 
BRANCH  27  41
ATOM     41  C   UNL A   1      39.675  33.740  36.625  1.00  0.00     0.064 A 
ATOM     42  C   UNL A   1      38.832  33.340  37.671  1.00  0.00     0.173 A 
ATOM     43  C   UNL A   1      40.286  34.997  36.708  1.00  0.00     0.173 A 
ATOM     44  F   UNL A   1      38.231  32.142  37.635  1.00  0.00    -0.203 F 
ATOM     45  C   UNL A   1      38.607  34.175  38.761  1.00  0.00     0.198 A 
ATOM     46  C   UNL A   1      40.064  35.826  37.803  1.00  0.00     0.198 A 
ATOM     47  F   UNL A   1      41.112  35.412  35.734  1.00  0.00    -0.203 F 
ATOM     48  F   UNL A   1      37.796  33.778  39.751  1.00  0.00    -0.200 F 
ATOM     49  C   UNL A   1      39.223  35.417  38.827  1.00  0.00     0.200 A 
ATOM     50  F   UNL A   1      40.671  37.019  37.874  1.00  0.00    -0.200 F 
ATOM     51  F   UNL A   1      39.010  36.216  39.881  1.00  0.00    -0.200 F 
ENDBRANCH  27  41
BRANCH  28  52
ATOM     52  C   UNL A   1      40.634  28.043  28.552  1.00  0.00     0.064 A 
ATOM     53  C   UNL A   1      39.957  26.819  28.515  1.00  0.00     0.173 A 
ATOM     54  C   UNL A   1      41.433  28.391  27.455  1.00  0.00     0.173 A 
ATOM     55  F   UNL A   1      39.178  26.453  29.544  1.00  0.00    -0.203 F 
ATOM     56  C   UNL A   1      40.083  25.966  27.422  1.00  0.00     0.198 A 
ATOM     57  C   UNL A   1      41.553  27.541  26.360  1.00  0.00     0.198 A 
ATOM     58  F   UNL A   1      42.085  29.562  27.448  1.00  0.00    -0.203 F 
ATOM     59  F   UNL A   1      39.434  24.795  27.409  1.00  0.00    -0.200 F 
ATOM     60  C   UNL A   1      40.881  26.327  26.346  1.00  0.00     0.200 A 
ATOM     61  F   UNL A   1      42.314  27.898  25.317  1.00  0.00    -0.200 F 
ATOM     62  F   UNL A   1      40.999  25.507  25.292  1.00  0.00    -0.200 F 
ENDBRANCH  28  52
BRANCH  40  63
ATOM     63  C   UNL A   1      43.932  28.286  34.661  1.00  0.00     0.064 A 
ATOM     64  C   UNL A   1      43.665  27.136  35.413  1.00  0.00     0.173 A 
ATOM     65  C   UNL A   1      45.267  28.680  34.498  1.00  0.00     0.173 A 
ATOM     66  F   UNL A   1      42.402  26.721  35.587  1.00  0.00    -0.203 F 
ATOM     67  C   UNL A   1      44.701  26.404  35.984  1.00  0.00     0.198 A 
ATOM     68  C   UNL A   1      46.301  27.942  35.068  1.00  0.00     0.198 A 
ATOM     69  F   UNL A   1      45.566  29.769  33.776  1.00  0.00    -0.203 F 
ATOM     70  F   UNL A   1      44.428  25.304  36.702  1.00  0.00    -0.200 F 
ATOM     71  C   UNL A   1      46.018  26.807  35.812  1.00  0.00     0.200 A 
ATOM     72  F   UNL A   1      47.573  28.326  34.890  1.00  0.00    -0.200 F 
ATOM     73  F   UNL A   1      47.014  26.097  36.358  1.00  0.00    -0.200 F 
ENDBRANCH  40  63
ENDBRANCH  14  15
ENDBRANCH   7   9
ENDBRANCH   4   5
ENDBRANCH   3   4
ENDBRANCH   2   3
ENDBRANCH   1   2
BRANCH   1  74
ATOM     74  C   UNL A   1      32.665  28.481  27.343  1.00  0.00     0.021 C 
BRANCH  74  75
ATOM     75  C   UNL A   1      31.441  27.780  26.753  1.00  0.00     0.116 C 
BRANCH  75  76
ATOM     76  N   UNL A   1      31.486  26.333  26.842  1.00  0.00    -0.352 N 
ATOM     77  C   UNL A   1      30.655  25.549  26.069  1.00  0.00     0.255 C 
ATOM     78  H   UNL A   1      32.120  25.905  27.462  1.00  0.00     0.163 HD
ATOM     79  O   UNL A   1      29.513  25.299  26.429  1.00  0.00    -0.269 OA
BRANCH  77  80
ATOM     80  C   UNL A   1      31.240  24.957  24.834  1.00  0.00     0.082 A 
ATOM     81  C   UNL A   1      31.449  23.569  24.765  1.00  0.00     0.033 A 
ATOM     82  C   UNL A   1      31.658  25.760  23.761  1.00  0.00     0.132 A 
ATOM     83  C   UNL A   1      32.122  23.009  23.680  1.00  0.00     0.019 A 
ATOM     84  C   UNL A   1      32.372  25.185  22.698  1.00  0.00     0.048 A 
ATOM     85  Br  UNL A   1      32.409  21.140  23.620  1.00  0.00    -0.051 Br
ATOM     86  C   UNL A   1      32.602  23.811  22.653  1.00  0.00     0.019 A 
BRANCH  82  87
ATOM     87  O   UNL A   1      31.439  27.102  23.604  1.00  0.00    -0.488 OA
BRANCH  87  88
ATOM     88  C   UNL A   1      30.829  27.520  22.368  1.00  0.00     0.268 C 
BRANCH  88  89
ATOM     89  C   UNL A   1      29.729  28.549  22.489  1.00  0.00     0.025 A 
ATOM     90  C   UNL A   1      29.913  29.867  22.046  1.00  0.00     0.010 A 
ATOM     91  C   UNL A   1      28.503  28.205  23.064  1.00  0.00     0.129 A 
ATOM     92  C   UNL A   1      28.880  30.801  22.155  1.00  0.00     0.001 A 
ATOM     93  C   UNL A   1      27.472  29.134  23.183  1.00  0.00     0.039 A 
ATOM     94  F   UNL A   1      28.295  26.958  23.512  1.00  0.00    -0.207 F 
ATOM     95  C   UNL A   1      27.660  30.436  22.723  1.00  0.00     0.003 A 
ENDBRANCH  88  89
ENDBRANCH  87  88
ENDBRANCH  82  87
ENDBRANCH  77  80
ENDBRANCH  75  76
ENDBRANCH  74  75
ENDBRANCH   1  74
TORSDOF 16
ENDMDL
MODEL 2
REMARK VINA RESULT:     -12.5      2.230      3.595
REMARK SMILES O=C(NCCCCCCNC(=O)c1cc(Br)ccc1OCc1ccccc1F)c1ccc(-c2c3nc(c(-c4c(F)c(F)c(F)c(F)c4F)c4ccc([nH]4)c(-c4c(F)c(F)c(F)c(F)c4F)c4nc(c(-c5c(F)c(F)c(F)c(F)c5F)c5ccc2[nH]5)C=C4)C=C3)cc1
REMARK SMILES IDX 7 1 6 2 5 3 4 4 3 5 1 6 2 7 29 9 30 10 91 11 31 12 90 13
REMARK SMILES IDX 32 14 33 15 34 16 84 17 35 18 89 19 83 20 85 21 36 22 88 23
REMARK SMILES IDX 82 24 81 25 37 27 69 28 49 29 68 30 50 31 53 32 67 33 86 34
REMARK SMILES IDX 51 35 52 36 66 38 87 39 54 40 38 41 39 42 47 43 40 44 41 45
REMARK SMILES IDX 45 46 48 47 42 48 43 49 46 50 44 51 70 52 71 53 79 54 72 55
REMARK SMILES IDX 73 56 77 57 80 58 74 59 75 60 78 61 76 62 55 63 56 64 64 65
REMARK SMILES IDX 57 66 58 67 62 68 65 69 59 70 60 71 63 72 61 73 8 74 9 75
REMARK SMILES IDX 10 76 11 77 12 79 13 80 14 81 19 82 15 83 18 84 16 85 17 86
REMARK SMILES IDX 20 87 21 88 22 89 23 90 27 91 24 92 26 93 28 94 25 95
REMARK H PARENT 3 8 85 26 53 37 10 78
REMARK Flexibility Score: inf
ROOT
ATOM      1  C   UNL A   1      30.767  26.582  25.666  1.00  0.00     0.002 C 
ENDROOT
BRANCH   1   2
ATOM      2  C   UNL A   1      31.027  28.085  25.514  1.00  0.00     0.002 C 
BRANCH   2   3
ATOM      3  C   UNL A   1      31.881  28.753  26.596  1.00  0.00     0.021 C 
BRANCH   3   4
ATOM      4  C   UNL A   1      32.905  29.776  26.113  1.00  0.00     0.116 C 
BRANCH   4   5
ATOM      5  N   UNL A   1      32.601  31.140  26.498  1.00  0.00    -0.352 N 
ATOM      6  O   UNL A   1      32.883  33.068  27.644  1.00  0.00    -0.269 OA
ATOM      7  C   UNL A   1      33.320  31.966  27.334  1.00  0.00     0.251 C 
ATOM      8  H   UNL A   1      31.779  31.524  26.116  1.00  0.00     0.163 HD
BRANCH   7   9
ATOM      9  C   UNL A   1      34.609  31.503  27.905  1.00  0.00     0.039 A 
ATOM     10  C   UNL A   1      34.778  30.194  28.364  1.00  0.00     0.014 A 
ATOM     11  C   UNL A   1      35.678  32.405  27.964  1.00  0.00     0.014 A 
ATOM     12  C   UNL A   1      35.973  29.821  28.981  1.00  0.00     0.010 A 
ATOM     13  C   UNL A   1      36.889  32.019  28.549  1.00  0.00     0.010 A 
ATOM     14  C   UNL A   1      37.031  30.735  29.093  1.00  0.00    -0.014 A 
BRANCH  14  15
ATOM     15  C   UNL A   1      38.272  30.333  29.798  1.00  0.00     0.031 A 
ATOM     16  C   UNL A   1      38.523  30.779  31.210  1.00  0.00     0.074 A 
ATOM     17  C   UNL A   1      39.147  29.512  29.189  1.00  0.00     0.049 A 
ATOM     18  N   UNL A   1      39.517  30.476  32.007  1.00  0.00    -0.248 NA
ATOM     19  C   UNL A   1      37.527  31.683  31.805  1.00  0.00     0.031 C 
ATOM     20  C   UNL A   1      39.019  29.005  27.823  1.00  0.00     0.029 A 
ATOM     21  N   UNL A   1      40.302  28.936  29.655  1.00  0.00    -0.354 N 
ATOM     22  C   UNL A   1      39.280  31.164  33.187  1.00  0.00     0.074 A 
ATOM     23  C   UNL A   1      38.045  31.901  33.007  1.00  0.00     0.031 C 
ATOM     24  C   UNL A   1      40.028  28.152  27.579  1.00  0.00     0.029 A 
ATOM     25  C   UNL A   1      40.876  28.065  28.765  1.00  0.00     0.049 A 
ATOM     26  H   UNL A   1      40.681  29.130  30.544  1.00  0.00     0.167 HD
ATOM     27  C   UNL A   1      40.024  31.184  34.317  1.00  0.00     0.037 A 
ATOM     28  C   UNL A   1      41.952  27.270  28.898  1.00  0.00     0.037 A 
ATOM     29  C   UNL A   1      41.242  30.447  34.515  1.00  0.00     0.049 A 
ATOM     30  C   UNL A   1      42.729  27.267  30.181  1.00  0.00     0.074 A 
ATOM     31  C   UNL A   1      42.082  30.440  35.617  1.00  0.00     0.029 A 
ATOM     32  N   UNL A   1      41.786  29.570  33.592  1.00  0.00    -0.354 N 
ATOM     33  N   UNL A   1      42.510  27.948  31.278  1.00  0.00    -0.248 NA
ATOM     34  C   UNL A   1      43.905  26.386  30.242  1.00  0.00     0.031 C 
ATOM     35  C   UNL A   1      43.135  29.555  35.359  1.00  0.00     0.029 A 
ATOM     36  C   UNL A   1      42.944  29.007  34.101  1.00  0.00     0.049 A 
ATOM     37  H   UNL A   1      41.406  29.376  32.705  1.00  0.00     0.167 HD
ATOM     38  C   UNL A   1      43.521  27.586  32.156  1.00  0.00     0.074 A 
ATOM     39  C   UNL A   1      44.344  26.610  31.473  1.00  0.00     0.031 C 
ATOM     40  C   UNL A   1      43.750  28.036  33.413  1.00  0.00     0.037 A 
BRANCH  27  41
ATOM     41  C   UNL A   1      39.543  32.052  35.436  1.00  0.00     0.064 A 
ATOM     42  C   UNL A   1      39.971  33.381  35.540  1.00  0.00     0.173 A 
ATOM     43  C   UNL A   1      38.685  31.551  36.423  1.00  0.00     0.173 A 
ATOM     44  F   UNL A   1      40.789  33.903  34.614  1.00  0.00    -0.203 F 
ATOM     45  C   UNL A   1      39.558  34.182  36.602  1.00  0.00     0.198 A 
ATOM     46  C   UNL A   1      38.266  32.356  37.479  1.00  0.00     0.198 A 
ATOM     47  F   UNL A   1      38.239  30.287  36.352  1.00  0.00    -0.203 F 
ATOM     48  F   UNL A   1      39.980  35.450  36.687  1.00  0.00    -0.200 F 
ATOM     49  C   UNL A   1      38.705  33.669  37.569  1.00  0.00     0.200 A 
ATOM     50  F   UNL A   1      37.431  31.866  38.405  1.00  0.00    -0.200 F 
ATOM     51  F   UNL A   1      38.302  34.443  38.585  1.00  0.00    -0.200 F 
ENDBRANCH  27  41
BRANCH  28  52
ATOM     52  C   UNL A   1      42.327  26.369  27.788  1.00  0.00     0.064 A 
ATOM     53  C   UNL A   1      43.295  26.737  26.846  1.00  0.00     0.173 A 
ATOM     54  C   UNL A   1      41.695  25.128  27.636  1.00  0.00     0.173 A 
ATOM     55  F   UNL A   1      43.926  27.915  26.960  1.00  0.00    -0.203 F 
ATOM     56  C   UNL A   1      43.612  25.896  25.783  1.00  0.00     0.198 A 
ATOM     57  C   UNL A   1      42.018  24.285  26.577  1.00  0.00     0.198 A 
ATOM     58  F   UNL A   1      40.773  24.735  28.527  1.00  0.00    -0.203 F 
ATOM     59  F   UNL A   1      44.535  26.270  24.888  1.00  0.00    -0.200 F 
ATOM     60  C   UNL A   1      42.974  24.672  25.649  1.00  0.00     0.200 A 
ATOM     61  F   UNL A   1      41.408  23.098  26.458  1.00  0.00    -0.200 F 
ATOM     62  F   UNL A   1      43.283  23.861  24.627  1.00  0.00    -0.200 F 
ENDBRANCH  28  52
BRANCH  40  63
ATOM     63  C   UNL A   1      44.941  27.484  34.126  1.00  0.00     0.064 A 
ATOM     64  C   UNL A   1      44.833  26.337  34.922  1.00  0.00     0.173 A 
ATOM     65  C   UNL A   1      46.185  28.124  34.046  1.00  0.00     0.173 A 
ATOM     66  F   UNL A   1      43.662  25.691  35.020  1.00  0.00    -0.203 F 
ATOM     67  C   UNL A   1      45.935  25.846  35.615  1.00  0.00     0.198 A 
ATOM     68  C   UNL A   1      47.286  27.627  34.738  1.00  0.00     0.198 A 
ATOM     69  F   UNL A   1      46.333  29.218  33.286  1.00  0.00    -0.203 F 
ATOM     70  F   UNL A   1      45.815  24.746  36.373  1.00  0.00    -0.200 F 
ATOM     71  C   UNL A   1      47.160  26.492  35.524  1.00  0.00     0.200 A 
ATOM     72  F   UNL A   1      48.472  28.244  34.638  1.00  0.00    -0.200 F 
ATOM     73  F   UNL A   1      48.222  26.014  36.187  1.00  0.00    -0.200 F 
ENDBRANCH  40  63
ENDBRANCH  14  15
ENDBRANCH   7   9
ENDBRANCH   4   5
ENDBRANCH   3   4
ENDBRANCH   2   3
ENDBRANCH   1   2
BRANCH   1  74
ATOM     74  C   UNL A   1      30.149  25.863  24.464  1.00  0.00     0.021 C 
BRANCH  74  75
ATOM     75  C   UNL A   1      30.564  24.404  24.270  1.00  0.00     0.116 C 
BRANCH  75  76
ATOM     76  N   UNL A   1      31.155  23.796  25.448  1.00  0.00    -0.352 N 
ATOM     77  C   UNL A   1      31.133  22.428  25.624  1.00  0.00     0.255 C 
ATOM     78  H   UNL A   1      31.577  24.367  26.129  1.00  0.00     0.163 HD
ATOM     79  O   UNL A   1      30.159  21.873  26.117  1.00  0.00    -0.269 OA
BRANCH  77  80
ATOM     80  C   UNL A   1      32.372  21.681  25.273  1.00  0.00     0.082 A 
ATOM     81  C   UNL A   1      32.271  20.375  24.766  1.00  0.00     0.033 A 
ATOM     82  C   UNL A   1      33.647  22.222  25.505  1.00  0.00     0.132 A 
ATOM     83  C   UNL A   1      33.416  19.605  24.562  1.00  0.00     0.019 A 
ATOM     84  C   UNL A   1      34.785  21.418  25.336  1.00  0.00     0.048 A 
ATOM     85  Br  UNL A   1      33.253  17.842  23.898  1.00  0.00    -0.051 Br
ATOM     86  C   UNL A   1      34.674  20.113  24.863  1.00  0.00     0.019 A 
BRANCH  82  87
ATOM     87  O   UNL A   1      33.939  23.504  25.886  1.00  0.00    -0.488 OA
BRANCH  87  88
ATOM     88  C   UNL A   1      34.843  24.242  25.043  1.00  0.00     0.268 C 
BRANCH  88  89
ATOM     89  C   UNL A   1      34.202  25.098  23.976  1.00  0.00     0.025 A 
ATOM     90  C   UNL A   1      34.039  26.480  24.153  1.00  0.00     0.010 A 
ATOM     91  C   UNL A   1      33.742  24.520  22.790  1.00  0.00     0.129 A 
ATOM     92  C   UNL A   1      33.455  27.258  23.151  1.00  0.00     0.001 A 
ATOM     93  C   UNL A   1      33.152  25.289  21.791  1.00  0.00     0.039 A 
ATOM     94  F   UNL A   1      33.868  23.200  22.591  1.00  0.00    -0.207 F 
ATOM     95  C   UNL A   1      33.011  26.663  21.970  1.00  0.00     0.003 A 
ENDBRANCH  88  89
ENDBRANCH  87  88
ENDBRANCH  82  87
ENDBRANCH  77  80
ENDBRANCH  75  76
ENDBRANCH  74  75
ENDBRANCH   1  74
TORSDOF 16
ENDMDL
MODEL 3
REMARK VINA RESULT:     -12.5      0.670      7.224
REMARK SMILES O=C(NCCCCCCNC(=O)c1cc(Br)ccc1OCc1ccccc1F)c1ccc(-c2c3nc(c(-c4c(F)c(F)c(F)c(F)c4F)c4ccc([nH]4)c(-c4c(F)c(F)c(F)c(F)c4F)c4nc(c(-c5c(F)c(F)c(F)c(F)c5F)c5ccc2[nH]5)C=C4)C=C3)cc1
REMARK SMILES IDX 7 1 6 2 5 3 4 4 3 5 1 6 2 7 29 9 30 10 91 11 31 12 90 13
REMARK SMILES IDX 32 14 33 15 34 16 84 17 35 18 89 19 83 20 85 21 36 22 88 23
REMARK SMILES IDX 82 24 81 25 37 27 69 28 49 29 68 30 50 31 53 32 67 33 86 34
REMARK SMILES IDX 51 35 52 36 66 38 87 39 54 40 38 41 39 42 47 43 40 44 41 45
REMARK SMILES IDX 45 46 48 47 42 48 43 49 46 50 44 51 70 52 71 53 79 54 72 55
REMARK SMILES IDX 73 56 77 57 80 58 74 59 75 60 78 61 76 62 55 63 56 64 64 65
REMARK SMILES IDX 57 66 58 67 62 68 65 69 59 70 60 71 63 72 61 73 8 74 9 75
REMARK SMILES IDX 10 76 11 77 12 79 13 80 14 81 19 82 15 83 18 84 16 85 17 86
REMARK SMILES IDX 20 87 21 88 22 89 23 90 27 91 24 92 26 93 28 94 25 95
REMARK H PARENT 3 8 85 26 53 37 10 78
REMARK Flexibility Score: inf
ROOT
ATOM      1  C   UNL A   1      32.994  30.128  26.270  1.00  0.00     0.002 C 
ENDROOT
BRANCH   1   2
ATOM      2  C   UNL A   1      31.591  30.712  26.073  1.00  0.00     0.002 C 
BRANCH   2   3
ATOM      3  C   UNL A   1      31.381  32.168  26.501  1.00  0.00     0.021 C 
BRANCH   3   4
ATOM      4  C   UNL A   1      32.536  32.825  27.251  1.00  0.00     0.116 C 
BRANCH   4   5
ATOM      5  N   UNL A   1      32.286  34.203  27.626  1.00  0.00    -0.352 N 
ATOM      6  O   UNL A   1      32.529  36.076  28.867  1.00  0.00    -0.269 OA
ATOM      7  C   UNL A   1      32.919  34.946  28.597  1.00  0.00     0.251 C 
ATOM      8  H   UNL A   1      31.576  34.665  27.125  1.00  0.00     0.163 HD
BRANCH   7   9
ATOM      9  C   UNL A   1      34.049  34.361  29.360  1.00  0.00     0.039 A 
ATOM     10  C   UNL A   1      35.369  34.472  28.914  1.00  0.00     0.014 A 
ATOM     11  C   UNL A   1      33.775  33.697  30.561  1.00  0.00     0.014 A 
ATOM     12  C   UNL A   1      36.395  33.828  29.606  1.00  0.00     0.010 A 
ATOM     13  C   UNL A   1      34.809  33.083  31.276  1.00  0.00     0.010 A 
ATOM     14  C   UNL A   1      36.121  33.116  30.784  1.00  0.00    -0.014 A 
BRANCH  14  15
ATOM     15  C   UNL A   1      37.219  32.396  31.474  1.00  0.00     0.031 A 
ATOM     16  C   UNL A   1      38.014  31.348  30.751  1.00  0.00     0.074 A 
ATOM     17  C   UNL A   1      37.542  32.731  32.737  1.00  0.00     0.049 A 
ATOM     18  N   UNL A   1      39.048  30.661  31.170  1.00  0.00    -0.248 NA
ATOM     19  C   UNL A   1      37.595  31.029  29.378  1.00  0.00     0.031 C 
ATOM     20  C   UNL A   1      36.851  33.733  33.547  1.00  0.00     0.029 A 
ATOM     21  N   UNL A   1      38.556  32.284  33.545  1.00  0.00    -0.354 N 
ATOM     22  C   UNL A   1      39.390  29.817  30.125  1.00  0.00     0.074 A 
ATOM     23  C   UNL A   1      38.457  30.077  29.047  1.00  0.00     0.031 C 
ATOM     24  C   UNL A   1      37.493  33.862  34.721  1.00  0.00     0.029 A 
ATOM     25  C   UNL A   1      38.629  32.943  34.745  1.00  0.00     0.049 A 
ATOM     26  H   UNL A   1      39.172  31.559  33.288  1.00  0.00     0.167 HD
ATOM     27  C   UNL A   1      40.389  28.906  30.068  1.00  0.00     0.037 A 
ATOM     28  C   UNL A   1      39.523  32.834  35.744  1.00  0.00     0.037 A 
ATOM     29  C   UNL A   1      41.331  28.648  31.123  1.00  0.00     0.049 A 
ATOM     30  C   UNL A   1      40.655  31.856  35.635  1.00  0.00     0.074 A 
ATOM     31  C   UNL A   1      42.352  27.713  31.165  1.00  0.00     0.029 A 
ATOM     32  N   UNL A   1      41.376  29.343  32.320  1.00  0.00    -0.354 N 
ATOM     33  N   UNL A   1      40.948  31.042  34.652  1.00  0.00    -0.248 NA
ATOM     34  C   UNL A   1      41.579  31.782  36.776  1.00  0.00     0.031 C 
ATOM     35  C   UNL A   1      43.017  27.844  32.389  1.00  0.00     0.029 A 
ATOM     36  C   UNL A   1      42.413  28.867  33.104  1.00  0.00     0.049 A 
ATOM     37  H   UNL A   1      40.761  30.068  32.576  1.00  0.00     0.167 HD
ATOM     38  C   UNL A   1      42.081  30.354  35.056  1.00  0.00     0.074 A 
ATOM     39  C   UNL A   1      42.438  30.859  36.366  1.00  0.00     0.031 C 
ATOM     40  C   UNL A   1      42.757  29.380  34.401  1.00  0.00     0.037 A 
BRANCH  27  41
ATOM     41  C   UNL A   1      40.507  28.100  28.814  1.00  0.00     0.064 A 
ATOM     42  C   UNL A   1      39.840  26.875  28.690  1.00  0.00     0.173 A 
ATOM     43  C   UNL A   1      41.313  28.528  27.751  1.00  0.00     0.173 A 
ATOM     44  F   UNL A   1      39.054  26.429  29.681  1.00  0.00    -0.203 F 
ATOM     45  C   UNL A   1      39.978  26.102  27.540  1.00  0.00     0.198 A 
ATOM     46  C   UNL A   1      41.442  27.757  26.600  1.00  0.00     0.198 A 
ATOM     47  F   UNL A   1      41.958  29.703  27.824  1.00  0.00    -0.203 F 
ATOM     48  F   UNL A   1      39.334  24.931  27.439  1.00  0.00    -0.200 F 
ATOM     49  C   UNL A   1      40.778  26.544  26.496  1.00  0.00     0.200 A 
ATOM     50  F   UNL A   1      42.203  28.190  25.586  1.00  0.00    -0.200 F 
ATOM     51  F   UNL A   1      40.903  25.803  25.387  1.00  0.00    -0.200 F 
ENDBRANCH  27  41
BRANCH  28  52
ATOM     52  C   UNL A   1      39.403  33.722  36.921  1.00  0.00     0.064 A 
ATOM     53  C   UNL A   1      38.665  33.341  38.047  1.00  0.00     0.173 A 
ATOM     54  C   UNL A   1      40.009  34.985  36.922  1.00  0.00     0.173 A 
ATOM     55  F   UNL A   1      38.075  32.138  38.086  1.00  0.00    -0.203 F 
ATOM     56  C   UNL A   1      38.528  34.200  39.134  1.00  0.00     0.198 A 
ATOM     57  C   UNL A   1      39.877  35.840  38.012  1.00  0.00     0.198 A 
ATOM     58  F   UNL A   1      40.736  35.378  35.867  1.00  0.00    -0.203 F 
ATOM     59  F   UNL A   1      37.811  33.821  40.199  1.00  0.00    -0.200 F 
ATOM     60  C   UNL A   1      39.133  35.448  39.116  1.00  0.00     0.200 A 
ATOM     61  F   UNL A   1      40.473  37.040  37.996  1.00  0.00    -0.200 F 
ATOM     62  F   UNL A   1      39.004  36.273  40.164  1.00  0.00    -0.200 F 
ENDBRANCH  28  52
BRANCH  40  63
ATOM     63  C   UNL A   1      43.944  28.791  35.094  1.00  0.00     0.064 A 
ATOM     64  C   UNL A   1      45.227  29.311  34.885  1.00  0.00     0.173 A 
ATOM     65  C   UNL A   1      43.803  27.682  35.938  1.00  0.00     0.173 A 
ATOM     66  F   UNL A   1      45.403  30.375  34.089  1.00  0.00    -0.203 F 
ATOM     67  C   UNL A   1      46.335  28.737  35.502  1.00  0.00     0.198 A 
ATOM     68  C   UNL A   1      44.914  27.114  36.557  1.00  0.00     0.198 A 
ATOM     69  F   UNL A   1      42.590  27.162  36.173  1.00  0.00    -0.203 F 
ATOM     70  F   UNL A   1      47.557  29.247  35.291  1.00  0.00    -0.200 F 
ATOM     71  C   UNL A   1      46.178  27.640  36.336  1.00  0.00     0.200 A 
ATOM     72  F   UNL A   1      44.759  26.063  37.373  1.00  0.00    -0.200 F 
ATOM     73  F   UNL A   1      47.245  27.093  36.935  1.00  0.00    -0.200 F 
ENDBRANCH  40  63
ENDBRANCH  14  15
ENDBRANCH   7   9
ENDBRANCH   4   5
ENDBRANCH   3   4
ENDBRANCH   2   3
ENDBRANCH   1   2
BRANCH   1  74
ATOM     74  C   UNL A   1      33.077  28.709  26.842  1.00  0.00     0.021 C 
BRANCH  74  75
ATOM     75  C   UNL A   1      31.768  28.123  27.369  1.00  0.00     0.116 C 
BRANCH  75  76
ATOM     76  N   UNL A   1      31.672  26.680  27.244  1.00  0.00    -0.352 N 
ATOM     77  C   UNL A   1      31.107  26.102  26.126  1.00  0.00     0.255 C 
ATOM     78  H   UNL A   1      32.016  26.107  27.966  1.00  0.00     0.163 HD
ATOM     79  O   UNL A   1      29.895  25.953  26.041  1.00  0.00    -0.269 OA
BRANCH  77  80
ATOM     80  C   UNL A   1      32.040  25.594  25.083  1.00  0.00     0.082 A 
ATOM     81  C   UNL A   1      32.648  24.339  25.251  1.00  0.00     0.033 A 
ATOM     82  C   UNL A   1      32.386  26.371  23.966  1.00  0.00     0.132 A 
ATOM     83  C   UNL A   1      33.629  23.904  24.360  1.00  0.00     0.019 A 
ATOM     84  C   UNL A   1      33.406  25.937  23.105  1.00  0.00     0.048 A 
ATOM     85  Br  UNL A   1      34.448  22.219  24.620  1.00  0.00    -0.051 Br
ATOM     86  C   UNL A   1      34.027  24.705  23.298  1.00  0.00     0.019 A 
BRANCH  82  87
ATOM     87  O   UNL A   1      31.820  27.558  23.582  1.00  0.00    -0.488 OA
BRANCH  87  88
ATOM     88  C   UNL A   1      30.817  27.494  22.551  1.00  0.00     0.268 C 
BRANCH  88  89
ATOM     89  C   UNL A   1      29.719  28.529  22.633  1.00  0.00     0.025 A 
ATOM     90  C   UNL A   1      29.939  29.857  22.238  1.00  0.00     0.010 A 
ATOM     91  C   UNL A   1      28.458  28.182  23.125  1.00  0.00     0.129 A 
ATOM     92  C   UNL A   1      28.908  30.797  22.310  1.00  0.00     0.001 A 
ATOM     93  C   UNL A   1      27.429  29.116  23.207  1.00  0.00     0.039 A 
ATOM     94  F   UNL A   1      28.214  26.925  23.526  1.00  0.00    -0.207 F 
ATOM     95  C   UNL A   1      27.653  30.428  22.794  1.00  0.00     0.003 A 
ENDBRANCH  88  89
ENDBRANCH  87  88
ENDBRANCH  82  87
ENDBRANCH  77  80
ENDBRANCH  75  76
ENDBRANCH  74  75
ENDBRANCH   1  74
TORSDOF 16
ENDMDL
