MODEL 1
REMARK VINA RESULT:     -10.6      0.000      0.000
REMARK SMILES C[NH2+][C@@]1(C(=O)NCCCCCCNC(=O)c2ccc(-c3c4nc(c(-c5c(F)c(F)c(F)c(F)c5F)c5ccc([nH]5)c(-c5c(F)c(F)c(F)c(F)c5F)c5nc(c(-c6c(F)c(F)c(F)c(F)c6F)c6ccc3[nH]6)C=C5)C=C4)cc2)CCC[C@H]1CCOC
REMARK SMILES IDX 9 1 8 2 7 3 6 4 4 5 5 6 3 8 79 9 82 10 80 11 81 12 2 13 1 14
REMARK SMILES IDX 83 17 84 18 85 19 86 20 10 21 11 22 12 23 13 24 14 25 15 27
REMARK SMILES IDX 16 28 17 29 78 30 18 31 77 32 19 33 20 34 21 35 71 36 22 37
REMARK SMILES IDX 76 38 70 39 72 40 23 41 75 42 69 43 68 44 24 46 56 47 36 48
REMARK SMILES IDX 55 49 37 50 40 51 54 52 73 53 38 54 39 55 53 57 74 58 41 59
REMARK SMILES IDX 25 60 26 61 34 62 27 63 28 64 32 65 35 66 29 67 30 68 33 69
REMARK SMILES IDX 31 70 57 71 58 72 66 73 59 74 60 75 64 76 67 77 61 78 62 79
REMARK SMILES IDX 65 80 63 81 42 82 43 83 51 84 44 85 45 86 49 87 52 88 46 89
REMARK SMILES IDX 47 90 50 91 48 92
REMARK H PARENT 6 7 2 15 2 16 13 26 72 45 40 56
REMARK Flexibility Score: inf
ROOT
ATOM      1  C   UNL A   1      32.519  30.006  26.760  1.00  0.00     0.002 C 
ENDROOT
BRANCH   1   2
ATOM      2  C   UNL A   1      32.088  28.600  27.180  1.00  0.00     0.021 C 
BRANCH   2   3
ATOM      3  C   UNL A   1      31.495  27.756  26.057  1.00  0.00     0.116 C 
BRANCH   3   4
ATOM      4  N   UNL A   1      30.659  26.697  26.556  1.00  0.00    -0.351 N 
ATOM      5  C   UNL A   1      30.642  25.361  26.317  1.00  0.00     0.281 C 
ATOM      6  O   UNL A   1      29.642  24.780  26.771  1.00  0.00    -0.268 OA
ATOM      7  H   UNL A   1      29.968  26.998  27.190  1.00  0.00     0.163 HD
BRANCH   5   8
ATOM      8  C   UNL A   1      31.752  24.546  25.481  1.00  0.00     0.178 C 
ATOM      9  C   UNL A   1      31.427  23.038  25.438  1.00  0.00     0.079 C 
ATOM     10  C   UNL A   1      33.142  24.687  26.181  1.00  0.00     0.063 C 
ATOM     11  C   UNL A   1      32.422  22.299  26.315  1.00  0.00     0.008 C 
ATOM     12  C   UNL A   1      33.527  23.273  26.681  1.00  0.00     0.011 C 
BRANCH   8  13
ATOM     13  N   UNL A   1      31.606  25.123  24.135  1.00  0.00    -0.336 N 
ATOM     14  C   UNL A   1      30.818  24.528  23.092  1.00  0.00     0.331 C 
ATOM     15  H   UNL A   1      31.223  26.058  24.273  1.00  0.00     0.346 HD
ATOM     16  H   UNL A   1      32.549  24.997  23.764  1.00  0.00     0.346 HD
ENDBRANCH   8  13
BRANCH  10  17
ATOM     17  C   UNL A   1      34.368  25.246  25.425  1.00  0.00     0.039 C 
BRANCH  17  18
ATOM     18  C   UNL A   1      35.123  24.352  24.447  1.00  0.00     0.160 C 
BRANCH  18  19
ATOM     19  O   UNL A   1      34.434  24.171  23.215  1.00  0.00    -0.385 OA
ATOM     20  C   UNL A   1      34.132  22.818  22.912  1.00  0.00     0.194 C 
ENDBRANCH  18  19
ENDBRANCH  17  18
ENDBRANCH  10  17
ENDBRANCH   5   8
ENDBRANCH   3   4
ENDBRANCH   2   3
ENDBRANCH   1   2
BRANCH   1  21
ATOM     21  C   UNL A   1      31.445  30.834  26.047  1.00  0.00     0.002 C 
BRANCH  21  22
ATOM     22  C   UNL A   1      31.310  32.285  26.520  1.00  0.00     0.021 C 
BRANCH  22  23
ATOM     23  C   UNL A   1      32.504  32.819  27.303  1.00  0.00     0.116 C 
BRANCH  23  24
ATOM     24  N   UNL A   1      32.350  34.222  27.645  1.00  0.00    -0.352 N 
ATOM     25  C   UNL A   1      32.982  34.964  28.610  1.00  0.00     0.251 C 
ATOM     26  H   UNL A   1      31.694  34.715  27.101  1.00  0.00     0.163 HD
ATOM     27  O   UNL A   1      32.571  36.083  28.895  1.00  0.00    -0.269 OA
BRANCH  25  28
ATOM     28  C   UNL A   1      34.152  34.408  29.321  1.00  0.00     0.039 A 
ATOM     29  C   UNL A   1      33.954  33.765  30.546  1.00  0.00     0.014 A 
ATOM     30  C   UNL A   1      35.440  34.541  28.797  1.00  0.00     0.014 A 
ATOM     31  C   UNL A   1      35.042  33.210  31.220  1.00  0.00     0.010 A 
ATOM     32  C   UNL A   1      36.514  33.923  29.432  1.00  0.00     0.010 A 
ATOM     33  C   UNL A   1      36.327  33.256  30.653  1.00  0.00    -0.014 A 
BRANCH  33  34
ATOM     34  C   UNL A   1      37.485  32.617  31.325  1.00  0.00     0.031 A 
ATOM     35  C   UNL A   1      38.195  31.463  30.673  1.00  0.00     0.074 A 
ATOM     36  C   UNL A   1      37.856  33.036  32.549  1.00  0.00     0.049 A 
ATOM     37  N   UNL A   1      39.182  30.734  31.129  1.00  0.00    -0.248 NA
ATOM     38  C   UNL A   1      37.713  31.056  29.345  1.00  0.00     0.031 C 
ATOM     39  C   UNL A   1      37.214  34.113  33.303  1.00  0.00     0.029 A 
ATOM     40  N   UNL A   1      38.855  32.596  33.382  1.00  0.00    -0.354 N 
ATOM     41  C   UNL A   1      39.427  29.777  30.152  1.00  0.00     0.074 A 
ATOM     42  C   UNL A   1      38.450  29.982  29.106  1.00  0.00     0.031 C 
ATOM     43  C   UNL A   1      37.845  34.263  34.479  1.00  0.00     0.029 A 
ATOM     44  C   UNL A   1      38.908  33.267  34.579  1.00  0.00     0.049 A 
ATOM     45  H   UNL A   1      39.475  31.869  33.144  1.00  0.00     0.167 HD
ATOM     46  C   UNL A   1      40.394  28.829  30.123  1.00  0.00     0.037 A 
ATOM     47  C   UNL A   1      39.716  33.093  35.642  1.00  0.00     0.037 A 
ATOM     48  C   UNL A   1      41.376  28.644  31.160  1.00  0.00     0.049 A 
ATOM     49  C   UNL A   1      40.778  32.027  35.588  1.00  0.00     0.074 A 
ATOM     50  C   UNL A   1      42.436  27.756  31.197  1.00  0.00     0.029 A 
ATOM     51  N   UNL A   1      41.410  29.356  32.351  1.00  0.00    -0.354 N 
ATOM     52  N   UNL A   1      41.050  31.179  34.626  1.00  0.00    -0.248 NA
ATOM     53  C   UNL A   1      41.649  31.901  36.764  1.00  0.00     0.031 C 
ATOM     54  C   UNL A   1      43.078  27.891  32.431  1.00  0.00     0.029 A 
ATOM     55  C   UNL A   1      42.456  28.906  33.141  1.00  0.00     0.049 A 
ATOM     56  H   UNL A   1      40.784  30.074  32.598  1.00  0.00     0.167 HD
ATOM     57  C   UNL A   1      42.139  30.438  35.066  1.00  0.00     0.074 A 
ATOM     58  C   UNL A   1      42.487  30.950  36.376  1.00  0.00     0.031 C 
ATOM     59  C   UNL A   1      42.792  29.428  34.442  1.00  0.00     0.037 A 
BRANCH  46  60
ATOM     60  C   UNL A   1      40.435  27.915  28.931  1.00  0.00     0.064 A 
ATOM     61  C   UNL A   1      41.202  28.216  27.794  1.00  0.00     0.173 A 
ATOM     62  C   UNL A   1      39.722  26.706  28.936  1.00  0.00     0.173 A 
ATOM     63  F   UNL A   1      41.896  29.363  27.732  1.00  0.00    -0.203 F 
ATOM     64  C   UNL A   1      41.224  27.362  26.695  1.00  0.00     0.198 A 
ATOM     65  C   UNL A   1      39.774  25.837  27.849  1.00  0.00     0.198 A 
ATOM     66  F   UNL A   1      38.978  26.364  29.998  1.00  0.00    -0.203 F 
ATOM     67  F   UNL A   1      41.918  27.699  25.599  1.00  0.00    -0.200 F 
ATOM     68  C   UNL A   1      40.515  26.170  26.725  1.00  0.00     0.200 A 
ATOM     69  F   UNL A   1      39.101  24.679  27.886  1.00  0.00    -0.200 F 
ATOM     70  F   UNL A   1      40.542  25.346  25.669  1.00  0.00    -0.200 F 
ENDBRANCH  46  60
BRANCH  47  71
ATOM     71  C   UNL A   1      39.559  33.957  36.842  1.00  0.00     0.064 A 
ATOM     72  C   UNL A   1      38.784  33.542  37.934  1.00  0.00     0.173 A 
ATOM     73  C   UNL A   1      40.181  35.212  36.922  1.00  0.00     0.173 A 
ATOM     74  F   UNL A   1      38.155  32.359  37.897  1.00  0.00    -0.203 F 
ATOM     75  C   UNL A   1      38.620  34.359  39.052  1.00  0.00     0.198 A 
ATOM     76  C   UNL A   1      40.042  36.014  38.053  1.00  0.00     0.198 A 
ATOM     77  F   UNL A   1      40.940  35.653  35.908  1.00  0.00    -0.203 F 
ATOM     78  F   UNL A   1      37.835  33.958  40.061  1.00  0.00    -0.200 F 
ATOM     79  C   UNL A   1      39.254  35.590  39.113  1.00  0.00     0.200 A 
ATOM     80  F   UNL A   1      40.669  37.195  38.115  1.00  0.00    -0.200 F 
ATOM     81  F   UNL A   1      39.099  36.373  40.189  1.00  0.00    -0.200 F 
ENDBRANCH  47  71
BRANCH  59  82
ATOM     82  C   UNL A   1      43.972  28.827  35.152  1.00  0.00     0.064 A 
ATOM     83  C   UNL A   1      45.278  29.286  34.931  1.00  0.00     0.173 A 
ATOM     84  C   UNL A   1      43.786  27.804  36.096  1.00  0.00     0.173 A 
ATOM     85  F   UNL A   1      45.512  30.251  34.029  1.00  0.00    -0.203 F 
ATOM     86  C   UNL A   1      46.358  28.725  35.608  1.00  0.00     0.198 A 
ATOM     87  C   UNL A   1      44.864  27.269  36.796  1.00  0.00     0.198 A 
ATOM     88  F   UNL A   1      42.557  27.333  36.349  1.00  0.00    -0.203 F 
ATOM     89  F   UNL A   1      47.604  29.144  35.344  1.00  0.00    -0.200 F 
ATOM     90  C   UNL A   1      46.150  27.723  36.546  1.00  0.00     0.200 A 
ATOM     91  F   UNL A   1      44.657  26.312  37.711  1.00  0.00    -0.200 F 
ATOM     92  F   UNL A   1      47.189  27.191  37.203  1.00  0.00    -0.200 F 
ENDBRANCH  59  82
ENDBRANCH  33  34
ENDBRANCH  25  28
ENDBRANCH  23  24
ENDBRANCH  22  23
ENDBRANCH  21  22
ENDBRANCH   1  21
TORSDOF 17
ENDMDL
MODEL 2
REMARK VINA RESULT:     -10.5      2.216      7.941
REMARK SMILES C[NH2+][C@@]1(C(=O)NCCCCCCNC(=O)c2ccc(-c3c4nc(c(-c5c(F)c(F)c(F)c(F)c5F)c5ccc([nH]5)c(-c5c(F)c(F)c(F)c(F)c5F)c5nc(c(-c6c(F)c(F)c(F)c(F)c6F)c6ccc3[nH]6)C=C5)C=C4)cc2)CCC[C@H]1CCOC
REMARK SMILES IDX 9 1 8 2 7 3 6 4 4 5 5 6 3 8 79 9 82 10 80 11 81 12 2 13 1 14
REMARK SMILES IDX 83 17 84 18 85 19 86 20 10 21 11 22 12 23 13 24 14 25 15 27
REMARK SMILES IDX 16 28 17 29 78 30 18 31 77 32 19 33 20 34 21 35 71 36 22 37
REMARK SMILES IDX 76 38 70 39 72 40 23 41 75 42 69 43 68 44 24 46 56 47 36 48
REMARK SMILES IDX 55 49 37 50 40 51 54 52 73 53 38 54 39 55 53 57 74 58 41 59
REMARK SMILES IDX 25 60 26 61 34 62 27 63 28 64 32 65 35 66 29 67 30 68 33 69
REMARK SMILES IDX 31 70 57 71 58 72 66 73 59 74 60 75 64 76 67 77 61 78 62 79
REMARK SMILES IDX 65 80 63 81 42 82 43 83 51 84 44 85 45 86 49 87 52 88 46 89
REMARK SMILES IDX 47 90 50 91 48 92
REMARK H PARENT 6 7 2 15 2 16 13 26 72 45 40 56
REMARK Flexibility Score: inf
ROOT
ATOM      1  C   UNL A   1      34.582  32.558  27.705  1.00  0.00     0.002 C 
ENDROOT
BRANCH   1   2
ATOM      2  C   UNL A   1      35.402  31.303  28.008  1.00  0.00     0.021 C 
BRANCH   2   3
ATOM      3  C   UNL A   1      34.655  29.991  27.795  1.00  0.00     0.116 C 
BRANCH   3   4
ATOM      4  N   UNL A   1      34.757  29.521  26.439  1.00  0.00    -0.351 N 
ATOM      5  C   UNL A   1      33.826  29.066  25.561  1.00  0.00     0.281 C 
ATOM      6  O   UNL A   1      34.308  28.552  24.538  1.00  0.00    -0.268 OA
ATOM      7  H   UNL A   1      35.674  29.532  26.080  1.00  0.00     0.163 HD
BRANCH   5   8
ATOM      8  C   UNL A   1      32.232  29.104  25.784  1.00  0.00     0.178 C 
ATOM      9  C   UNL A   1      31.860  28.758  27.241  1.00  0.00     0.079 C 
ATOM     10  C   UNL A   1      31.552  28.027  24.877  1.00  0.00     0.063 C 
ATOM     11  C   UNL A   1      31.220  27.381  27.268  1.00  0.00     0.008 C 
ATOM     12  C   UNL A   1      30.931  26.978  25.832  1.00  0.00     0.011 C 
BRANCH   8  13
ATOM     13  N   UNL A   1      31.918  30.516  25.514  1.00  0.00    -0.336 N 
ATOM     14  C   UNL A   1      31.400  31.422  26.502  1.00  0.00     0.331 C 
ATOM     15  H   UNL A   1      32.786  30.935  25.182  1.00  0.00     0.346 HD
ATOM     16  H   UNL A   1      31.114  30.424  24.892  1.00  0.00     0.346 HD
ENDBRANCH   8  13
BRANCH  10  17
ATOM     17  C   UNL A   1      30.456  28.412  23.859  1.00  0.00     0.039 C 
BRANCH  17  18
ATOM     18  C   UNL A   1      30.850  29.041  22.527  1.00  0.00     0.160 C 
BRANCH  18  19
ATOM     19  O   UNL A   1      29.754  29.170  21.628  1.00  0.00    -0.385 OA
ATOM     20  C   UNL A   1      29.153  30.456  21.628  1.00  0.00     0.194 C 
ENDBRANCH  18  19
ENDBRANCH  17  18
ENDBRANCH  10  17
ENDBRANCH   5   8
ENDBRANCH   3   4
ENDBRANCH   2   3
ENDBRANCH   1   2
BRANCH   1  21
ATOM     21  C   UNL A   1      34.377  33.508  28.891  1.00  0.00     0.002 C 
BRANCH  21  22
ATOM     22  C   UNL A   1      33.148  34.419  28.800  1.00  0.00     0.021 C 
BRANCH  22  23
ATOM     23  C   UNL A   1      33.371  35.846  29.288  1.00  0.00     0.116 C 
BRANCH  23  24
ATOM     24  N   UNL A   1      32.526  36.173  30.423  1.00  0.00    -0.352 N 
ATOM     25  C   UNL A   1      32.610  35.755  31.727  1.00  0.00     0.251 C 
ATOM     26  H   UNL A   1      31.782  36.786  30.228  1.00  0.00     0.163 HD
ATOM     27  O   UNL A   1      31.685  35.965  32.502  1.00  0.00    -0.269 OA
BRANCH  25  28
ATOM     28  C   UNL A   1      33.813  35.037  32.196  1.00  0.00     0.039 A 
ATOM     29  C   UNL A   1      33.669  33.746  32.712  1.00  0.00     0.014 A 
ATOM     30  C   UNL A   1      35.073  35.640  32.153  1.00  0.00     0.014 A 
ATOM     31  C   UNL A   1      34.795  33.040  33.135  1.00  0.00     0.010 A 
ATOM     32  C   UNL A   1      36.203  34.908  32.505  1.00  0.00     0.010 A 
ATOM     33  C   UNL A   1      36.076  33.603  33.006  1.00  0.00    -0.014 A 
BRANCH  33  34
ATOM     34  C   UNL A   1      37.291  32.844  33.393  1.00  0.00     0.031 A 
ATOM     35  C   UNL A   1      38.004  33.160  34.678  1.00  0.00     0.074 A 
ATOM     36  C   UNL A   1      37.786  31.913  32.555  1.00  0.00     0.049 A 
ATOM     37  N   UNL A   1      39.113  32.654  35.155  1.00  0.00    -0.248 NA
ATOM     38  C   UNL A   1      37.407  34.204  35.524  1.00  0.00     0.031 C 
ATOM     39  C   UNL A   1      37.211  31.553  31.259  1.00  0.00     0.029 A 
ATOM     40  N   UNL A   1      38.894  31.111  32.662  1.00  0.00    -0.354 N 
ATOM     41  C   UNL A   1      39.352  33.327  36.347  1.00  0.00     0.074 A 
ATOM     42  C   UNL A   1      38.306  34.315  36.491  1.00  0.00     0.031 C 
ATOM     43  C   UNL A   1      37.959  30.590  30.698  1.00  0.00     0.029 A 
ATOM     44  C   UNL A   1      39.088  30.293  31.575  1.00  0.00     0.049 A 
ATOM     45  H   UNL A   1      39.493  31.119  33.443  1.00  0.00     0.167 HD
ATOM     46  C   UNL A   1      40.341  33.122  37.249  1.00  0.00     0.037 A 
ATOM     47  C   UNL A   1      40.071  29.412  31.310  1.00  0.00     0.037 A 
ATOM     48  C   UNL A   1      41.369  32.123  37.107  1.00  0.00     0.049 A 
ATOM     49  C   UNL A   1      41.164  29.208  32.325  1.00  0.00     0.074 A 
ATOM     50  C   UNL A   1      42.379  31.791  37.993  1.00  0.00     0.029 A 
ATOM     51  N   UNL A   1      41.522  31.299  36.001  1.00  0.00    -0.354 N 
ATOM     52  N   UNL A   1      41.337  29.795  33.485  1.00  0.00    -0.248 NA
ATOM     53  C   UNL A   1      42.194  28.213  31.997  1.00  0.00     0.031 C 
ATOM     54  C   UNL A   1      43.175  30.807  37.401  1.00  0.00     0.029 A 
ATOM     55  C   UNL A   1      42.627  30.481  36.170  1.00  0.00     0.049 A 
ATOM     56  H   UNL A   1      40.932  31.296  35.212  1.00  0.00     0.167 HD
ATOM     57  C   UNL A   1      42.475  29.223  34.037  1.00  0.00     0.074 A 
ATOM     58  C   UNL A   1      42.942  28.230  33.091  1.00  0.00     0.031 C 
ATOM     59  C   UNL A   1      43.078  29.494  35.220  1.00  0.00     0.037 A 
BRANCH  46  60
ATOM     60  C   UNL A   1      40.364  34.000  38.468  1.00  0.00     0.064 A 
ATOM     61  C   UNL A   1      41.104  35.192  38.507  1.00  0.00     0.173 A 
ATOM     62  C   UNL A   1      39.611  33.661  39.603  1.00  0.00     0.173 A 
ATOM     63  F   UNL A   1      41.849  35.559  37.453  1.00  0.00    -0.203 F 
ATOM     64  C   UNL A   1      41.120  35.991  39.648  1.00  0.00     0.198 A 
ATOM     65  C   UNL A   1      39.601  34.480  40.730  1.00  0.00     0.198 A 
ATOM     66  F   UNL A   1      38.879  32.537  39.619  1.00  0.00    -0.203 F 
ATOM     67  F   UNL A   1      41.880  37.094  39.681  1.00  0.00    -0.200 F 
ATOM     68  C   UNL A   1      40.364  35.638  40.756  1.00  0.00     0.200 A 
ATOM     69  F   UNL A   1      38.857  34.145  41.793  1.00  0.00    -0.200 F 
ATOM     70  F   UNL A   1      40.375  36.411  41.850  1.00  0.00    -0.200 F 
ENDBRANCH  46  60
BRANCH  47  71
ATOM     71  C   UNL A   1      40.057  28.647  30.036  1.00  0.00     0.064 A 
ATOM     72  C   UNL A   1      39.449  27.386  29.958  1.00  0.00     0.173 A 
ATOM     73  C   UNL A   1      40.647  29.159  28.871  1.00  0.00     0.173 A 
ATOM     74  F   UNL A   1      38.887  26.845  31.048  1.00  0.00    -0.203 F 
ATOM     75  C   UNL A   1      39.452  26.658  28.769  1.00  0.00     0.198 A 
ATOM     76  C   UNL A   1      40.621  28.445  27.676  1.00  0.00     0.198 A 
ATOM     77  F   UNL A   1      41.235  30.365  28.890  1.00  0.00    -0.203 F 
ATOM     78  F   UNL A   1      38.906  25.434  28.735  1.00  0.00    -0.200 F 
ATOM     79  C   UNL A   1      40.032  27.190  27.628  1.00  0.00     0.200 A 
ATOM     80  F   UNL A   1      41.169  28.970  26.572  1.00  0.00    -0.200 F 
ATOM     81  F   UNL A   1      40.030  26.492  26.485  1.00  0.00    -0.200 F 
ENDBRANCH  47  71
BRANCH  59  82
ATOM     82  C   UNL A   1      44.292  28.684  35.577  1.00  0.00     0.064 A 
ATOM     83  C   UNL A   1      45.586  29.100  35.231  1.00  0.00     0.173 A 
ATOM     84  C   UNL A   1      44.159  27.495  36.310  1.00  0.00     0.173 A 
ATOM     85  F   UNL A   1      45.766  30.223  34.517  1.00  0.00    -0.203 F 
ATOM     86  C   UNL A   1      46.699  28.342  35.581  1.00  0.00     0.198 A 
ATOM     87  C   UNL A   1      45.277  26.756  36.689  1.00  0.00     0.198 A 
ATOM     88  F   UNL A   1      42.945  27.054  36.671  1.00  0.00    -0.203 F 
ATOM     89  F   UNL A   1      47.923  28.733  35.196  1.00  0.00    -0.200 F 
ATOM     90  C   UNL A   1      46.546  27.176  36.317  1.00  0.00     0.200 A 
ATOM     91  F   UNL A   1      45.126  25.638  37.412  1.00  0.00    -0.200 F 
ATOM     92  F   UNL A   1      47.619  26.452  36.662  1.00  0.00    -0.200 F 
ENDBRANCH  59  82
ENDBRANCH  33  34
ENDBRANCH  25  28
ENDBRANCH  23  24
ENDBRANCH  22  23
ENDBRANCH  21  22
ENDBRANCH   1  21
TORSDOF 17
ENDMDL
MODEL 3
REMARK VINA RESULT:     -10.5      1.331      2.732
REMARK SMILES C[NH2+][C@@]1(C(=O)NCCCCCCNC(=O)c2ccc(-c3c4nc(c(-c5c(F)c(F)c(F)c(F)c5F)c5ccc([nH]5)c(-c5c(F)c(F)c(F)c(F)c5F)c5nc(c(-c6c(F)c(F)c(F)c(F)c6F)c6ccc3[nH]6)C=C5)C=C4)cc2)CCC[C@H]1CCOC
REMARK SMILES IDX 9 1 8 2 7 3 6 4 4 5 5 6 3 8 79 9 82 10 80 11 81 12 2 13 1 14
REMARK SMILES IDX 83 17 84 18 85 19 86 20 10 21 11 22 12 23 13 24 14 25 15 27
REMARK SMILES IDX 16 28 17 29 78 30 18 31 77 32 19 33 20 34 21 35 71 36 22 37
REMARK SMILES IDX 76 38 70 39 72 40 23 41 75 42 69 43 68 44 24 46 56 47 36 48
REMARK SMILES IDX 55 49 37 50 40 51 54 52 73 53 38 54 39 55 53 57 74 58 41 59
REMARK SMILES IDX 25 60 26 61 34 62 27 63 28 64 32 65 35 66 29 67 30 68 33 69
REMARK SMILES IDX 31 70 57 71 58 72 66 73 59 74 60 75 64 76 67 77 61 78 62 79
REMARK SMILES IDX 65 80 63 81 42 82 43 83 51 84 44 85 45 86 49 87 52 88 46 89
REMARK SMILES IDX 47 90 50 91 48 92
REMARK H PARENT 6 7 2 15 2 16 13 26 72 45 40 56
REMARK Flexibility Score: inf
ROOT
ATOM      1  C   UNL A   1      32.367  29.999  27.131  1.00  0.00     0.002 C 
ENDROOT
BRANCH   1   2
ATOM      2  C   UNL A   1      33.746  29.623  26.588  1.00  0.00     0.021 C 
BRANCH   2   3
ATOM      3  C   UNL A   1      34.024  28.124  26.548  1.00  0.00     0.116 C 
BRANCH   3   4
ATOM      4  N   UNL A   1      32.838  27.344  26.785  1.00  0.00    -0.351 N 
ATOM      5  C   UNL A   1      31.919  26.806  25.944  1.00  0.00     0.281 C 
ATOM      6  O   UNL A   1      30.909  26.364  26.517  1.00  0.00    -0.268 OA
ATOM      7  H   UNL A   1      32.660  27.168  27.738  1.00  0.00     0.163 HD
BRANCH   5   8
ATOM      8  C   UNL A   1      32.033  26.760  24.338  1.00  0.00     0.178 C 
ATOM      9  C   UNL A   1      33.490  26.529  23.885  1.00  0.00     0.079 C 
ATOM     10  C   UNL A   1      31.589  28.135  23.743  1.00  0.00     0.063 C 
ATOM     11  C   UNL A   1      34.023  27.815  23.280  1.00  0.00     0.008 C 
ATOM     12  C   UNL A   1      32.848  28.758  23.090  1.00  0.00     0.011 C 
BRANCH   8  13
ATOM     13  N   UNL A   1      31.217  25.581  24.007  1.00  0.00    -0.336 N 
ATOM     14  C   UNL A   1      31.406  24.785  22.825  1.00  0.00     0.331 C 
ATOM     15  H   UNL A   1      31.323  24.940  24.792  1.00  0.00     0.346 HD
ATOM     16  H   UNL A   1      30.315  26.015  23.808  1.00  0.00     0.346 HD
ENDBRANCH   8  13
BRANCH  10  17
ATOM     17  C   UNL A   1      30.451  28.230  22.703  1.00  0.00     0.039 C 
BRANCH  17  18
ATOM     18  C   UNL A   1      29.069  28.706  23.138  1.00  0.00     0.160 C 
BRANCH  18  19
ATOM     19  O   UNL A   1      28.958  30.125  23.178  1.00  0.00    -0.385 OA
ATOM     20  C   UNL A   1      27.659  30.615  22.885  1.00  0.00     0.194 C 
ENDBRANCH  18  19
ENDBRANCH  17  18
ENDBRANCH  10  17
ENDBRANCH   5   8
ENDBRANCH   3   4
ENDBRANCH   2   3
ENDBRANCH   1   2
BRANCH   1  21
ATOM     21  C   UNL A   1      31.515  30.873  26.204  1.00  0.00     0.002 C 
BRANCH  21  22
ATOM     22  C   UNL A   1      31.385  32.342  26.619  1.00  0.00     0.021 C 
BRANCH  22  23
ATOM     23  C   UNL A   1      32.636  32.945  27.250  1.00  0.00     0.116 C 
BRANCH  23  24
ATOM     24  N   UNL A   1      32.426  34.317  27.674  1.00  0.00    -0.352 N 
ATOM     25  C   UNL A   1      32.995  35.011  28.712  1.00  0.00     0.251 C 
ATOM     26  H   UNL A   1      31.778  34.827  27.136  1.00  0.00     0.163 HD
ATOM     27  O   UNL A   1      32.540  36.098  29.049  1.00  0.00    -0.269 OA
BRANCH  25  28
ATOM     28  C   UNL A   1      34.152  34.442  29.434  1.00  0.00     0.039 A 
ATOM     29  C   UNL A   1      33.932  33.790  30.650  1.00  0.00     0.014 A 
ATOM     30  C   UNL A   1      35.448  34.571  28.929  1.00  0.00     0.014 A 
ATOM     31  C   UNL A   1      35.007  33.222  31.335  1.00  0.00     0.010 A 
ATOM     32  C   UNL A   1      36.508  33.941  29.574  1.00  0.00     0.010 A 
ATOM     33  C   UNL A   1      36.300  33.265  30.787  1.00  0.00    -0.014 A 
BRANCH  33  34
ATOM     34  C   UNL A   1      37.445  32.613  31.470  1.00  0.00     0.031 A 
ATOM     35  C   UNL A   1      38.156  31.459  30.820  1.00  0.00     0.074 A 
ATOM     36  C   UNL A   1      37.802  33.020  32.703  1.00  0.00     0.049 A 
ATOM     37  N   UNL A   1      39.131  30.720  31.284  1.00  0.00    -0.248 NA
ATOM     38  C   UNL A   1      37.689  31.065  29.482  1.00  0.00     0.031 C 
ATOM     39  C   UNL A   1      37.156  34.096  33.456  1.00  0.00     0.029 A 
ATOM     40  N   UNL A   1      38.786  32.567  33.545  1.00  0.00    -0.354 N 
ATOM     41  C   UNL A   1      39.383  29.768  30.303  1.00  0.00     0.074 A 
ATOM     42  C   UNL A   1      38.422  29.987  29.245  1.00  0.00     0.031 C 
ATOM     43  C   UNL A   1      37.771  34.232  34.641  1.00  0.00     0.029 A 
ATOM     44  C   UNL A   1      38.827  33.229  34.749  1.00  0.00     0.049 A 
ATOM     45  H   UNL A   1      39.404  31.838  33.311  1.00  0.00     0.167 HD
ATOM     46  C   UNL A   1      40.344  28.814  30.280  1.00  0.00     0.037 A 
ATOM     47  C   UNL A   1      39.618  33.041  35.821  1.00  0.00     0.037 A 
ATOM     48  C   UNL A   1      41.309  28.614  31.329  1.00  0.00     0.049 A 
ATOM     49  C   UNL A   1      40.673  31.968  35.774  1.00  0.00     0.074 A 
ATOM     50  C   UNL A   1      42.363  27.718  31.374  1.00  0.00     0.029 A 
ATOM     51  N   UNL A   1      41.332  29.317  32.526  1.00  0.00    -0.354 N 
ATOM     52  N   UNL A   1      40.953  31.125  34.809  1.00  0.00    -0.248 NA
ATOM     53  C   UNL A   1      41.528  31.827  36.960  1.00  0.00     0.031 C 
ATOM     54  C   UNL A   1      42.989  27.840  32.618  1.00  0.00     0.029 A 
ATOM     55  C   UNL A   1      42.364  28.854  33.327  1.00  0.00     0.049 A 
ATOM     56  H   UNL A   1      40.708  30.038  32.770  1.00  0.00     0.167 HD
ATOM     57  C   UNL A   1      42.031  30.374  35.259  1.00  0.00     0.074 A 
ATOM     58  C   UNL A   1      42.364  30.873  36.577  1.00  0.00     0.031 C 
ATOM     59  C   UNL A   1      42.685  29.364  34.637  1.00  0.00     0.037 A 
BRANCH  46  60
ATOM     60  C   UNL A   1      40.395  27.909  29.082  1.00  0.00     0.064 A 
ATOM     61  C   UNL A   1      39.653  26.718  29.022  1.00  0.00     0.173 A 
ATOM     62  C   UNL A   1      41.174  28.249  27.965  1.00  0.00     0.173 A 
ATOM     63  F   UNL A   1      38.899  26.339  30.066  1.00  0.00    -0.203 F 
ATOM     64  C   UNL A   1      39.717  25.887  27.907  1.00  0.00     0.198 A 
ATOM     65  C   UNL A   1      41.208  27.433  26.837  1.00  0.00     0.198 A 
ATOM     66  F   UNL A   1      41.897  29.378  27.963  1.00  0.00    -0.203 F 
ATOM     67  F   UNL A   1      39.045  24.728  27.897  1.00  0.00    -0.200 F 
ATOM     68  C   UNL A   1      40.489  26.247  26.812  1.00  0.00     0.200 A 
ATOM     69  F   UNL A   1      41.942  27.791  25.774  1.00  0.00    -0.200 F 
ATOM     70  F   UNL A   1      40.545  25.449  25.738  1.00  0.00    -0.200 F 
ENDBRANCH  46  60
BRANCH  47  71
ATOM     71  C   UNL A   1      39.451  33.897  37.025  1.00  0.00     0.064 A 
ATOM     72  C   UNL A   1      40.044  35.165  37.096  1.00  0.00     0.173 A 
ATOM     73  C   UNL A   1      38.695  33.468  38.126  1.00  0.00     0.173 A 
ATOM     74  F   UNL A   1      40.791  35.613  36.078  1.00  0.00    -0.203 F 
ATOM     75  C   UNL A   1      39.905  35.962  38.232  1.00  0.00     0.198 A 
ATOM     76  C   UNL A   1      38.531  34.278  39.247  1.00  0.00     0.198 A 
ATOM     77  F   UNL A   1      38.100  32.266  38.105  1.00  0.00    -0.203 F 
ATOM     78  F   UNL A   1      40.523  37.150  38.292  1.00  0.00    -0.200 F 
ATOM     79  C   UNL A   1      39.144  35.521  39.303  1.00  0.00     0.200 A 
ATOM     80  F   UNL A   1      37.781  33.855  40.273  1.00  0.00    -0.200 F 
ATOM     81  F   UNL A   1      39.007  36.289  40.392  1.00  0.00    -0.200 F 
ENDBRANCH  47  71
BRANCH  59  82
ATOM     82  C   UNL A   1      43.851  28.749  35.358  1.00  0.00     0.064 A 
ATOM     83  C   UNL A   1      45.149  29.268  35.241  1.00  0.00     0.173 A 
ATOM     84  C   UNL A   1      43.658  27.650  36.209  1.00  0.00     0.173 A 
ATOM     85  F   UNL A   1      45.389  30.309  34.428  1.00  0.00    -0.203 F 
ATOM     86  C   UNL A   1      46.215  28.693  35.927  1.00  0.00     0.198 A 
ATOM     87  C   UNL A   1      44.720  27.098  36.921  1.00  0.00     0.198 A 
ATOM     88  F   UNL A   1      42.437  27.119  36.362  1.00  0.00    -0.203 F 
ATOM     89  F   UNL A   1      47.455  29.174  35.760  1.00  0.00    -0.200 F 
ATOM     90  C   UNL A   1      45.999  27.614  36.773  1.00  0.00     0.200 A 
ATOM     91  F   UNL A   1      44.506  26.066  37.748  1.00  0.00    -0.200 F 
ATOM     92  F   UNL A   1      47.024  27.068  37.440  1.00  0.00    -0.200 F 
ENDBRANCH  59  82
ENDBRANCH  33  34
ENDBRANCH  25  28
ENDBRANCH  23  24
ENDBRANCH  22  23
ENDBRANCH  21  22
ENDBRANCH   1  21
TORSDOF 17
ENDMDL
