MODEL 1
REMARK VINA RESULT:      -9.7      0.000      0.000
REMARK SMILES CC(C)OCCS(=O)(=O)N[C@@H]1COC[C@@H]1C(=O)NCCCCCCNC(=O)c1ccc(-c2c3nc(c(-c4c(F)c(F)c(F)c(F)c4F)c4ccc([nH]4)c(-c4c(F)c(F)c(F)c(F)c4F)c4nc(c(-c5c(F)c(F)c(F)c(F)c5F)c5ccc2[nH]5)C=C4)C=C3)cc1
REMARK SMILES IDX 19 1 18 2 16 3 17 4 15 6 11 7 12 8 13 9 14 10 10 11 7 13
REMARK SMILES IDX 8 14 9 15 6 16 5 17 4 18 2 19 1 20 3 21 20 22 21 23 22 24
REMARK SMILES IDX 23 25 24 26 25 27 26 28 27 30 28 31 29 32 90 33 30 34 89 35
REMARK SMILES IDX 31 36 32 37 33 38 83 39 34 40 88 41 82 42 84 43 35 44 87 45
REMARK SMILES IDX 81 46 80 47 36 49 68 50 48 51 67 52 49 53 52 54 66 55 85 56
REMARK SMILES IDX 50 57 51 58 65 60 86 61 53 62 37 63 38 64 46 65 39 66 40 67
REMARK SMILES IDX 44 68 47 69 41 70 42 71 45 72 43 73 69 74 70 75 78 76 71 77
REMARK SMILES IDX 72 78 76 79 79 80 73 81 74 82 77 83 75 84 54 85 55 86 63 87
REMARK SMILES IDX 56 88 57 89 61 90 64 91 58 92 59 93 62 94 60 95
REMARK H PARENT 18 5 10 12 25 29 84 48 52 59
REMARK Flexibility Score: inf
ROOT
ATOM      1  C   UNL A   1      33.240  36.441  30.044  1.00  0.00     0.116 C 
ENDROOT
BRANCH   1   2
ATOM      2  N   UNL A   1      33.294  37.621  30.864  1.00  0.00    -0.356 N 
ATOM      3  C   UNL A   1      33.638  37.734  32.175  1.00  0.00     0.227 C 
ATOM      4  O   UNL A   1      33.886  38.885  32.561  1.00  0.00    -0.275 OA
ATOM      5  H   UNL A   1      33.048  38.462  30.416  1.00  0.00     0.163 HD
BRANCH   3   6
ATOM      6  C   UNL A   1      33.611  36.618  33.228  1.00  0.00     0.124 C 
ATOM      7  C   UNL A   1      34.498  35.369  33.301  1.00  0.00     0.110 C 
ATOM      8  C   UNL A   1      33.535  34.252  32.851  1.00  0.00     0.181 C 
ATOM      9  O   UNL A   1      32.216  34.782  32.687  1.00  0.00    -0.379 OA
ATOM     10  C   UNL A   1      32.190  36.071  33.288  1.00  0.00     0.175 C 
BRANCH   7  11
ATOM     11  N   UNL A   1      35.852  35.466  32.588  1.00  0.00    -0.209 NA
ATOM     12  H   UNL A   1      35.682  35.273  31.601  1.00  0.00     0.141 HD
BRANCH  11  13
ATOM     13  S   UNL A   1      37.153  34.440  33.082  1.00  0.00     0.214 S 
ATOM     14  O   UNL A   1      37.500  34.711  34.450  1.00  0.00    -0.212 OA
ATOM     15  O   UNL A   1      38.133  34.658  32.029  1.00  0.00    -0.212 OA
BRANCH  13  16
ATOM     16  C   UNL A   1      36.588  32.720  32.886  1.00  0.00     0.182 C 
BRANCH  16  17
ATOM     17  C   UNL A   1      37.537  31.559  33.201  1.00  0.00     0.178 C 
BRANCH  17  18
ATOM     18  O   UNL A   1      38.180  31.473  34.473  1.00  0.00    -0.378 OA
BRANCH  18  19
ATOM     19  C   UNL A   1      39.595  31.362  34.501  1.00  0.00     0.112 C 
ATOM     20  C   UNL A   1      40.291  32.680  34.165  1.00  0.00     0.038 C 
ATOM     21  C   UNL A   1      39.922  30.628  35.788  1.00  0.00     0.038 C 
ENDBRANCH  18  19
ENDBRANCH  17  18
ENDBRANCH  16  17
ENDBRANCH  13  16
ENDBRANCH  11  13
ENDBRANCH   7  11
ENDBRANCH   3   6
ENDBRANCH   1   2
BRANCH   1  22
ATOM     22  C   UNL A   1      33.357  36.632  28.531  1.00  0.00     0.021 C 
BRANCH  22  23
ATOM     23  C   UNL A   1      34.560  35.998  27.824  1.00  0.00     0.002 C 
BRANCH  23  24
ATOM     24  C   UNL A   1      34.634  34.467  27.803  1.00  0.00     0.002 C 
BRANCH  24  25
ATOM     25  C   UNL A   1      35.607  33.797  28.778  1.00  0.00     0.021 C 
BRANCH  25  26
ATOM     26  C   UNL A   1      35.051  32.660  29.633  1.00  0.00     0.116 C 
BRANCH  26  27
ATOM     27  N   UNL A   1      34.322  31.670  28.857  1.00  0.00    -0.352 N 
ATOM     28  C   UNL A   1      34.756  30.508  28.268  1.00  0.00     0.251 C 
ATOM     29  H   UNL A   1      33.365  31.863  28.736  1.00  0.00     0.163 HD
ATOM     30  O   UNL A   1      34.006  29.885  27.521  1.00  0.00    -0.269 OA
BRANCH  28  31
ATOM     31  C   UNL A   1      36.129  30.007  28.503  1.00  0.00     0.039 A 
ATOM     32  C   UNL A   1      37.078  30.144  27.485  1.00  0.00     0.014 A 
ATOM     33  C   UNL A   1      36.481  29.383  29.701  1.00  0.00     0.014 A 
ATOM     34  C   UNL A   1      38.394  29.722  27.696  1.00  0.00     0.010 A 
ATOM     35  C   UNL A   1      37.808  29.031  29.940  1.00  0.00     0.010 A 
ATOM     36  C   UNL A   1      38.781  29.200  28.941  1.00  0.00    -0.014 A 
BRANCH  36  37
ATOM     37  C   UNL A   1      40.196  28.846  29.221  1.00  0.00     0.031 A 
ATOM     38  C   UNL A   1      41.091  29.806  29.955  1.00  0.00     0.074 A 
ATOM     39  C   UNL A   1      40.693  27.682  28.758  1.00  0.00     0.049 A 
ATOM     40  N   UNL A   1      42.368  29.703  30.230  1.00  0.00    -0.248 NA
ATOM     41  C   UNL A   1      40.477  31.058  30.419  1.00  0.00     0.031 C 
ATOM     42  C   UNL A   1      39.938  26.685  28.000  1.00  0.00     0.029 A 
ATOM     43  N   UNL A   1      41.954  27.145  28.847  1.00  0.00    -0.354 N 
ATOM     44  C   UNL A   1      42.708  30.876  30.892  1.00  0.00     0.074 A 
ATOM     45  C   UNL A   1      41.519  31.701  30.925  1.00  0.00     0.031 C 
ATOM     46  C   UNL A   1      40.740  25.647  27.715  1.00  0.00     0.029 A 
ATOM     47  C   UNL A   1      42.078  25.925  28.227  1.00  0.00     0.049 A 
ATOM     48  H   UNL A   1      42.698  27.590  29.312  1.00  0.00     0.167 HD
ATOM     49  C   UNL A   1      43.896  31.223  31.443  1.00  0.00     0.037 A 
ATOM     50  C   UNL A   1      43.152  25.126  28.075  1.00  0.00     0.037 A 
ATOM     51  C   UNL A   1      45.074  30.394  31.415  1.00  0.00     0.049 A 
ATOM     52  C   UNL A   1      44.471  25.554  28.662  1.00  0.00     0.074 A 
ATOM     53  C   UNL A   1      46.312  30.634  31.985  1.00  0.00     0.029 A 
ATOM     54  N   UNL A   1      45.161  29.165  30.774  1.00  0.00    -0.354 N 
ATOM     55  N   UNL A   1      44.763  26.635  29.344  1.00  0.00    -0.248 NA
ATOM     56  C   UNL A   1      45.610  24.647  28.460  1.00  0.00     0.031 C 
ATOM     57  C   UNL A   1      47.165  29.582  31.637  1.00  0.00     0.029 A 
ATOM     58  C   UNL A   1      46.442  28.652  30.908  1.00  0.00     0.049 A 
ATOM     59  H   UNL A   1      44.423  28.725  30.295  1.00  0.00     0.167 HD
ATOM     60  C   UNL A   1      46.106  26.524  29.680  1.00  0.00     0.074 A 
ATOM     61  C   UNL A   1      46.567  25.262  29.140  1.00  0.00     0.031 C 
ATOM     62  C   UNL A   1      46.887  27.390  30.372  1.00  0.00     0.037 A 
BRANCH  49  63
ATOM     63  C   UNL A   1      43.986  32.560  32.123  1.00  0.00     0.064 A 
ATOM     64  C   UNL A   1      44.224  33.740  31.403  1.00  0.00     0.173 A 
ATOM     65  C   UNL A   1      43.791  32.669  33.510  1.00  0.00     0.173 A 
ATOM     66  F   UNL A   1      44.426  33.694  30.077  1.00  0.00    -0.203 F 
ATOM     67  C   UNL A   1      44.297  34.973  32.047  1.00  0.00     0.198 A 
ATOM     68  C   UNL A   1      43.829  33.907  34.145  1.00  0.00     0.198 A 
ATOM     69  F   UNL A   1      43.553  31.574  34.248  1.00  0.00    -0.203 F 
ATOM     70  F   UNL A   1      44.579  36.079  31.344  1.00  0.00    -0.200 F 
ATOM     71  C   UNL A   1      44.091  35.056  33.416  1.00  0.00     0.200 A 
ATOM     72  F   UNL A   1      43.614  33.988  35.465  1.00  0.00    -0.200 F 
ATOM     73  F   UNL A   1      44.153  36.245  34.033  1.00  0.00    -0.200 F 
ENDBRANCH  49  63
BRANCH  50  74
ATOM     74  C   UNL A   1      43.025  23.834  27.350  1.00  0.00     0.064 A 
ATOM     75  C   UNL A   1      42.538  22.689  27.996  1.00  0.00     0.173 A 
ATOM     76  C   UNL A   1      43.397  23.712  26.003  1.00  0.00     0.173 A 
ATOM     77  F   UNL A   1      42.188  22.749  29.290  1.00  0.00    -0.203 F 
ATOM     78  C   UNL A   1      42.453  21.467  27.332  1.00  0.00     0.198 A 
ATOM     79  C   UNL A   1      43.278  22.498  25.329  1.00  0.00     0.198 A 
ATOM     80  F   UNL A   1      43.865  24.777  25.334  1.00  0.00    -0.203 F 
ATOM     81  F   UNL A   1      42.035  20.378  27.990  1.00  0.00    -0.200 F 
ATOM     82  C   UNL A   1      42.817  21.374  25.997  1.00  0.00     0.200 A 
ATOM     83  F   UNL A   1      43.615  22.416  24.035  1.00  0.00    -0.200 F 
ATOM     84  F   UNL A   1      42.730  20.200  25.358  1.00  0.00    -0.200 F 
ENDBRANCH  50  74
BRANCH  62  85
ATOM     85  C   UNL A   1      48.313  26.987  30.621  1.00  0.00     0.064 A 
ATOM     86  C   UNL A   1      49.358  27.409  29.786  1.00  0.00     0.173 A 
ATOM     87  C   UNL A   1      48.642  26.201  31.737  1.00  0.00     0.173 A 
ATOM     88  F   UNL A   1      49.097  28.149  28.698  1.00  0.00    -0.203 F 
ATOM     89  C   UNL A   1      50.675  27.036  30.043  1.00  0.00     0.198 A 
ATOM     90  C   UNL A   1      49.963  25.861  32.012  1.00  0.00     0.198 A 
ATOM     91  F   UNL A   1      47.681  25.777  32.572  1.00  0.00    -0.203 F 
ATOM     92  F   UNL A   1      51.650  27.407  29.203  1.00  0.00    -0.200 F 
ATOM     93  C   UNL A   1      50.978  26.271  31.160  1.00  0.00     0.200 A 
ATOM     94  F   UNL A   1      50.254  25.137  33.100  1.00  0.00    -0.200 F 
ATOM     95  F   UNL A   1      52.247  25.923  31.412  1.00  0.00    -0.200 F 
ENDBRANCH  62  85
ENDBRANCH  36  37
ENDBRANCH  28  31
ENDBRANCH  26  27
ENDBRANCH  25  26
ENDBRANCH  24  25
ENDBRANCH  23  24
ENDBRANCH  22  23
ENDBRANCH   1  22
TORSDOF 19
ENDMDL
MODEL 2
REMARK VINA RESULT:      -9.7      4.226      7.621
REMARK SMILES CC(C)OCCS(=O)(=O)N[C@@H]1COC[C@@H]1C(=O)NCCCCCCNC(=O)c1ccc(-c2c3nc(c(-c4c(F)c(F)c(F)c(F)c4F)c4ccc([nH]4)c(-c4c(F)c(F)c(F)c(F)c4F)c4nc(c(-c5c(F)c(F)c(F)c(F)c5F)c5ccc2[nH]5)C=C4)C=C3)cc1
REMARK SMILES IDX 19 1 18 2 16 3 17 4 15 6 11 7 12 8 13 9 14 10 10 11 7 13
REMARK SMILES IDX 8 14 9 15 6 16 5 17 4 18 2 19 1 20 3 21 20 22 21 23 22 24
REMARK SMILES IDX 23 25 24 26 25 27 26 28 27 30 28 31 29 32 90 33 30 34 89 35
REMARK SMILES IDX 31 36 32 37 33 38 83 39 34 40 88 41 82 42 84 43 35 44 87 45
REMARK SMILES IDX 81 46 80 47 36 49 68 50 48 51 67 52 49 53 52 54 66 55 85 56
REMARK SMILES IDX 50 57 51 58 65 60 86 61 53 62 37 63 38 64 46 65 39 66 40 67
REMARK SMILES IDX 44 68 47 69 41 70 42 71 45 72 43 73 69 74 70 75 78 76 71 77
REMARK SMILES IDX 72 78 76 79 79 80 73 81 74 82 77 83 75 84 54 85 55 86 63 87
REMARK SMILES IDX 56 88 57 89 61 90 64 91 58 92 59 93 62 94 60 95
REMARK H PARENT 18 5 10 12 25 29 84 48 52 59
REMARK Flexibility Score: inf
ROOT
ATOM      1  C   UNL A   1      34.512  24.537  25.283  1.00  0.00     0.116 C 
ENDROOT
BRANCH   1   2
ATOM      2  N   UNL A   1      35.016  23.190  25.312  1.00  0.00    -0.356 N 
ATOM      3  C   UNL A   1      34.786  22.175  24.438  1.00  0.00     0.227 C 
ATOM      4  O   UNL A   1      35.564  21.214  24.524  1.00  0.00    -0.275 OA
ATOM      5  H   UNL A   1      35.608  22.974  26.068  1.00  0.00     0.163 HD
BRANCH   3   6
ATOM      6  C   UNL A   1      33.599  22.047  23.474  1.00  0.00     0.124 C 
ATOM      7  C   UNL A   1      32.884  23.166  22.706  1.00  0.00     0.110 C 
ATOM      8  C   UNL A   1      31.562  23.311  23.487  1.00  0.00     0.181 C 
ATOM      9  O   UNL A   1      31.473  22.292  24.488  1.00  0.00    -0.379 OA
ATOM     10  C   UNL A   1      32.478  21.325  24.211  1.00  0.00     0.175 C 
BRANCH   7  11
ATOM     11  N   UNL A   1      33.702  24.439  22.459  1.00  0.00    -0.209 NA
ATOM     12  H   UNL A   1      33.835  24.887  23.365  1.00  0.00     0.141 HD
BRANCH  11  13
ATOM     13  S   UNL A   1      33.094  25.650  21.385  1.00  0.00     0.214 S 
ATOM     14  O   UNL A   1      33.032  25.133  20.046  1.00  0.00    -0.212 OA
ATOM     15  O   UNL A   1      33.953  26.785  21.684  1.00  0.00    -0.212 OA
BRANCH  13  16
ATOM     16  C   UNL A   1      31.436  26.112  21.978  1.00  0.00     0.182 C 
BRANCH  16  17
ATOM     17  C   UNL A   1      31.161  27.544  22.450  1.00  0.00     0.178 C 
BRANCH  17  18
ATOM     18  O   UNL A   1      30.068  28.288  21.909  1.00  0.00    -0.378 OA
BRANCH  18  19
ATOM     19  C   UNL A   1      29.517  29.335  22.695  1.00  0.00     0.112 C 
ATOM     20  C   UNL A   1      30.357  29.638  23.934  1.00  0.00     0.038 C 
ATOM     21  C   UNL A   1      29.168  30.440  21.715  1.00  0.00     0.038 C 
ENDBRANCH  18  19
ENDBRANCH  17  18
ENDBRANCH  16  17
ENDBRANCH  13  16
ENDBRANCH  11  13
ENDBRANCH   7  11
ENDBRANCH   3   6
ENDBRANCH   1   2
BRANCH   1  22
ATOM     22  C   UNL A   1      33.282  24.844  26.140  1.00  0.00     0.021 C 
BRANCH  22  23
ATOM     23  C   UNL A   1      32.720  26.269  26.092  1.00  0.00     0.002 C 
BRANCH  23  24
ATOM     24  C   UNL A   1      33.440  27.277  25.191  1.00  0.00     0.002 C 
BRANCH  24  25
ATOM     25  C   UNL A   1      33.738  28.659  25.781  1.00  0.00     0.021 C 
BRANCH  25  26
ATOM     26  C   UNL A   1      33.895  28.742  27.298  1.00  0.00     0.116 C 
BRANCH  26  27
ATOM     27  N   UNL A   1      33.854  30.106  27.800  1.00  0.00    -0.352 N 
ATOM     28  C   UNL A   1      34.788  30.819  28.511  1.00  0.00     0.251 C 
ATOM     29  H   UNL A   1      33.026  30.596  27.596  1.00  0.00     0.163 HD
ATOM     30  O   UNL A   1      34.494  31.917  28.976  1.00  0.00    -0.269 OA
BRANCH  28  31
ATOM     31  C   UNL A   1      36.141  30.268  28.747  1.00  0.00     0.039 A 
ATOM     32  C   UNL A   1      37.109  30.410  27.747  1.00  0.00     0.014 A 
ATOM     33  C   UNL A   1      36.458  29.594  29.928  1.00  0.00     0.014 A 
ATOM     34  C   UNL A   1      38.408  29.942  27.961  1.00  0.00     0.010 A 
ATOM     35  C   UNL A   1      37.770  29.194  30.172  1.00  0.00     0.010 A 
ATOM     36  C   UNL A   1      38.761  29.366  29.192  1.00  0.00    -0.014 A 
BRANCH  36  37
ATOM     37  C   UNL A   1      40.161  28.961  29.479  1.00  0.00     0.031 A 
ATOM     38  C   UNL A   1      41.077  29.871  30.250  1.00  0.00     0.074 A 
ATOM     39  C   UNL A   1      40.627  27.795  28.989  1.00  0.00     0.049 A 
ATOM     40  N   UNL A   1      42.346  29.720  30.537  1.00  0.00    -0.248 NA
ATOM     41  C   UNL A   1      40.497  31.128  30.743  1.00  0.00     0.031 C 
ATOM     42  C   UNL A   1      39.851  26.843  28.194  1.00  0.00     0.029 A 
ATOM     43  N   UNL A   1      41.870  27.215  29.078  1.00  0.00    -0.354 N 
ATOM     44  C   UNL A   1      42.714  30.863  31.236  1.00  0.00     0.074 A 
ATOM     45  C   UNL A   1      41.552  31.724  31.278  1.00  0.00     0.031 C 
ATOM     46  C   UNL A   1      40.623  25.789  27.890  1.00  0.00     0.029 A 
ATOM     47  C   UNL A   1      41.963  26.010  28.424  1.00  0.00     0.049 A 
ATOM     48  H   UNL A   1      42.622  27.624  29.563  1.00  0.00     0.167 HD
ATOM     49  C   UNL A   1      43.906  31.156  31.810  1.00  0.00     0.037 A 
ATOM     50  C   UNL A   1      43.013  25.183  28.263  1.00  0.00     0.037 A 
ATOM     51  C   UNL A   1      45.057  30.291  31.772  1.00  0.00     0.049 A 
ATOM     52  C   UNL A   1      44.338  25.552  28.876  1.00  0.00     0.074 A 
ATOM     53  C   UNL A   1      46.295  30.476  32.363  1.00  0.00     0.029 A 
ATOM     54  N   UNL A   1      45.114  29.079  31.097  1.00  0.00    -0.354 N 
ATOM     55  N   UNL A   1      44.655  26.603  29.592  1.00  0.00    -0.248 NA
ATOM     56  C   UNL A   1      45.450  24.615  28.662  1.00  0.00     0.031 C 
ATOM     57  C   UNL A   1      47.119  29.407  31.995  1.00  0.00     0.029 A 
ATOM     58  C   UNL A   1      46.376  28.522  31.232  1.00  0.00     0.049 A 
ATOM     59  H   UNL A   1      44.369  28.676  30.597  1.00  0.00     0.167 HD
ATOM     60  C   UNL A   1      45.989  26.440  29.940  1.00  0.00     0.074 A 
ATOM     61  C   UNL A   1      46.418  25.181  29.371  1.00  0.00     0.031 C 
ATOM     62  C   UNL A   1      46.789  27.262  30.665  1.00  0.00     0.037 A 
BRANCH  49  63
ATOM     63  C   UNL A   1      44.029  32.470  32.529  1.00  0.00     0.064 A 
ATOM     64  C   UNL A   1      44.449  33.635  31.870  1.00  0.00     0.173 A 
ATOM     65  C   UNL A   1      43.684  32.575  33.886  1.00  0.00     0.173 A 
ATOM     66  F   UNL A   1      44.799  33.591  30.576  1.00  0.00    -0.203 F 
ATOM     67  C   UNL A   1      44.550  34.848  32.549  1.00  0.00     0.198 A 
ATOM     68  C   UNL A   1      43.752  33.796  34.552  1.00  0.00     0.198 A 
ATOM     69  F   UNL A   1      43.268  31.495  34.565  1.00  0.00    -0.203 F 
ATOM     70  F   UNL A   1      45.006  35.934  31.911  1.00  0.00    -0.200 F 
ATOM     71  C   UNL A   1      44.194  34.928  33.886  1.00  0.00     0.200 A 
ATOM     72  F   UNL A   1      43.392  33.876  35.840  1.00  0.00    -0.200 F 
ATOM     73  F   UNL A   1      44.284  36.098  34.536  1.00  0.00    -0.200 F 
ENDBRANCH  49  63
BRANCH  50  74
ATOM     74  C   UNL A   1      42.855  23.915  27.499  1.00  0.00     0.064 A 
ATOM     75  C   UNL A   1      43.175  23.851  26.136  1.00  0.00     0.173 A 
ATOM     76  C   UNL A   1      42.372  22.749  28.111  1.00  0.00     0.173 A 
ATOM     77  F   UNL A   1      43.621  24.945  25.501  1.00  0.00    -0.203 F 
ATOM     78  C   UNL A   1      42.993  22.677  25.407  1.00  0.00     0.198 A 
ATOM     79  C   UNL A   1      42.224  21.566  27.389  1.00  0.00     0.198 A 
ATOM     80  F   UNL A   1      42.056  22.753  29.414  1.00  0.00    -0.203 F 
ATOM     81  F   UNL A   1      43.256  22.660  24.094  1.00  0.00    -0.200 F 
ATOM     82  C   UNL A   1      42.525  21.533  26.036  1.00  0.00     0.200 A 
ATOM     83  F   UNL A   1      41.787  20.458  28.004  1.00  0.00    -0.200 F 
ATOM     84  F   UNL A   1      42.355  20.404  25.336  1.00  0.00    -0.200 F 
ENDBRANCH  50  74
BRANCH  62  85
ATOM     85  C   UNL A   1      48.198  26.807  30.920  1.00  0.00     0.064 A 
ATOM     86  C   UNL A   1      49.265  27.217  30.107  1.00  0.00     0.173 A 
ATOM     87  C   UNL A   1      48.488  25.983  32.019  1.00  0.00     0.173 A 
ATOM     88  F   UNL A   1      49.041  27.992  29.036  1.00  0.00    -0.203 F 
ATOM     89  C   UNL A   1      50.567  26.795  30.369  1.00  0.00     0.198 A 
ATOM     90  C   UNL A   1      49.795  25.594  32.299  1.00  0.00     0.198 A 
ATOM     91  F   UNL A   1      47.505  25.569  32.832  1.00  0.00    -0.203 F 
ATOM     92  F   UNL A   1      51.563  27.155  29.549  1.00  0.00    -0.200 F 
ATOM     93  C   UNL A   1      50.832  25.993  31.469  1.00  0.00     0.200 A 
ATOM     94  F   UNL A   1      50.050  24.834  33.372  1.00  0.00    -0.200 F 
ATOM     95  F   UNL A   1      52.086  25.597  31.726  1.00  0.00    -0.200 F 
ENDBRANCH  62  85
ENDBRANCH  36  37
ENDBRANCH  28  31
ENDBRANCH  26  27
ENDBRANCH  25  26
ENDBRANCH  24  25
ENDBRANCH  23  24
ENDBRANCH  22  23
ENDBRANCH   1  22
TORSDOF 19
ENDMDL
MODEL 3
REMARK VINA RESULT:      -9.5      0.495      2.018
REMARK SMILES CC(C)OCCS(=O)(=O)N[C@@H]1COC[C@@H]1C(=O)NCCCCCCNC(=O)c1ccc(-c2c3nc(c(-c4c(F)c(F)c(F)c(F)c4F)c4ccc([nH]4)c(-c4c(F)c(F)c(F)c(F)c4F)c4nc(c(-c5c(F)c(F)c(F)c(F)c5F)c5ccc2[nH]5)C=C4)C=C3)cc1
REMARK SMILES IDX 19 1 18 2 16 3 17 4 15 6 11 7 12 8 13 9 14 10 10 11 7 13
REMARK SMILES IDX 8 14 9 15 6 16 5 17 4 18 2 19 1 20 3 21 20 22 21 23 22 24
REMARK SMILES IDX 23 25 24 26 25 27 26 28 27 30 28 31 29 32 90 33 30 34 89 35
REMARK SMILES IDX 31 36 32 37 33 38 83 39 34 40 88 41 82 42 84 43 35 44 87 45
REMARK SMILES IDX 81 46 80 47 36 49 68 50 48 51 67 52 49 53 52 54 66 55 85 56
REMARK SMILES IDX 50 57 51 58 65 60 86 61 53 62 37 63 38 64 46 65 39 66 40 67
REMARK SMILES IDX 44 68 47 69 41 70 42 71 45 72 43 73 69 74 70 75 78 76 71 77
REMARK SMILES IDX 72 78 76 79 79 80 73 81 74 82 77 83 75 84 54 85 55 86 63 87
REMARK SMILES IDX 56 88 57 89 61 90 64 91 58 92 59 93 62 94 60 95
REMARK H PARENT 18 5 10 12 25 29 84 48 52 59
REMARK Flexibility Score: inf
ROOT
ATOM      1  C   UNL A   1      33.161  36.126  30.263  1.00  0.00     0.116 C 
ENDROOT
BRANCH   1   2
ATOM      2  N   UNL A   1      33.273  37.290  31.099  1.00  0.00    -0.356 N 
ATOM      3  C   UNL A   1      33.776  37.391  32.358  1.00  0.00     0.227 C 
ATOM      4  O   UNL A   1      34.027  38.544  32.738  1.00  0.00    -0.275 OA
ATOM      5  H   UNL A   1      32.939  38.129  30.706  1.00  0.00     0.163 HD
BRANCH   3   6
ATOM      6  C   UNL A   1      33.928  36.254  33.377  1.00  0.00     0.124 C 
ATOM      7  C   UNL A   1      34.926  35.090  33.350  1.00  0.00     0.110 C 
ATOM      8  C   UNL A   1      34.036  33.900  32.938  1.00  0.00     0.181 C 
ATOM      9  O   UNL A   1      32.666  34.312  32.884  1.00  0.00    -0.379 OA
ATOM     10  C   UNL A   1      32.570  35.578  33.523  1.00  0.00     0.175 C 
BRANCH   7  11
ATOM     11  N   UNL A   1      36.209  35.326  32.544  1.00  0.00    -0.209 NA
ATOM     12  H   UNL A   1      35.992  35.113  31.571  1.00  0.00     0.141 HD
BRANCH  11  13
ATOM     13  S   UNL A   1      37.642  34.443  32.943  1.00  0.00     0.214 S 
ATOM     14  O   UNL A   1      38.342  35.100  34.012  1.00  0.00    -0.212 OA
ATOM     15  O   UNL A   1      38.280  34.292  31.644  1.00  0.00    -0.212 OA
BRANCH  13  16
ATOM     16  C   UNL A   1      37.124  32.770  33.439  1.00  0.00     0.182 C 
BRANCH  16  17
ATOM     17  C   UNL A   1      38.030  31.920  34.336  1.00  0.00     0.178 C 
BRANCH  17  18
ATOM     18  O   UNL A   1      39.178  31.267  33.795  1.00  0.00    -0.378 OA
BRANCH  18  19
ATOM     19  C   UNL A   1      39.524  29.988  34.307  1.00  0.00     0.112 C 
ATOM     20  C   UNL A   1      39.958  29.018  33.209  1.00  0.00     0.038 C 
ATOM     21  C   UNL A   1      40.427  30.255  35.496  1.00  0.00     0.038 C 
ENDBRANCH  18  19
ENDBRANCH  17  18
ENDBRANCH  16  17
ENDBRANCH  13  16
ENDBRANCH  11  13
ENDBRANCH   7  11
ENDBRANCH   3   6
ENDBRANCH   1   2
BRANCH   1  22
ATOM     22  C   UNL A   1      33.182  36.345  28.748  1.00  0.00     0.021 C 
BRANCH  22  23
ATOM     23  C   UNL A   1      34.444  35.925  27.986  1.00  0.00     0.002 C 
BRANCH  23  24
ATOM     24  C   UNL A   1      34.669  34.424  27.774  1.00  0.00     0.002 C 
BRANCH  24  25
ATOM     25  C   UNL A   1      35.476  33.678  28.841  1.00  0.00     0.021 C 
BRANCH  25  26
ATOM     26  C   UNL A   1      34.756  32.560  29.593  1.00  0.00     0.116 C 
BRANCH  26  27
ATOM     27  N   UNL A   1      34.096  31.613  28.708  1.00  0.00    -0.352 N 
ATOM     28  C   UNL A   1      34.592  30.509  28.061  1.00  0.00     0.251 C 
ATOM     29  H   UNL A   1      33.142  31.793  28.550  1.00  0.00     0.163 HD
ATOM     30  O   UNL A   1      33.900  29.926  27.230  1.00  0.00    -0.269 OA
BRANCH  28  31
ATOM     31  C   UNL A   1      35.963  30.023  28.333  1.00  0.00     0.039 A 
ATOM     32  C   UNL A   1      36.924  30.116  27.320  1.00  0.00     0.014 A 
ATOM     33  C   UNL A   1      36.304  29.456  29.563  1.00  0.00     0.014 A 
ATOM     34  C   UNL A   1      38.238  29.709  27.565  1.00  0.00     0.010 A 
ATOM     35  C   UNL A   1      37.629  29.119  29.832  1.00  0.00     0.010 A 
ATOM     36  C   UNL A   1      38.612  29.245  28.837  1.00  0.00    -0.014 A 
BRANCH  36  37
ATOM     37  C   UNL A   1      40.025  28.909  29.148  1.00  0.00     0.031 A 
ATOM     38  C   UNL A   1      40.897  29.887  29.886  1.00  0.00     0.074 A 
ATOM     39  C   UNL A   1      40.542  27.744  28.710  1.00  0.00     0.049 A 
ATOM     40  N   UNL A   1      42.169  29.800  30.187  1.00  0.00    -0.248 NA
ATOM     41  C   UNL A   1      40.262  31.139  30.323  1.00  0.00     0.031 C 
ATOM     42  C   UNL A   1      39.811  26.730  27.951  1.00  0.00     0.029 A 
ATOM     43  N   UNL A   1      41.807  27.220  28.830  1.00  0.00    -0.354 N 
ATOM     44  C   UNL A   1      42.485  30.985  30.840  1.00  0.00     0.074 A 
ATOM     45  C   UNL A   1      41.288  31.799  30.839  1.00  0.00     0.031 C 
ATOM     46  C   UNL A   1      40.628  25.696  27.695  1.00  0.00     0.029 A 
ATOM     47  C   UNL A   1      41.954  25.994  28.228  1.00  0.00     0.049 A 
ATOM     48  H   UNL A   1      42.537  27.679  29.302  1.00  0.00     0.167 HD
ATOM     49  C   UNL A   1      43.660  31.351  31.408  1.00  0.00     0.037 A 
ATOM     50  C   UNL A   1      43.038  25.204  28.107  1.00  0.00     0.037 A 
ATOM     51  C   UNL A   1      44.845  30.533  31.414  1.00  0.00     0.049 A 
ATOM     52  C   UNL A   1      44.342  25.653  28.713  1.00  0.00     0.074 A 
ATOM     53  C   UNL A   1      46.070  30.792  32.004  1.00  0.00     0.029 A 
ATOM     54  N   UNL A   1      44.957  29.297  30.790  1.00  0.00    -0.354 N 
ATOM     55  N   UNL A   1      44.610  26.745  29.387  1.00  0.00    -0.248 NA
ATOM     56  C   UNL A   1      45.492  24.754  28.545  1.00  0.00     0.031 C 
ATOM     57  C   UNL A   1      46.940  29.744  31.686  1.00  0.00     0.029 A 
ATOM     58  C   UNL A   1      46.239  28.799  30.955  1.00  0.00     0.049 A 
ATOM     59  H   UNL A   1      44.232  28.843  30.303  1.00  0.00     0.167 HD
ATOM     60  C   UNL A   1      45.947  26.651  29.749  1.00  0.00     0.074 A 
ATOM     61  C   UNL A   1      46.431  25.387  29.235  1.00  0.00     0.031 C 
ATOM     62  C   UNL A   1      46.707  27.534  30.444  1.00  0.00     0.037 A 
BRANCH  49  63
ATOM     63  C   UNL A   1      43.723  32.697  32.073  1.00  0.00     0.064 A 
ATOM     64  C   UNL A   1      43.408  32.867  33.429  1.00  0.00     0.173 A 
ATOM     65  C   UNL A   1      44.143  33.828  31.354  1.00  0.00     0.173 A 
ATOM     66  F   UNL A   1      42.992  31.822  34.162  1.00  0.00    -0.203 F 
ATOM     67  C   UNL A   1      43.479  34.120  34.033  1.00  0.00     0.198 A 
ATOM     68  C   UNL A   1      44.248  35.073  31.970  1.00  0.00     0.198 A 
ATOM     69  F   UNL A   1      44.465  33.724  30.055  1.00  0.00    -0.203 F 
ATOM     70  F   UNL A   1      43.120  34.265  35.316  1.00  0.00    -0.200 F 
ATOM     71  C   UNL A   1      43.906  35.220  33.305  1.00  0.00     0.200 A 
ATOM     72  F   UNL A   1      44.676  36.131  31.269  1.00  0.00    -0.200 F 
ATOM     73  F   UNL A   1      43.982  36.423  33.889  1.00  0.00    -0.200 F 
ENDBRANCH  49  63
BRANCH  50  74
ATOM     74  C   UNL A   1      42.937  23.901  27.396  1.00  0.00     0.064 A 
ATOM     75  C   UNL A   1      43.267  23.794  26.038  1.00  0.00     0.173 A 
ATOM     76  C   UNL A   1      42.500  22.742  28.053  1.00  0.00     0.173 A 
ATOM     77  F   UNL A   1      43.671  24.879  25.360  1.00  0.00    -0.203 F 
ATOM     78  C   UNL A   1      43.139  22.584  25.358  1.00  0.00     0.198 A 
ATOM     79  C   UNL A   1      42.406  21.525  27.381  1.00  0.00     0.198 A 
ATOM     80  F   UNL A   1      42.176  22.786  29.354  1.00  0.00    -0.203 F 
ATOM     81  F   UNL A   1      43.410  22.525  24.048  1.00  0.00    -0.200 F 
ATOM     82  C   UNL A   1      42.715  21.449  26.032  1.00  0.00     0.200 A 
ATOM     83  F   UNL A   1      42.012  20.426  28.039  1.00  0.00    -0.200 F 
ATOM     84  F   UNL A   1      42.596  20.286  25.378  1.00  0.00    -0.200 F 
ENDBRANCH  50  74
BRANCH  62  85
ATOM     85  C   UNL A   1      48.132  27.148  30.726  1.00  0.00     0.064 A 
ATOM     86  C   UNL A   1      48.481  26.372  31.841  1.00  0.00     0.173 A 
ATOM     87  C   UNL A   1      49.155  27.526  29.841  1.00  0.00     0.173 A 
ATOM     88  F   UNL A   1      47.544  25.997  32.724  1.00  0.00    -0.203 F 
ATOM     89  C   UNL A   1      49.806  26.013  32.076  1.00  0.00     0.198 A 
ATOM     90  C   UNL A   1      50.473  27.134  30.060  1.00  0.00     0.198 A 
ATOM     91  F   UNL A   1      48.874  28.261  28.756  1.00  0.00    -0.203 F 
ATOM     92  F   UNL A   1      50.124  25.317  33.175  1.00  0.00    -0.200 F 
ATOM     93  C   UNL A   1      50.799  26.385  31.181  1.00  0.00     0.200 A 
ATOM     94  F   UNL A   1      51.426  27.480  29.185  1.00  0.00    -0.200 F 
ATOM     95  F   UNL A   1      52.071  26.030  31.403  1.00  0.00    -0.200 F 
ENDBRANCH  62  85
ENDBRANCH  36  37
ENDBRANCH  28  31
ENDBRANCH  26  27
ENDBRANCH  25  26
ENDBRANCH  24  25
ENDBRANCH  23  24
ENDBRANCH  22  23
ENDBRANCH   1  22
TORSDOF 19
ENDMDL
