MODEL 1
REMARK VINA RESULT:     -10.6      0.000      0.000
REMARK SMILES CC(=O)N1CCC[C@H]1COCC(=O)NCCCCCCNC(=O)c1ccc(-c2c3nc(c(-c4c(F)c(F)c(F)c(F)c4F)c4ccc([nH]4)c(-c4c(F)c(F)c(F)c(F)c4F)c4nc(c(-c5c(F)c(F)c(F)c(F)c5F)c5ccc2[nH]5)C=C4)C=C3)cc1
REMARK SMILES IDX 16 1 15 2 14 3 12 4 13 5 11 7 10 8 9 9 8 10 4 11 5 12 6 13
REMARK SMILES IDX 7 14 2 15 1 16 3 17 17 18 18 19 19 20 20 21 21 22 22 23
REMARK SMILES IDX 23 25 24 26 25 27 86 28 26 29 85 30 27 31 28 32 29 33 79 34
REMARK SMILES IDX 30 35 84 36 78 37 80 38 31 39 83 40 77 41 76 42 32 44 64 45
REMARK SMILES IDX 44 46 63 47 45 48 48 49 62 50 81 51 46 52 47 53 61 55 82 56
REMARK SMILES IDX 49 57 33 58 34 59 42 60 35 61 36 62 40 63 43 64 37 65 38 66
REMARK SMILES IDX 41 67 39 68 65 69 66 70 74 71 67 72 68 73 72 74 75 75 69 76
REMARK SMILES IDX 70 77 73 78 71 79 50 80 51 81 59 82 52 83 53 84 57 85 60 86
REMARK SMILES IDX 54 87 55 88 58 89 56 90
REMARK H PARENT 14 6 21 24 80 43 48 54
REMARK Flexibility Score: inf
ROOT
ATOM      1  C   UNL A   1      33.206  28.836  26.483  1.00  0.00     0.021 C 
ENDROOT
BRANCH   1   2
ATOM      2  C   UNL A   1      33.002  27.323  26.489  1.00  0.00     0.116 C 
BRANCH   2   3
ATOM      3  N   UNL A   1      32.625  26.829  25.182  1.00  0.00    -0.354 N 
ATOM      4  C   UNL A   1      31.525  26.096  24.848  1.00  0.00     0.245 C 
ATOM      5  O   UNL A   1      31.366  25.755  23.676  1.00  0.00    -0.272 OA
ATOM      6  H   UNL A   1      33.237  27.050  24.443  1.00  0.00     0.163 HD
BRANCH   4   7
ATOM      7  C   UNL A   1      30.520  25.717  25.946  1.00  0.00     0.260 C 
BRANCH   7   8
ATOM      8  O   UNL A   1      30.778  24.601  26.779  1.00  0.00    -0.370 OA
BRANCH   8   9
ATOM      9  C   UNL A   1      30.716  23.314  26.156  1.00  0.00     0.185 C 
BRANCH   9  10
ATOM     10  C   UNL A   1      31.994  22.449  26.232  1.00  0.00     0.111 C 
ATOM     11  N   UNL A   1      32.646  22.268  24.942  1.00  0.00    -0.338 N 
ATOM     12  C   UNL A   1      33.694  23.249  24.757  1.00  0.00     0.120 C 
ATOM     13  C   UNL A   1      34.173  23.571  26.163  1.00  0.00     0.024 C 
ATOM     14  C   UNL A   1      33.120  22.988  27.113  1.00  0.00     0.029 C 
BRANCH  11  15
ATOM     15  C   UNL A   1      32.275  21.262  24.080  1.00  0.00     0.219 C 
ATOM     16  C   UNL A   1      32.194  21.625  22.621  1.00  0.00     0.114 C 
ATOM     17  O   UNL A   1      32.084  20.106  24.458  1.00  0.00    -0.275 OA
ENDBRANCH  11  15
ENDBRANCH   9  10
ENDBRANCH   8   9
ENDBRANCH   7   8
ENDBRANCH   4   7
ENDBRANCH   2   3
ENDBRANCH   1   2
BRANCH   1  18
ATOM     18  C   UNL A   1      31.986  29.653  26.927  1.00  0.00     0.002 C 
BRANCH  18  19
ATOM     19  C   UNL A   1      31.592  30.809  26.002  1.00  0.00     0.002 C 
BRANCH  19  20
ATOM     20  C   UNL A   1      31.357  32.152  26.696  1.00  0.00     0.021 C 
BRANCH  20  21
ATOM     21  C   UNL A   1      32.617  32.828  27.223  1.00  0.00     0.116 C 
BRANCH  21  22
ATOM     22  N   UNL A   1      32.385  34.213  27.598  1.00  0.00    -0.352 N 
ATOM     23  C   UNL A   1      32.982  34.957  28.581  1.00  0.00     0.251 C 
ATOM     24  H   UNL A   1      31.700  34.684  27.069  1.00  0.00     0.163 HD
ATOM     25  O   UNL A   1      32.533  36.065  28.879  1.00  0.00    -0.269 OA
BRANCH  23  26
ATOM     26  C   UNL A   1      34.154  34.424  29.305  1.00  0.00     0.039 A 
ATOM     27  C   UNL A   1      33.951  33.731  30.502  1.00  0.00     0.014 A 
ATOM     28  C   UNL A   1      35.450  34.609  28.814  1.00  0.00     0.014 A 
ATOM     29  C   UNL A   1      35.040  33.175  31.174  1.00  0.00     0.010 A 
ATOM     30  C   UNL A   1      36.526  33.991  29.445  1.00  0.00     0.010 A 
ATOM     31  C   UNL A   1      36.333  33.272  30.634  1.00  0.00    -0.014 A 
BRANCH  31  32
ATOM     32  C   UNL A   1      37.492  32.629  31.303  1.00  0.00     0.031 A 
ATOM     33  C   UNL A   1      38.219  31.496  30.635  1.00  0.00     0.074 A 
ATOM     34  C   UNL A   1      37.855  33.030  32.537  1.00  0.00     0.049 A 
ATOM     35  N   UNL A   1      39.214  30.771  31.082  1.00  0.00    -0.248 NA
ATOM     36  C   UNL A   1      37.750  31.107  29.296  1.00  0.00     0.031 C 
ATOM     37  C   UNL A   1      37.197  34.085  33.309  1.00  0.00     0.029 A 
ATOM     38  N   UNL A   1      38.859  32.589  33.364  1.00  0.00    -0.354 N 
ATOM     39  C   UNL A   1      39.481  29.841  30.087  1.00  0.00     0.074 A 
ATOM     40  C   UNL A   1      38.509  30.052  29.038  1.00  0.00     0.031 C 
ATOM     41  C   UNL A   1      37.826  34.223  34.488  1.00  0.00     0.029 A 
ATOM     42  C   UNL A   1      38.905  33.243  34.571  1.00  0.00     0.049 A 
ATOM     43  H   UNL A   1      39.486  31.872  33.114  1.00  0.00     0.167 HD
ATOM     44  C   UNL A   1      40.468  28.913  30.039  1.00  0.00     0.037 A 
ATOM     45  C   UNL A   1      39.719  33.065  35.629  1.00  0.00     0.037 A 
ATOM     46  C   UNL A   1      41.444  28.716  31.078  1.00  0.00     0.049 A 
ATOM     47  C   UNL A   1      40.799  32.021  35.555  1.00  0.00     0.074 A 
ATOM     48  C   UNL A   1      42.510  27.833  31.106  1.00  0.00     0.029 A 
ATOM     49  N   UNL A   1      41.471  29.410  32.279  1.00  0.00    -0.354 N 
ATOM     50  N   UNL A   1      41.085  31.191  34.580  1.00  0.00    -0.248 NA
ATOM     51  C   UNL A   1      41.677  31.892  36.727  1.00  0.00     0.031 C 
ATOM     52  C   UNL A   1      43.153  27.961  32.341  1.00  0.00     0.029 A 
ATOM     53  C   UNL A   1      42.523  28.963  33.062  1.00  0.00     0.049 A 
ATOM     54  H   UNL A   1      40.836  30.118  32.537  1.00  0.00     0.167 HD
ATOM     55  C   UNL A   1      42.188  30.464  35.007  1.00  0.00     0.074 A 
ATOM     56  C   UNL A   1      42.531  30.963  36.323  1.00  0.00     0.031 C 
ATOM     57  C   UNL A   1      42.855  29.472  34.369  1.00  0.00     0.037 A 
BRANCH  44  58
ATOM     58  C   UNL A   1      40.543  28.043  28.817  1.00  0.00     0.064 A 
ATOM     59  C   UNL A   1      39.843  26.829  28.736  1.00  0.00     0.173 A 
ATOM     60  C   UNL A   1      41.293  28.441  27.700  1.00  0.00     0.173 A 
ATOM     61  F   UNL A   1      39.119  26.395  29.779  1.00  0.00    -0.203 F 
ATOM     62  C   UNL A   1      39.915  26.033  27.595  1.00  0.00     0.198 A 
ATOM     63  C   UNL A   1      41.337  27.659  26.548  1.00  0.00     0.198 A 
ATOM     64  F   UNL A   1      41.976  29.596  27.721  1.00  0.00    -0.203 F 
ATOM     65  F   UNL A   1      39.279  24.855  27.561  1.00  0.00    -0.200 F 
ATOM     66  C   UNL A   1      40.656  26.452  26.500  1.00  0.00     0.200 A 
ATOM     67  F   UNL A   1      42.042  28.073  25.486  1.00  0.00    -0.200 F 
ATOM     68  F   UNL A   1      40.718  25.690  25.400  1.00  0.00    -0.200 F 
ENDBRANCH  44  58
BRANCH  45  69
ATOM     69  C   UNL A   1      39.555  33.910  36.840  1.00  0.00     0.064 A 
ATOM     70  C   UNL A   1      40.157  35.173  36.927  1.00  0.00     0.173 A 
ATOM     71  C   UNL A   1      38.800  33.472  37.939  1.00  0.00     0.173 A 
ATOM     72  F   UNL A   1      40.905  35.629  35.911  1.00  0.00    -0.203 F 
ATOM     73  C   UNL A   1      40.030  35.955  38.073  1.00  0.00     0.198 A 
ATOM     74  C   UNL A   1      38.649  34.267  39.072  1.00  0.00     0.198 A 
ATOM     75  F   UNL A   1      38.199  32.273  37.905  1.00  0.00    -0.203 F 
ATOM     76  F   UNL A   1      40.657  37.137  38.148  1.00  0.00    -0.200 F 
ATOM     77  C   UNL A   1      39.272  35.504  39.143  1.00  0.00     0.200 A 
ATOM     78  F   UNL A   1      37.902  33.834  40.097  1.00  0.00    -0.200 F 
ATOM     79  F   UNL A   1      39.146  36.257  40.243  1.00  0.00    -0.200 F 
ENDBRANCH  45  69
BRANCH  57  80
ATOM     80  C   UNL A   1      44.046  28.883  35.068  1.00  0.00     0.064 A 
ATOM     81  C   UNL A   1      45.314  29.478  34.993  1.00  0.00     0.173 A 
ATOM     82  C   UNL A   1      43.908  27.727  35.852  1.00  0.00     0.173 A 
ATOM     83  F   UNL A   1      45.502  30.575  34.244  1.00  0.00    -0.203 F 
ATOM     84  C   UNL A   1      46.406  28.921  35.655  1.00  0.00     0.198 A 
ATOM     85  C   UNL A   1      44.994  27.193  36.539  1.00  0.00     0.198 A 
ATOM     86  F   UNL A   1      42.715  27.124  35.962  1.00  0.00    -0.203 F 
ATOM     87  F   UNL A   1      47.618  29.477  35.527  1.00  0.00    -0.200 F 
ATOM     88  C   UNL A   1      46.243  27.785  36.433  1.00  0.00     0.200 A 
ATOM     89  F   UNL A   1      44.832  26.103  37.302  1.00  0.00    -0.200 F 
ATOM     90  F   UNL A   1      47.293  27.255  37.075  1.00  0.00    -0.200 F 
ENDBRANCH  57  80
ENDBRANCH  31  32
ENDBRANCH  23  26
ENDBRANCH  21  22
ENDBRANCH  20  21
ENDBRANCH  19  20
ENDBRANCH  18  19
ENDBRANCH   1  18
TORSDOF 17
ENDMDL
MODEL 2
REMARK VINA RESULT:     -10.5      5.593     11.145
REMARK SMILES CC(=O)N1CCC[C@H]1COCC(=O)NCCCCCCNC(=O)c1ccc(-c2c3nc(c(-c4c(F)c(F)c(F)c(F)c4F)c4ccc([nH]4)c(-c4c(F)c(F)c(F)c(F)c4F)c4nc(c(-c5c(F)c(F)c(F)c(F)c5F)c5ccc2[nH]5)C=C4)C=C3)cc1
REMARK SMILES IDX 16 1 15 2 14 3 12 4 13 5 11 7 10 8 9 9 8 10 4 11 5 12 6 13
REMARK SMILES IDX 7 14 2 15 1 16 3 17 17 18 18 19 19 20 20 21 21 22 22 23
REMARK SMILES IDX 23 25 24 26 25 27 86 28 26 29 85 30 27 31 28 32 29 33 79 34
REMARK SMILES IDX 30 35 84 36 78 37 80 38 31 39 83 40 77 41 76 42 32 44 64 45
REMARK SMILES IDX 44 46 63 47 45 48 48 49 62 50 81 51 46 52 47 53 61 55 82 56
REMARK SMILES IDX 49 57 33 58 34 59 42 60 35 61 36 62 40 63 43 64 37 65 38 66
REMARK SMILES IDX 41 67 39 68 65 69 66 70 74 71 67 72 68 73 72 74 75 75 69 76
REMARK SMILES IDX 70 77 73 78 71 79 50 80 51 81 59 82 52 83 53 84 57 85 60 86
REMARK SMILES IDX 54 87 55 88 58 89 56 90
REMARK H PARENT 14 6 21 24 80 43 48 54
REMARK Flexibility Score: inf
ROOT
ATOM      1  C   UNL A   1      36.631  23.172  24.807  1.00  0.00     0.021 C 
ENDROOT
BRANCH   1   2
ATOM      2  C   UNL A   1      35.126  23.360  24.632  1.00  0.00     0.116 C 
BRANCH   2   3
ATOM      3  N   UNL A   1      34.762  23.486  23.237  1.00  0.00    -0.354 N 
ATOM      4  C   UNL A   1      33.573  23.171  22.649  1.00  0.00     0.245 C 
ATOM      5  O   UNL A   1      33.440  23.340  21.437  1.00  0.00    -0.272 OA
ATOM      6  H   UNL A   1      35.456  23.845  22.639  1.00  0.00     0.163 HD
BRANCH   4   7
ATOM      7  C   UNL A   1      32.437  22.611  23.519  1.00  0.00     0.260 C 
BRANCH   7   8
ATOM      8  O   UNL A   1      31.152  23.203  23.462  1.00  0.00    -0.370 OA
BRANCH   8   9
ATOM      9  C   UNL A   1      31.108  24.634  23.503  1.00  0.00     0.185 C 
BRANCH   9  10
ATOM     10  C   UNL A   1      30.479  25.267  24.763  1.00  0.00     0.111 C 
ATOM     11  N   UNL A   1      31.276  25.071  25.967  1.00  0.00    -0.338 N 
ATOM     12  C   UNL A   1      32.136  26.212  26.202  1.00  0.00     0.120 C 
ATOM     13  C   UNL A   1      31.391  27.387  25.590  1.00  0.00     0.024 C 
ATOM     14  C   UNL A   1      30.278  26.781  24.729  1.00  0.00     0.029 C 
BRANCH  11  15
ATOM     15  C   UNL A   1      31.155  23.938  26.737  1.00  0.00     0.219 C 
ATOM     16  C   UNL A   1      32.427  23.183  27.025  1.00  0.00     0.114 C 
ATOM     17  O   UNL A   1      30.083  23.584  27.228  1.00  0.00    -0.275 OA
ENDBRANCH  11  15
ENDBRANCH   9  10
ENDBRANCH   8   9
ENDBRANCH   7   8
ENDBRANCH   4   7
ENDBRANCH   2   3
ENDBRANCH   1   2
BRANCH   1  18
ATOM     18  C   UNL A   1      37.201  21.898  24.171  1.00  0.00     0.002 C 
BRANCH  18  19
ATOM     19  C   UNL A   1      36.833  20.586  24.872  1.00  0.00     0.002 C 
BRANCH  19  20
ATOM     20  C   UNL A   1      37.973  19.575  25.009  1.00  0.00     0.021 C 
BRANCH  20  21
ATOM     21  C   UNL A   1      39.202  20.093  25.747  1.00  0.00     0.116 C 
BRANCH  21  22
ATOM     22  N   UNL A   1      40.225  19.072  25.901  1.00  0.00    -0.352 N 
ATOM     23  C   UNL A   1      41.571  19.217  26.112  1.00  0.00     0.251 C 
ATOM     24  H   UNL A   1      39.904  18.142  25.847  1.00  0.00     0.163 HD
ATOM     25  O   UNL A   1      42.318  18.241  26.038  1.00  0.00    -0.269 OA
BRANCH  23  26
ATOM     26  C   UNL A   1      42.135  20.551  26.405  1.00  0.00     0.039 A 
ATOM     27  C   UNL A   1      42.507  21.376  25.340  1.00  0.00     0.014 A 
ATOM     28  C   UNL A   1      42.305  20.988  27.722  1.00  0.00     0.014 A 
ATOM     29  C   UNL A   1      42.994  22.659  25.594  1.00  0.00     0.010 A 
ATOM     30  C   UNL A   1      42.718  22.293  27.972  1.00  0.00     0.010 A 
ATOM     31  C   UNL A   1      43.073  23.140  26.912  1.00  0.00    -0.014 A 
BRANCH  31  32
ATOM     32  C   UNL A   1      43.526  24.525  27.194  1.00  0.00     0.031 A 
ATOM     33  C   UNL A   1      42.560  25.541  27.740  1.00  0.00     0.074 A 
ATOM     34  C   UNL A   1      44.792  24.883  26.907  1.00  0.00     0.049 A 
ATOM     35  N   UNL A   1      42.751  26.811  27.995  1.00  0.00    -0.248 NA
ATOM     36  C   UNL A   1      41.191  25.075  28.008  1.00  0.00     0.031 C 
ATOM     37  C   UNL A   1      45.808  24.002  26.330  1.00  0.00     0.029 A 
ATOM     38  N   UNL A   1      45.438  26.086  27.052  1.00  0.00    -0.354 N 
ATOM     39  C   UNL A   1      41.530  27.293  28.446  1.00  0.00     0.074 A 
ATOM     40  C   UNL A   1      40.589  26.198  28.373  1.00  0.00     0.031 C 
ATOM     41  C   UNL A   1      46.954  24.688  26.188  1.00  0.00     0.029 A 
ATOM     42  C   UNL A   1      46.744  26.064  26.627  1.00  0.00     0.049 A 
ATOM     43  H   UNL A   1      45.006  26.888  27.425  1.00  0.00     0.167 HD
ATOM     44  C   UNL A   1      41.227  28.532  28.907  1.00  0.00     0.037 A 
ATOM     45  C   UNL A   1      47.665  27.046  26.586  1.00  0.00     0.037 A 
ATOM     46  C   UNL A   1      42.169  29.616  28.992  1.00  0.00     0.049 A 
ATOM     47  C   UNL A   1      47.301  28.415  27.092  1.00  0.00     0.074 A 
ATOM     48  C   UNL A   1      41.972  30.894  29.485  1.00  0.00     0.029 A 
ATOM     49  N   UNL A   1      43.489  29.550  28.569  1.00  0.00    -0.354 N 
ATOM     50  N   UNL A   1      46.160  28.841  27.579  1.00  0.00    -0.248 NA
ATOM     51  C   UNL A   1      48.354  29.438  27.052  1.00  0.00     0.031 C 
ATOM     52  C   UNL A   1      43.159  31.615  29.318  1.00  0.00     0.029 A 
ATOM     53  C   UNL A   1      44.113  30.771  28.772  1.00  0.00     0.049 A 
ATOM     54  H   UNL A   1      43.919  28.754  28.182  1.00  0.00     0.167 HD
ATOM     55  C   UNL A   1      46.365  30.170  27.927  1.00  0.00     0.074 A 
ATOM     56  C   UNL A   1      47.746  30.473  27.612  1.00  0.00     0.031 C 
ATOM     57  C   UNL A   1      45.490  31.058  28.458  1.00  0.00     0.037 A 
BRANCH  44  58
ATOM     58  C   UNL A   1      39.815  28.777  29.360  1.00  0.00     0.064 A 
ATOM     59  C   UNL A   1      38.832  29.250  28.476  1.00  0.00     0.173 A 
ATOM     60  C   UNL A   1      39.431  28.503  30.681  1.00  0.00     0.173 A 
ATOM     61  F   UNL A   1      39.149  29.539  27.206  1.00  0.00    -0.203 F 
ATOM     62  C   UNL A   1      37.526  29.468  28.906  1.00  0.00     0.198 A 
ATOM     63  C   UNL A   1      38.116  28.690  31.099  1.00  0.00     0.198 A 
ATOM     64  F   UNL A   1      40.328  28.041  31.565  1.00  0.00    -0.203 F 
ATOM     65  F   UNL A   1      36.618  29.969  28.058  1.00  0.00    -0.200 F 
ATOM     66  C   UNL A   1      37.167  29.181  30.215  1.00  0.00     0.200 A 
ATOM     67  F   UNL A   1      37.767  28.399  32.360  1.00  0.00    -0.200 F 
ATOM     68  F   UNL A   1      35.907  29.383  30.625  1.00  0.00    -0.200 F 
ENDBRANCH  44  58
BRANCH  45  69
ATOM     69  C   UNL A   1      49.027  26.763  26.063  1.00  0.00     0.064 A 
ATOM     70  C   UNL A   1      49.344  26.982  24.716  1.00  0.00     0.173 A 
ATOM     71  C   UNL A   1      50.038  26.261  26.897  1.00  0.00     0.173 A 
ATOM     72  F   UNL A   1      48.406  27.442  23.874  1.00  0.00    -0.203 F 
ATOM     73  C   UNL A   1      50.611  26.689  24.216  1.00  0.00     0.198 A 
ATOM     74  C   UNL A   1      51.314  25.997  26.403  1.00  0.00     0.198 A 
ATOM     75  F   UNL A   1      49.789  26.038  28.196  1.00  0.00    -0.203 F 
ATOM     76  F   UNL A   1      50.872  26.862  22.913  1.00  0.00    -0.200 F 
ATOM     77  C   UNL A   1      51.597  26.202  25.061  1.00  0.00     0.200 A 
ATOM     78  F   UNL A   1      52.268  25.542  27.227  1.00  0.00    -0.200 F 
ATOM     79  F   UNL A   1      52.817  25.925  24.582  1.00  0.00    -0.200 F 
ENDBRANCH  45  69
BRANCH  57  80
ATOM     80  C   UNL A   1      46.006  32.433  28.766  1.00  0.00     0.064 A 
ATOM     81  C   UNL A   1      46.597  32.740  30.001  1.00  0.00     0.173 A 
ATOM     82  C   UNL A   1      45.942  33.448  27.799  1.00  0.00     0.173 A 
ATOM     83  F   UNL A   1      46.670  31.809  30.964  1.00  0.00    -0.203 F 
ATOM     84  C   UNL A   1      47.079  34.020  30.265  1.00  0.00     0.198 A 
ATOM     85  C   UNL A   1      46.453  34.716  28.055  1.00  0.00     0.198 A 
ATOM     86  F   UNL A   1      45.393  33.205  26.599  1.00  0.00    -0.203 F 
ATOM     87  F   UNL A   1      47.591  34.304  31.471  1.00  0.00    -0.200 F 
ATOM     88  C   UNL A   1      47.013  35.004  29.291  1.00  0.00     0.200 A 
ATOM     89  F   UNL A   1      46.403  35.663  27.107  1.00  0.00    -0.200 F 
ATOM     90  F   UNL A   1      47.483  36.233  29.545  1.00  0.00    -0.200 F 
ENDBRANCH  57  80
ENDBRANCH  31  32
ENDBRANCH  23  26
ENDBRANCH  21  22
ENDBRANCH  20  21
ENDBRANCH  19  20
ENDBRANCH  18  19
ENDBRANCH   1  18
TORSDOF 17
ENDMDL
MODEL 3
REMARK VINA RESULT:     -10.5      1.945      8.027
REMARK SMILES CC(=O)N1CCC[C@H]1COCC(=O)NCCCCCCNC(=O)c1ccc(-c2c3nc(c(-c4c(F)c(F)c(F)c(F)c4F)c4ccc([nH]4)c(-c4c(F)c(F)c(F)c(F)c4F)c4nc(c(-c5c(F)c(F)c(F)c(F)c5F)c5ccc2[nH]5)C=C4)C=C3)cc1
REMARK SMILES IDX 16 1 15 2 14 3 12 4 13 5 11 7 10 8 9 9 8 10 4 11 5 12 6 13
REMARK SMILES IDX 7 14 2 15 1 16 3 17 17 18 18 19 19 20 20 21 21 22 22 23
REMARK SMILES IDX 23 25 24 26 25 27 86 28 26 29 85 30 27 31 28 32 29 33 79 34
REMARK SMILES IDX 30 35 84 36 78 37 80 38 31 39 83 40 77 41 76 42 32 44 64 45
REMARK SMILES IDX 44 46 63 47 45 48 48 49 62 50 81 51 46 52 47 53 61 55 82 56
REMARK SMILES IDX 49 57 33 58 34 59 42 60 35 61 36 62 40 63 43 64 37 65 38 66
REMARK SMILES IDX 41 67 39 68 65 69 66 70 74 71 67 72 68 73 72 74 75 75 69 76
REMARK SMILES IDX 70 77 73 78 71 79 50 80 51 81 59 82 52 83 53 84 57 85 60 86
REMARK SMILES IDX 54 87 55 88 58 89 56 90
REMARK H PARENT 14 6 21 24 80 43 48 54
REMARK Flexibility Score: inf
ROOT
ATOM      1  C   UNL A   1      35.000  31.218  28.328  1.00  0.00     0.021 C 
ENDROOT
BRANCH   1   2
ATOM      2  C   UNL A   1      34.725  29.979  27.478  1.00  0.00     0.116 C 
BRANCH   2   3
ATOM      3  N   UNL A   1      33.508  29.311  27.885  1.00  0.00    -0.354 N 
ATOM      4  C   UNL A   1      32.371  29.123  27.156  1.00  0.00     0.245 C 
ATOM      5  O   UNL A   1      31.422  28.530  27.669  1.00  0.00    -0.272 OA
ATOM      6  H   UNL A   1      33.499  28.945  28.799  1.00  0.00     0.163 HD
BRANCH   4   7
ATOM      7  C   UNL A   1      32.311  29.659  25.717  1.00  0.00     0.260 C 
BRANCH   7   8
ATOM      8  O   UNL A   1      32.757  28.847  24.647  1.00  0.00    -0.370 OA
BRANCH   8   9
ATOM      9  C   UNL A   1      31.747  28.145  23.915  1.00  0.00     0.185 C 
BRANCH   9  10
ATOM     10  C   UNL A   1      31.752  26.606  24.038  1.00  0.00     0.111 C 
ATOM     11  N   UNL A   1      33.032  26.003  23.688  1.00  0.00    -0.338 N 
ATOM     12  C   UNL A   1      33.838  25.791  24.871  1.00  0.00     0.120 C 
ATOM     13  C   UNL A   1      32.830  25.590  25.991  1.00  0.00     0.024 C 
ATOM     14  C   UNL A   1      31.477  26.039  25.430  1.00  0.00     0.029 C 
BRANCH  11  15
ATOM     15  C   UNL A   1      33.350  25.687  22.387  1.00  0.00     0.219 C 
ATOM     16  C   UNL A   1      32.923  24.325  21.904  1.00  0.00     0.114 C 
ATOM     17  O   UNL A   1      33.892  26.488  21.627  1.00  0.00    -0.275 OA
ENDBRANCH  11  15
ENDBRANCH   9  10
ENDBRANCH   8   9
ENDBRANCH   7   8
ENDBRANCH   4   7
ENDBRANCH   2   3
ENDBRANCH   1   2
BRANCH   1  18
ATOM     18  C   UNL A   1      34.144  32.442  27.979  1.00  0.00     0.002 C 
BRANCH  18  19
ATOM     19  C   UNL A   1      34.234  33.614  28.961  1.00  0.00     0.002 C 
BRANCH  19  20
ATOM     20  C   UNL A   1      33.145  34.678  28.812  1.00  0.00     0.021 C 
BRANCH  20  21
ATOM     21  C   UNL A   1      33.417  35.980  29.555  1.00  0.00     0.116 C 
BRANCH  21  22
ATOM     22  N   UNL A   1      32.508  36.179  30.672  1.00  0.00    -0.352 N 
ATOM     23  C   UNL A   1      32.587  35.695  31.951  1.00  0.00     0.251 C 
ATOM     24  H   UNL A   1      31.723  36.743  30.481  1.00  0.00     0.163 HD
ATOM     25  O   UNL A   1      31.632  35.816  32.719  1.00  0.00    -0.269 OA
BRANCH  23  26
ATOM     26  C   UNL A   1      33.811  35.005  32.408  1.00  0.00     0.039 A 
ATOM     27  C   UNL A   1      33.708  33.699  32.894  1.00  0.00     0.014 A 
ATOM     28  C   UNL A   1      35.055  35.641  32.365  1.00  0.00     0.014 A 
ATOM     29  C   UNL A   1      34.859  33.012  33.283  1.00  0.00     0.010 A 
ATOM     30  C   UNL A   1      36.209  34.930  32.681  1.00  0.00     0.010 A 
ATOM     31  C   UNL A   1      36.123  33.610  33.148  1.00  0.00    -0.014 A 
BRANCH  31  32
ATOM     32  C   UNL A   1      37.361  32.868  33.494  1.00  0.00     0.031 A 
ATOM     33  C   UNL A   1      38.092  33.169  34.773  1.00  0.00     0.074 A 
ATOM     34  C   UNL A   1      37.859  31.963  32.629  1.00  0.00     0.049 A 
ATOM     35  N   UNL A   1      39.217  32.671  35.222  1.00  0.00    -0.248 NA
ATOM     36  C   UNL A   1      37.492  34.183  35.654  1.00  0.00     0.031 C 
ATOM     37  C   UNL A   1      37.269  31.619  31.335  1.00  0.00     0.029 A 
ATOM     38  N   UNL A   1      38.981  31.175  32.704  1.00  0.00    -0.354 N 
ATOM     39  C   UNL A   1      39.461  33.315  36.428  1.00  0.00     0.074 A 
ATOM     40  C   UNL A   1      38.401  34.281  36.613  1.00  0.00     0.031 C 
ATOM     41  C   UNL A   1      38.023  30.676  30.746  1.00  0.00     0.029 A 
ATOM     42  C   UNL A   1      39.167  30.377  31.601  1.00  0.00     0.049 A 
ATOM     43  H   UNL A   1      39.593  31.181  33.475  1.00  0.00     0.167 HD
ATOM     44  C   UNL A   1      40.463  33.099  37.314  1.00  0.00     0.037 A 
ATOM     45  C   UNL A   1      40.155  29.510  31.309  1.00  0.00     0.037 A 
ATOM     46  C   UNL A   1      41.508  32.126  37.133  1.00  0.00     0.049 A 
ATOM     47  C   UNL A   1      41.262  29.297  32.304  1.00  0.00     0.074 A 
ATOM     48  C   UNL A   1      42.543  31.801  37.993  1.00  0.00     0.029 A 
ATOM     49  N   UNL A   1      41.653  31.323  36.011  1.00  0.00    -0.354 N 
ATOM     50  N   UNL A   1      41.447  29.864  33.472  1.00  0.00    -0.248 NA
ATOM     51  C   UNL A   1      42.297  28.317  31.946  1.00  0.00     0.031 C 
ATOM     52  C   UNL A   1      43.340  30.834  37.371  1.00  0.00     0.029 A 
ATOM     53  C   UNL A   1      42.772  30.516  36.148  1.00  0.00     0.049 A 
ATOM     54  H   UNL A   1      41.050  31.325  35.233  1.00  0.00     0.167 HD
ATOM     55  C   UNL A   1      42.597  29.291  33.998  1.00  0.00     0.074 A 
ATOM     56  C   UNL A   1      43.059  28.319  33.029  1.00  0.00     0.031 C 
ATOM     57  C   UNL A   1      43.216  29.549  35.177  1.00  0.00     0.037 A 
BRANCH  44  58
ATOM     58  C   UNL A   1      40.473  33.931  38.566  1.00  0.00     0.064 A 
ATOM     59  C   UNL A   1      41.192  35.134  38.642  1.00  0.00     0.173 A 
ATOM     60  C   UNL A   1      39.728  33.541  39.688  1.00  0.00     0.173 A 
ATOM     61  F   UNL A   1      41.930  35.547  37.601  1.00  0.00    -0.203 F 
ATOM     62  C   UNL A   1      41.189  35.899  39.805  1.00  0.00     0.198 A 
ATOM     63  C   UNL A   1      39.700  34.326  40.839  1.00  0.00     0.198 A 
ATOM     64  F   UNL A   1      39.016  32.404  39.667  1.00  0.00    -0.203 F 
ATOM     65  F   UNL A   1      41.924  37.017  39.871  1.00  0.00    -0.200 F 
ATOM     66  C   UNL A   1      40.437  35.499  40.900  1.00  0.00     0.200 A 
ATOM     67  F   UNL A   1      38.962  33.944  41.890  1.00  0.00    -0.200 F 
ATOM     68  F   UNL A   1      40.429  36.241  42.016  1.00  0.00    -0.200 F 
ENDBRANCH  44  58
BRANCH  45  69
ATOM     69  C   UNL A   1      40.130  28.764  30.024  1.00  0.00     0.064 A 
ATOM     70  C   UNL A   1      39.493  27.519  29.923  1.00  0.00     0.173 A 
ATOM     71  C   UNL A   1      40.747  29.274  28.872  1.00  0.00     0.173 A 
ATOM     72  F   UNL A   1      38.905  26.979  31.002  1.00  0.00    -0.203 F 
ATOM     73  C   UNL A   1      39.494  26.803  28.728  1.00  0.00     0.198 A 
ATOM     74  C   UNL A   1      40.721  28.571  27.669  1.00  0.00     0.198 A 
ATOM     75  F   UNL A   1      41.366  30.463  28.913  1.00  0.00    -0.203 F 
ATOM     76  F   UNL A   1      38.919  25.594  28.673  1.00  0.00    -0.200 F 
ATOM     77  C   UNL A   1      40.103  27.332  27.600  1.00  0.00     0.200 A 
ATOM     78  F   UNL A   1      41.297  29.094  26.578  1.00  0.00    -0.200 F 
ATOM     79  F   UNL A   1      40.099  26.646  26.450  1.00  0.00    -0.200 F 
ENDBRANCH  45  69
BRANCH  57  80
ATOM     80  C   UNL A   1      44.441  28.743  35.501  1.00  0.00     0.064 A 
ATOM     81  C   UNL A   1      44.361  27.527  36.195  1.00  0.00     0.173 A 
ATOM     82  C   UNL A   1      45.707  29.177  35.079  1.00  0.00     0.173 A 
ATOM     83  F   UNL A   1      43.176  27.076  36.633  1.00  0.00    -0.203 F 
ATOM     84  C   UNL A   1      45.508  26.789  36.479  1.00  0.00     0.198 A 
ATOM     85  C   UNL A   1      46.847  28.420  35.336  1.00  0.00     0.198 A 
ATOM     86  F   UNL A   1      45.837  30.329  34.405  1.00  0.00    -0.203 F 
ATOM     87  F   UNL A   1      45.413  25.656  37.189  1.00  0.00    -0.200 F 
ATOM     88  C   UNL A   1      46.747  27.232  36.044  1.00  0.00     0.200 A 
ATOM     89  F   UNL A   1      48.042  28.843  34.902  1.00  0.00    -0.200 F 
ATOM     90  F   UNL A   1      47.848  26.517  36.312  1.00  0.00    -0.200 F 
ENDBRANCH  57  80
ENDBRANCH  31  32
ENDBRANCH  23  26
ENDBRANCH  21  22
ENDBRANCH  20  21
ENDBRANCH  19  20
ENDBRANCH  18  19
ENDBRANCH   1  18
TORSDOF 17
ENDMDL
