MODEL 1
REMARK VINA RESULT:     -11.8      0.000      0.000
REMARK SMILES CC[NH2+][C@@]1(C(=O)NCCCCCCNC(=O)c2ccc(-c3c4nc(c(-c5c(F)c(F)c(F)c(F)c5F)c5ccc([nH]5)c(-c5c(F)c(F)c(F)c(F)c5F)c5nc(c(-c6c(F)c(F)c(F)c(F)c6F)c6ccc3[nH]6)C=C5)C=C4)cc2)CC[C@@H](Oc2cccc(OC)c2)C1
REMARK SMILES IDX 10 1 9 2 8 3 7 4 5 5 6 6 4 8 80 9 92 10 81 11 82 12 3 13
REMARK SMILES IDX 2 16 1 17 83 18 84 19 85 20 91 21 86 22 88 23 87 24 89 25
REMARK SMILES IDX 90 26 11 27 12 28 13 29 14 30 15 31 16 33 17 34 18 35 79 36
REMARK SMILES IDX 19 37 78 38 20 39 21 40 22 41 72 42 23 43 77 44 71 45 73 46
REMARK SMILES IDX 24 47 76 48 70 49 69 50 25 52 57 53 37 54 56 55 38 56 41 57
REMARK SMILES IDX 55 58 74 59 39 60 40 61 54 63 75 64 42 65 26 66 27 67 35 68
REMARK SMILES IDX 28 69 29 70 33 71 36 72 30 73 31 74 34 75 32 76 58 77 59 78
REMARK SMILES IDX 67 79 60 80 61 81 65 82 68 83 62 84 63 85 66 86 64 87 43 88
REMARK SMILES IDX 44 89 52 90 45 91 46 92 50 93 53 94 47 95 48 96 51 97 49 98
REMARK H PARENT 7 7 3 14 3 15 14 32 73 51 41 62
REMARK Flexibility Score: inf
ROOT
ATOM      1  C   UNL A   1      32.446  29.727  27.180  1.00  0.00     0.002 C 
ENDROOT
BRANCH   1   2
ATOM      2  C   UNL A   1      33.773  29.142  26.685  1.00  0.00     0.021 C 
BRANCH   2   3
ATOM      3  C   UNL A   1      33.657  27.676  26.290  1.00  0.00     0.116 C 
BRANCH   3   4
ATOM      4  N   UNL A   1      32.338  27.184  26.548  1.00  0.00    -0.351 N 
ATOM      5  C   UNL A   1      31.384  26.574  25.811  1.00  0.00     0.281 C 
ATOM      6  O   UNL A   1      30.375  26.378  26.499  1.00  0.00    -0.268 OA
ATOM      7  H   UNL A   1      32.061  27.323  27.482  1.00  0.00     0.163 HD
BRANCH   5   8
ATOM      8  C   UNL A   1      31.545  26.116  24.290  1.00  0.00     0.179 C 
ATOM      9  C   UNL A   1      30.254  25.413  23.805  1.00  0.00     0.083 C 
ATOM     10  C   UNL A   1      32.673  25.082  24.038  1.00  0.00     0.124 C 
ATOM     11  C   UNL A   1      30.534  23.924  23.611  1.00  0.00     0.052 C 
ATOM     12  C   UNL A   1      32.029  23.696  23.872  1.00  0.00     0.180 C 
BRANCH   8  13
ATOM     13  N   UNL A   1      31.831  27.255  23.335  1.00  0.00    -0.334 N 
ATOM     14  H   UNL A   1      32.210  28.023  23.889  1.00  0.00     0.347 HD
ATOM     15  H   UNL A   1      32.455  26.845  22.642  1.00  0.00     0.347 HD
BRANCH  13  16
ATOM     16  C   UNL A   1      30.732  27.801  22.540  1.00  0.00     0.257 C 
ATOM     17  C   UNL A   1      30.684  29.320  22.617  1.00  0.00     0.071 C 
ENDBRANCH  13  16
ENDBRANCH   8  13
BRANCH  12  18
ATOM     18  O   UNL A   1      32.750  22.786  23.024  1.00  0.00    -0.490 OA
BRANCH  18  19
ATOM     19  C   UNL A   1      33.253  21.686  23.650  1.00  0.00     0.123 A 
ATOM     20  C   UNL A   1      32.483  20.528  23.740  1.00  0.00     0.047 A 
ATOM     21  C   UNL A   1      34.525  21.745  24.204  1.00  0.00     0.092 A 
ATOM     22  C   UNL A   1      33.034  19.388  24.324  1.00  0.00     0.008 A 
ATOM     23  C   UNL A   1      35.086  20.607  24.774  1.00  0.00     0.122 A 
ATOM     24  C   UNL A   1      34.337  19.428  24.830  1.00  0.00     0.046 A 
BRANCH  23  25
ATOM     25  O   UNL A   1      36.349  20.534  25.297  1.00  0.00    -0.497 OA
ATOM     26  C   UNL A   1      37.241  21.577  24.907  1.00  0.00     0.278 C 
ENDBRANCH  23  25
ENDBRANCH  18  19
ENDBRANCH  12  18
ENDBRANCH   5   8
ENDBRANCH   3   4
ENDBRANCH   2   3
ENDBRANCH   1   2
BRANCH   1  27
ATOM     27  C   UNL A   1      31.786  30.708  26.202  1.00  0.00     0.002 C 
BRANCH  27  28
ATOM     28  C   UNL A   1      31.480  32.086  26.796  1.00  0.00     0.021 C 
BRANCH  28  29
ATOM     29  C   UNL A   1      32.695  32.775  27.397  1.00  0.00     0.116 C 
BRANCH  29  30
ATOM     30  N   UNL A   1      32.446  34.189  27.623  1.00  0.00    -0.352 N 
ATOM     31  C   UNL A   1      33.002  35.013  28.570  1.00  0.00     0.251 C 
ATOM     32  H   UNL A   1      31.794  34.611  27.017  1.00  0.00     0.163 HD
ATOM     33  O   UNL A   1      32.542  36.118  28.797  1.00  0.00    -0.269 OA
BRANCH  31  34
ATOM     34  C   UNL A   1      34.173  34.517  29.318  1.00  0.00     0.039 A 
ATOM     35  C   UNL A   1      33.981  33.894  30.552  1.00  0.00     0.014 A 
ATOM     36  C   UNL A   1      35.451  34.642  28.766  1.00  0.00     0.014 A 
ATOM     37  C   UNL A   1      35.077  33.347  31.218  1.00  0.00     0.010 A 
ATOM     38  C   UNL A   1      36.526  34.032  29.393  1.00  0.00     0.010 A 
ATOM     39  C   UNL A   1      36.351  33.388  30.628  1.00  0.00    -0.014 A 
BRANCH  39  40
ATOM     40  C   UNL A   1      37.540  32.801  31.288  1.00  0.00     0.031 A 
ATOM     41  C   UNL A   1      38.254  31.659  30.622  1.00  0.00     0.074 A 
ATOM     42  C   UNL A   1      37.904  33.216  32.515  1.00  0.00     0.049 A 
ATOM     43  N   UNL A   1      39.190  30.877  31.094  1.00  0.00    -0.248 NA
ATOM     44  C   UNL A   1      37.830  31.332  29.251  1.00  0.00     0.031 C 
ATOM     45  C   UNL A   1      37.270  34.299  33.267  1.00  0.00     0.029 A 
ATOM     46  N   UNL A   1      38.884  32.754  33.358  1.00  0.00    -0.354 N 
ATOM     47  C   UNL A   1      39.445  29.952  30.091  1.00  0.00     0.074 A 
ATOM     48  C   UNL A   1      38.533  30.237  29.005  1.00  0.00     0.031 C 
ATOM     49  C   UNL A   1      37.879  34.423  34.457  1.00  0.00     0.029 A 
ATOM     50  C   UNL A   1      38.910  33.395  34.573  1.00  0.00     0.049 A 
ATOM     51  H   UNL A   1      39.508  32.033  33.116  1.00  0.00     0.167 HD
ATOM     52  C   UNL A   1      40.369  28.964  30.075  1.00  0.00     0.037 A 
ATOM     53  C   UNL A   1      39.665  33.162  35.663  1.00  0.00     0.037 A 
ATOM     54  C   UNL A   1      41.289  28.710  31.150  1.00  0.00     0.049 A 
ATOM     55  C   UNL A   1      40.673  32.042  35.627  1.00  0.00     0.074 A 
ATOM     56  C   UNL A   1      42.301  27.769  31.214  1.00  0.00     0.029 A 
ATOM     57  N   UNL A   1      41.307  29.403  32.352  1.00  0.00    -0.354 N 
ATOM     58  N   UNL A   1      40.941  31.202  34.658  1.00  0.00    -0.248 NA
ATOM     59  C   UNL A   1      41.483  31.839  36.837  1.00  0.00     0.031 C 
ATOM     60  C   UNL A   1      42.900  27.859  32.474  1.00  0.00     0.029 A 
ATOM     61  C   UNL A   1      42.300  28.897  33.172  1.00  0.00     0.049 A 
ATOM     62  H   UNL A   1      40.703  30.144  32.586  1.00  0.00     0.167 HD
ATOM     63  C   UNL A   1      41.975  30.400  35.121  1.00  0.00     0.074 A 
ATOM     64  C   UNL A   1      42.286  30.853  36.460  1.00  0.00     0.031 C 
ATOM     65  C   UNL A   1      42.614  29.384  34.491  1.00  0.00     0.037 A 
BRANCH  52  66
ATOM     66  C   UNL A   1      40.427  28.084  28.860  1.00  0.00     0.064 A 
ATOM     67  C   UNL A   1      39.718  26.875  28.791  1.00  0.00     0.173 A 
ATOM     68  C   UNL A   1      41.174  28.471  27.738  1.00  0.00     0.173 A 
ATOM     69  F   UNL A   1      38.998  26.453  29.842  1.00  0.00    -0.203 F 
ATOM     70  C   UNL A   1      39.781  26.072  27.656  1.00  0.00     0.198 A 
ATOM     71  C   UNL A   1      41.207  27.681  26.591  1.00  0.00     0.198 A 
ATOM     72  F   UNL A   1      41.868  29.619  27.749  1.00  0.00    -0.203 F 
ATOM     73  F   UNL A   1      39.138  24.895  27.634  1.00  0.00    -0.200 F 
ATOM     74  C   UNL A   1      40.518  26.478  26.554  1.00  0.00     0.200 A 
ATOM     75  F   UNL A   1      41.909  28.083  25.522  1.00  0.00    -0.200 F 
ATOM     76  F   UNL A   1      40.570  25.708  25.459  1.00  0.00    -0.200 F 
ENDBRANCH  52  66
BRANCH  53  77
ATOM     77  C   UNL A   1      39.506  34.008  36.874  1.00  0.00     0.064 A 
ATOM     78  C   UNL A   1      40.137  35.258  36.964  1.00  0.00     0.173 A 
ATOM     79  C   UNL A   1      38.728  33.592  37.963  1.00  0.00     0.173 A 
ATOM     80  F   UNL A   1      40.907  35.693  35.956  1.00  0.00    -0.203 F 
ATOM     81  C   UNL A   1      40.013  36.047  38.106  1.00  0.00     0.198 A 
ATOM     82  C   UNL A   1      38.580  34.395  39.093  1.00  0.00     0.198 A 
ATOM     83  F   UNL A   1      38.097  32.409  37.925  1.00  0.00    -0.203 F 
ATOM     84  F   UNL A   1      40.665  37.215  38.184  1.00  0.00    -0.200 F 
ATOM     85  C   UNL A   1      39.230  35.617  39.167  1.00  0.00     0.200 A 
ATOM     86  F   UNL A   1      37.810  33.983  40.109  1.00  0.00    -0.200 F 
ATOM     87  F   UNL A   1      39.108  36.378  40.264  1.00  0.00    -0.200 F 
ENDBRANCH  53  77
BRANCH  65  88
ATOM     88  C   UNL A   1      43.756  28.727  35.207  1.00  0.00     0.064 A 
ATOM     89  C   UNL A   1      45.077  29.174  35.061  1.00  0.00     0.173 A 
ATOM     90  C   UNL A   1      43.508  27.693  36.124  1.00  0.00     0.173 A 
ATOM     91  F   UNL A   1      45.367  30.149  34.186  1.00  0.00    -0.203 F 
ATOM     92  C   UNL A   1      46.109  28.602  35.800  1.00  0.00     0.198 A 
ATOM     93  C   UNL A   1      44.537  27.145  36.882  1.00  0.00     0.198 A 
ATOM     94  F   UNL A   1      42.259  27.236  36.303  1.00  0.00    -0.203 F 
ATOM     95  F   UNL A   1      47.369  29.023  35.624  1.00  0.00    -0.200 F 
ATOM     96  C   UNL A   1      45.837  27.598  36.718  1.00  0.00     0.200 A 
ATOM     97  F   UNL A   1      44.268  26.187  37.780  1.00  0.00    -0.200 F 
ATOM     98  F   UNL A   1      46.829  27.066  37.445  1.00  0.00    -0.200 F 
ENDBRANCH  65  88
ENDBRANCH  39  40
ENDBRANCH  31  34
ENDBRANCH  29  30
ENDBRANCH  28  29
ENDBRANCH  27  28
ENDBRANCH   1  27
TORSDOF 18
ENDMDL
MODEL 2
REMARK VINA RESULT:     -11.7      1.567      4.226
REMARK SMILES CC[NH2+][C@@]1(C(=O)NCCCCCCNC(=O)c2ccc(-c3c4nc(c(-c5c(F)c(F)c(F)c(F)c5F)c5ccc([nH]5)c(-c5c(F)c(F)c(F)c(F)c5F)c5nc(c(-c6c(F)c(F)c(F)c(F)c6F)c6ccc3[nH]6)C=C5)C=C4)cc2)CC[C@@H](Oc2cccc(OC)c2)C1
REMARK SMILES IDX 10 1 9 2 8 3 7 4 5 5 6 6 4 8 80 9 92 10 81 11 82 12 3 13
REMARK SMILES IDX 2 16 1 17 83 18 84 19 85 20 91 21 86 22 88 23 87 24 89 25
REMARK SMILES IDX 90 26 11 27 12 28 13 29 14 30 15 31 16 33 17 34 18 35 79 36
REMARK SMILES IDX 19 37 78 38 20 39 21 40 22 41 72 42 23 43 77 44 71 45 73 46
REMARK SMILES IDX 24 47 76 48 70 49 69 50 25 52 57 53 37 54 56 55 38 56 41 57
REMARK SMILES IDX 55 58 74 59 39 60 40 61 54 63 75 64 42 65 26 66 27 67 35 68
REMARK SMILES IDX 28 69 29 70 33 71 36 72 30 73 31 74 34 75 32 76 58 77 59 78
REMARK SMILES IDX 67 79 60 80 61 81 65 82 68 83 62 84 63 85 66 86 64 87 43 88
REMARK SMILES IDX 44 89 52 90 45 91 46 92 50 93 53 94 47 95 48 96 51 97 49 98
REMARK H PARENT 7 7 3 14 3 15 14 32 73 51 41 62
REMARK Flexibility Score: inf
ROOT
ATOM      1  C   UNL A   1      32.719  29.885  27.164  1.00  0.00     0.002 C 
ENDROOT
BRANCH   1   2
ATOM      2  C   UNL A   1      34.092  29.652  26.527  1.00  0.00     0.021 C 
BRANCH   2   3
ATOM      3  C   UNL A   1      34.414  28.175  26.348  1.00  0.00     0.116 C 
BRANCH   3   4
ATOM      4  N   UNL A   1      33.314  27.362  26.768  1.00  0.00    -0.351 N 
ATOM      5  C   UNL A   1      32.353  26.653  26.136  1.00  0.00     0.281 C 
ATOM      6  O   UNL A   1      31.590  26.139  26.963  1.00  0.00    -0.268 OA
ATOM      7  H   UNL A   1      33.240  27.305  27.748  1.00  0.00     0.163 HD
BRANCH   5   8
ATOM      8  C   UNL A   1      32.242  26.454  24.556  1.00  0.00     0.179 C 
ATOM      9  C   UNL A   1      33.389  27.211  23.842  1.00  0.00     0.083 C 
ATOM     10  C   UNL A   1      30.946  27.017  23.919  1.00  0.00     0.124 C 
ATOM     11  C   UNL A   1      32.810  28.406  23.085  1.00  0.00     0.052 C 
ATOM     12  C   UNL A   1      31.283  28.350  23.232  1.00  0.00     0.180 C 
BRANCH   8  13
ATOM     13  N   UNL A   1      32.306  25.008  24.114  1.00  0.00    -0.334 N 
ATOM     14  H   UNL A   1      32.771  24.993  23.206  1.00  0.00     0.347 HD
ATOM     15  H   UNL A   1      32.790  24.538  24.878  1.00  0.00     0.347 HD
BRANCH  13  16
ATOM     16  C   UNL A   1      31.060  24.258  23.971  1.00  0.00     0.257 C 
ATOM     17  C   UNL A   1      31.152  22.886  24.622  1.00  0.00     0.071 C 
ENDBRANCH  13  16
ENDBRANCH   8  13
BRANCH  12  18
ATOM     18  O   UNL A   1      30.465  28.674  22.095  1.00  0.00    -0.490 OA
BRANCH  18  19
ATOM     19  C   UNL A   1      29.418  29.507  22.353  1.00  0.00     0.123 A 
ATOM     20  C   UNL A   1      28.234  28.988  22.875  1.00  0.00     0.047 A 
ATOM     21  C   UNL A   1      29.545  30.861  22.075  1.00  0.00     0.092 A 
ATOM     22  C   UNL A   1      27.194  29.859  23.198  1.00  0.00     0.008 A 
ATOM     23  C   UNL A   1      28.518  31.737  22.409  1.00  0.00     0.122 A 
ATOM     24  C   UNL A   1      27.342  31.231  22.973  1.00  0.00     0.046 A 
BRANCH  23  25
ATOM     25  O   UNL A   1      28.557  33.094  22.233  1.00  0.00    -0.497 OA
ATOM     26  C   UNL A   1      29.149  33.838  23.297  1.00  0.00     0.278 C 
ENDBRANCH  23  25
ENDBRANCH  18  19
ENDBRANCH  12  18
ENDBRANCH   5   8
ENDBRANCH   3   4
ENDBRANCH   2   3
ENDBRANCH   1   2
BRANCH   1  27
ATOM     27  C   UNL A   1      31.727  30.639  26.269  1.00  0.00     0.002 C 
BRANCH  27  28
ATOM     28  C   UNL A   1      31.457  32.083  26.698  1.00  0.00     0.021 C 
BRANCH  28  29
ATOM     29  C   UNL A   1      32.635  32.744  27.395  1.00  0.00     0.116 C 
BRANCH  29  30
ATOM     30  N   UNL A   1      32.399  34.162  27.610  1.00  0.00    -0.352 N 
ATOM     31  C   UNL A   1      32.968  34.990  28.546  1.00  0.00     0.251 C 
ATOM     32  H   UNL A   1      31.744  34.583  27.007  1.00  0.00     0.163 HD
ATOM     33  O   UNL A   1      32.519  36.099  28.767  1.00  0.00    -0.269 OA
BRANCH  31  34
ATOM     34  C   UNL A   1      34.142  34.492  29.288  1.00  0.00     0.039 A 
ATOM     35  C   UNL A   1      33.958  33.893  30.535  1.00  0.00     0.014 A 
ATOM     36  C   UNL A   1      35.415  34.591  28.718  1.00  0.00     0.014 A 
ATOM     37  C   UNL A   1      35.055  33.343  31.197  1.00  0.00     0.010 A 
ATOM     38  C   UNL A   1      36.490  33.978  29.342  1.00  0.00     0.010 A 
ATOM     39  C   UNL A   1      36.322  33.358  30.591  1.00  0.00    -0.014 A 
BRANCH  39  40
ATOM     40  C   UNL A   1      37.512  32.767  31.246  1.00  0.00     0.031 A 
ATOM     41  C   UNL A   1      38.218  31.621  30.579  1.00  0.00     0.074 A 
ATOM     42  C   UNL A   1      37.884  33.183  32.471  1.00  0.00     0.049 A 
ATOM     43  N   UNL A   1      39.152  30.836  31.048  1.00  0.00    -0.248 NA
ATOM     44  C   UNL A   1      37.786  31.293  29.211  1.00  0.00     0.031 C 
ATOM     45  C   UNL A   1      37.257  34.270  33.224  1.00  0.00     0.029 A 
ATOM     46  N   UNL A   1      38.865  32.718  33.310  1.00  0.00    -0.354 N 
ATOM     47  C   UNL A   1      39.399  29.907  30.046  1.00  0.00     0.074 A 
ATOM     48  C   UNL A   1      38.484  30.195  28.964  1.00  0.00     0.031 C 
ATOM     49  C   UNL A   1      37.872  34.393  34.411  1.00  0.00     0.029 A 
ATOM     50  C   UNL A   1      38.899  33.362  34.524  1.00  0.00     0.049 A 
ATOM     51  H   UNL A   1      39.485  31.994  33.067  1.00  0.00     0.167 HD
ATOM     52  C   UNL A   1      40.319  28.916  30.028  1.00  0.00     0.037 A 
ATOM     53  C   UNL A   1      39.659  33.127  35.611  1.00  0.00     0.037 A 
ATOM     54  C   UNL A   1      41.243  28.660  31.099  1.00  0.00     0.049 A 
ATOM     55  C   UNL A   1      40.662  32.004  35.572  1.00  0.00     0.074 A 
ATOM     56  C   UNL A   1      42.252  27.715  31.160  1.00  0.00     0.029 A 
ATOM     57  N   UNL A   1      41.269  29.355  32.299  1.00  0.00    -0.354 N 
ATOM     58  N   UNL A   1      40.922  31.160  34.604  1.00  0.00    -0.248 NA
ATOM     59  C   UNL A   1      41.477  31.799  36.779  1.00  0.00     0.031 C 
ATOM     60  C   UNL A   1      42.856  27.805  32.417  1.00  0.00     0.029 A 
ATOM     61  C   UNL A   1      42.264  28.846  33.116  1.00  0.00     0.049 A 
ATOM     62  H   UNL A   1      40.669  30.099  32.535  1.00  0.00     0.167 HD
ATOM     63  C   UNL A   1      41.954  30.355  35.064  1.00  0.00     0.074 A 
ATOM     64  C   UNL A   1      42.274  30.809  36.401  1.00  0.00     0.031 C 
ATOM     65  C   UNL A   1      42.586  29.335  34.433  1.00  0.00     0.037 A 
BRANCH  52  66
ATOM     66  C   UNL A   1      40.368  28.033  28.814  1.00  0.00     0.064 A 
ATOM     67  C   UNL A   1      41.118  28.380  27.680  1.00  0.00     0.173 A 
ATOM     68  C   UNL A   1      39.683  26.809  28.799  1.00  0.00     0.173 A 
ATOM     69  F   UNL A   1      41.782  29.545  27.639  1.00  0.00    -0.203 F 
ATOM     70  C   UNL A   1      41.155  27.548  26.564  1.00  0.00     0.198 A 
ATOM     71  C   UNL A   1      39.750  25.964  27.693  1.00  0.00     0.198 A 
ATOM     72  F   UNL A   1      38.954  26.427  29.858  1.00  0.00    -0.203 F 
ATOM     73  F   UNL A   1      41.835  27.926  25.472  1.00  0.00    -0.200 F 
ATOM     74  C   UNL A   1      40.478  26.338  26.574  1.00  0.00     0.200 A 
ATOM     75  F   UNL A   1      39.106  24.789  27.711  1.00  0.00    -0.200 F 
ATOM     76  F   UNL A   1      40.522  25.535  25.502  1.00  0.00    -0.200 F 
ENDBRANCH  52  66
BRANCH  53  77
ATOM     77  C   UNL A   1      39.509  33.977  36.821  1.00  0.00     0.064 A 
ATOM     78  C   UNL A   1      38.730  33.550  37.906  1.00  0.00     0.173 A 
ATOM     79  C   UNL A   1      40.133  35.229  36.920  1.00  0.00     0.173 A 
ATOM     80  F   UNL A   1      38.099  32.368  37.852  1.00  0.00    -0.203 F 
ATOM     81  C   UNL A   1      38.564  34.351  39.034  1.00  0.00     0.198 A 
ATOM     82  C   UNL A   1      39.991  36.017  38.061  1.00  0.00     0.198 A 
ATOM     83  F   UNL A   1      40.895  35.682  35.914  1.00  0.00    -0.203 F 
ATOM     84  F   UNL A   1      37.777  33.938  40.036  1.00  0.00    -0.200 F 
ATOM     85  C   UNL A   1      39.199  35.582  39.113  1.00  0.00     0.200 A 
ATOM     86  F   UNL A   1      40.619  37.197  38.139  1.00  0.00    -0.200 F 
ATOM     87  F   UNL A   1      39.043  36.351  40.199  1.00  0.00    -0.200 F 
ENDBRANCH  53  77
BRANCH  65  88
ATOM     88  C   UNL A   1      43.729  28.675  35.144  1.00  0.00     0.064 A 
ATOM     89  C   UNL A   1      45.043  29.152  35.038  1.00  0.00     0.173 A 
ATOM     90  C   UNL A   1      43.486  27.603  36.018  1.00  0.00     0.173 A 
ATOM     91  F   UNL A   1      45.328  30.164  34.205  1.00  0.00    -0.203 F 
ATOM     92  C   UNL A   1      46.073  28.574  35.774  1.00  0.00     0.198 A 
ATOM     93  C   UNL A   1      44.512  27.047  36.774  1.00  0.00     0.198 A 
ATOM     94  F   UNL A   1      42.244  27.116  36.159  1.00  0.00    -0.203 F 
ATOM     95  F   UNL A   1      47.328  29.025  35.636  1.00  0.00    -0.200 F 
ATOM     96  C   UNL A   1      45.806  27.532  36.650  1.00  0.00     0.200 A 
ATOM     97  F   UNL A   1      44.248  26.052  37.632  1.00  0.00    -0.200 F 
ATOM     98  F   UNL A   1      46.796  26.993  37.375  1.00  0.00    -0.200 F 
ENDBRANCH  65  88
ENDBRANCH  39  40
ENDBRANCH  31  34
ENDBRANCH  29  30
ENDBRANCH  28  29
ENDBRANCH  27  28
ENDBRANCH   1  27
TORSDOF 18
ENDMDL
MODEL 3
REMARK VINA RESULT:     -11.7      1.019      2.148
REMARK SMILES CC[NH2+][C@@]1(C(=O)NCCCCCCNC(=O)c2ccc(-c3c4nc(c(-c5c(F)c(F)c(F)c(F)c5F)c5ccc([nH]5)c(-c5c(F)c(F)c(F)c(F)c5F)c5nc(c(-c6c(F)c(F)c(F)c(F)c6F)c6ccc3[nH]6)C=C5)C=C4)cc2)CC[C@@H](Oc2cccc(OC)c2)C1
REMARK SMILES IDX 10 1 9 2 8 3 7 4 5 5 6 6 4 8 80 9 92 10 81 11 82 12 3 13
REMARK SMILES IDX 2 16 1 17 83 18 84 19 85 20 91 21 86 22 88 23 87 24 89 25
REMARK SMILES IDX 90 26 11 27 12 28 13 29 14 30 15 31 16 33 17 34 18 35 79 36
REMARK SMILES IDX 19 37 78 38 20 39 21 40 22 41 72 42 23 43 77 44 71 45 73 46
REMARK SMILES IDX 24 47 76 48 70 49 69 50 25 52 57 53 37 54 56 55 38 56 41 57
REMARK SMILES IDX 55 58 74 59 39 60 40 61 54 63 75 64 42 65 26 66 27 67 35 68
REMARK SMILES IDX 28 69 29 70 33 71 36 72 30 73 31 74 34 75 32 76 58 77 59 78
REMARK SMILES IDX 67 79 60 80 61 81 65 82 68 83 62 84 63 85 66 86 64 87 43 88
REMARK SMILES IDX 44 89 52 90 45 91 46 92 50 93 53 94 47 95 48 96 51 97 49 98
REMARK H PARENT 7 7 3 14 3 15 14 32 73 51 41 62
REMARK Flexibility Score: inf
ROOT
ATOM      1  C   UNL A   1      32.424  30.290  26.967  1.00  0.00     0.002 C 
ENDROOT
BRANCH   1   2
ATOM      2  C   UNL A   1      32.647  28.862  26.461  1.00  0.00     0.021 C 
BRANCH   2   3
ATOM      3  C   UNL A   1      31.949  27.818  27.322  1.00  0.00     0.116 C 
BRANCH   3   4
ATOM      4  N   UNL A   1      30.861  27.219  26.612  1.00  0.00    -0.351 N 
ATOM      5  C   UNL A   1      30.668  26.045  25.970  1.00  0.00     0.281 C 
ATOM      6  O   UNL A   1      29.538  26.014  25.470  1.00  0.00    -0.268 OA
ATOM      7  H   UNL A   1      30.065  27.798  26.583  1.00  0.00     0.163 HD
BRANCH   5   8
ATOM      8  C   UNL A   1      31.719  24.844  25.910  1.00  0.00     0.179 C 
ATOM      9  C   UNL A   1      33.145  25.395  25.665  1.00  0.00     0.083 C 
ATOM     10  C   UNL A   1      31.486  23.833  24.758  1.00  0.00     0.124 C 
ATOM     11  C   UNL A   1      33.599  25.011  24.257  1.00  0.00     0.052 C 
ATOM     12  C   UNL A   1      32.504  24.127  23.644  1.00  0.00     0.180 C 
BRANCH   8  13
ATOM     13  N   UNL A   1      31.764  24.006  27.169  1.00  0.00    -0.334 N 
ATOM     14  H   UNL A   1      32.386  24.483  27.824  1.00  0.00     0.347 HD
ATOM     15  H   UNL A   1      30.788  23.927  27.449  1.00  0.00     0.347 HD
BRANCH  13  16
ATOM     16  C   UNL A   1      32.218  22.619  27.078  1.00  0.00     0.257 C 
ATOM     17  C   UNL A   1      33.561  22.422  27.766  1.00  0.00     0.071 C 
ENDBRANCH  13  16
ENDBRANCH   8  13
BRANCH  12  18
ATOM     18  O   UNL A   1      32.893  22.989  22.857  1.00  0.00    -0.490 OA
BRANCH  18  19
ATOM     19  C   UNL A   1      33.354  21.923  23.568  1.00  0.00     0.123 A 
ATOM     20  C   UNL A   1      34.658  21.932  24.063  1.00  0.00     0.047 A 
ATOM     21  C   UNL A   1      32.518  20.833  23.774  1.00  0.00     0.092 A 
ATOM     22  C   UNL A   1      35.095  20.865  24.846  1.00  0.00     0.008 A 
ATOM     23  C   UNL A   1      32.944  19.773  24.567  1.00  0.00     0.122 A 
ATOM     24  C   UNL A   1      34.235  19.793  25.104  1.00  0.00     0.046 A 
BRANCH  23  25
ATOM     25  O   UNL A   1      32.186  18.678  24.884  1.00  0.00    -0.497 OA
ATOM     26  C   UNL A   1      32.502  17.481  24.175  1.00  0.00     0.278 C 
ENDBRANCH  23  25
ENDBRANCH  18  19
ENDBRANCH  12  18
ENDBRANCH   5   8
ENDBRANCH   3   4
ENDBRANCH   2   3
ENDBRANCH   1   2
BRANCH   1  27
ATOM     27  C   UNL A   1      31.379  31.085  26.174  1.00  0.00     0.002 C 
BRANCH  27  28
ATOM     28  C   UNL A   1      31.357  32.585  26.481  1.00  0.00     0.021 C 
BRANCH  28  29
ATOM     29  C   UNL A   1      32.590  33.076  27.222  1.00  0.00     0.116 C 
BRANCH  29  30
ATOM     30  N   UNL A   1      32.403  34.423  27.733  1.00  0.00    -0.352 N 
ATOM     31  C   UNL A   1      33.043  35.035  28.782  1.00  0.00     0.251 C 
ATOM     32  H   UNL A   1      31.727  34.967  27.267  1.00  0.00     0.163 HD
ATOM     33  O   UNL A   1      32.635  36.083  29.249  1.00  0.00    -0.269 OA
BRANCH  31  34
ATOM     34  C   UNL A   1      34.243  34.380  29.338  1.00  0.00     0.039 A 
ATOM     35  C   UNL A   1      35.488  34.636  28.763  1.00  0.00     0.014 A 
ATOM     36  C   UNL A   1      34.123  33.546  30.453  1.00  0.00     0.014 A 
ATOM     37  C   UNL A   1      36.633  34.089  29.341  1.00  0.00     0.010 A 
ATOM     38  C   UNL A   1      35.267  33.064  31.070  1.00  0.00     0.010 A 
ATOM     39  C   UNL A   1      36.531  33.323  30.514  1.00  0.00    -0.014 A 
BRANCH  39  40
ATOM     40  C   UNL A   1      37.721  32.740  31.176  1.00  0.00     0.031 A 
ATOM     41  C   UNL A   1      38.443  31.604  30.509  1.00  0.00     0.074 A 
ATOM     42  C   UNL A   1      38.079  33.154  32.406  1.00  0.00     0.049 A 
ATOM     43  N   UNL A   1      39.381  30.826  30.982  1.00  0.00    -0.248 NA
ATOM     44  C   UNL A   1      38.025  31.278  29.136  1.00  0.00     0.031 C 
ATOM     45  C   UNL A   1      37.437  34.231  33.159  1.00  0.00     0.029 A 
ATOM     46  N   UNL A   1      39.058  32.694  33.250  1.00  0.00    -0.354 N 
ATOM     47  C   UNL A   1      39.644  29.904  29.977  1.00  0.00     0.074 A 
ATOM     48  C   UNL A   1      38.735  30.188  28.889  1.00  0.00     0.031 C 
ATOM     49  C   UNL A   1      38.041  34.354  34.351  1.00  0.00     0.029 A 
ATOM     50  C   UNL A   1      39.077  33.332  34.467  1.00  0.00     0.049 A 
ATOM     51  H   UNL A   1      39.687  31.977  33.008  1.00  0.00     0.167 HD
ATOM     52  C   UNL A   1      40.574  28.922  29.961  1.00  0.00     0.037 A 
ATOM     53  C   UNL A   1      39.831  33.099  35.559  1.00  0.00     0.037 A 
ATOM     54  C   UNL A   1      41.492  28.669  31.038  1.00  0.00     0.049 A 
ATOM     55  C   UNL A   1      40.844  31.986  35.522  1.00  0.00     0.074 A 
ATOM     56  C   UNL A   1      42.509  27.733  31.102  1.00  0.00     0.029 A 
ATOM     57  N   UNL A   1      41.502  29.359  32.242  1.00  0.00    -0.354 N 
ATOM     58  N   UNL A   1      41.120  31.149  34.552  1.00  0.00    -0.248 NA
ATOM     59  C   UNL A   1      41.652  31.783  36.734  1.00  0.00     0.031 C 
ATOM     60  C   UNL A   1      43.103  27.823  32.365  1.00  0.00     0.029 A 
ATOM     61  C   UNL A   1      42.496  28.856  33.063  1.00  0.00     0.049 A 
ATOM     62  H   UNL A   1      40.893  30.096  32.476  1.00  0.00     0.167 HD
ATOM     63  C   UNL A   1      42.157  30.352  35.016  1.00  0.00     0.074 A 
ATOM     64  C   UNL A   1      42.462  30.802  36.357  1.00  0.00     0.031 C 
ATOM     65  C   UNL A   1      42.803  29.341  34.385  1.00  0.00     0.037 A 
BRANCH  52  66
ATOM     66  C   UNL A   1      40.640  28.045  28.744  1.00  0.00     0.064 A 
ATOM     67  C   UNL A   1      39.918  26.845  28.659  1.00  0.00     0.173 A 
ATOM     68  C   UNL A   1      41.409  28.427  27.634  1.00  0.00     0.173 A 
ATOM     69  F   UNL A   1      39.176  26.428  29.697  1.00  0.00    -0.203 F 
ATOM     70  C   UNL A   1      39.988  26.045  27.522  1.00  0.00     0.198 A 
ATOM     71  C   UNL A   1      41.450  27.641  26.485  1.00  0.00     0.198 A 
ATOM     72  F   UNL A   1      42.116  29.567  27.660  1.00  0.00    -0.203 F 
ATOM     73  F   UNL A   1      39.332  24.877  27.485  1.00  0.00    -0.200 F 
ATOM     74  C   UNL A   1      40.747  26.447  26.433  1.00  0.00     0.200 A 
ATOM     75  F   UNL A   1      42.174  28.039  25.429  1.00  0.00    -0.200 F 
ATOM     76  F   UNL A   1      40.807  25.681  25.336  1.00  0.00    -0.200 F 
ENDBRANCH  52  66
BRANCH  53  77
ATOM     77  C   UNL A   1      39.664  33.942  36.771  1.00  0.00     0.064 A 
ATOM     78  C   UNL A   1      38.846  33.521  37.830  1.00  0.00     0.173 A 
ATOM     79  C   UNL A   1      40.309  35.180  36.900  1.00  0.00     0.173 A 
ATOM     80  F   UNL A   1      38.193  32.353  37.748  1.00  0.00    -0.203 F 
ATOM     81  C   UNL A   1      38.664  34.316  38.960  1.00  0.00     0.198 A 
ATOM     82  C   UNL A   1      40.151  35.961  38.043  1.00  0.00     0.198 A 
ATOM     83  F   UNL A   1      41.108  35.626  35.919  1.00  0.00    -0.203 F 
ATOM     84  F   UNL A   1      37.841  33.910  39.937  1.00  0.00    -0.200 F 
ATOM     85  C   UNL A   1      39.321  35.533  39.068  1.00  0.00     0.200 A 
ATOM     86  F   UNL A   1      40.800  37.128  38.150  1.00  0.00    -0.200 F 
ATOM     87  F   UNL A   1      39.149  36.296  40.156  1.00  0.00    -0.200 F 
ENDBRANCH  53  77
BRANCH  65  88
ATOM     88  C   UNL A   1      43.947  28.688  35.102  1.00  0.00     0.064 A 
ATOM     89  C   UNL A   1      45.249  29.202  35.041  1.00  0.00     0.173 A 
ATOM     90  C   UNL A   1      43.712  27.583  35.937  1.00  0.00     0.173 A 
ATOM     91  F   UNL A   1      45.527  30.247  34.247  1.00  0.00    -0.203 F 
ATOM     92  C   UNL A   1      46.278  28.628  35.783  1.00  0.00     0.198 A 
ATOM     93  C   UNL A   1      44.736  27.031  36.699  1.00  0.00     0.198 A 
ATOM     94  F   UNL A   1      42.481  27.060  36.034  1.00  0.00    -0.203 F 
ATOM     95  F   UNL A   1      47.523  29.115  35.688  1.00  0.00    -0.200 F 
ATOM     96  C   UNL A   1      46.019  27.552  36.620  1.00  0.00     0.200 A 
ATOM     97  F   UNL A   1      44.479  26.003  37.519  1.00  0.00    -0.200 F 
ATOM     98  F   UNL A   1      47.006  27.016  37.351  1.00  0.00    -0.200 F 
ENDBRANCH  65  88
ENDBRANCH  39  40
ENDBRANCH  31  34
ENDBRANCH  29  30
ENDBRANCH  28  29
ENDBRANCH  27  28
ENDBRANCH   1  27
TORSDOF 18
ENDMDL
