MODEL 1
REMARK VINA RESULT:     -12.5      0.000      0.000
REMARK SMILES COc1ccc2c(c1)[C@H]([NH2+][C@H]1CCC[C@H](C(=O)NCCCCCCNC(=O)c3ccc(-c4c5nc(c(-c6c(F)c(F)c(F)c(F)c6F)c6ccc([nH]6)c(-c6c(F)c(F)c(F)c(F)c6F)c6nc(c(-c7c(F)c(F)c(F)c(F)c7F)c7ccc4[nH]7)C=C6)C=C5)cc3)C1)CC2
REMARK SMILES IDX 21 1 20 2 19 3 18 4 16 5 17 6 15 8 11 9 12 10 91 11 13 12
REMARK SMILES IDX 14 13 10 14 9 17 3 18 4 19 8 20 5 21 7 22 6 23 93 24 92 25
REMARK SMILES IDX 2 26 1 27 22 28 23 29 24 30 25 31 26 32 27 34 28 35 29 36
REMARK SMILES IDX 90 37 30 38 89 39 31 40 32 41 33 42 83 43 34 44 88 45 82 46
REMARK SMILES IDX 84 47 35 48 87 49 81 50 80 51 36 53 68 54 48 55 67 56 49 57
REMARK SMILES IDX 52 58 66 59 85 60 50 61 51 62 65 64 86 65 53 66 37 67 38 68
REMARK SMILES IDX 46 69 39 70 40 71 44 72 47 73 41 74 42 75 45 76 43 77 69 78
REMARK SMILES IDX 70 79 78 80 71 81 72 82 76 83 79 84 73 85 74 86 77 87 75 88
REMARK SMILES IDX 54 89 55 90 63 91 56 92 57 93 61 94 64 95 58 96 59 97 62 98
REMARK SMILES IDX 60 99
REMARK H PARENT 18 7 10 15 10 16 25 33 84 52 52 63
REMARK Flexibility Score: inf
ROOT
ATOM      1  C   UNL A   1      31.908  29.660  26.998  1.00  0.00     0.002 C 
ENDROOT
BRANCH   1   2
ATOM      2  C   UNL A   1      33.389  29.358  27.243  1.00  0.00     0.021 C 
BRANCH   2   3
ATOM      3  C   UNL A   1      33.968  28.296  26.312  1.00  0.00     0.116 C 
BRANCH   3   4
ATOM      4  N   UNL A   1      34.253  28.846  25.000  1.00  0.00    -0.356 N 
ATOM      5  C   UNL A   1      33.988  28.367  23.756  1.00  0.00     0.223 C 
ATOM      6  O   UNL A   1      34.408  29.010  22.792  1.00  0.00    -0.275 OA
ATOM      7  H   UNL A   1      34.717  29.714  25.014  1.00  0.00     0.163 HD
BRANCH   5   8
ATOM      8  C   UNL A   1      33.186  27.088  23.549  1.00  0.00     0.084 C 
ATOM      9  C   UNL A   1      32.766  25.175  21.880  1.00  0.00     0.183 C 
ATOM     10  C   UNL A   1      31.309  25.645  21.814  1.00  0.00     0.065 C 
ATOM     11  C   UNL A   1      33.657  26.359  22.277  1.00  0.00     0.078 C 
ATOM     12  C   UNL A   1      30.811  26.187  23.149  1.00  0.00     0.007 C 
ATOM     13  C   UNL A   1      31.673  27.336  23.662  1.00  0.00     0.014 C 
BRANCH   9  14
ATOM     14  N   UNL A   1      33.025  24.094  22.822  1.00  0.00    -0.338 N 
ATOM     15  H   UNL A   1      32.169  23.929  23.350  1.00  0.00     0.347 HD
ATOM     16  H   UNL A   1      33.328  23.303  22.253  1.00  0.00     0.347 HD
BRANCH  14  17
ATOM     17  C   UNL A   1      34.099  24.316  23.775  1.00  0.00     0.214 C 
ATOM     18  C   UNL A   1      32.438  23.196  27.051  1.00  0.00     0.119 A 
ATOM     19  C   UNL A   1      33.552  22.563  27.625  1.00  0.00     0.047 A 
ATOM     20  C   UNL A   1      32.535  23.777  25.786  1.00  0.00     0.056 A 
ATOM     21  C   UNL A   1      34.781  22.532  26.954  1.00  0.00     0.008 A 
ATOM     22  C   UNL A   1      33.752  23.734  25.122  1.00  0.00     0.016 A 
ATOM     23  C   UNL A   1      34.865  23.120  25.704  1.00  0.00    -0.038 A 
ATOM     24  C   UNL A   1      36.059  23.229  24.812  1.00  0.00     0.042 C 
ATOM     25  C   UNL A   1      35.385  23.519  23.464  1.00  0.00     0.075 C 
BRANCH  18  26
ATOM     26  O   UNL A   1      31.196  23.246  27.626  1.00  0.00    -0.497 OA
ATOM     27  C   UNL A   1      30.121  22.961  26.740  1.00  0.00     0.278 C 
ENDBRANCH  18  26
ENDBRANCH  14  17
ENDBRANCH   9  14
ENDBRANCH   5   8
ENDBRANCH   3   4
ENDBRANCH   2   3
ENDBRANCH   1   2
BRANCH   1  28
ATOM     28  C   UNL A   1      31.636  30.803  26.013  1.00  0.00     0.002 C 
BRANCH  28  29
ATOM     29  C   UNL A   1      31.396  32.171  26.658  1.00  0.00     0.021 C 
BRANCH  29  30
ATOM     30  C   UNL A   1      32.641  32.821  27.249  1.00  0.00     0.116 C 
BRANCH  30  31
ATOM     31  N   UNL A   1      32.410  34.205  27.627  1.00  0.00    -0.352 N 
ATOM     32  C   UNL A   1      32.991  34.937  28.629  1.00  0.00     0.251 C 
ATOM     33  H   UNL A   1      31.742  34.685  27.086  1.00  0.00     0.163 HD
ATOM     34  O   UNL A   1      32.541  36.044  28.930  1.00  0.00    -0.269 OA
BRANCH  32  35
ATOM     35  C   UNL A   1      34.148  34.391  29.365  1.00  0.00     0.039 A 
ATOM     36  C   UNL A   1      33.927  33.736  30.580  1.00  0.00     0.014 A 
ATOM     37  C   UNL A   1      35.446  34.529  28.865  1.00  0.00     0.014 A 
ATOM     38  C   UNL A   1      35.003  33.172  31.266  1.00  0.00     0.010 A 
ATOM     39  C   UNL A   1      36.507  33.906  29.514  1.00  0.00     0.010 A 
ATOM     40  C   UNL A   1      36.298  33.225  30.724  1.00  0.00    -0.014 A 
BRANCH  40  41
ATOM     41  C   UNL A   1      37.443  32.579  31.410  1.00  0.00     0.031 A 
ATOM     42  C   UNL A   1      38.161  31.429  30.760  1.00  0.00     0.074 A 
ATOM     43  C   UNL A   1      37.797  32.986  32.644  1.00  0.00     0.049 A 
ATOM     44  N   UNL A   1      39.141  30.696  31.224  1.00  0.00    -0.248 NA
ATOM     45  C   UNL A   1      37.699  31.034  29.420  1.00  0.00     0.031 C 
ATOM     46  C   UNL A   1      37.148  34.061  33.397  1.00  0.00     0.029 A 
ATOM     47  N   UNL A   1      38.782  32.537  33.488  1.00  0.00    -0.354 N 
ATOM     48  C   UNL A   1      39.398  29.745  30.244  1.00  0.00     0.074 A 
ATOM     49  C   UNL A   1      38.441  29.962  29.182  1.00  0.00     0.031 C 
ATOM     50  C   UNL A   1      37.769  34.206  34.578  1.00  0.00     0.029 A 
ATOM     51  C   UNL A   1      38.831  33.210  34.683  1.00  0.00     0.049 A 
ATOM     52  H   UNL A   1      39.395  31.803  33.256  1.00  0.00     0.167 HD
ATOM     53  C   UNL A   1      40.361  28.792  30.224  1.00  0.00     0.037 A 
ATOM     54  C   UNL A   1      39.639  33.038  35.746  1.00  0.00     0.037 A 
ATOM     55  C   UNL A   1      41.331  28.600  31.269  1.00  0.00     0.049 A 
ATOM     56  C   UNL A   1      40.695  31.967  35.700  1.00  0.00     0.074 A 
ATOM     57  C   UNL A   1      42.390  27.711  31.311  1.00  0.00     0.029 A 
ATOM     58  N   UNL A   1      41.356  29.308  32.462  1.00  0.00    -0.354 N 
ATOM     59  N   UNL A   1      40.978  31.123  34.738  1.00  0.00    -0.248 NA
ATOM     60  C   UNL A   1      41.548  31.828  36.888  1.00  0.00     0.031 C 
ATOM     61  C   UNL A   1      43.026  27.845  32.550  1.00  0.00     0.029 A 
ATOM     62  C   UNL A   1      42.396  28.856  33.259  1.00  0.00     0.049 A 
ATOM     63  H   UNL A   1      40.729  30.026  32.707  1.00  0.00     0.167 HD
ATOM     64  C   UNL A   1      42.058  30.377  35.188  1.00  0.00     0.074 A 
ATOM     65  C   UNL A   1      42.388  30.876  36.507  1.00  0.00     0.031 C 
ATOM     66  C   UNL A   1      42.718  29.369  34.566  1.00  0.00     0.037 A 
BRANCH  53  67
ATOM     67  C   UNL A   1      40.412  27.881  29.031  1.00  0.00     0.064 A 
ATOM     68  C   UNL A   1      39.660  26.696  28.974  1.00  0.00     0.173 A 
ATOM     69  C   UNL A   1      41.196  28.213  27.916  1.00  0.00     0.173 A 
ATOM     70  F   UNL A   1      38.903  26.326  30.017  1.00  0.00    -0.203 F 
ATOM     71  C   UNL A   1      39.717  25.865  27.858  1.00  0.00     0.198 A 
ATOM     72  C   UNL A   1      41.225  27.396  26.789  1.00  0.00     0.198 A 
ATOM     73  F   UNL A   1      41.929  29.337  27.915  1.00  0.00    -0.203 F 
ATOM     74  F   UNL A   1      39.030  24.714  27.847  1.00  0.00    -0.200 F 
ATOM     75  C   UNL A   1      40.492  26.219  26.764  1.00  0.00     0.200 A 
ATOM     76  F   UNL A   1      41.964  27.746  25.727  1.00  0.00    -0.200 F 
ATOM     77  F   UNL A   1      40.539  25.421  25.688  1.00  0.00    -0.200 F 
ENDBRANCH  53  67
BRANCH  54  78
ATOM     78  C   UNL A   1      39.502  33.920  36.935  1.00  0.00     0.064 A 
ATOM     79  C   UNL A   1      38.745  33.519  38.044  1.00  0.00     0.173 A 
ATOM     80  C   UNL A   1      40.114  35.182  36.985  1.00  0.00     0.173 A 
ATOM     81  F   UNL A   1      38.123  32.330  38.033  1.00  0.00    -0.203 F 
ATOM     82  C   UNL A   1      38.587  34.351  39.149  1.00  0.00     0.198 A 
ATOM     83  C   UNL A   1      39.980  36.002  38.103  1.00  0.00     0.198 A 
ATOM     84  F   UNL A   1      40.854  35.612  35.952  1.00  0.00    -0.203 F 
ATOM     85  F   UNL A   1      37.818  33.961  40.175  1.00  0.00    -0.200 F 
ATOM     86  C   UNL A   1      39.209  35.590  39.181  1.00  0.00     0.200 A 
ATOM     87  F   UNL A   1      40.594  37.193  38.136  1.00  0.00    -0.200 F 
ATOM     88  F   UNL A   1      39.060  36.390  40.245  1.00  0.00    -0.200 F 
ENDBRANCH  54  78
BRANCH  66  89
ATOM     89  C   UNL A   1      43.889  28.766  35.286  1.00  0.00     0.064 A 
ATOM     90  C   UNL A   1      45.192  29.255  35.116  1.00  0.00     0.173 A 
ATOM     91  C   UNL A   1      43.697  27.709  36.190  1.00  0.00     0.173 A 
ATOM     92  F   UNL A   1      45.430  30.255  34.252  1.00  0.00    -0.203 F 
ATOM     93  C   UNL A   1      46.263  28.692  35.804  1.00  0.00     0.198 A 
ATOM     94  C   UNL A   1      44.765  27.170  36.899  1.00  0.00     0.198 A 
ATOM     95  F   UNL A   1      42.469  27.209  36.394  1.00  0.00    -0.203 F 
ATOM     96  F   UNL A   1      47.507  29.144  35.588  1.00  0.00    -0.200 F 
ATOM     97  C   UNL A   1      46.049  27.656  36.700  1.00  0.00     0.200 A 
ATOM     98  F   UNL A   1      44.553  26.178  37.775  1.00  0.00    -0.200 F 
ATOM     99  F   UNL A   1      47.080  27.120  37.367  1.00  0.00    -0.200 F 
ENDBRANCH  66  89
ENDBRANCH  40  41
ENDBRANCH  32  35
ENDBRANCH  30  31
ENDBRANCH  29  30
ENDBRANCH  28  29
ENDBRANCH   1  28
TORSDOF 16
ENDMDL
MODEL 2
REMARK VINA RESULT:     -12.5      0.617      7.260
REMARK SMILES COc1ccc2c(c1)[C@H]([NH2+][C@H]1CCC[C@H](C(=O)NCCCCCCNC(=O)c3ccc(-c4c5nc(c(-c6c(F)c(F)c(F)c(F)c6F)c6ccc([nH]6)c(-c6c(F)c(F)c(F)c(F)c6F)c6nc(c(-c7c(F)c(F)c(F)c(F)c7F)c7ccc4[nH]7)C=C6)C=C5)cc3)C1)CC2
REMARK SMILES IDX 21 1 20 2 19 3 18 4 16 5 17 6 15 8 11 9 12 10 91 11 13 12
REMARK SMILES IDX 14 13 10 14 9 17 3 18 4 19 8 20 5 21 7 22 6 23 93 24 92 25
REMARK SMILES IDX 2 26 1 27 22 28 23 29 24 30 25 31 26 32 27 34 28 35 29 36
REMARK SMILES IDX 90 37 30 38 89 39 31 40 32 41 33 42 83 43 34 44 88 45 82 46
REMARK SMILES IDX 84 47 35 48 87 49 81 50 80 51 36 53 68 54 48 55 67 56 49 57
REMARK SMILES IDX 52 58 66 59 85 60 50 61 51 62 65 64 86 65 53 66 37 67 38 68
REMARK SMILES IDX 46 69 39 70 40 71 44 72 47 73 41 74 42 75 45 76 43 77 69 78
REMARK SMILES IDX 70 79 78 80 71 81 72 82 76 83 79 84 73 85 74 86 77 87 75 88
REMARK SMILES IDX 54 89 55 90 63 91 56 92 57 93 61 94 64 95 58 96 59 97 62 98
REMARK SMILES IDX 60 99
REMARK H PARENT 18 7 10 15 10 16 25 33 84 52 52 63
REMARK Flexibility Score: inf
ROOT
ATOM      1  C   UNL A   1      32.516  30.249  27.202  1.00  0.00     0.002 C 
ENDROOT
BRANCH   1   2
ATOM      2  C   UNL A   1      32.441  28.721  27.151  1.00  0.00     0.021 C 
BRANCH   2   3
ATOM      3  C   UNL A   1      33.683  28.057  26.562  1.00  0.00     0.116 C 
BRANCH   3   4
ATOM      4  N   UNL A   1      34.095  28.711  25.334  1.00  0.00    -0.356 N 
ATOM      5  C   UNL A   1      33.946  28.341  24.034  1.00  0.00     0.223 C 
ATOM      6  O   UNL A   1      34.460  29.056  23.172  1.00  0.00    -0.275 OA
ATOM      7  H   UNL A   1      34.562  29.568  25.465  1.00  0.00     0.163 HD
BRANCH   5   8
ATOM      8  C   UNL A   1      33.159  27.097  23.645  1.00  0.00     0.084 C 
ATOM      9  C   UNL A   1      32.940  25.292  21.824  1.00  0.00     0.183 C 
ATOM     10  C   UNL A   1      31.513  25.800  21.590  1.00  0.00     0.065 C 
ATOM     11  C   UNL A   1      33.787  26.429  22.407  1.00  0.00     0.078 C 
ATOM     12  C   UNL A   1      30.847  26.278  22.875  1.00  0.00     0.007 C 
ATOM     13  C   UNL A   1      31.649  27.374  23.568  1.00  0.00     0.014 C 
BRANCH   9  14
ATOM     14  N   UNL A   1      33.050  24.153  22.726  1.00  0.00    -0.338 N 
ATOM     15  H   UNL A   1      32.205  24.123  23.295  1.00  0.00     0.347 HD
ATOM     16  H   UNL A   1      33.181  23.340  22.124  1.00  0.00     0.347 HD
BRANCH  14  17
ATOM     17  C   UNL A   1      34.191  24.155  23.626  1.00  0.00     0.214 C 
ATOM     18  C   UNL A   1      32.521  23.228  26.957  1.00  0.00     0.119 A 
ATOM     19  C   UNL A   1      33.535  22.394  27.455  1.00  0.00     0.047 A 
ATOM     20  C   UNL A   1      32.656  23.826  25.703  1.00  0.00     0.056 A 
ATOM     21  C   UNL A   1      34.706  22.174  26.719  1.00  0.00     0.008 A 
ATOM     22  C   UNL A   1      33.814  23.596  24.974  1.00  0.00     0.016 A 
ATOM     23  C   UNL A   1      34.830  22.780  25.481  1.00  0.00    -0.038 A 
ATOM     24  C   UNL A   1      35.980  22.712  24.529  1.00  0.00     0.042 C 
ATOM     25  C   UNL A   1      35.303  23.160  23.226  1.00  0.00     0.075 C 
BRANCH  18  26
ATOM     26  O   UNL A   1      31.336  23.472  27.599  1.00  0.00    -0.497 OA
ATOM     27  C   UNL A   1      30.178  23.066  26.879  1.00  0.00     0.278 C 
ENDBRANCH  18  26
ENDBRANCH  14  17
ENDBRANCH   9  14
ENDBRANCH   5   8
ENDBRANCH   3   4
ENDBRANCH   2   3
ENDBRANCH   1   2
BRANCH   1  28
ATOM     28  C   UNL A   1      31.413  30.976  26.424  1.00  0.00     0.002 C 
BRANCH  28  29
ATOM     29  C   UNL A   1      31.371  32.493  26.624  1.00  0.00     0.021 C 
BRANCH  29  30
ATOM     30  C   UNL A   1      32.659  33.097  27.170  1.00  0.00     0.116 C 
BRANCH  30  31
ATOM     31  N   UNL A   1      32.455  34.431  27.709  1.00  0.00    -0.352 N 
ATOM     32  C   UNL A   1      33.058  35.033  28.782  1.00  0.00     0.251 C 
ATOM     33  H   UNL A   1      31.789  34.980  27.235  1.00  0.00     0.163 HD
ATOM     34  O   UNL A   1      32.629  36.104  29.214  1.00  0.00    -0.269 OA
BRANCH  32  35
ATOM     35  C   UNL A   1      34.213  34.388  29.436  1.00  0.00     0.039 A 
ATOM     36  C   UNL A   1      33.986  33.541  30.524  1.00  0.00     0.014 A 
ATOM     37  C   UNL A   1      35.515  34.623  28.985  1.00  0.00     0.014 A 
ATOM     38  C   UNL A   1      35.062  32.885  31.125  1.00  0.00     0.010 A 
ATOM     39  C   UNL A   1      36.577  33.914  29.539  1.00  0.00     0.010 A 
ATOM     40  C   UNL A   1      36.362  33.042  30.618  1.00  0.00    -0.014 A 
BRANCH  40  41
ATOM     41  C   UNL A   1      37.509  32.307  31.205  1.00  0.00     0.031 A 
ATOM     42  C   UNL A   1      38.019  32.670  32.573  1.00  0.00     0.074 A 
ATOM     43  C   UNL A   1      38.130  31.355  30.483  1.00  0.00     0.049 A 
ATOM     44  N   UNL A   1      39.043  32.188  33.230  1.00  0.00    -0.248 NA
ATOM     45  C   UNL A   1      37.295  33.734  33.286  1.00  0.00     0.031 C 
ATOM     46  C   UNL A   1      37.757  30.945  29.129  1.00  0.00     0.029 A 
ATOM     47  N   UNL A   1      39.214  30.567  30.782  1.00  0.00    -0.354 N 
ATOM     48  C   UNL A   1      39.098  32.901  34.420  1.00  0.00     0.074 A 
ATOM     49  C   UNL A   1      38.034  33.882  34.375  1.00  0.00     0.031 C 
ATOM     50  C   UNL A   1      38.579  29.964  28.725  1.00  0.00     0.029 A 
ATOM     51  C   UNL A   1      39.561  29.704  29.773  1.00  0.00     0.049 A 
ATOM     52  H   UNL A   1      39.694  30.616  31.640  1.00  0.00     0.167 HD
ATOM     53  C   UNL A   1      39.944  32.738  35.465  1.00  0.00     0.037 A 
ATOM     54  C   UNL A   1      40.564  28.808  29.701  1.00  0.00     0.037 A 
ATOM     55  C   UNL A   1      40.980  31.740  35.517  1.00  0.00     0.049 A 
ATOM     56  C   UNL A   1      41.495  28.652  30.873  1.00  0.00     0.074 A 
ATOM     57  C   UNL A   1      41.843  31.446  36.558  1.00  0.00     0.029 A 
ATOM     58  N   UNL A   1      41.297  30.876  34.479  1.00  0.00    -0.354 N 
ATOM     59  N   UNL A   1      41.490  29.280  32.023  1.00  0.00    -0.248 NA
ATOM     60  C   UNL A   1      42.568  27.657  30.737  1.00  0.00     0.031 C 
ATOM     61  C   UNL A   1      42.716  30.439  36.132  1.00  0.00     0.029 A 
ATOM     62  C   UNL A   1      42.362  30.067  34.845  1.00  0.00     0.049 A 
ATOM     63  H   UNL A   1      40.835  30.842  33.611  1.00  0.00     0.167 HD
ATOM     64  C   UNL A   1      42.535  28.736  32.760  1.00  0.00     0.074 A 
ATOM     65  C   UNL A   1      43.144  27.718  31.929  1.00  0.00     0.031 C 
ATOM     66  C   UNL A   1      42.951  29.052  34.011  1.00  0.00     0.037 A 
BRANCH  53  67
ATOM     67  C   UNL A   1      39.786  33.660  36.639  1.00  0.00     0.064 A 
ATOM     68  C   UNL A   1      40.482  34.877  36.722  1.00  0.00     0.173 A 
ATOM     69  C   UNL A   1      38.901  33.341  37.679  1.00  0.00     0.173 A 
ATOM     70  F   UNL A   1      41.349  35.226  35.760  1.00  0.00    -0.203 F 
ATOM     71  C   UNL A   1      40.320  35.722  37.817  1.00  0.00     0.198 A 
ATOM     72  C   UNL A   1      38.717  34.204  38.757  1.00  0.00     0.198 A 
ATOM     73  F   UNL A   1      38.205  32.194  37.649  1.00  0.00    -0.203 F 
ATOM     74  F   UNL A   1      41.033  36.854  37.898  1.00  0.00    -0.200 F 
ATOM     75  C   UNL A   1      39.433  35.389  38.829  1.00  0.00     0.200 A 
ATOM     76  F   UNL A   1      37.849  33.887  39.727  1.00  0.00    -0.200 F 
ATOM     77  F   UNL A   1      39.272  36.208  39.878  1.00  0.00    -0.200 F 
ENDBRANCH  53  67
BRANCH  54  78
ATOM     78  C   UNL A   1      40.723  27.967  28.486  1.00  0.00     0.064 A 
ATOM     79  C   UNL A   1      41.498  28.407  27.404  1.00  0.00     0.173 A 
ATOM     80  C   UNL A   1      40.100  26.715  28.375  1.00  0.00     0.173 A 
ATOM     81  F   UNL A   1      42.096  29.607  27.456  1.00  0.00    -0.203 F 
ATOM     82  C   UNL A   1      41.629  27.638  26.251  1.00  0.00     0.198 A 
ATOM     83  C   UNL A   1      40.255  25.933  27.233  1.00  0.00     0.198 A 
ATOM     84  F   UNL A   1      39.352  26.245  29.384  1.00  0.00    -0.203 F 
ATOM     85  F   UNL A   1      42.337  28.105  25.213  1.00  0.00    -0.200 F 
ATOM     86  C   UNL A   1      41.012  26.399  26.167  1.00  0.00     0.200 A 
ATOM     87  F   UNL A   1      39.668  24.730  27.161  1.00  0.00    -0.200 F 
ATOM     88  F   UNL A   1      41.139  25.658  25.058  1.00  0.00    -0.200 F 
ENDBRANCH  54  78
BRANCH  66  89
ATOM     89  C   UNL A   1      44.096  28.261  34.574  1.00  0.00     0.064 A 
ATOM     90  C   UNL A   1      45.424  28.698  34.457  1.00  0.00     0.173 A 
ATOM     91  C   UNL A   1      43.856  27.070  35.277  1.00  0.00     0.173 A 
ATOM     92  F   UNL A   1      45.706  29.823  33.782  1.00  0.00    -0.203 F 
ATOM     93  C   UNL A   1      46.471  27.958  34.999  1.00  0.00     0.198 A 
ATOM     94  C   UNL A   1      44.903  26.349  35.845  1.00  0.00     0.198 A 
ATOM     95  F   UNL A   1      42.604  26.612  35.424  1.00  0.00    -0.203 F 
ATOM     96  F   UNL A   1      47.735  28.369  34.831  1.00  0.00    -0.200 F 
ATOM     97  C   UNL A   1      46.210  26.789  35.698  1.00  0.00     0.200 A 
ATOM     98  F   UNL A   1      44.646  25.228  36.532  1.00  0.00    -0.200 F 
ATOM     99  F   UNL A   1      47.218  26.082  36.226  1.00  0.00    -0.200 F 
ENDBRANCH  66  89
ENDBRANCH  40  41
ENDBRANCH  32  35
ENDBRANCH  30  31
ENDBRANCH  29  30
ENDBRANCH  28  29
ENDBRANCH   1  28
TORSDOF 16
ENDMDL
MODEL 3
REMARK VINA RESULT:     -12.4      1.707      7.605
REMARK SMILES COc1ccc2c(c1)[C@H]([NH2+][C@H]1CCC[C@H](C(=O)NCCCCCCNC(=O)c3ccc(-c4c5nc(c(-c6c(F)c(F)c(F)c(F)c6F)c6ccc([nH]6)c(-c6c(F)c(F)c(F)c(F)c6F)c6nc(c(-c7c(F)c(F)c(F)c(F)c7F)c7ccc4[nH]7)C=C6)C=C5)cc3)C1)CC2
REMARK SMILES IDX 21 1 20 2 19 3 18 4 16 5 17 6 15 8 11 9 12 10 91 11 13 12
REMARK SMILES IDX 14 13 10 14 9 17 3 18 4 19 8 20 5 21 7 22 6 23 93 24 92 25
REMARK SMILES IDX 2 26 1 27 22 28 23 29 24 30 25 31 26 32 27 34 28 35 29 36
REMARK SMILES IDX 90 37 30 38 89 39 31 40 32 41 33 42 83 43 34 44 88 45 82 46
REMARK SMILES IDX 84 47 35 48 87 49 81 50 80 51 36 53 68 54 48 55 67 56 49 57
REMARK SMILES IDX 52 58 66 59 85 60 50 61 51 62 65 64 86 65 53 66 37 67 38 68
REMARK SMILES IDX 46 69 39 70 40 71 44 72 47 73 41 74 42 75 45 76 43 77 69 78
REMARK SMILES IDX 70 79 78 80 71 81 72 82 76 83 79 84 73 85 74 86 77 87 75 88
REMARK SMILES IDX 54 89 55 90 63 91 56 92 57 93 61 94 64 95 58 96 59 97 62 98
REMARK SMILES IDX 60 99
REMARK H PARENT 18 7 10 15 10 16 25 33 84 52 52 63
REMARK Flexibility Score: inf
ROOT
ATOM      1  C   UNL A   1      35.071  33.266  29.006  1.00  0.00     0.002 C 
ENDROOT
BRANCH   1   2
ATOM      2  C   UNL A   1      35.672  32.245  28.037  1.00  0.00     0.021 C 
BRANCH   2   3
ATOM      3  C   UNL A   1      34.772  31.043  27.764  1.00  0.00     0.116 C 
BRANCH   3   4
ATOM      4  N   UNL A   1      33.410  31.459  27.488  1.00  0.00    -0.356 N 
ATOM      5  C   UNL A   1      32.392  30.819  26.853  1.00  0.00     0.223 C 
ATOM      6  O   UNL A   1      31.339  31.437  26.689  1.00  0.00    -0.275 OA
ATOM      7  H   UNL A   1      33.184  32.360  27.817  1.00  0.00     0.163 HD
BRANCH   5   8
ATOM      8  C   UNL A   1      32.535  29.381  26.371  1.00  0.00     0.084 C 
ATOM      9  C   UNL A   1      32.057  27.827  24.377  1.00  0.00     0.183 C 
ATOM     10  C   UNL A   1      31.151  27.019  25.312  1.00  0.00     0.065 C 
ATOM     11  C   UNL A   1      32.143  29.271  24.886  1.00  0.00     0.078 C 
ATOM     12  C   UNL A   1      31.673  26.988  26.744  1.00  0.00     0.007 C 
ATOM     13  C   UNL A   1      31.852  28.386  27.324  1.00  0.00     0.014 C 
BRANCH   9  14
ATOM     14  N   UNL A   1      33.418  27.324  24.248  1.00  0.00    -0.338 N 
ATOM     15  H   UNL A   1      34.047  28.126  24.242  1.00  0.00     0.347 HD
ATOM     16  H   UNL A   1      33.550  26.690  25.036  1.00  0.00     0.347 HD
BRANCH  14  17
ATOM     17  C   UNL A   1      33.700  26.531  23.063  1.00  0.00     0.214 C 
ATOM     18  C   UNL A   1      34.295  23.065  24.604  1.00  0.00     0.119 A 
ATOM     19  C   UNL A   1      33.661  22.301  23.610  1.00  0.00     0.047 A 
ATOM     20  C   UNL A   1      34.332  24.456  24.503  1.00  0.00     0.056 A 
ATOM     21  C   UNL A   1      33.086  22.918  22.492  1.00  0.00     0.008 A 
ATOM     22  C   UNL A   1      33.752  25.062  23.398  1.00  0.00     0.016 A 
ATOM     23  C   UNL A   1      33.138  24.298  22.401  1.00  0.00    -0.038 A 
ATOM     24  C   UNL A   1      32.618  25.173  21.307  1.00  0.00     0.042 C 
ATOM     25  C   UNL A   1      32.554  26.527  22.027  1.00  0.00     0.075 C 
BRANCH  18  26
ATOM     26  O   UNL A   1      34.855  22.543  25.740  1.00  0.00    -0.497 OA
ATOM     27  C   UNL A   1      34.245  22.971  26.951  1.00  0.00     0.278 C 
ENDBRANCH  18  26
ENDBRANCH  14  17
ENDBRANCH   9  14
ENDBRANCH   5   8
ENDBRANCH   3   4
ENDBRANCH   2   3
ENDBRANCH   1   2
BRANCH   1  28
ATOM     28  C   UNL A   1      34.730  34.624  28.384  1.00  0.00     0.002 C 
BRANCH  28  29
ATOM     29  C   UNL A   1      33.386  35.216  28.814  1.00  0.00     0.021 C 
BRANCH  29  30
ATOM     30  C   UNL A   1      33.489  36.379  29.794  1.00  0.00     0.116 C 
BRANCH  30  31
ATOM     31  N   UNL A   1      32.476  36.313  30.833  1.00  0.00    -0.352 N 
ATOM     32  C   UNL A   1      32.483  35.602  32.005  1.00  0.00     0.251 C 
ATOM     33  H   UNL A   1      31.671  36.856  30.673  1.00  0.00     0.163 HD
ATOM     34  O   UNL A   1      31.458  35.515  32.683  1.00  0.00    -0.269 OA
BRANCH  32  35
ATOM     35  C   UNL A   1      33.716  34.922  32.448  1.00  0.00     0.039 A 
ATOM     36  C   UNL A   1      33.632  33.605  32.907  1.00  0.00     0.014 A 
ATOM     37  C   UNL A   1      34.948  35.580  32.417  1.00  0.00     0.014 A 
ATOM     38  C   UNL A   1      34.793  32.930  33.285  1.00  0.00     0.010 A 
ATOM     39  C   UNL A   1      36.112  34.884  32.727  1.00  0.00     0.010 A 
ATOM     40  C   UNL A   1      36.046  33.553  33.168  1.00  0.00    -0.014 A 
BRANCH  40  41
ATOM     41  C   UNL A   1      37.297  32.831  33.508  1.00  0.00     0.031 A 
ATOM     42  C   UNL A   1      38.025  33.141  34.787  1.00  0.00     0.074 A 
ATOM     43  C   UNL A   1      37.810  31.942  32.636  1.00  0.00     0.049 A 
ATOM     44  N   UNL A   1      39.160  32.664  35.230  1.00  0.00    -0.248 NA
ATOM     45  C   UNL A   1      37.406  34.138  35.674  1.00  0.00     0.031 C 
ATOM     46  C   UNL A   1      37.221  31.590  31.343  1.00  0.00     0.029 A 
ATOM     47  N   UNL A   1      38.951  31.181  32.699  1.00  0.00    -0.354 N 
ATOM     48  C   UNL A   1      39.400  33.315  36.432  1.00  0.00     0.074 A 
ATOM     49  C   UNL A   1      38.318  34.256  36.627  1.00  0.00     0.031 C 
ATOM     50  C   UNL A   1      37.987  30.663  30.749  1.00  0.00     0.029 A 
ATOM     51  C   UNL A   1      39.142  30.385  31.597  1.00  0.00     0.049 A 
ATOM     52  H   UNL A   1      39.570  31.202  33.464  1.00  0.00     0.167 HD
ATOM     53  C   UNL A   1      40.418  33.128  37.306  1.00  0.00     0.037 A 
ATOM     54  C   UNL A   1      40.142  29.532  31.303  1.00  0.00     0.037 A 
ATOM     55  C   UNL A   1      41.475  32.168  37.122  1.00  0.00     0.049 A 
ATOM     56  C   UNL A   1      41.265  29.349  32.287  1.00  0.00     0.074 A 
ATOM     57  C   UNL A   1      42.513  31.852  37.982  1.00  0.00     0.029 A 
ATOM     58  N   UNL A   1      41.632  31.372  35.997  1.00  0.00    -0.354 N 
ATOM     59  N   UNL A   1      41.442  29.915  33.456  1.00  0.00    -0.248 NA
ATOM     60  C   UNL A   1      42.326  28.404  31.913  1.00  0.00     0.031 C 
ATOM     61  C   UNL A   1      43.326  30.902  37.356  1.00  0.00     0.029 A 
ATOM     62  C   UNL A   1      42.765  30.585  36.128  1.00  0.00     0.049 A 
ATOM     63  H   UNL A   1      41.028  31.366  35.220  1.00  0.00     0.167 HD
ATOM     64  C   UNL A   1      42.612  29.373  33.970  1.00  0.00     0.074 A 
ATOM     65  C   UNL A   1      43.097  28.423  32.990  1.00  0.00     0.031 C 
ATOM     66  C   UNL A   1      43.230  29.638  35.148  1.00  0.00     0.037 A 
BRANCH  53  67
ATOM     67  C   UNL A   1      40.440  33.981  38.542  1.00  0.00     0.064 A 
ATOM     68  C   UNL A   1      39.773  33.597  39.716  1.00  0.00     0.173 A 
ATOM     69  C   UNL A   1      41.168  35.180  38.565  1.00  0.00     0.173 A 
ATOM     70  F   UNL A   1      39.054  32.465  39.745  1.00  0.00    -0.203 F 
ATOM     71  C   UNL A   1      39.808  34.398  40.855  1.00  0.00     0.198 A 
ATOM     72  C   UNL A   1      41.226  35.962  39.715  1.00  0.00     0.198 A 
ATOM     73  F   UNL A   1      41.829  35.592  37.473  1.00  0.00    -0.203 F 
ATOM     74  F   UNL A   1      39.121  34.037  41.947  1.00  0.00    -0.200 F 
ATOM     75  C   UNL A   1      40.540  35.575  40.856  1.00  0.00     0.200 A 
ATOM     76  F   UNL A   1      41.947  37.093  39.720  1.00  0.00    -0.200 F 
ATOM     77  F   UNL A   1      40.579  36.341  41.956  1.00  0.00    -0.200 F 
ENDBRANCH  53  67
BRANCH  54  78
ATOM     78  C   UNL A   1      40.112  28.762  30.032  1.00  0.00     0.064 A 
ATOM     79  C   UNL A   1      39.507  27.499  29.971  1.00  0.00     0.173 A 
ATOM     80  C   UNL A   1      40.692  29.264  28.857  1.00  0.00     0.173 A 
ATOM     81  F   UNL A   1      38.958  26.968  31.074  1.00  0.00    -0.203 F 
ATOM     82  C   UNL A   1      39.501  26.758  28.792  1.00  0.00     0.198 A 
ATOM     83  C   UNL A   1      40.659  28.535  27.671  1.00  0.00     0.198 A 
ATOM     84  F   UNL A   1      41.279  30.470  28.860  1.00  0.00    -0.203 F 
ATOM     85  F   UNL A   1      38.957  25.533  28.775  1.00  0.00    -0.200 F 
ATOM     86  C   UNL A   1      40.071  27.279  27.641  1.00  0.00     0.200 A 
ATOM     87  F   UNL A   1      41.200  29.048  26.557  1.00  0.00    -0.200 F 
ATOM     88  F   UNL A   1      40.063  26.568  26.505  1.00  0.00    -0.200 F 
ENDBRANCH  54  78
BRANCH  66  89
ATOM     89  C   UNL A   1      44.476  28.861  35.461  1.00  0.00     0.064 A 
ATOM     90  C   UNL A   1      44.433  27.649  36.166  1.00  0.00     0.173 A 
ATOM     91  C   UNL A   1      45.726  29.316  35.013  1.00  0.00     0.173 A 
ATOM     92  F   UNL A   1      43.264  27.179  36.628  1.00  0.00    -0.203 F 
ATOM     93  C   UNL A   1      45.598  26.936  36.434  1.00  0.00     0.198 A 
ATOM     94  C   UNL A   1      46.884  28.584  35.256  1.00  0.00     0.198 A 
ATOM     95  F   UNL A   1      45.821  30.466  34.328  1.00  0.00    -0.203 F 
ATOM     96  F   UNL A   1      45.538  25.806  37.152  1.00  0.00    -0.200 F 
ATOM     97  C   UNL A   1      46.820  27.399  35.973  1.00  0.00     0.200 A 
ATOM     98  F   UNL A   1      48.063  29.027  34.797  1.00  0.00    -0.200 F 
ATOM     99  F   UNL A   1      47.940  26.707  36.225  1.00  0.00    -0.200 F 
ENDBRANCH  66  89
ENDBRANCH  40  41
ENDBRANCH  32  35
ENDBRANCH  30  31
ENDBRANCH  29  30
ENDBRANCH  28  29
ENDBRANCH   1  28
TORSDOF 16
ENDMDL
