MODEL 1
REMARK VINA RESULT:     -12.9      0.000      0.000
REMARK SMILES COc1ccc2c(c1)c(CC(=O)NCCCCCCNC(=O)c1ccc(-c3c4nc(c(-c5c(F)c(F)c(F)c(F)c5F)c5ccc([nH]5)c(-c5c(F)c(F)c(F)c(F)c5F)c5nc(c(-c6c(F)c(F)c(F)c(F)c6F)c6ccc3[nH]6)C=C5)C=C4)cc1)c(C)n2Cc1ccn(C(F)F)c(=O)c1
REMARK SMILES IDX 15 1 14 2 13 3 11 4 12 5 10 7 9 8 3 9 4 10 8 11 5 12 7 13
REMARK SMILES IDX 6 14 88 15 86 16 87 17 2 18 1 19 89 20 90 21 91 22 99 23
REMARK SMILES IDX 92 24 97 25 93 26 98 27 94 28 95 29 96 30 16 31 17 32 18 33
REMARK SMILES IDX 19 34 20 35 21 36 22 38 23 39 24 40 85 41 25 42 84 43 26 44
REMARK SMILES IDX 27 45 28 46 78 47 29 48 83 49 77 50 79 51 30 52 82 53 76 54
REMARK SMILES IDX 75 55 31 57 63 58 43 59 62 60 44 61 47 62 61 63 80 64 45 65
REMARK SMILES IDX 46 66 60 68 81 69 48 70 32 71 33 72 41 73 34 74 35 75 39 76
REMARK SMILES IDX 42 77 36 78 37 79 40 80 38 81 64 82 65 83 73 84 66 85 67 86
REMARK SMILES IDX 71 87 74 88 68 89 69 90 72 91 70 92 49 93 50 94 58 95 51 96
REMARK SMILES IDX 52 97 56 98 59 99 53 100 54 101 57 102 55 103
REMARK H PARENT 13 6 20 37 79 56 47 67
REMARK Flexibility Score: inf
ROOT
ATOM      1  C   UNL A   1      40.100  22.660  26.517  1.00  0.00     0.021 C 
ENDROOT
BRANCH   1   2
ATOM      2  C   UNL A   1      38.579  22.589  26.370  1.00  0.00     0.116 C 
BRANCH   2   3
ATOM      3  N   UNL A   1      38.170  22.664  24.981  1.00  0.00    -0.356 N 
ATOM      4  C   UNL A   1      37.072  23.259  24.428  1.00  0.00     0.224 C 
ATOM      5  O   UNL A   1      36.907  23.154  23.209  1.00  0.00    -0.275 OA
ATOM      6  H   UNL A   1      38.773  22.220  24.342  1.00  0.00     0.163 HD
BRANCH   4   7
ATOM      7  C   UNL A   1      36.133  24.103  25.278  1.00  0.00     0.138 C 
BRANCH   7   8
ATOM      8  C   UNL A   1      34.688  23.742  25.114  1.00  0.00    -0.010 A 
ATOM      9  C   UNL A   1      32.659  26.057  22.863  1.00  0.00     0.119 A 
ATOM     10  C   UNL A   1      31.471  25.338  22.940  1.00  0.00     0.048 A 
ATOM     11  C   UNL A   1      33.799  25.587  23.516  1.00  0.00     0.057 A 
ATOM     12  C   UNL A   1      31.394  24.142  23.675  1.00  0.00     0.031 A 
ATOM     13  C   UNL A   1      33.736  24.417  24.299  1.00  0.00     0.007 A 
ATOM     14  C   UNL A   1      32.540  23.696  24.361  1.00  0.00     0.049 A 
ATOM     15  N   UNL A   1      32.782  22.578  25.155  1.00  0.00    -0.340 N 
ATOM     16  C   UNL A   1      34.006  22.734  25.784  1.00  0.00     0.020 A 
ATOM     17  C   UNL A   1      34.504  21.922  26.930  1.00  0.00     0.065 C 
BRANCH   9  18
ATOM     18  O   UNL A   1      32.834  27.191  22.117  1.00  0.00    -0.497 OA
ATOM     19  C   UNL A   1      33.944  27.994  22.502  1.00  0.00     0.278 C 
ENDBRANCH   9  18
BRANCH  15  20
ATOM     20  C   UNL A   1      31.834  21.474  25.366  1.00  0.00     0.158 C 
BRANCH  20  21
ATOM     21  C   UNL A   1      32.299  20.117  24.856  1.00  0.00    -0.021 A 
ATOM     22  C   UNL A   1      32.755  19.116  25.802  1.00  0.00     0.024 A 
ATOM     23  C   UNL A   1      32.198  19.755  23.564  1.00  0.00     0.077 A 
ATOM     24  C   UNL A   1      33.142  17.899  25.400  1.00  0.00     0.095 A 
ATOM     25  C   UNL A   1      32.568  18.378  23.097  1.00  0.00     0.255 A 
ATOM     26  N   UNL A   1      33.079  17.532  24.073  1.00  0.00    -0.258 N 
ATOM     27  O   UNL A   1      32.398  18.092  21.925  1.00  0.00    -0.269 OA
BRANCH  26  28
ATOM     28  C   UNL A   1      33.383  16.173  23.694  1.00  0.00     0.451 C 
ATOM     29  F   UNL A   1      34.483  16.128  22.907  1.00  0.00    -0.185 F 
ATOM     30  F   UNL A   1      33.606  15.379  24.768  1.00  0.00    -0.185 F 
ENDBRANCH  26  28
ENDBRANCH  20  21
ENDBRANCH  15  20
ENDBRANCH   7   8
ENDBRANCH   4   7
ENDBRANCH   2   3
ENDBRANCH   1   2
BRANCH   1  31
ATOM     31  C   UNL A   1      40.666  21.691  27.562  1.00  0.00     0.002 C 
BRANCH  31  32
ATOM     32  C   UNL A   1      40.834  20.245  27.081  1.00  0.00     0.002 C 
BRANCH  32  33
ATOM     33  C   UNL A   1      42.284  19.784  26.885  1.00  0.00     0.021 C 
BRANCH  33  34
ATOM     34  C   UNL A   1      42.606  19.325  25.463  1.00  0.00     0.116 C 
BRANCH  34  35
ATOM     35  N   UNL A   1      43.867  19.826  24.965  1.00  0.00    -0.352 N 
ATOM     36  C   UNL A   1      44.568  20.989  25.105  1.00  0.00     0.251 C 
ATOM     37  H   UNL A   1      44.331  19.175  24.390  1.00  0.00     0.163 HD
ATOM     38  O   UNL A   1      45.718  20.983  24.654  1.00  0.00    -0.269 OA
BRANCH  36  39
ATOM     39  C   UNL A   1      44.035  22.262  25.666  1.00  0.00     0.039 A 
ATOM     40  C   UNL A   1      43.293  23.223  24.978  1.00  0.00     0.014 A 
ATOM     41  C   UNL A   1      44.401  22.530  27.000  1.00  0.00     0.014 A 
ATOM     42  C   UNL A   1      43.035  24.459  25.564  1.00  0.00     0.010 A 
ATOM     43  C   UNL A   1      44.134  23.755  27.595  1.00  0.00     0.010 A 
ATOM     44  C   UNL A   1      43.505  24.743  26.852  1.00  0.00    -0.014 A 
BRANCH  44  45
ATOM     45  C   UNL A   1      43.220  26.058  27.422  1.00  0.00     0.031 A 
ATOM     46  C   UNL A   1      44.200  27.106  27.028  1.00  0.00     0.074 A 
ATOM     47  C   UNL A   1      42.129  26.333  28.171  1.00  0.00     0.049 A 
ATOM     48  N   UNL A   1      45.020  27.746  27.795  1.00  0.00    -0.248 NA
ATOM     49  C   UNL A   1      44.389  27.383  25.596  1.00  0.00     0.031 C 
ATOM     50  C   UNL A   1      40.964  25.472  28.405  1.00  0.00     0.029 A 
ATOM     51  N   UNL A   1      41.787  27.484  28.827  1.00  0.00    -0.354 N 
ATOM     52  C   UNL A   1      45.694  28.647  26.972  1.00  0.00     0.074 A 
ATOM     53  C   UNL A   1      45.375  28.283  25.619  1.00  0.00     0.031 C 
ATOM     54  C   UNL A   1      39.961  26.202  28.947  1.00  0.00     0.029 A 
ATOM     55  C   UNL A   1      40.460  27.532  29.247  1.00  0.00     0.049 A 
ATOM     56  H   UNL A   1      42.425  28.217  28.988  1.00  0.00     0.167 HD
ATOM     57  C   UNL A   1      46.252  29.775  27.493  1.00  0.00     0.037 A 
ATOM     58  C   UNL A   1      39.819  28.599  29.788  1.00  0.00     0.037 A 
ATOM     59  C   UNL A   1      46.371  29.675  28.922  1.00  0.00     0.049 A 
ATOM     60  C   UNL A   1      40.852  29.495  30.351  1.00  0.00     0.074 A 
ATOM     61  C   UNL A   1      47.231  29.091  29.824  1.00  0.00     0.029 A 
ATOM     62  N   UNL A   1      45.214  29.969  29.588  1.00  0.00    -0.354 N 
ATOM     63  N   UNL A   1      41.577  29.195  31.389  1.00  0.00    -0.248 NA
ATOM     64  C   UNL A   1      41.309  30.638  29.568  1.00  0.00     0.031 C 
ATOM     65  C   UNL A   1      46.480  28.899  31.023  1.00  0.00     0.029 A 
ATOM     66  C   UNL A   1      45.199  29.408  30.834  1.00  0.00     0.049 A 
ATOM     67  H   UNL A   1      44.483  30.515  29.216  1.00  0.00     0.167 HD
ATOM     68  C   UNL A   1      42.781  29.819  31.146  1.00  0.00     0.074 A 
ATOM     69  C   UNL A   1      42.502  30.829  30.134  1.00  0.00     0.031 C 
ATOM     70  C   UNL A   1      43.949  29.237  31.533  1.00  0.00     0.037 A 
BRANCH  57  71
ATOM     71  C   UNL A   1      46.230  31.133  26.819  1.00  0.00     0.064 A 
ATOM     72  C   UNL A   1      47.405  31.916  26.804  1.00  0.00     0.173 A 
ATOM     73  C   UNL A   1      45.043  31.822  26.492  1.00  0.00     0.173 A 
ATOM     74  F   UNL A   1      48.590  31.377  27.131  1.00  0.00    -0.203 F 
ATOM     75  C   UNL A   1      47.378  33.290  26.538  1.00  0.00     0.198 A 
ATOM     76  C   UNL A   1      45.026  33.182  26.181  1.00  0.00     0.198 A 
ATOM     77  F   UNL A   1      43.840  31.243  26.577  1.00  0.00    -0.203 F 
ATOM     78  F   UNL A   1      48.502  34.013  26.647  1.00  0.00    -0.200 F 
ATOM     79  C   UNL A   1      46.189  33.922  26.230  1.00  0.00     0.200 A 
ATOM     80  F   UNL A   1      43.857  33.782  25.915  1.00  0.00    -0.200 F 
ATOM     81  F   UNL A   1      46.150  35.246  26.029  1.00  0.00    -0.200 F 
ENDBRANCH  57  71
BRANCH  58  82
ATOM     82  C   UNL A   1      38.413  29.054  29.664  1.00  0.00     0.064 A 
ATOM     83  C   UNL A   1      37.637  29.299  30.814  1.00  0.00     0.173 A 
ATOM     84  C   UNL A   1      37.933  29.595  28.460  1.00  0.00     0.173 A 
ATOM     85  F   UNL A   1      38.034  28.834  32.009  1.00  0.00    -0.203 F 
ATOM     86  C   UNL A   1      36.497  30.107  30.775  1.00  0.00     0.198 A 
ATOM     87  C   UNL A   1      36.790  30.398  28.421  1.00  0.00     0.198 A 
ATOM     88  F   UNL A   1      38.624  29.448  27.321  1.00  0.00    -0.203 F 
ATOM     89  F   UNL A   1      35.844  30.397  31.908  1.00  0.00    -0.200 F 
ATOM     90  C   UNL A   1      36.088  30.675  29.581  1.00  0.00     0.200 A 
ATOM     91  F   UNL A   1      36.418  30.969  27.267  1.00  0.00    -0.200 F 
ATOM     92  F   UNL A   1      35.052  31.524  29.557  1.00  0.00    -0.200 F 
ENDBRANCH  58  82
BRANCH  70  93
ATOM     93  C   UNL A   1      43.884  28.236  32.640  1.00  0.00     0.064 A 
ATOM     94  C   UNL A   1      43.825  26.845  32.454  1.00  0.00     0.173 A 
ATOM     95  C   UNL A   1      43.964  28.716  33.953  1.00  0.00     0.173 A 
ATOM     96  F   UNL A   1      43.817  26.314  31.225  1.00  0.00    -0.203 F 
ATOM     97  C   UNL A   1      43.820  25.978  33.544  1.00  0.00     0.198 A 
ATOM     98  C   UNL A   1      43.995  27.847  35.037  1.00  0.00     0.198 A 
ATOM     99  F   UNL A   1      44.057  30.035  34.181  1.00  0.00    -0.203 F 
ATOM    100  F   UNL A   1      43.757  24.652  33.350  1.00  0.00    -0.200 F 
ATOM    101  C   UNL A   1      43.915  26.480  34.834  1.00  0.00     0.200 A 
ATOM    102  F   UNL A   1      44.129  28.336  36.277  1.00  0.00    -0.200 F 
ATOM    103  F   UNL A   1      43.955  25.643  35.880  1.00  0.00    -0.200 F 
ENDBRANCH  70  93
ENDBRANCH  44  45
ENDBRANCH  36  39
ENDBRANCH  34  35
ENDBRANCH  33  34
ENDBRANCH  32  33
ENDBRANCH  31  32
ENDBRANCH   1  31
TORSDOF 18
ENDMDL
MODEL 2
REMARK VINA RESULT:     -12.3      2.313      3.854
REMARK SMILES COc1ccc2c(c1)c(CC(=O)NCCCCCCNC(=O)c1ccc(-c3c4nc(c(-c5c(F)c(F)c(F)c(F)c5F)c5ccc([nH]5)c(-c5c(F)c(F)c(F)c(F)c5F)c5nc(c(-c6c(F)c(F)c(F)c(F)c6F)c6ccc3[nH]6)C=C5)C=C4)cc1)c(C)n2Cc1ccn(C(F)F)c(=O)c1
REMARK SMILES IDX 15 1 14 2 13 3 11 4 12 5 10 7 9 8 3 9 4 10 8 11 5 12 7 13
REMARK SMILES IDX 6 14 88 15 86 16 87 17 2 18 1 19 89 20 90 21 91 22 99 23
REMARK SMILES IDX 92 24 97 25 93 26 98 27 94 28 95 29 96 30 16 31 17 32 18 33
REMARK SMILES IDX 19 34 20 35 21 36 22 38 23 39 24 40 85 41 25 42 84 43 26 44
REMARK SMILES IDX 27 45 28 46 78 47 29 48 83 49 77 50 79 51 30 52 82 53 76 54
REMARK SMILES IDX 75 55 31 57 63 58 43 59 62 60 44 61 47 62 61 63 80 64 45 65
REMARK SMILES IDX 46 66 60 68 81 69 48 70 32 71 33 72 41 73 34 74 35 75 39 76
REMARK SMILES IDX 42 77 36 78 37 79 40 80 38 81 64 82 65 83 73 84 66 85 67 86
REMARK SMILES IDX 71 87 74 88 68 89 69 90 72 91 70 92 49 93 50 94 58 95 51 96
REMARK SMILES IDX 52 97 56 98 59 99 53 100 54 101 57 102 55 103
REMARK H PARENT 13 6 20 37 79 56 47 67
REMARK Flexibility Score: inf
ROOT
ATOM      1  C   UNL A   1      39.823  19.977  25.744  1.00  0.00     0.021 C 
ENDROOT
BRANCH   1   2
ATOM      2  C   UNL A   1      38.478  20.653  25.473  1.00  0.00     0.116 C 
BRANCH   2   3
ATOM      3  N   UNL A   1      38.388  21.947  26.122  1.00  0.00    -0.356 N 
ATOM      4  C   UNL A   1      37.702  23.065  25.741  1.00  0.00     0.224 C 
ATOM      5  O   UNL A   1      37.812  24.078  26.439  1.00  0.00    -0.275 OA
ATOM      6  H   UNL A   1      38.897  22.031  26.961  1.00  0.00     0.163 HD
BRANCH   4   7
ATOM      7  C   UNL A   1      36.760  23.032  24.546  1.00  0.00     0.138 C 
BRANCH   7   8
ATOM      8  C   UNL A   1      35.314  22.930  24.925  1.00  0.00    -0.010 A 
ATOM      9  C   UNL A   1      33.799  19.438  24.703  1.00  0.00     0.119 A 
ATOM     10  C   UNL A   1      32.543  19.788  25.188  1.00  0.00     0.048 A 
ATOM     11  C   UNL A   1      34.804  20.401  24.617  1.00  0.00     0.057 A 
ATOM     12  C   UNL A   1      32.262  21.106  25.588  1.00  0.00     0.031 A 
ATOM     13  C   UNL A   1      34.534  21.740  24.966  1.00  0.00     0.007 A 
ATOM     14  C   UNL A   1      33.272  22.079  25.462  1.00  0.00     0.049 A 
ATOM     15  N   UNL A   1      33.307  23.438  25.765  1.00  0.00    -0.340 N 
ATOM     16  C   UNL A   1      34.462  23.984  25.229  1.00  0.00     0.020 A 
ATOM     17  C   UNL A   1      34.742  25.439  25.069  1.00  0.00     0.065 C 
BRANCH   9  18
ATOM     18  O   UNL A   1      34.171  18.167  24.357  1.00  0.00    -0.497 OA
ATOM     19  C   UNL A   1      33.346  17.551  23.374  1.00  0.00     0.278 C 
ENDBRANCH   9  18
BRANCH  15  20
ATOM     20  C   UNL A   1      32.234  24.178  26.446  1.00  0.00     0.158 C 
BRANCH  20  21
ATOM     21  C   UNL A   1      31.575  25.269  25.614  1.00  0.00    -0.021 A 
ATOM     22  C   UNL A   1      30.559  24.912  24.641  1.00  0.00     0.024 A 
ATOM     23  C   UNL A   1      31.808  26.579  25.820  1.00  0.00     0.077 A 
ATOM     24  C   UNL A   1      29.930  25.842  23.913  1.00  0.00     0.095 A 
ATOM     25  C   UNL A   1      31.073  27.642  25.059  1.00  0.00     0.255 A 
ATOM     26  N   UNL A   1      30.191  27.184  24.089  1.00  0.00    -0.258 N 
ATOM     27  O   UNL A   1      31.285  28.810  25.333  1.00  0.00    -0.269 OA
BRANCH  26  28
ATOM     28  C   UNL A   1      29.404  28.162  23.378  1.00  0.00     0.451 C 
ATOM     29  F   UNL A   1      30.025  28.540  22.236  1.00  0.00    -0.185 F 
ATOM     30  F   UNL A   1      28.177  27.694  23.050  1.00  0.00    -0.185 F 
ENDBRANCH  26  28
ENDBRANCH  20  21
ENDBRANCH  15  20
ENDBRANCH   7   8
ENDBRANCH   4   7
ENDBRANCH   2   3
ENDBRANCH   1   2
BRANCH   1  31
ATOM     31  C   UNL A   1      40.611  20.610  26.897  1.00  0.00     0.002 C 
BRANCH  31  32
ATOM     32  C   UNL A   1      41.892  19.865  27.293  1.00  0.00     0.002 C 
BRANCH  32  33
ATOM     33  C   UNL A   1      42.342  18.771  26.316  1.00  0.00     0.021 C 
BRANCH  33  34
ATOM     34  C   UNL A   1      43.856  18.686  26.130  1.00  0.00     0.116 C 
BRANCH  34  35
ATOM     35  N   UNL A   1      44.329  19.342  24.932  1.00  0.00    -0.352 N 
ATOM     36  C   UNL A   1      44.552  20.637  24.561  1.00  0.00     0.251 C 
ATOM     37  H   UNL A   1      44.544  18.704  24.213  1.00  0.00     0.163 HD
ATOM     38  O   UNL A   1      45.136  20.798  23.486  1.00  0.00    -0.269 OA
BRANCH  36  39
ATOM     39  C   UNL A   1      44.075  21.842  25.294  1.00  0.00     0.039 A 
ATOM     40  C   UNL A   1      42.944  22.602  24.993  1.00  0.00     0.014 A 
ATOM     41  C   UNL A   1      44.914  22.280  26.339  1.00  0.00     0.014 A 
ATOM     42  C   UNL A   1      42.729  23.821  25.630  1.00  0.00     0.010 A 
ATOM     43  C   UNL A   1      44.697  23.488  26.988  1.00  0.00     0.010 A 
ATOM     44  C   UNL A   1      43.637  24.288  26.588  1.00  0.00    -0.014 A 
BRANCH  44  45
ATOM     45  C   UNL A   1      43.376  25.578  27.222  1.00  0.00     0.031 A 
ATOM     46  C   UNL A   1      44.381  26.623  26.887  1.00  0.00     0.074 A 
ATOM     47  C   UNL A   1      42.287  25.838  27.978  1.00  0.00     0.049 A 
ATOM     48  N   UNL A   1      45.209  27.206  27.690  1.00  0.00    -0.248 NA
ATOM     49  C   UNL A   1      44.584  26.968  25.472  1.00  0.00     0.031 C 
ATOM     50  C   UNL A   1      41.102  24.992  28.163  1.00  0.00     0.029 A 
ATOM     51  N   UNL A   1      41.965  26.962  28.690  1.00  0.00    -0.354 N 
ATOM     52  C   UNL A   1      45.908  28.133  26.917  1.00  0.00     0.074 A 
ATOM     53  C   UNL A   1      45.589  27.844  25.545  1.00  0.00     0.031 C 
ATOM     54  C   UNL A   1      40.112  25.715  28.736  1.00  0.00     0.029 A 
ATOM     55  C   UNL A   1      40.637  27.017  29.105  1.00  0.00     0.049 A 
ATOM     56  H   UNL A   1      42.617  27.672  28.891  1.00  0.00     0.167 HD
ATOM     57  C   UNL A   1      46.486  29.221  27.497  1.00  0.00     0.037 A 
ATOM     58  C   UNL A   1      40.016  28.069  29.697  1.00  0.00     0.037 A 
ATOM     59  C   UNL A   1      46.594  29.046  28.920  1.00  0.00     0.049 A 
ATOM     60  C   UNL A   1      41.063  28.914  30.309  1.00  0.00     0.074 A 
ATOM     61  C   UNL A   1      47.436  28.399  29.795  1.00  0.00     0.029 A 
ATOM     62  N   UNL A   1      45.439  29.331  29.593  1.00  0.00    -0.354 N 
ATOM     63  N   UNL A   1      41.776  28.545  31.335  1.00  0.00    -0.248 NA
ATOM     64  C   UNL A   1      41.550  30.085  29.588  1.00  0.00     0.031 C 
ATOM     65  C   UNL A   1      46.674  28.162  30.980  1.00  0.00     0.029 A 
ATOM     66  C   UNL A   1      45.404  28.708  30.809  1.00  0.00     0.049 A 
ATOM     67  H   UNL A   1      44.723  29.910  29.246  1.00  0.00     0.167 HD
ATOM     68  C   UNL A   1      42.994  29.155  31.130  1.00  0.00     0.074 A 
ATOM     69  C   UNL A   1      42.744  30.220  30.168  1.00  0.00     0.031 C 
ATOM     70  C   UNL A   1      44.147  28.529  31.493  1.00  0.00     0.037 A 
BRANCH  57  71
ATOM     71  C   UNL A   1      46.498  30.611  26.893  1.00  0.00     0.064 A 
ATOM     72  C   UNL A   1      47.701  31.351  26.882  1.00  0.00     0.173 A 
ATOM     73  C   UNL A   1      45.329  31.359  26.636  1.00  0.00     0.173 A 
ATOM     74  F   UNL A   1      48.872  30.753  27.148  1.00  0.00    -0.203 F 
ATOM     75  C   UNL A   1      47.718  32.737  26.687  1.00  0.00     0.198 A 
ATOM     76  C   UNL A   1      45.355  32.733  26.393  1.00  0.00     0.198 A 
ATOM     77  F   UNL A   1      44.107  30.821  26.727  1.00  0.00    -0.203 F 
ATOM     78  F   UNL A   1      48.872  33.411  26.798  1.00  0.00    -0.200 F 
ATOM     79  C   UNL A   1      46.546  33.426  26.445  1.00  0.00     0.200 A 
ATOM     80  F   UNL A   1      44.203  33.388  26.191  1.00  0.00    -0.200 F 
ATOM     81  F   UNL A   1      46.552  34.759  26.311  1.00  0.00    -0.200 F 
ENDBRANCH  57  71
BRANCH  58  82
ATOM     82  C   UNL A   1      38.620  28.560  29.588  1.00  0.00     0.064 A 
ATOM     83  C   UNL A   1      37.864  28.825  30.747  1.00  0.00     0.173 A 
ATOM     84  C   UNL A   1      38.140  29.114  28.389  1.00  0.00     0.173 A 
ATOM     85  F   UNL A   1      38.262  28.349  31.937  1.00  0.00    -0.203 F 
ATOM     86  C   UNL A   1      36.745  29.662  30.720  1.00  0.00     0.198 A 
ATOM     87  C   UNL A   1      37.018  29.946  28.363  1.00  0.00     0.198 A 
ATOM     88  F   UNL A   1      38.815  28.949  27.243  1.00  0.00    -0.203 F 
ATOM     89  F   UNL A   1      36.112  29.968  31.861  1.00  0.00    -0.200 F 
ATOM     90  C   UNL A   1      36.337  30.241  29.531  1.00  0.00     0.200 A 
ATOM     91  F   UNL A   1      36.648  30.527  27.214  1.00  0.00    -0.200 F 
ATOM     92  F   UNL A   1      35.322  31.116  29.520  1.00  0.00    -0.200 F 
ENDBRANCH  58  82
BRANCH  70  93
ATOM     93  C   UNL A   1      44.053  27.474  32.547  1.00  0.00     0.064 A 
ATOM     94  C   UNL A   1      44.040  26.094  32.294  1.00  0.00     0.173 A 
ATOM     95  C   UNL A   1      44.057  27.893  33.883  1.00  0.00     0.173 A 
ATOM     96  F   UNL A   1      44.105  25.622  31.043  1.00  0.00    -0.203 F 
ATOM     97  C   UNL A   1      44.004  25.175  33.341  1.00  0.00     0.198 A 
ATOM     98  C   UNL A   1      44.057  26.974  34.926  1.00  0.00     0.198 A 
ATOM     99  F   UNL A   1      44.105  29.202  34.177  1.00  0.00    -0.203 F 
ATOM    100  F   UNL A   1      43.984  23.859  33.082  1.00  0.00    -0.200 F 
ATOM    101  C   UNL A   1      44.023  25.617  34.655  1.00  0.00     0.200 A 
ATOM    102  F   UNL A   1      44.118  27.406  36.193  1.00  0.00    -0.200 F 
ATOM    103  F   UNL A   1      44.033  24.732  35.662  1.00  0.00    -0.200 F 
ENDBRANCH  70  93
ENDBRANCH  44  45
ENDBRANCH  36  39
ENDBRANCH  34  35
ENDBRANCH  33  34
ENDBRANCH  32  33
ENDBRANCH  31  32
ENDBRANCH   1  31
TORSDOF 18
ENDMDL
MODEL 3
REMARK VINA RESULT:     -12.3      3.320      5.146
REMARK SMILES COc1ccc2c(c1)c(CC(=O)NCCCCCCNC(=O)c1ccc(-c3c4nc(c(-c5c(F)c(F)c(F)c(F)c5F)c5ccc([nH]5)c(-c5c(F)c(F)c(F)c(F)c5F)c5nc(c(-c6c(F)c(F)c(F)c(F)c6F)c6ccc3[nH]6)C=C5)C=C4)cc1)c(C)n2Cc1ccn(C(F)F)c(=O)c1
REMARK SMILES IDX 15 1 14 2 13 3 11 4 12 5 10 7 9 8 3 9 4 10 8 11 5 12 7 13
REMARK SMILES IDX 6 14 88 15 86 16 87 17 2 18 1 19 89 20 90 21 91 22 99 23
REMARK SMILES IDX 92 24 97 25 93 26 98 27 94 28 95 29 96 30 16 31 17 32 18 33
REMARK SMILES IDX 19 34 20 35 21 36 22 38 23 39 24 40 85 41 25 42 84 43 26 44
REMARK SMILES IDX 27 45 28 46 78 47 29 48 83 49 77 50 79 51 30 52 82 53 76 54
REMARK SMILES IDX 75 55 31 57 63 58 43 59 62 60 44 61 47 62 61 63 80 64 45 65
REMARK SMILES IDX 46 66 60 68 81 69 48 70 32 71 33 72 41 73 34 74 35 75 39 76
REMARK SMILES IDX 42 77 36 78 37 79 40 80 38 81 64 82 65 83 73 84 66 85 67 86
REMARK SMILES IDX 71 87 74 88 68 89 69 90 72 91 70 92 49 93 50 94 58 95 51 96
REMARK SMILES IDX 52 97 56 98 59 99 53 100 54 101 57 102 55 103
REMARK H PARENT 13 6 20 37 79 56 47 67
REMARK Flexibility Score: inf
ROOT
ATOM      1  C   UNL A   1      36.975  23.460  24.893  1.00  0.00     0.021 C 
ENDROOT
BRANCH   1   2
ATOM      2  C   UNL A   1      36.407  22.069  24.608  1.00  0.00     0.116 C 
BRANCH   2   3
ATOM      3  N   UNL A   1      35.610  21.578  25.715  1.00  0.00    -0.356 N 
ATOM      4  C   UNL A   1      34.258  21.397  25.800  1.00  0.00     0.224 C 
ATOM      5  O   UNL A   1      33.793  21.004  26.874  1.00  0.00    -0.275 OA
ATOM      6  H   UNL A   1      36.117  21.342  26.525  1.00  0.00     0.163 HD
BRANCH   4   7
ATOM      7  C   UNL A   1      33.369  21.584  24.579  1.00  0.00     0.138 C 
BRANCH   7   8
ATOM      8  C   UNL A   1      32.676  22.912  24.541  1.00  0.00    -0.010 A 
ATOM      9  C   UNL A   1      29.780  23.327  26.987  1.00  0.00     0.119 A 
ATOM     10  C   UNL A   1      29.505  24.653  26.671  1.00  0.00     0.048 A 
ATOM     11  C   UNL A   1      30.843  22.670  26.366  1.00  0.00     0.057 A 
ATOM     12  C   UNL A   1      30.277  25.348  25.722  1.00  0.00     0.031 A 
ATOM     13  C   UNL A   1      31.601  23.328  25.376  1.00  0.00     0.007 A 
ATOM     14  C   UNL A   1      31.323  24.664  25.073  1.00  0.00     0.049 A 
ATOM     15  N   UNL A   1      32.247  25.062  24.111  1.00  0.00    -0.340 N 
ATOM     16  C   UNL A   1      32.908  23.940  23.636  1.00  0.00     0.020 A 
ATOM     17  C   UNL A   1      33.752  23.883  22.410  1.00  0.00     0.065 C 
BRANCH   9  18
ATOM     18  O   UNL A   1      29.121  22.604  27.944  1.00  0.00    -0.497 OA
ATOM     19  C   UNL A   1      28.000  21.867  27.468  1.00  0.00     0.278 C 
ENDBRANCH   9  18
BRANCH  15  20
ATOM     20  C   UNL A   1      32.406  26.436  23.613  1.00  0.00     0.158 C 
BRANCH  20  21
ATOM     21  C   UNL A   1      32.689  27.482  24.683  1.00  0.00    -0.021 A 
ATOM     22  C   UNL A   1      33.836  27.319  25.557  1.00  0.00     0.024 A 
ATOM     23  C   UNL A   1      31.984  28.625  24.784  1.00  0.00     0.077 A 
ATOM     24  C   UNL A   1      34.140  28.231  26.489  1.00  0.00     0.095 A 
ATOM     25  C   UNL A   1      32.342  29.688  25.780  1.00  0.00     0.255 A 
ATOM     26  N   UNL A   1      33.400  29.386  26.626  1.00  0.00    -0.258 N 
ATOM     27  O   UNL A   1      31.703  30.725  25.783  1.00  0.00    -0.269 OA
BRANCH  26  28
ATOM     28  C   UNL A   1      33.833  30.402  27.555  1.00  0.00     0.451 C 
ATOM     29  F   UNL A   1      34.770  29.913  28.400  1.00  0.00    -0.185 F 
ATOM     30  F   UNL A   1      34.360  31.479  26.927  1.00  0.00    -0.185 F 
ENDBRANCH  26  28
ENDBRANCH  20  21
ENDBRANCH  15  20
ENDBRANCH   7   8
ENDBRANCH   4   7
ENDBRANCH   2   3
ENDBRANCH   1   2
BRANCH   1  31
ATOM     31  C   UNL A   1      37.926  23.505  26.095  1.00  0.00     0.002 C 
BRANCH  31  32
ATOM     32  C   UNL A   1      38.988  22.399  26.123  1.00  0.00     0.002 C 
BRANCH  32  33
ATOM     33  C   UNL A   1      40.018  22.508  27.255  1.00  0.00     0.021 C 
BRANCH  33  34
ATOM     34  C   UNL A   1      41.336  21.789  26.970  1.00  0.00     0.116 C 
BRANCH  34  35
ATOM     35  N   UNL A   1      42.123  22.416  25.932  1.00  0.00    -0.352 N 
ATOM     36  C   UNL A   1      42.573  23.682  25.690  1.00  0.00     0.251 C 
ATOM     37  H   UNL A   1      42.403  21.778  25.235  1.00  0.00     0.163 HD
ATOM     38  O   UNL A   1      43.382  23.799  24.765  1.00  0.00    -0.269 OA
BRANCH  36  39
ATOM     39  C   UNL A   1      42.105  24.915  26.380  1.00  0.00     0.039 A 
ATOM     40  C   UNL A   1      41.129  25.800  25.923  1.00  0.00     0.014 A 
ATOM     41  C   UNL A   1      42.791  25.235  27.570  1.00  0.00     0.014 A 
ATOM     42  C   UNL A   1      40.934  27.021  26.564  1.00  0.00     0.010 A 
ATOM     43  C   UNL A   1      42.592  26.444  28.222  1.00  0.00     0.010 A 
ATOM     44  C   UNL A   1      41.707  27.364  27.680  1.00  0.00    -0.014 A 
BRANCH  44  45
ATOM     45  C   UNL A   1      41.475  28.660  28.315  1.00  0.00     0.031 A 
ATOM     46  C   UNL A   1      42.546  29.657  28.043  1.00  0.00     0.074 A 
ATOM     47  C   UNL A   1      40.362  28.967  29.015  1.00  0.00     0.049 A 
ATOM     48  N   UNL A   1      43.358  30.193  28.895  1.00  0.00    -0.248 NA
ATOM     49  C   UNL A   1      42.841  30.004  26.644  1.00  0.00     0.031 C 
ATOM     50  C   UNL A   1      39.130  28.179  29.128  1.00  0.00     0.029 A 
ATOM     51  N   UNL A   1      40.058  30.100  29.721  1.00  0.00    -0.354 N 
ATOM     52  C   UNL A   1      44.141  31.090  28.169  1.00  0.00     0.074 A 
ATOM     53  C   UNL A   1      43.881  30.828  26.780  1.00  0.00     0.031 C 
ATOM     54  C   UNL A   1      38.146  28.945  29.656  1.00  0.00     0.029 A 
ATOM     55  C   UNL A   1      38.714  30.216  30.067  1.00  0.00     0.049 A 
ATOM     56  H   UNL A   1      40.732  30.775  29.963  1.00  0.00     0.167 HD
ATOM     57  C   UNL A   1      44.740  32.144  28.791  1.00  0.00     0.037 A 
ATOM     58  C   UNL A   1      38.114  31.293  30.636  1.00  0.00     0.037 A 
ATOM     59  C   UNL A   1      44.764  31.952  30.216  1.00  0.00     0.049 A 
ATOM     60  C   UNL A   1      39.168  32.080  31.311  1.00  0.00     0.074 A 
ATOM     61  C   UNL A   1      45.526  31.257  31.126  1.00  0.00     0.029 A 
ATOM     62  N   UNL A   1      43.590  32.288  30.830  1.00  0.00    -0.354 N 
ATOM     63  N   UNL A   1      39.806  31.669  32.369  1.00  0.00    -0.248 NA
ATOM     64  C   UNL A   1      39.748  33.231  30.629  1.00  0.00     0.031 C 
ATOM     65  C   UNL A   1      44.692  31.049  32.267  1.00  0.00     0.029 A 
ATOM     66  C   UNL A   1      43.461  31.657  32.036  1.00  0.00     0.049 A 
ATOM     67  H   UNL A   1      42.922  32.904  30.452  1.00  0.00     0.167 HD
ATOM     68  C   UNL A   1      41.062  32.220  32.235  1.00  0.00     0.074 A 
ATOM     69  C   UNL A   1      40.914  33.304  31.273  1.00  0.00     0.031 C 
ATOM     70  C   UNL A   1      42.162  31.534  32.651  1.00  0.00     0.037 A 
BRANCH  57  71
ATOM     71  C   UNL A   1      44.851  33.537  28.203  1.00  0.00     0.064 A 
ATOM     72  C   UNL A   1      46.129  34.085  27.959  1.00  0.00     0.173 A 
ATOM     73  C   UNL A   1      43.785  34.462  28.185  1.00  0.00     0.173 A 
ATOM     74  F   UNL A   1      47.222  33.306  27.985  1.00  0.00    -0.203 F 
ATOM     75  C   UNL A   1      46.324  35.458  27.771  1.00  0.00     0.198 A 
ATOM     76  C   UNL A   1      43.978  35.823  27.948  1.00  0.00     0.198 A 
ATOM     77  F   UNL A   1      42.536  34.113  28.512  1.00  0.00    -0.203 F 
ATOM     78  F   UNL A   1      47.568  35.944  27.656  1.00  0.00    -0.200 F 
ATOM     79  C   UNL A   1      45.250  36.326  27.768  1.00  0.00     0.200 A 
ATOM     80  F   UNL A   1      42.926  36.653  27.981  1.00  0.00    -0.200 F 
ATOM     81  F   UNL A   1      45.438  37.646  27.642  1.00  0.00    -0.200 F 
ENDBRANCH  57  71
BRANCH  58  82
ATOM     82  C   UNL A   1      36.752  31.853  30.460  1.00  0.00     0.064 A 
ATOM     83  C   UNL A   1      35.871  31.948  31.556  1.00  0.00     0.173 A 
ATOM     84  C   UNL A   1      36.427  32.621  29.329  1.00  0.00     0.173 A 
ATOM     85  F   UNL A   1      36.118  31.261  32.682  1.00  0.00    -0.203 F 
ATOM     86  C   UNL A   1      34.782  32.823  31.551  1.00  0.00     0.198 A 
ATOM     87  C   UNL A   1      35.334  33.492  29.324  1.00  0.00     0.198 A 
ATOM     88  F   UNL A   1      37.227  32.626  28.254  1.00  0.00    -0.203 F 
ATOM     89  F   UNL A   1      34.027  32.957  32.650  1.00  0.00    -0.200 F 
ATOM     90  C   UNL A   1      34.528  33.612  30.442  1.00  0.00     0.200 A 
ATOM     91  F   UNL A   1      35.113  34.274  28.258  1.00  0.00    -0.200 F 
ATOM     92  F   UNL A   1      33.541  34.518  30.469  1.00  0.00    -0.200 F 
ENDBRANCH  58  82
BRANCH  70  93
ATOM     93  C   UNL A   1      41.962  30.478  33.687  1.00  0.00     0.064 A 
ATOM     94  C   UNL A   1      41.670  29.133  33.408  1.00  0.00     0.173 A 
ATOM     95  C   UNL A   1      42.155  30.839  35.026  1.00  0.00     0.173 A 
ATOM     96  F   UNL A   1      41.541  28.703  32.147  1.00  0.00    -0.203 F 
ATOM     97  C   UNL A   1      41.551  28.199  34.435  1.00  0.00     0.198 A 
ATOM     98  C   UNL A   1      42.071  29.899  36.046  1.00  0.00     0.198 A 
ATOM     99  F   UNL A   1      42.471  32.105  35.341  1.00  0.00    -0.203 F 
ATOM    100  F   UNL A   1      41.264  26.919  34.152  1.00  0.00    -0.200 F 
ATOM    101  C   UNL A   1      41.761  28.581  35.751  1.00  0.00     0.200 A 
ATOM    102  F   UNL A   1      42.317  30.265  37.311  1.00  0.00    -0.200 F 
ATOM    103  F   UNL A   1      41.691  27.674  36.735  1.00  0.00    -0.200 F 
ENDBRANCH  70  93
ENDBRANCH  44  45
ENDBRANCH  36  39
ENDBRANCH  34  35
ENDBRANCH  33  34
ENDBRANCH  32  33
ENDBRANCH  31  32
ENDBRANCH   1  31
TORSDOF 18
ENDMDL
