MODEL 1
REMARK VINA RESULT:     -12.3      0.000      0.000
REMARK SMILES O=C(NCCCCCCNC(=O)c1ccc(S(=O)(=O)Cc2cccs2)c(F)c1)c1ccc(-c2c3nc(c(-c4c(F)c(F)c(F)c(F)c4F)c4ccc([nH]4)c(-c4c(F)c(F)c(F)c(F)c4F)c4nc(c(-c5c(F)c(F)c(F)c(F)c5F)c5ccc2[nH]5)C=C4)C=C3)cc1
REMARK SMILES IDX 7 1 6 2 5 3 4 4 3 5 1 6 2 7 29 9 30 10 91 11 31 12 90 13
REMARK SMILES IDX 32 14 33 15 34 16 84 17 35 18 89 19 83 20 85 21 36 22 88 23
REMARK SMILES IDX 82 24 81 25 37 27 69 28 49 29 68 30 50 31 53 32 67 33 86 34
REMARK SMILES IDX 51 35 52 36 66 38 87 39 54 40 38 41 39 42 47 43 40 44 41 45
REMARK SMILES IDX 45 46 48 47 42 48 43 49 46 50 44 51 70 52 71 53 79 54 72 55
REMARK SMILES IDX 73 56 77 57 80 58 74 59 75 60 78 61 76 62 55 63 56 64 64 65
REMARK SMILES IDX 57 66 58 67 62 68 65 69 59 70 60 71 63 72 61 73 8 74 9 75
REMARK SMILES IDX 10 76 11 77 12 79 13 80 14 81 28 82 15 83 26 84 16 85 27 86
REMARK SMILES IDX 17 87 18 88 19 89 20 90 21 91 22 92 25 93 23 94 24 95
REMARK H PARENT 3 8 85 26 53 37 10 78
REMARK Flexibility Score: inf
ROOT
ATOM      1  C   UNL A   1      30.931  28.096  24.558  1.00  0.00     0.002 C 
ENDROOT
BRANCH   1   2
ATOM      2  C   UNL A   1      31.388  27.464  25.877  1.00  0.00     0.002 C 
BRANCH   2   3
ATOM      3  C   UNL A   1      32.319  28.319  26.735  1.00  0.00     0.021 C 
BRANCH   3   4
ATOM      4  C   UNL A   1      33.115  29.378  25.982  1.00  0.00     0.116 C 
BRANCH   4   5
ATOM      5  N   UNL A   1      32.780  30.736  26.379  1.00  0.00    -0.352 N 
ATOM      6  O   UNL A   1      32.923  32.651  27.564  1.00  0.00    -0.269 OA
ATOM      7  C   UNL A   1      33.427  31.576  27.254  1.00  0.00     0.251 C 
ATOM      8  H   UNL A   1      31.970  31.108  25.961  1.00  0.00     0.163 HD
BRANCH   7   9
ATOM      9  C   UNL A   1      34.718  31.170  27.853  1.00  0.00     0.039 A 
ATOM     10  C   UNL A   1      34.930  29.859  28.281  1.00  0.00     0.014 A 
ATOM     11  C   UNL A   1      35.731  32.124  27.999  1.00  0.00     0.014 A 
ATOM     12  C   UNL A   1      36.077  29.545  29.002  1.00  0.00     0.010 A 
ATOM     13  C   UNL A   1      36.922  31.784  28.646  1.00  0.00     0.010 A 
ATOM     14  C   UNL A   1      37.086  30.503  29.195  1.00  0.00    -0.014 A 
BRANCH  14  15
ATOM     15  C   UNL A   1      38.306  30.129  29.957  1.00  0.00     0.031 A 
ATOM     16  C   UNL A   1      38.513  30.596  31.372  1.00  0.00     0.074 A 
ATOM     17  C   UNL A   1      39.207  29.308  29.383  1.00  0.00     0.049 A 
ATOM     18  N   UNL A   1      39.489  30.314  32.200  1.00  0.00    -0.248 NA
ATOM     19  C   UNL A   1      37.499  31.501  31.933  1.00  0.00     0.031 C 
ATOM     20  C   UNL A   1      39.121  28.798  28.015  1.00  0.00     0.029 A 
ATOM     21  N   UNL A   1      40.350  28.737  29.881  1.00  0.00    -0.354 N 
ATOM     22  C   UNL A   1      39.216  31.015  33.366  1.00  0.00     0.074 A 
ATOM     23  C   UNL A   1      37.998  31.760  33.134  1.00  0.00     0.031 C 
ATOM     24  C   UNL A   1      40.130  27.941  27.802  1.00  0.00     0.029 A 
ATOM     25  C   UNL A   1      40.965  27.885  28.998  1.00  0.00     0.049 A 
ATOM     26  H   UNL A   1      40.695  28.920  30.785  1.00  0.00     0.167 HD
ATOM     27  C   UNL A   1      39.911  31.024  34.529  1.00  0.00     0.037 A 
ATOM     28  C   UNL A   1      42.078  27.139  29.132  1.00  0.00     0.037 A 
ATOM     29  C   UNL A   1      41.114  30.266  34.765  1.00  0.00     0.049 A 
ATOM     30  C   UNL A   1      42.830  27.169  30.429  1.00  0.00     0.074 A 
ATOM     31  C   UNL A   1      41.882  30.202  35.915  1.00  0.00     0.029 A 
ATOM     32  N   UNL A   1      41.721  29.436  33.834  1.00  0.00    -0.354 N 
ATOM     33  N   UNL A   1      42.554  27.827  31.528  1.00  0.00    -0.248 NA
ATOM     34  C   UNL A   1      44.049  26.352  30.507  1.00  0.00     0.031 C 
ATOM     35  C   UNL A   1      42.972  29.362  35.669  1.00  0.00     0.029 A 
ATOM     36  C   UNL A   1      42.859  28.865  34.381  1.00  0.00     0.049 A 
ATOM     37  H   UNL A   1      41.392  29.276  32.920  1.00  0.00     0.167 HD
ATOM     38  C   UNL A   1      43.553  27.498  32.431  1.00  0.00     0.074 A 
ATOM     39  C   UNL A   1      44.434  26.565  31.759  1.00  0.00     0.031 C 
ATOM     40  C   UNL A   1      43.724  27.933  33.703  1.00  0.00     0.037 A 
BRANCH  27  41
ATOM     41  C   UNL A   1      39.397  31.885  35.647  1.00  0.00     0.064 A 
ATOM     42  C   UNL A   1      39.887  33.188  35.825  1.00  0.00     0.173 A 
ATOM     43  C   UNL A   1      38.470  31.400  36.580  1.00  0.00     0.173 A 
ATOM     44  F   UNL A   1      40.781  33.698  34.964  1.00  0.00    -0.203 F 
ATOM     45  C   UNL A   1      39.475  33.969  36.902  1.00  0.00     0.198 A 
ATOM     46  C   UNL A   1      38.040  32.193  37.641  1.00  0.00     0.198 A 
ATOM     47  F   UNL A   1      37.961  30.165  36.448  1.00  0.00    -0.203 F 
ATOM     48  F   UNL A   1      39.978  35.199  37.067  1.00  0.00    -0.200 F 
ATOM     49  C   UNL A   1      38.549  33.472  37.806  1.00  0.00     0.200 A 
ATOM     50  F   UNL A   1      37.128  31.720  38.502  1.00  0.00    -0.200 F 
ATOM     51  F   UNL A   1      38.144  34.229  38.837  1.00  0.00    -0.200 F 
ENDBRANCH  27  41
BRANCH  28  52
ATOM     52  C   UNL A   1      42.516  26.283  28.000  1.00  0.00     0.064 A 
ATOM     53  C   UNL A   1      43.417  26.757  27.036  1.00  0.00     0.173 A 
ATOM     54  C   UNL A   1      41.997  24.992  27.833  1.00  0.00     0.173 A 
ATOM     55  F   UNL A   1      43.935  27.989  27.150  1.00  0.00    -0.203 F 
ATOM     56  C   UNL A   1      43.761  25.982  25.931  1.00  0.00     0.198 A 
ATOM     57  C   UNL A   1      42.362  24.208  26.741  1.00  0.00     0.198 A 
ATOM     58  F   UNL A   1      41.145  24.490  28.739  1.00  0.00    -0.203 F 
ATOM     59  F   UNL A   1      44.589  26.476  25.001  1.00  0.00    -0.200 F 
ATOM     60  C   UNL A   1      43.234  24.707  25.786  1.00  0.00     0.200 A 
ATOM     61  F   UNL A   1      41.867  22.969  26.614  1.00  0.00    -0.200 F 
ATOM     62  F   UNL A   1      43.569  23.961  24.725  1.00  0.00    -0.200 F 
ENDBRANCH  28  52
BRANCH  40  63
ATOM     63  C   UNL A   1      44.898  27.394  34.465  1.00  0.00     0.064 A 
ATOM     64  C   UNL A   1      44.767  26.228  35.236  1.00  0.00     0.173 A 
ATOM     65  C   UNL A   1      46.131  28.060  34.483  1.00  0.00     0.173 A 
ATOM     66  F   UNL A   1      43.605  25.558  35.257  1.00  0.00    -0.203 F 
ATOM     67  C   UNL A   1      45.827  25.756  36.004  1.00  0.00     0.198 A 
ATOM     68  C   UNL A   1      47.197  27.571  35.233  1.00  0.00     0.198 A 
ATOM     69  F   UNL A   1      46.308  29.172  33.753  1.00  0.00    -0.203 F 
ATOM     70  F   UNL A   1      45.672  24.655  36.752  1.00  0.00    -0.200 F 
ATOM     71  C   UNL A   1      47.042  26.424  35.998  1.00  0.00     0.200 A 
ATOM     72  F   UNL A   1      48.377  28.204  35.209  1.00  0.00    -0.200 F 
ATOM     73  F   UNL A   1      48.066  25.961  36.728  1.00  0.00    -0.200 F 
ENDBRANCH  40  63
ENDBRANCH  14  15
ENDBRANCH   7   9
ENDBRANCH   4   5
ENDBRANCH   3   4
ENDBRANCH   2   3
ENDBRANCH   1   2
BRANCH   1  74
ATOM     74  C   UNL A   1      29.917  27.286  23.741  1.00  0.00     0.021 C 
BRANCH  74  75
ATOM     75  C   UNL A   1      30.474  26.033  23.064  1.00  0.00     0.116 C 
BRANCH  75  76
ATOM     76  N   UNL A   1      31.556  26.345  22.146  1.00  0.00    -0.352 N 
ATOM     77  C   UNL A   1      32.786  25.754  22.034  1.00  0.00     0.251 C 
ATOM     78  H   UNL A   1      31.382  27.085  21.519  1.00  0.00     0.163 HD
ATOM     79  O   UNL A   1      33.653  26.221  21.302  1.00  0.00    -0.269 OA
BRANCH  77  80
ATOM     80  C   UNL A   1      33.076  24.544  22.819  1.00  0.00     0.042 A 
ATOM     81  C   UNL A   1      32.635  23.293  22.371  1.00  0.00     0.015 A 
ATOM     82  C   UNL A   1      33.784  24.668  24.014  1.00  0.00     0.054 A 
ATOM     83  C   UNL A   1      32.879  22.163  23.150  1.00  0.00     0.024 A 
ATOM     84  C   UNL A   1      33.999  23.538  24.796  1.00  0.00     0.142 A 
ATOM     85  C   UNL A   1      33.559  22.292  24.370  1.00  0.00     0.103 A 
ATOM     86  F   UNL A   1      34.590  23.696  25.985  1.00  0.00    -0.206 F 
BRANCH  85  87
ATOM     87  S   UNL A   1      33.760  20.855  25.375  1.00  0.00     0.186 S 
ATOM     88  O   UNL A   1      35.052  20.310  24.996  1.00  0.00    -0.223 OA
ATOM     89  O   UNL A   1      33.548  21.287  26.748  1.00  0.00    -0.223 OA
BRANCH  87  90
ATOM     90  C   UNL A   1      32.521  19.641  24.982  1.00  0.00     0.188 C 
BRANCH  90  91
ATOM     91  C   UNL A   1      33.085  18.299  24.625  1.00  0.00     0.020 A 
ATOM     92  C   UNL A   1      33.667  17.861  23.449  1.00  0.00     0.016 A 
ATOM     93  S   UNL A   1      32.933  17.009  25.752  1.00  0.00    -0.148 S 
ATOM     94  C   UNL A   1      34.025  16.481  23.497  1.00  0.00     0.012 A 
ATOM     95  C   UNL A   1      33.681  15.899  24.695  1.00  0.00     0.065 A 
ENDBRANCH  90  91
ENDBRANCH  87  90
ENDBRANCH  85  87
ENDBRANCH  77  80
ENDBRANCH  75  76
ENDBRANCH  74  75
ENDBRANCH   1  74
TORSDOF 16
ENDMDL
MODEL 2
REMARK VINA RESULT:     -12.1      5.464      9.618
REMARK SMILES O=C(NCCCCCCNC(=O)c1ccc(S(=O)(=O)Cc2cccs2)c(F)c1)c1ccc(-c2c3nc(c(-c4c(F)c(F)c(F)c(F)c4F)c4ccc([nH]4)c(-c4c(F)c(F)c(F)c(F)c4F)c4nc(c(-c5c(F)c(F)c(F)c(F)c5F)c5ccc2[nH]5)C=C4)C=C3)cc1
REMARK SMILES IDX 7 1 6 2 5 3 4 4 3 5 1 6 2 7 29 9 30 10 91 11 31 12 90 13
REMARK SMILES IDX 32 14 33 15 34 16 84 17 35 18 89 19 83 20 85 21 36 22 88 23
REMARK SMILES IDX 82 24 81 25 37 27 69 28 49 29 68 30 50 31 53 32 67 33 86 34
REMARK SMILES IDX 51 35 52 36 66 38 87 39 54 40 38 41 39 42 47 43 40 44 41 45
REMARK SMILES IDX 45 46 48 47 42 48 43 49 46 50 44 51 70 52 71 53 79 54 72 55
REMARK SMILES IDX 73 56 77 57 80 58 74 59 75 60 78 61 76 62 55 63 56 64 64 65
REMARK SMILES IDX 57 66 58 67 62 68 65 69 59 70 60 71 63 72 61 73 8 74 9 75
REMARK SMILES IDX 10 76 11 77 12 79 13 80 14 81 28 82 15 83 26 84 16 85 27 86
REMARK SMILES IDX 17 87 18 88 19 89 20 90 21 91 22 92 25 93 23 94 24 95
REMARK H PARENT 3 8 85 26 53 37 10 78
REMARK Flexibility Score: inf
ROOT
ATOM      1  C   UNL A   1      40.414  22.011  27.492  1.00  0.00     0.002 C 
ENDROOT
BRANCH   1   2
ATOM      2  C   UNL A   1      41.659  21.640  26.680  1.00  0.00     0.002 C 
BRANCH   2   3
ATOM      3  C   UNL A   1      41.635  20.263  26.018  1.00  0.00     0.021 C 
BRANCH   3   4
ATOM      4  C   UNL A   1      42.784  19.337  26.395  1.00  0.00     0.116 C 
BRANCH   4   5
ATOM      5  N   UNL A   1      43.542  18.870  25.246  1.00  0.00    -0.352 N 
ATOM      6  O   UNL A   1      44.868  19.027  23.426  1.00  0.00    -0.269 OA
ATOM      7  C   UNL A   1      44.414  19.559  24.434  1.00  0.00     0.251 C 
ATOM      8  H   UNL A   1      43.412  17.922  25.014  1.00  0.00     0.163 HD
BRANCH   7   9
ATOM      9  C   UNL A   1      44.776  20.957  24.755  1.00  0.00     0.039 A 
ATOM     10  C   UNL A   1      45.507  21.264  25.904  1.00  0.00     0.014 A 
ATOM     11  C   UNL A   1      44.367  21.980  23.894  1.00  0.00     0.014 A 
ATOM     12  C   UNL A   1      45.679  22.592  26.278  1.00  0.00     0.010 A 
ATOM     13  C   UNL A   1      44.619  23.315  24.226  1.00  0.00     0.010 A 
ATOM     14  C   UNL A   1      45.236  23.634  25.445  1.00  0.00    -0.014 A 
BRANCH  14  15
ATOM     15  C   UNL A   1      45.450  25.042  25.868  1.00  0.00     0.031 A 
ATOM     16  C   UNL A   1      44.347  25.838  26.511  1.00  0.00     0.074 A 
ATOM     17  C   UNL A   1      46.674  25.587  25.725  1.00  0.00     0.049 A 
ATOM     18  N   UNL A   1      44.381  27.056  26.993  1.00  0.00    -0.248 NA
ATOM     19  C   UNL A   1      43.032  25.189  26.625  1.00  0.00     0.031 C 
ATOM     20  C   UNL A   1      47.820  24.919  25.107  1.00  0.00     0.029 A 
ATOM     21  N   UNL A   1      47.167  26.808  26.110  1.00  0.00    -0.354 N 
ATOM     22  C   UNL A   1      43.098  27.323  27.451  1.00  0.00     0.074 A 
ATOM     23  C   UNL A   1      42.297  26.152  27.164  1.00  0.00     0.031 C 
ATOM     24  C   UNL A   1      48.897  25.710  25.211  1.00  0.00     0.029 A 
ATOM     25  C   UNL A   1      48.507  26.963  25.850  1.00  0.00     0.049 A 
ATOM     26  H   UNL A   1      46.614  27.504  26.532  1.00  0.00     0.167 HD
ATOM     27  C   UNL A   1      42.634  28.437  28.065  1.00  0.00     0.037 A 
ATOM     28  C   UNL A   1      49.332  27.997  26.098  1.00  0.00     0.037 A 
ATOM     29  C   UNL A   1      43.438  29.595  28.367  1.00  0.00     0.049 A 
ATOM     30  C   UNL A   1      48.792  29.220  26.779  1.00  0.00     0.074 A 
ATOM     31  C   UNL A   1      43.059  30.767  28.998  1.00  0.00     0.029 A 
ATOM     32  N   UNL A   1      44.785  29.724  28.062  1.00  0.00    -0.354 N 
ATOM     33  N   UNL A   1      47.580  29.454  27.216  1.00  0.00    -0.248 NA
ATOM     34  C   UNL A   1      49.736  30.325  27.001  1.00  0.00     0.031 C 
ATOM     35  C   UNL A   1      44.166  31.619  29.044  1.00  0.00     0.029 A 
ATOM     36  C   UNL A   1      45.248  30.960  28.483  1.00  0.00     0.049 A 
ATOM     37  H   UNL A   1      45.331  29.039  27.613  1.00  0.00     0.167 HD
ATOM     38  C   UNL A   1      47.614  30.722  27.775  1.00  0.00     0.074 A 
ATOM     39  C   UNL A   1      48.973  31.203  27.640  1.00  0.00     0.031 C 
ATOM     40  C   UNL A   1      46.606  31.425  28.346  1.00  0.00     0.037 A 
BRANCH  27  41
ATOM     41  C   UNL A   1      41.185  28.471  28.455  1.00  0.00     0.064 A 
ATOM     42  C   UNL A   1      40.223  28.995  27.577  1.00  0.00     0.173 A 
ATOM     43  C   UNL A   1      40.754  28.047  29.721  1.00  0.00     0.173 A 
ATOM     44  F   UNL A   1      40.582  29.422  26.357  1.00  0.00    -0.203 F 
ATOM     45  C   UNL A   1      38.888  29.103  27.957  1.00  0.00     0.198 A 
ATOM     46  C   UNL A   1      39.414  28.132  30.088  1.00  0.00     0.198 A 
ATOM     47  F   UNL A   1      41.632  27.527  30.593  1.00  0.00    -0.203 F 
ATOM     48  F   UNL A   1      37.993  29.633  27.112  1.00  0.00    -0.200 F 
ATOM     49  C   UNL A   1      38.484  28.667  29.210  1.00  0.00     0.200 A 
ATOM     50  F   UNL A   1      39.021  27.690  31.290  1.00  0.00    -0.200 F 
ATOM     51  F   UNL A   1      37.196  28.761  29.570  1.00  0.00    -0.200 F 
ENDBRANCH  27  41
BRANCH  28  52
ATOM     52  C   UNL A   1      50.763  27.888  25.718  1.00  0.00     0.064 A 
ATOM     53  C   UNL A   1      51.177  28.059  24.388  1.00  0.00     0.173 A 
ATOM     54  C   UNL A   1      51.736  27.556  26.669  1.00  0.00     0.173 A 
ATOM     55  F   UNL A   1      50.280  28.371  23.441  1.00  0.00    -0.203 F 
ATOM     56  C   UNL A   1      52.507  27.873  24.021  1.00  0.00     0.198 A 
ATOM     57  C   UNL A   1      53.071  27.397  26.305  1.00  0.00     0.198 A 
ATOM     58  F   UNL A   1      51.390  27.399  27.956  1.00  0.00    -0.203 F 
ATOM     59  F   UNL A   1      52.868  27.999  22.737  1.00  0.00    -0.200 F 
ATOM     60  C   UNL A   1      53.454  27.544  24.980  1.00  0.00     0.200 A 
ATOM     61  F   UNL A   1      53.987  27.098  27.236  1.00  0.00    -0.200 F 
ATOM     62  F   UNL A   1      54.734  27.370  24.626  1.00  0.00    -0.200 F 
ENDBRANCH  28  52
BRANCH  40  63
ATOM     63  C   UNL A   1      46.933  32.784  28.890  1.00  0.00     0.064 A 
ATOM     64  C   UNL A   1      46.774  33.925  28.088  1.00  0.00     0.173 A 
ATOM     65  C   UNL A   1      47.459  32.952  30.179  1.00  0.00     0.173 A 
ATOM     66  F   UNL A   1      46.281  33.816  26.846  1.00  0.00    -0.203 F 
ATOM     67  C   UNL A   1      47.140  35.183  28.556  1.00  0.00     0.198 A 
ATOM     68  C   UNL A   1      47.800  34.215  30.652  1.00  0.00     0.198 A 
ATOM     69  F   UNL A   1      47.617  31.892  30.986  1.00  0.00    -0.203 F 
ATOM     70  F   UNL A   1      47.004  36.256  27.764  1.00  0.00    -0.200 F 
ATOM     71  C   UNL A   1      47.648  35.329  29.838  1.00  0.00     0.200 A 
ATOM     72  F   UNL A   1      48.269  34.358  31.899  1.00  0.00    -0.200 F 
ATOM     73  F   UNL A   1      47.988  36.543  30.292  1.00  0.00    -0.200 F 
ENDBRANCH  40  63
ENDBRANCH  14  15
ENDBRANCH   7   9
ENDBRANCH   4   5
ENDBRANCH   3   4
ENDBRANCH   2   3
ENDBRANCH   1   2
BRANCH   1  74
ATOM     74  C   UNL A   1      39.880  23.435  27.290  1.00  0.00     0.021 C 
BRANCH  74  75
ATOM     75  C   UNL A   1      38.667  23.555  26.367  1.00  0.00     0.116 C 
BRANCH  75  76
ATOM     76  N   UNL A   1      38.401  22.318  25.653  1.00  0.00    -0.352 N 
ATOM     77  C   UNL A   1      37.197  21.761  25.315  1.00  0.00     0.251 C 
ATOM     78  H   UNL A   1      39.197  21.809  25.374  1.00  0.00     0.163 HD
ATOM     79  O   UNL A   1      37.128  20.636  24.833  1.00  0.00    -0.269 OA
BRANCH  77  80
ATOM     80  C   UNL A   1      35.961  22.525  25.551  1.00  0.00     0.042 A 
ATOM     81  C   UNL A   1      35.061  22.119  26.542  1.00  0.00     0.015 A 
ATOM     82  C   UNL A   1      35.702  23.649  24.765  1.00  0.00     0.054 A 
ATOM     83  C   UNL A   1      33.874  22.828  26.722  1.00  0.00     0.024 A 
ATOM     84  C   UNL A   1      34.503  24.334  24.934  1.00  0.00     0.142 A 
ATOM     85  C   UNL A   1      33.596  23.936  25.907  1.00  0.00     0.103 A 
ATOM     86  F   UNL A   1      34.231  25.344  24.102  1.00  0.00    -0.206 F 
BRANCH  85  87
ATOM     87  S   UNL A   1      32.039  24.746  26.095  1.00  0.00     0.186 S 
ATOM     88  O   UNL A   1      31.404  24.081  27.220  1.00  0.00    -0.223 OA
ATOM     89  O   UNL A   1      32.329  26.168  26.185  1.00  0.00    -0.223 OA
BRANCH  87  90
ATOM     90  C   UNL A   1      31.021  24.481  24.662  1.00  0.00     0.188 C 
BRANCH  90  91
ATOM     91  C   UNL A   1      30.510  25.747  24.043  1.00  0.00     0.020 A 
ATOM     92  C   UNL A   1      29.318  26.419  24.245  1.00  0.00     0.016 A 
ATOM     93  S   UNL A   1      31.434  26.493  22.799  1.00  0.00    -0.148 S 
ATOM     94  C   UNL A   1      29.190  27.568  23.408  1.00  0.00     0.012 A 
ATOM     95  C   UNL A   1      30.274  27.723  22.575  1.00  0.00     0.065 A 
ENDBRANCH  90  91
ENDBRANCH  87  90
ENDBRANCH  85  87
ENDBRANCH  77  80
ENDBRANCH  75  76
ENDBRANCH  74  75
ENDBRANCH   1  74
TORSDOF 16
ENDMDL
MODEL 3
REMARK VINA RESULT:     -12.0      1.542      2.704
REMARK SMILES O=C(NCCCCCCNC(=O)c1ccc(S(=O)(=O)Cc2cccs2)c(F)c1)c1ccc(-c2c3nc(c(-c4c(F)c(F)c(F)c(F)c4F)c4ccc([nH]4)c(-c4c(F)c(F)c(F)c(F)c4F)c4nc(c(-c5c(F)c(F)c(F)c(F)c5F)c5ccc2[nH]5)C=C4)C=C3)cc1
REMARK SMILES IDX 7 1 6 2 5 3 4 4 3 5 1 6 2 7 29 9 30 10 91 11 31 12 90 13
REMARK SMILES IDX 32 14 33 15 34 16 84 17 35 18 89 19 83 20 85 21 36 22 88 23
REMARK SMILES IDX 82 24 81 25 37 27 69 28 49 29 68 30 50 31 53 32 67 33 86 34
REMARK SMILES IDX 51 35 52 36 66 38 87 39 54 40 38 41 39 42 47 43 40 44 41 45
REMARK SMILES IDX 45 46 48 47 42 48 43 49 46 50 44 51 70 52 71 53 79 54 72 55
REMARK SMILES IDX 73 56 77 57 80 58 74 59 75 60 78 61 76 62 55 63 56 64 64 65
REMARK SMILES IDX 57 66 58 67 62 68 65 69 59 70 60 71 63 72 61 73 8 74 9 75
REMARK SMILES IDX 10 76 11 77 12 79 13 80 14 81 28 82 15 83 26 84 16 85 27 86
REMARK SMILES IDX 17 87 18 88 19 89 20 90 21 91 22 92 25 93 23 94 24 95
REMARK H PARENT 3 8 85 26 53 37 10 78
REMARK Flexibility Score: inf
ROOT
ATOM      1  C   UNL A   1      33.158  27.830  24.209  1.00  0.00     0.002 C 
ENDROOT
BRANCH   1   2
ATOM      2  C   UNL A   1      33.288  29.278  24.694  1.00  0.00     0.002 C 
BRANCH   2   3
ATOM      3  C   UNL A   1      32.043  29.871  25.353  1.00  0.00     0.021 C 
BRANCH   3   4
ATOM      4  C   UNL A   1      32.232  30.363  26.783  1.00  0.00     0.116 C 
BRANCH   4   5
ATOM      5  N   UNL A   1      32.196  31.812  26.899  1.00  0.00    -0.352 N 
ATOM      6  O   UNL A   1      32.829  33.858  27.611  1.00  0.00    -0.269 OA
ATOM      7  C   UNL A   1      33.091  32.664  27.501  1.00  0.00     0.251 C 
ATOM      8  H   UNL A   1      31.415  32.246  26.486  1.00  0.00     0.163 HD
BRANCH   7   9
ATOM      9  C   UNL A   1      34.360  32.137  28.052  1.00  0.00     0.039 A 
ATOM     10  C   UNL A   1      34.474  30.802  28.441  1.00  0.00     0.014 A 
ATOM     11  C   UNL A   1      35.452  33.001  28.191  1.00  0.00     0.014 A 
ATOM     12  C   UNL A   1      35.610  30.376  29.120  1.00  0.00     0.010 A 
ATOM     13  C   UNL A   1      36.628  32.546  28.795  1.00  0.00     0.010 A 
ATOM     14  C   UNL A   1      36.700  31.243  29.307  1.00  0.00    -0.014 A 
BRANCH  14  15
ATOM     15  C   UNL A   1      37.905  30.749  30.024  1.00  0.00     0.031 A 
ATOM     16  C   UNL A   1      38.160  31.116  31.460  1.00  0.00     0.074 A 
ATOM     17  C   UNL A   1      38.746  29.912  29.386  1.00  0.00     0.049 A 
ATOM     18  N   UNL A   1      39.128  30.725  32.252  1.00  0.00    -0.248 NA
ATOM     19  C   UNL A   1      37.212  32.044  32.093  1.00  0.00     0.031 C 
ATOM     20  C   UNL A   1      38.610  29.492  27.991  1.00  0.00     0.029 A 
ATOM     21  N   UNL A   1      39.858  29.242  29.828  1.00  0.00    -0.354 N 
ATOM     22  C   UNL A   1      38.915  31.368  33.464  1.00  0.00     0.074 A 
ATOM     23  C   UNL A   1      37.742  32.199  33.298  1.00  0.00     0.031 C 
ATOM     24  C   UNL A   1      39.561  28.590  27.709  1.00  0.00     0.029 A 
ATOM     25  C   UNL A   1      40.407  28.410  28.885  1.00  0.00     0.049 A 
ATOM     26  H   UNL A   1      40.226  29.349  30.735  1.00  0.00     0.167 HD
ATOM     27  C   UNL A   1      39.625  31.264  34.612  1.00  0.00     0.037 A 
ATOM     28  C   UNL A   1      41.473  27.591  28.954  1.00  0.00     0.037 A 
ATOM     29  C   UNL A   1      40.782  30.422  34.781  1.00  0.00     0.049 A 
ATOM     30  C   UNL A   1      42.244  27.496  30.238  1.00  0.00     0.074 A 
ATOM     31  C   UNL A   1      41.560  30.241  35.912  1.00  0.00     0.029 A 
ATOM     32  N   UNL A   1      41.324  29.614  33.792  1.00  0.00    -0.354 N 
ATOM     33  N   UNL A   1      42.025  28.102  31.379  1.00  0.00    -0.248 NA
ATOM     34  C   UNL A   1      43.411  26.604  30.245  1.00  0.00     0.031 C 
ATOM     35  C   UNL A   1      42.594  29.353  35.597  1.00  0.00     0.029 A 
ATOM     36  C   UNL A   1      42.432  28.943  34.283  1.00  0.00     0.049 A 
ATOM     37  H   UNL A   1      40.973  29.531  32.876  1.00  0.00     0.167 HD
ATOM     38  C   UNL A   1      43.013  27.658  32.243  1.00  0.00     0.074 A 
ATOM     39  C   UNL A   1      43.825  26.716  31.501  1.00  0.00     0.031 C 
ATOM     40  C   UNL A   1      43.229  28.004  33.535  1.00  0.00     0.037 A 
BRANCH  27  41
ATOM     41  C   UNL A   1      39.181  32.085  35.788  1.00  0.00     0.064 A 
ATOM     42  C   UNL A   1      38.262  31.566  36.713  1.00  0.00     0.173 A 
ATOM     43  C   UNL A   1      39.612  33.408  35.966  1.00  0.00     0.173 A 
ATOM     44  F   UNL A   1      37.812  30.308  36.586  1.00  0.00    -0.203 F 
ATOM     45  C   UNL A   1      37.784  32.344  37.764  1.00  0.00     0.198 A 
ATOM     46  C   UNL A   1      39.153  34.175  37.033  1.00  0.00     0.198 A 
ATOM     47  F   UNL A   1      40.500  33.948  35.116  1.00  0.00    -0.203 F 
ATOM     48  F   UNL A   1      36.885  31.836  38.618  1.00  0.00    -0.200 F 
ATOM     49  C   UNL A   1      38.233  33.646  37.926  1.00  0.00     0.200 A 
ATOM     50  F   UNL A   1      39.604  35.426  37.201  1.00  0.00    -0.200 F 
ATOM     51  F   UNL A   1      37.780  34.391  38.945  1.00  0.00    -0.200 F 
ENDBRANCH  27  41
BRANCH  28  52
ATOM     52  C   UNL A   1      41.842  26.781  27.766  1.00  0.00     0.064 A 
ATOM     53  C   UNL A   1      41.283  25.512  27.549  1.00  0.00     0.173 A 
ATOM     54  C   UNL A   1      42.802  27.237  26.854  1.00  0.00     0.173 A 
ATOM     55  F   UNL A   1      40.365  25.029  28.400  1.00  0.00    -0.203 F 
ATOM     56  C   UNL A   1      41.693  24.719  26.481  1.00  0.00     0.198 A 
ATOM     57  C   UNL A   1      43.192  26.455  25.770  1.00  0.00     0.198 A 
ATOM     58  F   UNL A   1      43.351  28.451  27.011  1.00  0.00    -0.203 F 
ATOM     59  F   UNL A   1      41.177  23.494  26.322  1.00  0.00    -0.200 F 
ATOM     60  C   UNL A   1      42.646  25.192  25.590  1.00  0.00     0.200 A 
ATOM     61  F   UNL A   1      44.098  26.922  24.901  1.00  0.00    -0.200 F 
ATOM     62  F   UNL A   1      43.037  24.431  24.560  1.00  0.00    -0.200 F 
ENDBRANCH  28  52
BRANCH  40  63
ATOM     63  C   UNL A   1      44.377  27.348  34.243  1.00  0.00     0.064 A 
ATOM     64  C   UNL A   1      44.190  26.137  34.927  1.00  0.00     0.173 A 
ATOM     65  C   UNL A   1      45.644  27.947  34.297  1.00  0.00     0.173 A 
ATOM     66  F   UNL A   1      42.995  25.529  34.911  1.00  0.00    -0.203 F 
ATOM     67  C   UNL A   1      45.229  25.554  35.646  1.00  0.00     0.198 A 
ATOM     68  C   UNL A   1      46.688  27.348  34.997  1.00  0.00     0.198 A 
ATOM     69  F   UNL A   1      45.875  29.099  33.649  1.00  0.00    -0.203 F 
ATOM     70  F   UNL A   1      45.021  24.411  36.313  1.00  0.00    -0.200 F 
ATOM     71  C   UNL A   1      46.477  26.156  35.677  1.00  0.00     0.200 A 
ATOM     72  F   UNL A   1      47.900  27.918  35.008  1.00  0.00    -0.200 F 
ATOM     73  F   UNL A   1      47.481  25.588  36.360  1.00  0.00    -0.200 F 
ENDBRANCH  40  63
ENDBRANCH  14  15
ENDBRANCH   7   9
ENDBRANCH   4   5
ENDBRANCH   3   4
ENDBRANCH   2   3
ENDBRANCH   1   2
BRANCH   1  74
ATOM     74  C   UNL A   1      33.493  26.745  25.240  1.00  0.00     0.021 C 
BRANCH  74  75
ATOM     75  C   UNL A   1      32.327  26.294  26.119  1.00  0.00     0.116 C 
BRANCH  75  76
ATOM     76  N   UNL A   1      31.049  26.426  25.440  1.00  0.00    -0.352 N 
ATOM     77  C   UNL A   1      30.382  25.506  24.677  1.00  0.00     0.251 C 
ATOM     78  H   UNL A   1      30.602  27.298  25.542  1.00  0.00     0.163 HD
ATOM     79  O   UNL A   1      29.374  25.810  24.048  1.00  0.00    -0.269 OA
BRANCH  77  80
ATOM     80  C   UNL A   1      30.896  24.129  24.599  1.00  0.00     0.042 A 
ATOM     81  C   UNL A   1      30.807  23.283  25.711  1.00  0.00     0.015 A 
ATOM     82  C   UNL A   1      31.476  23.691  23.409  1.00  0.00     0.054 A 
ATOM     83  C   UNL A   1      31.339  21.996  25.634  1.00  0.00     0.024 A 
ATOM     84  C   UNL A   1      32.027  22.415  23.352  1.00  0.00     0.142 A 
ATOM     85  C   UNL A   1      31.957  21.568  24.449  1.00  0.00     0.103 A 
ATOM     86  F   UNL A   1      32.669  22.054  22.236  1.00  0.00    -0.206 F 
BRANCH  85  87
ATOM     87  S   UNL A   1      32.708  19.970  24.425  1.00  0.00     0.186 S 
ATOM     88  O   UNL A   1      32.178  19.289  25.594  1.00  0.00    -0.223 OA
ATOM     89  O   UNL A   1      32.446  19.419  23.104  1.00  0.00    -0.223 OA
BRANCH  87  90
ATOM     90  C   UNL A   1      34.469  20.106  24.626  1.00  0.00     0.188 C 
BRANCH  90  91
ATOM     91  C   UNL A   1      34.914  21.437  25.153  1.00  0.00     0.020 A 
ATOM     92  C   UNL A   1      34.780  21.985  26.416  1.00  0.00     0.016 A 
ATOM     93  S   UNL A   1      35.612  22.570  24.063  1.00  0.00    -0.148 S 
ATOM     94  C   UNL A   1      35.292  23.315  26.492  1.00  0.00     0.012 A 
ATOM     95  C   UNL A   1      35.775  23.752  25.281  1.00  0.00     0.065 A 
ENDBRANCH  90  91
ENDBRANCH  87  90
ENDBRANCH  85  87
ENDBRANCH  77  80
ENDBRANCH  75  76
ENDBRANCH  74  75
ENDBRANCH   1  74
TORSDOF 16
ENDMDL
