MODEL 1
REMARK VINA RESULT:     -12.4      0.000      0.000
REMARK SMILES Cc1c(NC(=S)NC(=O)CSc2ccc(Cl)cc2)cccc1C(=O)NCCCCCCNC(=O)c1ccc(-c2c3nc(c(-c4c(F)c(F)c(F)c(F)c4F)c4ccc([nH]4)c(-c4c(F)c(F)c(F)c(F)c4F)c4nc(c(-c5c(F)c(F)c(F)c(F)c5F)c5ccc2[nH]5)C=C4)C=C3)cc1
REMARK SMILES IDX 26 1 25 2 23 3 24 4 22 6 1 7 2 8 3 9 19 10 21 11 20 12 4 13
REMARK SMILES IDX 5 15 6 16 7 17 8 18 9 20 10 21 11 22 12 23 13 24 18 25 14 26
REMARK SMILES IDX 17 27 15 28 16 29 27 30 28 31 29 32 30 33 31 34 32 35 33 36
REMARK SMILES IDX 34 38 35 39 36 40 97 41 37 42 96 43 38 44 39 45 40 46 90 47
REMARK SMILES IDX 41 48 95 49 89 50 91 51 42 52 94 53 88 54 87 55 43 57 75 58
REMARK SMILES IDX 55 59 74 60 56 61 59 62 73 63 92 64 57 65 58 66 72 68 93 69
REMARK SMILES IDX 60 70 44 71 45 72 53 73 46 74 47 75 51 76 54 77 48 78 49 79
REMARK SMILES IDX 52 80 50 81 76 82 77 83 85 84 78 85 79 86 83 87 86 88 80 89
REMARK SMILES IDX 81 90 84 91 82 92 61 93 62 94 70 95 63 96 64 97 68 98 71 99
REMARK SMILES IDX 65 100 66 101 69 102 67 103
REMARK H PARENT 25 5 4 14 7 19 32 37 91 56 59 67
REMARK Flexibility Score: inf
ROOT
ATOM      1  C   UNL A   1      30.291  26.280  23.565  1.00  0.00     0.116 C 
ENDROOT
BRANCH   1   2
ATOM      2  N   UNL A   1      30.049  25.823  24.912  1.00  0.00    -0.352 N 
ATOM      3  C   UNL A   1      30.518  24.868  25.770  1.00  0.00     0.251 C 
ATOM      4  O   UNL A   1      29.883  24.856  26.836  1.00  0.00    -0.269 OA
ATOM      5  H   UNL A   1      29.339  26.355  25.338  1.00  0.00     0.163 HD
BRANCH   3   6
ATOM      6  C   UNL A   1      31.685  23.907  25.642  1.00  0.00     0.044 A 
ATOM      7  C   UNL A   1      33.766  25.416  25.637  1.00  0.00     0.047 C 
ATOM      8  C   UNL A   1      33.083  24.089  25.745  1.00  0.00    -0.015 A 
ATOM      9  C   UNL A   1      33.935  22.944  25.847  1.00  0.00     0.044 A 
ATOM     10  C   UNL A   1      33.475  21.698  25.444  1.00  0.00     0.026 A 
ATOM     11  C   UNL A   1      31.250  22.585  25.367  1.00  0.00     0.014 A 
ATOM     12  C   UNL A   1      32.126  21.517  25.195  1.00  0.00     0.003 A 
BRANCH   9  13
ATOM     13  N   UNL A   1      35.244  23.113  26.343  1.00  0.00    -0.332 N 
ATOM     14  H   UNL A   1      35.283  23.123  27.327  1.00  0.00     0.169 HD
BRANCH  13  15
ATOM     15  C   UNL A   1      36.449  23.263  25.772  1.00  0.00     0.177 C 
ATOM     16  S   UNL A   1      36.574  22.847  24.150  1.00  0.00    -0.040 S 
BRANCH  15  17
ATOM     17  N   UNL A   1      37.572  23.755  26.370  1.00  0.00    -0.302 N 
ATOM     18  C   UNL A   1      38.907  23.475  26.611  1.00  0.00     0.236 C 
ATOM     19  H   UNL A   1      37.354  24.625  26.779  1.00  0.00     0.172 HD
ATOM     20  O   UNL A   1      39.585  24.418  27.046  1.00  0.00    -0.274 OA
BRANCH  18  21
ATOM     21  C   UNL A   1      39.576  22.139  26.369  1.00  0.00     0.175 C 
BRANCH  21  22
ATOM     22  S   UNL A   1      40.735  21.619  27.661  1.00  0.00    -0.116 SA
BRANCH  22  23
ATOM     23  C   UNL A   1      42.022  20.982  26.618  1.00  0.00     0.008 A 
ATOM     24  C   UNL A   1      43.013  21.820  26.096  1.00  0.00     0.016 A 
ATOM     25  C   UNL A   1      42.055  19.611  26.352  1.00  0.00     0.016 A 
ATOM     26  C   UNL A   1      44.039  21.282  25.317  1.00  0.00     0.021 A 
ATOM     27  C   UNL A   1      43.079  19.074  25.575  1.00  0.00     0.021 A 
ATOM     28  C   UNL A   1      44.068  19.910  25.061  1.00  0.00     0.041 A 
ATOM     29  Cl  UNL A   1      45.335  19.243  24.109  1.00  0.00    -0.084 Cl
ENDBRANCH  22  23
ENDBRANCH  21  22
ENDBRANCH  18  21
ENDBRANCH  15  17
ENDBRANCH  13  15
ENDBRANCH   9  13
ENDBRANCH   3   6
ENDBRANCH   1   2
BRANCH   1  30
ATOM     30  C   UNL A   1      31.324  27.415  23.544  1.00  0.00     0.021 C 
BRANCH  30  31
ATOM     31  C   UNL A   1      30.858  28.753  24.128  1.00  0.00     0.002 C 
BRANCH  31  32
ATOM     32  C   UNL A   1      31.456  29.156  25.484  1.00  0.00     0.002 C 
BRANCH  32  33
ATOM     33  C   UNL A   1      32.982  29.199  25.567  1.00  0.00     0.021 C 
BRANCH  33  34
ATOM     34  C   UNL A   1      33.532  29.207  26.986  1.00  0.00     0.116 C 
BRANCH  34  35
ATOM     35  N   UNL A   1      33.327  30.469  27.687  1.00  0.00    -0.352 N 
ATOM     36  C   UNL A   1      34.240  31.262  28.349  1.00  0.00     0.251 C 
ATOM     37  H   UNL A   1      32.401  30.803  27.687  1.00  0.00     0.163 HD
ATOM     38  O   UNL A   1      33.867  32.268  28.947  1.00  0.00    -0.269 OA
BRANCH  36  39
ATOM     39  C   UNL A   1      35.686  30.973  28.226  1.00  0.00     0.039 A 
ATOM     40  C   UNL A   1      36.105  29.646  28.372  1.00  0.00     0.014 A 
ATOM     41  C   UNL A   1      36.625  31.999  28.152  1.00  0.00     0.014 A 
ATOM     42  C   UNL A   1      37.437  29.376  28.679  1.00  0.00     0.010 A 
ATOM     43  C   UNL A   1      37.925  31.747  28.542  1.00  0.00     0.010 A 
ATOM     44  C   UNL A   1      38.312  30.444  28.870  1.00  0.00    -0.014 A 
BRANCH  44  45
ATOM     45  C   UNL A   1      39.631  30.303  29.472  1.00  0.00     0.031 A 
ATOM     46  C   UNL A   1      40.407  29.063  29.279  1.00  0.00     0.074 A 
ATOM     47  C   UNL A   1      40.164  31.347  30.146  1.00  0.00     0.049 A 
ATOM     48  N   UNL A   1      41.395  28.699  30.023  1.00  0.00    -0.248 NA
ATOM     49  C   UNL A   1      40.090  28.102  28.231  1.00  0.00     0.031 C 
ATOM     50  C   UNL A   1      41.540  31.501  30.611  1.00  0.00     0.029 A 
ATOM     51  N   UNL A   1      39.470  32.405  30.757  1.00  0.00    -0.354 N 
ATOM     52  C   UNL A   1      41.982  27.598  29.444  1.00  0.00     0.074 A 
ATOM     53  C   UNL A   1      41.111  27.247  28.344  1.00  0.00     0.031 C 
ATOM     54  C   UNL A   1      41.547  32.348  31.653  1.00  0.00     0.029 A 
ATOM     55  C   UNL A   1      40.161  32.644  31.971  1.00  0.00     0.049 A 
ATOM     56  H   UNL A   1      38.677  32.877  30.415  1.00  0.00     0.167 HD
ATOM     57  C   UNL A   1      43.190  27.166  29.908  1.00  0.00     0.037 A 
ATOM     58  C   UNL A   1      39.556  32.407  33.171  1.00  0.00     0.037 A 
ATOM     59  C   UNL A   1      43.607  27.917  31.088  1.00  0.00     0.049 A 
ATOM     60  C   UNL A   1      40.243  31.366  34.030  1.00  0.00     0.074 A 
ATOM     61  C   UNL A   1      44.422  29.017  31.298  1.00  0.00     0.029 A 
ATOM     62  N   UNL A   1      42.904  27.731  32.264  1.00  0.00    -0.354 N 
ATOM     63  N   UNL A   1      41.233  30.618  33.628  1.00  0.00    -0.248 NA
ATOM     64  C   UNL A   1      39.792  31.016  35.378  1.00  0.00     0.031 C 
ATOM     65  C   UNL A   1      44.164  29.516  32.607  1.00  0.00     0.029 A 
ATOM     66  C   UNL A   1      43.203  28.711  33.190  1.00  0.00     0.049 A 
ATOM     67  H   UNL A   1      42.271  26.994  32.420  1.00  0.00     0.167 HD
ATOM     68  C   UNL A   1      41.522  29.696  34.596  1.00  0.00     0.074 A 
ATOM     69  C   UNL A   1      40.593  29.979  35.673  1.00  0.00     0.031 C 
ATOM     70  C   UNL A   1      42.475  28.736  34.444  1.00  0.00     0.037 A 
BRANCH  57  71
ATOM     71  C   UNL A   1      44.089  26.201  29.174  1.00  0.00     0.064 A 
ATOM     72  C   UNL A   1      44.815  26.622  28.038  1.00  0.00     0.173 A 
ATOM     73  C   UNL A   1      44.248  24.844  29.506  1.00  0.00     0.173 A 
ATOM     74  F   UNL A   1      44.838  27.907  27.658  1.00  0.00    -0.203 F 
ATOM     75  C   UNL A   1      45.541  25.734  27.240  1.00  0.00     0.198 A 
ATOM     76  C   UNL A   1      44.922  23.943  28.673  1.00  0.00     0.198 A 
ATOM     77  F   UNL A   1      43.809  24.356  30.672  1.00  0.00    -0.203 F 
ATOM     78  F   UNL A   1      46.209  26.194  26.172  1.00  0.00    -0.200 F 
ATOM     79  C   UNL A   1      45.560  24.387  27.534  1.00  0.00     0.200 A 
ATOM     80  F   UNL A   1      44.949  22.640  28.989  1.00  0.00    -0.200 F 
ATOM     81  F   UNL A   1      46.212  23.527  26.741  1.00  0.00    -0.200 F 
ENDBRANCH  57  71
BRANCH  58  82
ATOM     82  C   UNL A   1      38.085  32.631  33.129  1.00  0.00     0.064 A 
ATOM     83  C   UNL A   1      37.600  33.946  33.283  1.00  0.00     0.173 A 
ATOM     84  C   UNL A   1      37.214  31.681  32.586  1.00  0.00     0.173 A 
ATOM     85  F   UNL A   1      38.393  34.897  33.804  1.00  0.00    -0.203 F 
ATOM     86  C   UNL A   1      36.355  34.320  32.785  1.00  0.00     0.198 A 
ATOM     87  C   UNL A   1      35.955  32.056  32.114  1.00  0.00     0.198 A 
ATOM     88  F   UNL A   1      37.617  30.416  32.400  1.00  0.00    -0.203 F 
ATOM     89  F   UNL A   1      35.979  35.607  32.824  1.00  0.00    -0.200 F 
ATOM     90  C   UNL A   1      35.545  33.379  32.177  1.00  0.00     0.200 A 
ATOM     91  F   UNL A   1      35.179  31.147  31.507  1.00  0.00    -0.200 F 
ATOM     92  F   UNL A   1      34.388  33.752  31.613  1.00  0.00    -0.200 F 
ENDBRANCH  58  82
BRANCH  70  93
ATOM     93  C   UNL A   1      42.792  27.739  35.510  1.00  0.00     0.064 A 
ATOM     94  C   UNL A   1      43.847  27.936  36.413  1.00  0.00     0.173 A 
ATOM     95  C   UNL A   1      42.120  26.505  35.577  1.00  0.00     0.173 A 
ATOM     96  F   UNL A   1      44.560  29.072  36.394  1.00  0.00    -0.203 F 
ATOM     97  C   UNL A   1      44.192  26.961  37.349  1.00  0.00     0.198 A 
ATOM     98  C   UNL A   1      42.497  25.515  36.481  1.00  0.00     0.198 A 
ATOM     99  F   UNL A   1      41.071  26.243  34.782  1.00  0.00    -0.203 F 
ATOM    100  F   UNL A   1      45.176  27.200  38.226  1.00  0.00    -0.200 F 
ATOM    101  C   UNL A   1      43.526  25.747  37.372  1.00  0.00     0.200 A 
ATOM    102  F   UNL A   1      41.854  24.338  36.484  1.00  0.00    -0.200 F 
ATOM    103  F   UNL A   1      43.874  24.803  38.257  1.00  0.00    -0.200 F 
ENDBRANCH  70  93
ENDBRANCH  44  45
ENDBRANCH  36  39
ENDBRANCH  34  35
ENDBRANCH  33  34
ENDBRANCH  32  33
ENDBRANCH  31  32
ENDBRANCH  30  31
ENDBRANCH   1  30
TORSDOF 19
ENDMDL
MODEL 2
REMARK VINA RESULT:     -11.8      2.876      4.425
REMARK SMILES Cc1c(NC(=S)NC(=O)CSc2ccc(Cl)cc2)cccc1C(=O)NCCCCCCNC(=O)c1ccc(-c2c3nc(c(-c4c(F)c(F)c(F)c(F)c4F)c4ccc([nH]4)c(-c4c(F)c(F)c(F)c(F)c4F)c4nc(c(-c5c(F)c(F)c(F)c(F)c5F)c5ccc2[nH]5)C=C4)C=C3)cc1
REMARK SMILES IDX 26 1 25 2 23 3 24 4 22 6 1 7 2 8 3 9 19 10 21 11 20 12 4 13
REMARK SMILES IDX 5 15 6 16 7 17 8 18 9 20 10 21 11 22 12 23 13 24 18 25 14 26
REMARK SMILES IDX 17 27 15 28 16 29 27 30 28 31 29 32 30 33 31 34 32 35 33 36
REMARK SMILES IDX 34 38 35 39 36 40 97 41 37 42 96 43 38 44 39 45 40 46 90 47
REMARK SMILES IDX 41 48 95 49 89 50 91 51 42 52 94 53 88 54 87 55 43 57 75 58
REMARK SMILES IDX 55 59 74 60 56 61 59 62 73 63 92 64 57 65 58 66 72 68 93 69
REMARK SMILES IDX 60 70 44 71 45 72 53 73 46 74 47 75 51 76 54 77 48 78 49 79
REMARK SMILES IDX 52 80 50 81 76 82 77 83 85 84 78 85 79 86 83 87 86 88 80 89
REMARK SMILES IDX 81 90 84 91 82 92 61 93 62 94 70 95 63 96 64 97 68 98 71 99
REMARK SMILES IDX 65 100 66 101 69 102 67 103
REMARK H PARENT 25 5 4 14 7 19 32 37 91 56 59 67
REMARK Flexibility Score: inf
ROOT
ATOM      1  C   UNL A   1      34.242  28.594  26.616  1.00  0.00     0.116 C 
ENDROOT
BRANCH   1   2
ATOM      2  N   UNL A   1      33.980  29.076  25.280  1.00  0.00    -0.352 N 
ATOM      3  C   UNL A   1      33.308  28.675  24.160  1.00  0.00     0.251 C 
ATOM      4  O   UNL A   1      33.473  29.466  23.218  1.00  0.00    -0.269 OA
ATOM      5  H   UNL A   1      34.412  29.948  25.134  1.00  0.00     0.163 HD
BRANCH   3   6
ATOM      6  C   UNL A   1      32.383  27.495  23.927  1.00  0.00     0.044 A 
ATOM      7  C   UNL A   1      33.108  26.547  21.650  1.00  0.00     0.047 C 
ATOM      8  C   UNL A   1      32.374  26.471  22.952  1.00  0.00    -0.015 A 
ATOM      9  C   UNL A   1      31.533  25.330  23.141  1.00  0.00     0.044 A 
ATOM     10  C   UNL A   1      30.458  25.395  24.016  1.00  0.00     0.026 A 
ATOM     11  C   UNL A   1      31.344  27.444  24.891  1.00  0.00     0.014 A 
ATOM     12  C   UNL A   1      30.356  26.461  24.892  1.00  0.00     0.003 A 
BRANCH   9  13
ATOM     13  N   UNL A   1      31.807  24.155  22.409  1.00  0.00    -0.332 N 
ATOM     14  H   UNL A   1      31.224  24.049  21.623  1.00  0.00     0.169 HD
BRANCH  13  15
ATOM     15  C   UNL A   1      32.687  23.152  22.546  1.00  0.00     0.177 C 
ATOM     16  S   UNL A   1      32.061  21.594  22.559  1.00  0.00    -0.040 S 
BRANCH  15  17
ATOM     17  N   UNL A   1      34.042  23.272  22.638  1.00  0.00    -0.302 N 
ATOM     18  C   UNL A   1      35.144  22.827  23.352  1.00  0.00     0.236 C 
ATOM     19  H   UNL A   1      34.350  23.903  21.947  1.00  0.00     0.172 HD
ATOM     20  O   UNL A   1      36.249  23.096  22.858  1.00  0.00    -0.274 OA
BRANCH  18  21
ATOM     21  C   UNL A   1      35.087  22.044  24.646  1.00  0.00     0.175 C 
BRANCH  21  22
ATOM     22  S   UNL A   1      36.329  20.734  24.803  1.00  0.00    -0.116 SA
BRANCH  22  23
ATOM     23  C   UNL A   1      35.234  19.340  24.877  1.00  0.00     0.008 A 
ATOM     24  C   UNL A   1      33.848  19.512  24.961  1.00  0.00     0.016 A 
ATOM     25  C   UNL A   1      35.777  18.054  24.811  1.00  0.00     0.016 A 
ATOM     26  C   UNL A   1      33.009  18.395  24.971  1.00  0.00     0.021 A 
ATOM     27  C   UNL A   1      34.939  16.941  24.820  1.00  0.00     0.021 A 
ATOM     28  C   UNL A   1      33.559  17.115  24.899  1.00  0.00     0.041 A 
ATOM     29  Cl  UNL A   1      32.528  15.738  24.902  1.00  0.00    -0.084 Cl
ENDBRANCH  22  23
ENDBRANCH  21  22
ENDBRANCH  18  21
ENDBRANCH  15  17
ENDBRANCH  13  15
ENDBRANCH   9  13
ENDBRANCH   3   6
ENDBRANCH   1   2
BRANCH   1  30
ATOM     30  C   UNL A   1      34.433  29.759  27.596  1.00  0.00     0.021 C 
BRANCH  30  31
ATOM     31  C   UNL A   1      33.978  31.135  27.097  1.00  0.00     0.002 C 
BRANCH  31  32
ATOM     32  C   UNL A   1      33.243  32.025  28.110  1.00  0.00     0.002 C 
BRANCH  32  33
ATOM     33  C   UNL A   1      33.411  33.535  27.932  1.00  0.00     0.021 C 
BRANCH  33  34
ATOM     34  C   UNL A   1      34.445  34.163  28.857  1.00  0.00     0.116 C 
BRANCH  34  35
ATOM     35  N   UNL A   1      34.265  33.811  30.260  1.00  0.00    -0.352 N 
ATOM     36  C   UNL A   1      34.772  32.742  30.968  1.00  0.00     0.251 C 
ATOM     37  H   UNL A   1      33.698  34.427  30.778  1.00  0.00     0.163 HD
ATOM     38  O   UNL A   1      34.452  32.568  32.140  1.00  0.00    -0.269 OA
BRANCH  36  39
ATOM     39  C   UNL A   1      35.806  31.880  30.351  1.00  0.00     0.039 A 
ATOM     40  C   UNL A   1      36.010  30.607  30.895  1.00  0.00     0.014 A 
ATOM     41  C   UNL A   1      36.677  32.376  29.384  1.00  0.00     0.014 A 
ATOM     42  C   UNL A   1      37.205  29.938  30.647  1.00  0.00     0.010 A 
ATOM     43  C   UNL A   1      37.900  31.760  29.205  1.00  0.00     0.010 A 
ATOM     44  C   UNL A   1      38.187  30.575  29.890  1.00  0.00    -0.014 A 
BRANCH  44  45
ATOM     45  C   UNL A   1      39.566  30.111  29.809  1.00  0.00     0.031 A 
ATOM     46  C   UNL A   1      39.872  28.786  29.238  1.00  0.00     0.074 A 
ATOM     47  C   UNL A   1      40.564  30.937  30.196  1.00  0.00     0.049 A 
ATOM     48  N   UNL A   1      40.976  28.147  29.429  1.00  0.00    -0.248 NA
ATOM     49  C   UNL A   1      38.914  28.051  28.422  1.00  0.00     0.031 C 
ATOM     50  C   UNL A   1      41.998  30.768  29.979  1.00  0.00     0.029 A 
ATOM     51  N   UNL A   1      40.473  32.014  31.094  1.00  0.00    -0.354 N 
ATOM     52  C   UNL A   1      40.977  27.045  28.606  1.00  0.00     0.074 A 
ATOM     53  C   UNL A   1      39.656  27.013  28.022  1.00  0.00     0.031 C 
ATOM     54  C   UNL A   1      42.658  31.451  30.928  1.00  0.00     0.029 A 
ATOM     55  C   UNL A   1      41.664  31.955  31.860  1.00  0.00     0.049 A 
ATOM     56  H   UNL A   1      39.741  32.667  31.174  1.00  0.00     0.167 HD
ATOM     57  C   UNL A   1      42.132  26.336  28.445  1.00  0.00     0.037 A 
ATOM     58  C   UNL A   1      41.618  31.675  33.195  1.00  0.00     0.037 A 
ATOM     59  C   UNL A   1      43.188  26.831  29.325  1.00  0.00     0.049 A 
ATOM     60  C   UNL A   1      42.358  30.418  33.603  1.00  0.00     0.074 A 
ATOM     61  C   UNL A   1      44.237  27.721  29.172  1.00  0.00     0.029 A 
ATOM     62  N   UNL A   1      43.057  26.622  30.685  1.00  0.00    -0.354 N 
ATOM     63  N   UNL A   1      42.868  29.560  32.764  1.00  0.00    -0.248 NA
ATOM     64  C   UNL A   1      42.484  29.980  34.994  1.00  0.00     0.031 C 
ATOM     65  C   UNL A   1      44.707  28.078  30.469  1.00  0.00     0.029 A 
ATOM     66  C   UNL A   1      43.948  27.395  31.401  1.00  0.00     0.049 A 
ATOM     67  H   UNL A   1      42.409  26.003  31.091  1.00  0.00     0.167 HD
ATOM     68  C   UNL A   1      43.338  28.478  33.458  1.00  0.00     0.074 A 
ATOM     69  C   UNL A   1      43.073  28.782  34.851  1.00  0.00     0.031 C 
ATOM     70  C   UNL A   1      43.879  27.387  32.850  1.00  0.00     0.037 A 
BRANCH  57  71
ATOM     71  C   UNL A   1      42.368  25.329  27.347  1.00  0.00     0.064 A 
ATOM     72  C   UNL A   1      41.701  24.084  27.362  1.00  0.00     0.173 A 
ATOM     73  C   UNL A   1      43.266  25.503  26.279  1.00  0.00     0.173 A 
ATOM     74  F   UNL A   1      40.747  23.812  28.263  1.00  0.00    -0.203 F 
ATOM     75  C   UNL A   1      41.997  23.063  26.455  1.00  0.00     0.198 A 
ATOM     76  C   UNL A   1      43.608  24.462  25.409  1.00  0.00     0.198 A 
ATOM     77  F   UNL A   1      43.798  26.701  26.005  1.00  0.00    -0.203 F 
ATOM     78  F   UNL A   1      41.330  21.902  26.520  1.00  0.00    -0.200 F 
ATOM     79  C   UNL A   1      42.980  23.237  25.504  1.00  0.00     0.200 A 
ATOM     80  F   UNL A   1      44.550  24.658  24.476  1.00  0.00    -0.200 F 
ATOM     81  F   UNL A   1      43.300  22.242  24.667  1.00  0.00    -0.200 F 
ENDBRANCH  57  71
BRANCH  58  82
ATOM     82  C   UNL A   1      40.374  32.173  33.845  1.00  0.00     0.064 A 
ATOM     83  C   UNL A   1      40.317  33.524  34.242  1.00  0.00     0.173 A 
ATOM     84  C   UNL A   1      39.164  31.479  33.740  1.00  0.00     0.173 A 
ATOM     85  F   UNL A   1      41.450  34.236  34.363  1.00  0.00    -0.203 F 
ATOM     86  C   UNL A   1      39.100  34.184  34.387  1.00  0.00     0.198 A 
ATOM     87  C   UNL A   1      37.947  32.138  33.915  1.00  0.00     0.198 A 
ATOM     88  F   UNL A   1      39.146  30.195  33.354  1.00  0.00    -0.203 F 
ATOM     89  F   UNL A   1      39.080  35.503  34.630  1.00  0.00    -0.200 F 
ATOM     90  C   UNL A   1      37.915  33.496  34.197  1.00  0.00     0.200 A 
ATOM     91  F   UNL A   1      36.800  31.475  33.711  1.00  0.00    -0.200 F 
ATOM     92  F   UNL A   1      36.746  34.147  34.242  1.00  0.00    -0.200 F 
ENDBRANCH  58  82
BRANCH  70  93
ATOM     93  C   UNL A   1      44.399  26.215  33.614  1.00  0.00     0.064 A 
ATOM     94  C   UNL A   1      45.753  25.850  33.573  1.00  0.00     0.173 A 
ATOM     95  C   UNL A   1      43.530  25.356  34.313  1.00  0.00     0.173 A 
ATOM     96  F   UNL A   1      46.641  26.596  32.901  1.00  0.00    -0.203 F 
ATOM     97  C   UNL A   1      46.215  24.703  34.219  1.00  0.00     0.198 A 
ATOM     98  C   UNL A   1      43.987  24.187  34.917  1.00  0.00     0.198 A 
ATOM     99  F   UNL A   1      42.226  25.645  34.442  1.00  0.00    -0.203 F 
ATOM    100  F   UNL A   1      47.521  24.408  34.197  1.00  0.00    -0.200 F 
ATOM    101  C   UNL A   1      45.329  23.865  34.877  1.00  0.00     0.200 A 
ATOM    102  F   UNL A   1      43.117  23.378  35.539  1.00  0.00    -0.200 F 
ATOM    103  F   UNL A   1      45.772  22.753  35.478  1.00  0.00    -0.200 F 
ENDBRANCH  70  93
ENDBRANCH  44  45
ENDBRANCH  36  39
ENDBRANCH  34  35
ENDBRANCH  33  34
ENDBRANCH  32  33
ENDBRANCH  31  32
ENDBRANCH  30  31
ENDBRANCH   1  30
TORSDOF 19
ENDMDL
MODEL 3
REMARK VINA RESULT:     -11.6      2.409      3.562
REMARK SMILES Cc1c(NC(=S)NC(=O)CSc2ccc(Cl)cc2)cccc1C(=O)NCCCCCCNC(=O)c1ccc(-c2c3nc(c(-c4c(F)c(F)c(F)c(F)c4F)c4ccc([nH]4)c(-c4c(F)c(F)c(F)c(F)c4F)c4nc(c(-c5c(F)c(F)c(F)c(F)c5F)c5ccc2[nH]5)C=C4)C=C3)cc1
REMARK SMILES IDX 26 1 25 2 23 3 24 4 22 6 1 7 2 8 3 9 19 10 21 11 20 12 4 13
REMARK SMILES IDX 5 15 6 16 7 17 8 18 9 20 10 21 11 22 12 23 13 24 18 25 14 26
REMARK SMILES IDX 17 27 15 28 16 29 27 30 28 31 29 32 30 33 31 34 32 35 33 36
REMARK SMILES IDX 34 38 35 39 36 40 97 41 37 42 96 43 38 44 39 45 40 46 90 47
REMARK SMILES IDX 41 48 95 49 89 50 91 51 42 52 94 53 88 54 87 55 43 57 75 58
REMARK SMILES IDX 55 59 74 60 56 61 59 62 73 63 92 64 57 65 58 66 72 68 93 69
REMARK SMILES IDX 60 70 44 71 45 72 53 73 46 74 47 75 51 76 54 77 48 78 49 79
REMARK SMILES IDX 52 80 50 81 76 82 77 83 85 84 78 85 79 86 83 87 86 88 80 89
REMARK SMILES IDX 81 90 84 91 82 92 61 93 62 94 70 95 63 96 64 97 68 98 71 99
REMARK SMILES IDX 65 100 66 101 69 102 67 103
REMARK H PARENT 25 5 4 14 7 19 32 37 91 56 59 67
REMARK Flexibility Score: inf
ROOT
ATOM      1  C   UNL A   1      34.187  28.399  26.564  1.00  0.00     0.116 C 
ENDROOT
BRANCH   1   2
ATOM      2  N   UNL A   1      33.913  28.889  25.233  1.00  0.00    -0.352 N 
ATOM      3  C   UNL A   1      33.230  28.495  24.117  1.00  0.00     0.251 C 
ATOM      4  O   UNL A   1      33.386  29.291  23.179  1.00  0.00    -0.269 OA
ATOM      5  H   UNL A   1      34.344  29.762  25.089  1.00  0.00     0.163 HD
BRANCH   3   6
ATOM      6  C   UNL A   1      32.303  27.316  23.886  1.00  0.00     0.044 A 
ATOM      7  C   UNL A   1      33.121  26.276  21.682  1.00  0.00     0.047 C 
ATOM      8  C   UNL A   1      32.327  26.256  22.951  1.00  0.00    -0.015 A 
ATOM      9  C   UNL A   1      31.465  25.131  23.143  1.00  0.00     0.044 A 
ATOM     10  C   UNL A   1      30.352  25.240  23.964  1.00  0.00     0.026 A 
ATOM     11  C   UNL A   1      31.220  27.312  24.802  1.00  0.00     0.014 A 
ATOM     12  C   UNL A   1      30.223  26.340  24.794  1.00  0.00     0.003 A 
BRANCH   9  13
ATOM     13  N   UNL A   1      31.760  23.927  22.469  1.00  0.00    -0.332 N 
ATOM     14  H   UNL A   1      31.140  23.742  21.727  1.00  0.00     0.169 HD
BRANCH  13  15
ATOM     15  C   UNL A   1      32.696  22.978  22.615  1.00  0.00     0.177 C 
ATOM     16  S   UNL A   1      32.152  21.409  22.858  1.00  0.00    -0.040 S 
BRANCH  15  17
ATOM     17  N   UNL A   1      34.047  23.158  22.549  1.00  0.00    -0.302 N 
ATOM     18  C   UNL A   1      35.211  23.059  23.294  1.00  0.00     0.236 C 
ATOM     19  H   UNL A   1      34.278  23.472  21.644  1.00  0.00     0.172 HD
ATOM     20  O   UNL A   1      36.269  23.139  22.651  1.00  0.00    -0.274 OA
BRANCH  18  21
ATOM     21  C   UNL A   1      35.275  22.850  24.791  1.00  0.00     0.175 C 
BRANCH  21  22
ATOM     22  S   UNL A   1      36.461  23.906  25.662  1.00  0.00    -0.116 SA
BRANCH  22  23
ATOM     23  C   UNL A   1      37.768  22.722  25.864  1.00  0.00     0.008 A 
ATOM     24  C   UNL A   1      37.661  21.429  25.342  1.00  0.00     0.016 A 
ATOM     25  C   UNL A   1      38.934  23.115  26.526  1.00  0.00     0.016 A 
ATOM     26  C   UNL A   1      38.725  20.535  25.478  1.00  0.00     0.021 A 
ATOM     27  C   UNL A   1      39.996  22.223  26.660  1.00  0.00     0.021 A 
ATOM     28  C   UNL A   1      39.888  20.937  26.135  1.00  0.00     0.041 A 
ATOM     29  Cl  UNL A   1      41.204  19.841  26.295  1.00  0.00    -0.084 Cl
ENDBRANCH  22  23
ENDBRANCH  21  22
ENDBRANCH  18  21
ENDBRANCH  15  17
ENDBRANCH  13  15
ENDBRANCH   9  13
ENDBRANCH   3   6
ENDBRANCH   1   2
BRANCH   1  30
ATOM     30  C   UNL A   1      34.485  29.555  27.528  1.00  0.00     0.021 C 
BRANCH  30  31
ATOM     31  C   UNL A   1      34.099  30.954  27.035  1.00  0.00     0.002 C 
BRANCH  31  32
ATOM     32  C   UNL A   1      33.385  31.866  28.044  1.00  0.00     0.002 C 
BRANCH  32  33
ATOM     33  C   UNL A   1      33.615  33.369  27.879  1.00  0.00     0.021 C 
BRANCH  33  34
ATOM     34  C   UNL A   1      34.582  33.969  28.891  1.00  0.00     0.116 C 
BRANCH  34  35
ATOM     35  N   UNL A   1      34.316  33.564  30.266  1.00  0.00    -0.352 N 
ATOM     36  C   UNL A   1      34.865  32.532  30.998  1.00  0.00     0.251 C 
ATOM     37  H   UNL A   1      33.646  34.106  30.741  1.00  0.00     0.163 HD
ATOM     38  O   UNL A   1      34.463  32.296  32.133  1.00  0.00    -0.269 OA
BRANCH  36  39
ATOM     39  C   UNL A   1      36.033  31.796  30.462  1.00  0.00     0.039 A 
ATOM     40  C   UNL A   1      36.268  30.501  30.940  1.00  0.00     0.014 A 
ATOM     41  C   UNL A   1      36.974  32.425  29.651  1.00  0.00     0.014 A 
ATOM     42  C   UNL A   1      37.535  29.939  30.802  1.00  0.00     0.010 A 
ATOM     43  C   UNL A   1      38.255  31.911  29.589  1.00  0.00     0.010 A 
ATOM     44  C   UNL A   1      38.549  30.700  30.223  1.00  0.00    -0.014 A 
BRANCH  44  45
ATOM     45  C   UNL A   1      39.959  30.342  30.288  1.00  0.00     0.031 A 
ATOM     46  C   UNL A   1      40.447  29.118  29.623  1.00  0.00     0.074 A 
ATOM     47  C   UNL A   1      40.824  31.179  30.904  1.00  0.00     0.049 A 
ATOM     48  N   UNL A   1      41.564  28.536  29.897  1.00  0.00    -0.248 NA
ATOM     49  C   UNL A   1      39.671  28.426  28.602  1.00  0.00     0.031 C 
ATOM     50  C   UNL A   1      42.284  31.132  30.875  1.00  0.00     0.029 A 
ATOM     51  N   UNL A   1      40.526  32.129  31.894  1.00  0.00    -0.354 N 
ATOM     52  C   UNL A   1      41.767  27.544  28.966  1.00  0.00     0.074 A 
ATOM     53  C   UNL A   1      40.543  27.497  28.198  1.00  0.00     0.031 C 
ATOM     54  C   UNL A   1      42.752  31.737  31.979  1.00  0.00     0.029 A 
ATOM     55  C   UNL A   1      41.605  32.056  32.810  1.00  0.00     0.049 A 
ATOM     56  H   UNL A   1      39.739  32.719  31.940  1.00  0.00     0.167 HD
ATOM     57  C   UNL A   1      42.987  26.939  28.893  1.00  0.00     0.037 A 
ATOM     58  C   UNL A   1      41.403  31.614  34.085  1.00  0.00     0.037 A 
ATOM     59  C   UNL A   1      43.871  27.391  29.964  1.00  0.00     0.049 A 
ATOM     60  C   UNL A   1      42.183  30.368  34.452  1.00  0.00     0.074 A 
ATOM     61  C   UNL A   1      44.855  28.361  30.062  1.00  0.00     0.029 A 
ATOM     62  N   UNL A   1      43.577  27.011  31.259  1.00  0.00    -0.354 N 
ATOM     63  N   UNL A   1      42.870  29.654  33.604  1.00  0.00    -0.248 NA
ATOM     64  C   UNL A   1      42.157  29.774  35.790  1.00  0.00     0.031 C 
ATOM     65  C   UNL A   1      45.115  28.588  31.444  1.00  0.00     0.029 A 
ATOM     66  C   UNL A   1      44.298  27.748  32.177  1.00  0.00     0.049 A 
ATOM     67  H   UNL A   1      42.934  26.305  31.497  1.00  0.00     0.167 HD
ATOM     68  C   UNL A   1      43.330  28.530  34.233  1.00  0.00     0.074 A 
ATOM     69  C   UNL A   1      42.857  28.644  35.599  1.00  0.00     0.031 C 
ATOM     70  C   UNL A   1      44.035  27.559  33.591  1.00  0.00     0.037 A 
BRANCH  57  71
ATOM     71  C   UNL A   1      43.450  26.090  27.734  1.00  0.00     0.064 A 
ATOM     72  C   UNL A   1      44.280  26.639  26.732  1.00  0.00     0.173 A 
ATOM     73  C   UNL A   1      43.081  24.750  27.525  1.00  0.00     0.173 A 
ATOM     74  F   UNL A   1      44.791  27.873  26.844  1.00  0.00    -0.203 F 
ATOM     75  C   UNL A   1      44.612  25.942  25.567  1.00  0.00     0.198 A 
ATOM     76  C   UNL A   1      43.359  24.073  26.332  1.00  0.00     0.198 A 
ATOM     77  F   UNL A   1      42.490  24.032  28.488  1.00  0.00    -0.203 F 
ATOM     78  F   UNL A   1      45.404  26.517  24.651  1.00  0.00    -0.200 F 
ATOM     79  C   UNL A   1      44.117  24.673  25.348  1.00  0.00     0.200 A 
ATOM     80  F   UNL A   1      42.888  22.831  26.148  1.00  0.00    -0.200 F 
ATOM     81  F   UNL A   1      44.391  24.024  24.210  1.00  0.00    -0.200 F 
ENDBRANCH  57  71
BRANCH  58  82
ATOM     82  C   UNL A   1      40.047  31.946  34.602  1.00  0.00     0.064 A 
ATOM     83  C   UNL A   1      39.837  33.217  35.174  1.00  0.00     0.173 A 
ATOM     84  C   UNL A   1      38.917  31.217  34.216  1.00  0.00     0.173 A 
ATOM     85  F   UNL A   1      40.887  33.958  35.566  1.00  0.00    -0.203 F 
ATOM     86  C   UNL A   1      38.568  33.787  35.225  1.00  0.00     0.198 A 
ATOM     87  C   UNL A   1      37.644  31.781  34.296  1.00  0.00     0.198 A 
ATOM     88  F   UNL A   1      39.046  30.006  33.654  1.00  0.00    -0.203 F 
ATOM     89  F   UNL A   1      38.419  35.051  35.647  1.00  0.00    -0.200 F 
ATOM     90  C   UNL A   1      37.475  33.077  34.760  1.00  0.00     0.200 A 
ATOM     91  F   UNL A   1      36.587  31.100  33.828  1.00  0.00    -0.200 F 
ATOM     92  F   UNL A   1      36.267  33.655  34.719  1.00  0.00    -0.200 F 
ENDBRANCH  58  82
BRANCH  70  93
ATOM     93  C   UNL A   1      44.544  26.339  34.287  1.00  0.00     0.064 A 
ATOM     94  C   UNL A   1      43.683  25.306  34.686  1.00  0.00     0.173 A 
ATOM     95  C   UNL A   1      45.891  26.230  34.677  1.00  0.00     0.173 A 
ATOM     96  F   UNL A   1      42.377  25.349  34.383  1.00  0.00    -0.203 F 
ATOM     97  C   UNL A   1      44.152  24.211  35.413  1.00  0.00     0.198 A 
ATOM     98  C   UNL A   1      46.347  25.160  35.442  1.00  0.00     0.198 A 
ATOM     99  F   UNL A   1      46.797  27.148  34.305  1.00  0.00    -0.203 F 
ATOM    100  F   UNL A   1      43.311  23.221  35.739  1.00  0.00    -0.200 F 
ATOM    101  C   UNL A   1      45.479  24.147  35.802  1.00  0.00     0.200 A 
ATOM    102  F   UNL A   1      47.631  25.116  35.825  1.00  0.00    -0.200 F 
ATOM    103  F   UNL A   1      45.922  23.105  36.519  1.00  0.00    -0.200 F 
ENDBRANCH  70  93
ENDBRANCH  44  45
ENDBRANCH  36  39
ENDBRANCH  34  35
ENDBRANCH  33  34
ENDBRANCH  32  33
ENDBRANCH  31  32
ENDBRANCH  30  31
ENDBRANCH   1  30
TORSDOF 19
ENDMDL
