MODEL 1
REMARK VINA RESULT:     -10.1      0.000      0.000
REMARK SMILES Nc1c(CC(=O)NCCCCCCNC(=O)c2ccc(-c3c4nc(c(-c5c(F)c(F)c(F)c(F)c5F)c5ccc([nH]5)c(-c5c(F)c(F)c(F)c(F)c5F)c5nc(c(-c6c(F)c(F)c(F)c(F)c6F)c6ccc3[nH]6)C=C5)C=C4)cc2)cccc1C(=O)c1ccc(Br)cc1
REMARK SMILES IDX 10 1 9 2 8 3 7 4 5 5 6 6 4 8 3 9 2 10 83 11 80 12 82 13
REMARK SMILES IDX 81 14 1 15 84 18 85 19 86 20 87 21 92 22 88 23 91 24 89 25
REMARK SMILES IDX 90 26 11 27 12 28 13 29 14 30 15 31 16 33 17 34 18 35 79 36
REMARK SMILES IDX 19 37 78 38 20 39 21 40 22 41 72 42 23 43 77 44 71 45 73 46
REMARK SMILES IDX 24 47 76 48 70 49 69 50 25 52 57 53 37 54 56 55 38 56 41 57
REMARK SMILES IDX 55 58 74 59 39 60 40 61 54 63 75 64 42 65 26 66 27 67 35 68
REMARK SMILES IDX 28 69 29 70 33 71 36 72 30 73 31 74 34 75 32 76 58 77 59 78
REMARK SMILES IDX 67 79 60 80 61 81 65 82 68 83 62 84 63 85 66 86 64 87 43 88
REMARK SMILES IDX 44 89 52 90 45 91 46 92 50 93 53 94 47 95 48 96 51 97 49 98
REMARK H PARENT 7 7 1 16 1 17 14 32 73 51 41 62
REMARK Flexibility Score: inf
ROOT
ATOM      1  C   UNL A   1      42.095  19.722  26.152  1.00  0.00     0.002 C 
ENDROOT
BRANCH   1   2
ATOM      2  C   UNL A   1      42.897  18.415  26.092  1.00  0.00     0.021 C 
BRANCH   2   3
ATOM      3  C   UNL A   1      44.298  18.596  25.507  1.00  0.00     0.116 C 
BRANCH   3   4
ATOM      4  N   UNL A   1      44.279  19.499  24.376  1.00  0.00    -0.356 N 
ATOM      5  C   UNL A   1      44.774  20.767  24.280  1.00  0.00     0.224 C 
ATOM      6  O   UNL A   1      44.535  21.408  23.254  1.00  0.00    -0.275 OA
ATOM      7  H   UNL A   1      43.850  19.150  23.563  1.00  0.00     0.163 HD
BRANCH   5   8
ATOM      8  C   UNL A   1      45.665  21.337  25.372  1.00  0.00     0.137 C 
BRANCH   8   9
ATOM      9  C   UNL A   1      45.191  22.648  25.977  1.00  0.00    -0.015 A 
ATOM     10  C   UNL A   1      45.498  23.916  25.406  1.00  0.00     0.046 A 
ATOM     11  C   UNL A   1      45.082  25.091  26.086  1.00  0.00     0.046 A 
ATOM     12  C   UNL A   1      44.453  22.575  27.173  1.00  0.00     0.006 A 
ATOM     13  C   UNL A   1      44.357  24.971  27.289  1.00  0.00     0.014 A 
ATOM     14  C   UNL A   1      44.040  23.727  27.825  1.00  0.00     0.001 A 
BRANCH  10  15
ATOM     15  N   UNL A   1      46.236  23.947  24.228  1.00  0.00    -0.398 N 
ATOM     16  H   UNL A   1      47.181  24.222  24.246  1.00  0.00     0.156 HD
ATOM     17  H   UNL A   1      45.813  23.693  23.375  1.00  0.00     0.156 HD
ENDBRANCH  10  15
BRANCH  11  18
ATOM     18  C   UNL A   1      45.383  26.506  25.677  1.00  0.00     0.195 C 
ATOM     19  O   UNL A   1      45.989  26.731  24.628  1.00  0.00    -0.289 OA
BRANCH  18  20
ATOM     20  C   UNL A   1      44.920  27.689  26.424  1.00  0.00     0.023 A 
ATOM     21  C   UNL A   1      45.822  28.297  27.308  1.00  0.00     0.013 A 
ATOM     22  C   UNL A   1      43.642  28.227  26.237  1.00  0.00     0.013 A 
ATOM     23  C   UNL A   1      45.475  29.487  27.946  1.00  0.00     0.016 A 
ATOM     24  C   UNL A   1      43.302  29.427  26.867  1.00  0.00     0.016 A 
ATOM     25  C   UNL A   1      44.224  30.057  27.707  1.00  0.00     0.018 A 
ATOM     26  Br  UNL A   1      43.784  31.711  28.510  1.00  0.00    -0.051 Br
ENDBRANCH  18  20
ENDBRANCH  11  18
ENDBRANCH   8   9
ENDBRANCH   5   8
ENDBRANCH   3   4
ENDBRANCH   2   3
ENDBRANCH   1   2
BRANCH   1  27
ATOM     27  C   UNL A   1      41.468  20.028  27.517  1.00  0.00     0.002 C 
BRANCH  27  28
ATOM     28  C   UNL A   1      40.919  21.449  27.671  1.00  0.00     0.021 C 
BRANCH  28  29
ATOM     29  C   UNL A   1      40.985  22.287  26.399  1.00  0.00     0.116 C 
BRANCH  29  30
ATOM     30  N   UNL A   1      39.659  22.575  25.872  1.00  0.00    -0.352 N 
ATOM     31  C   UNL A   1      38.799  23.593  26.186  1.00  0.00     0.251 C 
ATOM     32  H   UNL A   1      39.333  21.946  25.188  1.00  0.00     0.163 HD
ATOM     33  O   UNL A   1      37.630  23.559  25.798  1.00  0.00    -0.269 OA
BRANCH  31  34
ATOM     34  C   UNL A   1      39.264  24.729  27.005  1.00  0.00     0.039 A 
ATOM     35  C   UNL A   1      40.074  25.704  26.416  1.00  0.00     0.014 A 
ATOM     36  C   UNL A   1      38.917  24.825  28.356  1.00  0.00     0.014 A 
ATOM     37  C   UNL A   1      40.492  26.803  27.167  1.00  0.00     0.010 A 
ATOM     38  C   UNL A   1      39.274  25.957  29.084  1.00  0.00     0.010 A 
ATOM     39  C   UNL A   1      40.069  26.954  28.498  1.00  0.00    -0.014 A 
BRANCH  39  40
ATOM     40  C   UNL A   1      40.455  28.144  29.297  1.00  0.00     0.031 A 
ATOM     41  C   UNL A   1      41.804  28.204  29.957  1.00  0.00     0.074 A 
ATOM     42  C   UNL A   1      39.567  29.140  29.479  1.00  0.00     0.049 A 
ATOM     43  N   UNL A   1      42.298  29.121  30.751  1.00  0.00    -0.248 NA
ATOM     44  C   UNL A   1      42.710  27.070  29.715  1.00  0.00     0.031 C 
ATOM     45  C   UNL A   1      38.214  29.177  28.924  1.00  0.00     0.029 A 
ATOM     46  N   UNL A   1      39.667  30.309  30.191  1.00  0.00    -0.354 N 
ATOM     47  C   UNL A   1      43.561  28.668  31.111  1.00  0.00     0.074 A 
ATOM     48  C   UNL A   1      43.736  27.371  30.496  1.00  0.00     0.031 C 
ATOM     49  C   UNL A   1      37.616  30.320  29.298  1.00  0.00     0.029 A 
ATOM     50  C   UNL A   1      38.529  31.076  30.151  1.00  0.00     0.049 A 
ATOM     51  H   UNL A   1      40.478  30.573  30.684  1.00  0.00     0.167 HD
ATOM     52  C   UNL A   1      44.496  29.289  31.868  1.00  0.00     0.037 A 
ATOM     53  C   UNL A   1      38.250  32.253  30.743  1.00  0.00     0.037 A 
ATOM     54  C   UNL A   1      44.324  30.590  32.461  1.00  0.00     0.049 A 
ATOM     55  C   UNL A   1      39.303  32.915  31.591  1.00  0.00     0.074 A 
ATOM     56  C   UNL A   1      45.233  31.330  33.197  1.00  0.00     0.029 A 
ATOM     57  N   UNL A   1      43.161  31.342  32.389  1.00  0.00    -0.354 N 
ATOM     58  N   UNL A   1      40.518  32.510  31.868  1.00  0.00    -0.248 NA
ATOM     59  C   UNL A   1      38.946  34.203  32.202  1.00  0.00     0.031 C 
ATOM     60  C   UNL A   1      44.603  32.509  33.612  1.00  0.00     0.029 A 
ATOM     61  C   UNL A   1      43.321  32.529  33.088  1.00  0.00     0.049 A 
ATOM     62  H   UNL A   1      42.343  31.073  31.912  1.00  0.00     0.167 HD
ATOM     63  C   UNL A   1      41.080  33.502  32.659  1.00  0.00     0.074 A 
ATOM     64  C   UNL A   1      40.077  34.538  32.805  1.00  0.00     0.031 C 
ATOM     65  C   UNL A   1      42.315  33.553  33.216  1.00  0.00     0.037 A 
BRANCH  52  66
ATOM     66  C   UNL A   1      45.794  28.569  32.095  1.00  0.00     0.064 A 
ATOM     67  C   UNL A   1      45.900  27.515  33.018  1.00  0.00     0.173 A 
ATOM     68  C   UNL A   1      46.939  28.911  31.359  1.00  0.00     0.173 A 
ATOM     69  F   UNL A   1      44.839  27.155  33.755  1.00  0.00    -0.203 F 
ATOM     70  C   UNL A   1      47.109  26.855  33.216  1.00  0.00     0.198 A 
ATOM     71  C   UNL A   1      48.139  28.226  31.537  1.00  0.00     0.198 A 
ATOM     72  F   UNL A   1      46.892  29.905  30.458  1.00  0.00    -0.203 F 
ATOM     73  F   UNL A   1      47.199  25.888  34.140  1.00  0.00    -0.200 F 
ATOM     74  C   UNL A   1      48.226  27.205  32.471  1.00  0.00     0.200 A 
ATOM     75  F   UNL A   1      49.212  28.556  30.806  1.00  0.00    -0.200 F 
ATOM     76  F   UNL A   1      49.386  26.564  32.659  1.00  0.00    -0.200 F 
ENDBRANCH  52  66
BRANCH  53  77
ATOM     77  C   UNL A   1      36.924  32.893  30.537  1.00  0.00     0.064 A 
ATOM     78  C   UNL A   1      35.921  32.799  31.513  1.00  0.00     0.173 A 
ATOM     79  C   UNL A   1      36.629  33.604  29.365  1.00  0.00     0.173 A 
ATOM     80  F   UNL A   1      36.149  32.112  32.643  1.00  0.00    -0.203 F 
ATOM     81  C   UNL A   1      34.668  33.372  31.315  1.00  0.00     0.198 A 
ATOM     82  C   UNL A   1      35.383  34.202  29.181  1.00  0.00     0.198 A 
ATOM     83  F   UNL A   1      37.555  33.730  28.404  1.00  0.00    -0.203 F 
ATOM     84  F   UNL A   1      33.713  33.225  32.243  1.00  0.00    -0.200 F 
ATOM     85  C   UNL A   1      34.401  34.077  30.152  1.00  0.00     0.200 A 
ATOM     86  F   UNL A   1      35.136  34.897  28.062  1.00  0.00    -0.200 F 
ATOM     87  F   UNL A   1      33.196  34.632  29.963  1.00  0.00    -0.200 F 
ENDBRANCH  53  77
BRANCH  65  88
ATOM     88  C   UNL A   1      42.667  34.783  34.002  1.00  0.00     0.064 A 
ATOM     89  C   UNL A   1      42.498  34.842  35.393  1.00  0.00     0.173 A 
ATOM     90  C   UNL A   1      43.217  35.901  33.358  1.00  0.00     0.173 A 
ATOM     91  F   UNL A   1      41.961  33.805  36.053  1.00  0.00    -0.203 F 
ATOM     92  C   UNL A   1      42.842  35.987  36.108  1.00  0.00     0.198 A 
ATOM     93  C   UNL A   1      43.590  37.032  34.080  1.00  0.00     0.198 A 
ATOM     94  F   UNL A   1      43.406  35.894  32.030  1.00  0.00    -0.203 F 
ATOM     95  F   UNL A   1      42.625  36.040  37.428  1.00  0.00    -0.200 F 
ATOM     96  C   UNL A   1      43.395  37.078  35.452  1.00  0.00     0.200 A 
ATOM     97  F   UNL A   1      44.137  38.079  33.446  1.00  0.00    -0.200 F 
ATOM     98  F   UNL A   1      43.733  38.175  36.142  1.00  0.00    -0.200 F 
ENDBRANCH  65  88
ENDBRANCH  39  40
ENDBRANCH  31  34
ENDBRANCH  29  30
ENDBRANCH  28  29
ENDBRANCH  27  28
ENDBRANCH   1  27
TORSDOF 17
ENDMDL
MODEL 2
REMARK VINA RESULT:     -10.0      3.992     10.688
REMARK SMILES Nc1c(CC(=O)NCCCCCCNC(=O)c2ccc(-c3c4nc(c(-c5c(F)c(F)c(F)c(F)c5F)c5ccc([nH]5)c(-c5c(F)c(F)c(F)c(F)c5F)c5nc(c(-c6c(F)c(F)c(F)c(F)c6F)c6ccc3[nH]6)C=C5)C=C4)cc2)cccc1C(=O)c1ccc(Br)cc1
REMARK SMILES IDX 10 1 9 2 8 3 7 4 5 5 6 6 4 8 3 9 2 10 83 11 80 12 82 13
REMARK SMILES IDX 81 14 1 15 84 18 85 19 86 20 87 21 92 22 88 23 91 24 89 25
REMARK SMILES IDX 90 26 11 27 12 28 13 29 14 30 15 31 16 33 17 34 18 35 79 36
REMARK SMILES IDX 19 37 78 38 20 39 21 40 22 41 72 42 23 43 77 44 71 45 73 46
REMARK SMILES IDX 24 47 76 48 70 49 69 50 25 52 57 53 37 54 56 55 38 56 41 57
REMARK SMILES IDX 55 58 74 59 39 60 40 61 54 63 75 64 42 65 26 66 27 67 35 68
REMARK SMILES IDX 28 69 29 70 33 71 36 72 30 73 31 74 34 75 32 76 58 77 59 78
REMARK SMILES IDX 67 79 60 80 61 81 65 82 68 83 62 84 63 85 66 86 64 87 43 88
REMARK SMILES IDX 44 89 52 90 45 91 46 92 50 93 53 94 47 95 48 96 51 97 49 98
REMARK H PARENT 7 7 1 16 1 17 14 32 73 51 41 62
REMARK Flexibility Score: inf
ROOT
ATOM      1  C   UNL A   1      37.112  32.816  30.303  1.00  0.00     0.002 C 
ENDROOT
BRANCH   1   2
ATOM      2  C   UNL A   1      37.975  33.671  31.240  1.00  0.00     0.021 C 
BRANCH   2   3
ATOM      3  C   UNL A   1      37.207  34.196  32.453  1.00  0.00     0.116 C 
BRANCH   3   4
ATOM      4  N   UNL A   1      38.100  34.464  33.561  1.00  0.00    -0.356 N 
ATOM      5  C   UNL A   1      38.252  33.775  34.729  1.00  0.00     0.224 C 
ATOM      6  O   UNL A   1      38.986  34.255  35.595  1.00  0.00    -0.275 OA
ATOM      7  H   UNL A   1      38.678  35.253  33.457  1.00  0.00     0.163 HD
BRANCH   5   8
ATOM      8  C   UNL A   1      37.603  32.413  34.917  1.00  0.00     0.137 C 
BRANCH   8   9
ATOM      9  C   UNL A   1      38.467  31.224  34.530  1.00  0.00    -0.015 A 
ATOM     10  C   UNL A   1      39.551  30.767  35.331  1.00  0.00     0.046 A 
ATOM     11  C   UNL A   1      40.355  29.700  34.849  1.00  0.00     0.046 A 
ATOM     12  C   UNL A   1      38.183  30.596  33.304  1.00  0.00     0.006 A 
ATOM     13  C   UNL A   1      40.043  29.108  33.608  1.00  0.00     0.014 A 
ATOM     14  C   UNL A   1      38.965  29.546  32.845  1.00  0.00     0.001 A 
BRANCH  10  15
ATOM     15  N   UNL A   1      39.804  31.419  36.532  1.00  0.00    -0.398 N 
ATOM     16  H   UNL A   1      39.684  32.395  36.598  1.00  0.00     0.156 HD
ATOM     17  H   UNL A   1      40.105  30.907  37.317  1.00  0.00     0.156 HD
ENDBRANCH  10  15
BRANCH  11  18
ATOM     18  C   UNL A   1      41.581  29.141  35.516  1.00  0.00     0.195 C 
ATOM     19  O   UNL A   1      41.923  29.553  36.625  1.00  0.00    -0.289 OA
BRANCH  18  20
ATOM     20  C   UNL A   1      42.384  28.039  34.958  1.00  0.00     0.023 A 
ATOM     21  C   UNL A   1      42.056  26.732  35.343  1.00  0.00     0.013 A 
ATOM     22  C   UNL A   1      43.413  28.268  34.039  1.00  0.00     0.013 A 
ATOM     23  C   UNL A   1      42.705  25.649  34.751  1.00  0.00     0.016 A 
ATOM     24  C   UNL A   1      44.052  27.180  33.437  1.00  0.00     0.016 A 
ATOM     25  C   UNL A   1      43.686  25.878  33.786  1.00  0.00     0.018 A 
ATOM     26  Br  UNL A   1      44.509  24.409  32.926  1.00  0.00    -0.051 Br
ENDBRANCH  18  20
ENDBRANCH  11  18
ENDBRANCH   8   9
ENDBRANCH   5   8
ENDBRANCH   3   4
ENDBRANCH   2   3
ENDBRANCH   1   2
BRANCH   1  27
ATOM     27  C   UNL A   1      36.928  33.394  28.894  1.00  0.00     0.002 C 
BRANCH  27  28
ATOM     28  C   UNL A   1      35.543  33.171  28.282  1.00  0.00     0.021 C 
BRANCH  28  29
ATOM     29  C   UNL A   1      34.611  32.316  29.133  1.00  0.00     0.116 C 
BRANCH  29  30
ATOM     30  N   UNL A   1      34.053  31.205  28.376  1.00  0.00    -0.352 N 
ATOM     31  C   UNL A   1      34.685  30.123  27.825  1.00  0.00     0.251 C 
ATOM     32  H   UNL A   1      33.078  31.236  28.241  1.00  0.00     0.163 HD
ATOM     33  O   UNL A   1      34.086  29.392  27.033  1.00  0.00    -0.269 OA
BRANCH  31  34
ATOM     34  C   UNL A   1      36.092  29.834  28.164  1.00  0.00     0.039 A 
ATOM     35  C   UNL A   1      36.394  29.326  29.430  1.00  0.00     0.014 A 
ATOM     36  C   UNL A   1      37.114  30.082  27.242  1.00  0.00     0.014 A 
ATOM     37  C   UNL A   1      37.716  29.014  29.753  1.00  0.00     0.010 A 
ATOM     38  C   UNL A   1      38.421  29.703  27.539  1.00  0.00     0.010 A 
ATOM     39  C   UNL A   1      38.734  29.171  28.799  1.00  0.00    -0.014 A 
BRANCH  39  40
ATOM     40  C   UNL A   1      40.137  28.792  29.103  1.00  0.00     0.031 A 
ATOM     41  C   UNL A   1      41.036  29.749  29.833  1.00  0.00     0.074 A 
ATOM     42  C   UNL A   1      40.617  27.612  28.666  1.00  0.00     0.049 A 
ATOM     43  N   UNL A   1      42.307  29.632  30.128  1.00  0.00    -0.248 NA
ATOM     44  C   UNL A   1      40.434  31.020  30.268  1.00  0.00     0.031 C 
ATOM     45  C   UNL A   1      39.854  26.618  27.911  1.00  0.00     0.029 A 
ATOM     46  N   UNL A   1      41.866  27.055  28.784  1.00  0.00    -0.354 N 
ATOM     47  C   UNL A   1      42.657  30.815  30.767  1.00  0.00     0.074 A 
ATOM     48  C   UNL A   1      41.482  31.658  30.768  1.00  0.00     0.031 C 
ATOM     49  C   UNL A   1      40.643  25.562  27.651  1.00  0.00     0.029 A 
ATOM     50  C   UNL A   1      41.977  25.823  28.186  1.00  0.00     0.049 A 
ATOM     51  H   UNL A   1      42.611  27.496  29.253  1.00  0.00     0.167 HD
ATOM     52  C   UNL A   1      43.844  31.156  31.322  1.00  0.00     0.037 A 
ATOM     53  C   UNL A   1      43.038  25.002  28.074  1.00  0.00     0.037 A 
ATOM     54  C   UNL A   1      45.004  30.304  31.336  1.00  0.00     0.049 A 
ATOM     55  C   UNL A   1      44.350  25.411  28.688  1.00  0.00     0.074 A 
ATOM     56  C   UNL A   1      46.237  30.533  31.922  1.00  0.00     0.029 A 
ATOM     57  N   UNL A   1      45.076  29.057  30.730  1.00  0.00    -0.354 N 
ATOM     58  N   UNL A   1      44.651  26.502  29.349  1.00  0.00    -0.248 NA
ATOM     59  C   UNL A   1      45.469  24.469  28.544  1.00  0.00     0.031 C 
ATOM     60  C   UNL A   1      47.070  29.448  31.630  1.00  0.00     0.029 A 
ATOM     61  C   UNL A   1      46.340  28.517  30.909  1.00  0.00     0.049 A 
ATOM     62  H   UNL A   1      44.338  28.622  30.245  1.00  0.00     0.167 HD
ATOM     63  C   UNL A   1      45.980  26.367  29.725  1.00  0.00     0.074 A 
ATOM     64  C   UNL A   1      46.424  25.080  29.231  1.00  0.00     0.031 C 
ATOM     65  C   UNL A   1      46.764  27.230  30.417  1.00  0.00     0.037 A 
BRANCH  52  66
ATOM     66  C   UNL A   1      43.947  32.510  31.963  1.00  0.00     0.064 A 
ATOM     67  C   UNL A   1      44.411  33.628  31.253  1.00  0.00     0.173 A 
ATOM     68  C   UNL A   1      43.544  32.701  33.294  1.00  0.00     0.173 A 
ATOM     69  F   UNL A   1      44.818  33.498  29.981  1.00  0.00    -0.203 F 
ATOM     70  C   UNL A   1      44.499  34.878  31.859  1.00  0.00     0.198 A 
ATOM     71  C   UNL A   1      43.602  33.960  33.888  1.00  0.00     0.198 A 
ATOM     72  F   UNL A   1      43.085  31.669  34.017  1.00  0.00    -0.203 F 
ATOM     73  F   UNL A   1      44.994  35.919  31.177  1.00  0.00    -0.200 F 
ATOM     74  C   UNL A   1      44.088  35.045  33.173  1.00  0.00     0.200 A 
ATOM     75  F   UNL A   1      43.191  34.122  35.152  1.00  0.00    -0.200 F 
ATOM     76  F   UNL A   1      44.166  36.249  33.753  1.00  0.00    -0.200 F 
ENDBRANCH  52  66
BRANCH  53  77
ATOM     77  C   UNL A   1      42.899  23.699  27.371  1.00  0.00     0.064 A 
ATOM     78  C   UNL A   1      43.297  23.558  26.034  1.00  0.00     0.173 A 
ATOM     79  C   UNL A   1      42.363  22.575  28.015  1.00  0.00     0.173 A 
ATOM     80  F   UNL A   1      43.798  24.610  25.370  1.00  0.00    -0.203 F 
ATOM     81  C   UNL A   1      43.144  22.348  25.362  1.00  0.00     0.198 A 
ATOM     82  C   UNL A   1      42.237  21.357  27.348  1.00  0.00     0.198 A 
ATOM     83  F   UNL A   1      41.973  22.654  29.295  1.00  0.00    -0.203 F 
ATOM     84  F   UNL A   1      43.488  22.255  24.070  1.00  0.00    -0.200 F 
ATOM     85  C   UNL A   1      42.619  21.247  26.020  1.00  0.00     0.200 A 
ATOM     86  F   UNL A   1      41.744  20.291  27.995  1.00  0.00    -0.200 F 
ATOM     87  F   UNL A   1      42.475  20.082  25.374  1.00  0.00    -0.200 F 
ENDBRANCH  53  77
BRANCH  65  88
ATOM     88  C   UNL A   1      48.170  26.797  30.714  1.00  0.00     0.064 A 
ATOM     89  C   UNL A   1      48.487  26.067  31.869  1.00  0.00     0.173 A 
ATOM     90  C   UNL A   1      49.205  27.081  29.811  1.00  0.00     0.173 A 
ATOM     91  F   UNL A   1      47.536  25.783  32.772  1.00  0.00    -0.203 F 
ATOM     92  C   UNL A   1      49.795  25.661  32.123  1.00  0.00     0.198 A 
ATOM     93  C   UNL A   1      50.506  26.646  30.052  1.00  0.00     0.198 A 
ATOM     94  F   UNL A   1      48.954  27.770  28.688  1.00  0.00    -0.203 F 
ATOM     95  F   UNL A   1      50.084  25.008  33.256  1.00  0.00    -0.200 F 
ATOM     96  C   UNL A   1      50.801  25.943  31.211  1.00  0.00     0.200 A 
ATOM     97  F   UNL A   1      51.474  26.908  29.162  1.00  0.00    -0.200 F 
ATOM     98  F   UNL A   1      52.058  25.545  31.452  1.00  0.00    -0.200 F 
ENDBRANCH  65  88
ENDBRANCH  39  40
ENDBRANCH  31  34
ENDBRANCH  29  30
ENDBRANCH  28  29
ENDBRANCH  27  28
ENDBRANCH   1  27
TORSDOF 17
ENDMDL
MODEL 3
REMARK VINA RESULT:     -10.0      5.421     11.042
REMARK SMILES Nc1c(CC(=O)NCCCCCCNC(=O)c2ccc(-c3c4nc(c(-c5c(F)c(F)c(F)c(F)c5F)c5ccc([nH]5)c(-c5c(F)c(F)c(F)c(F)c5F)c5nc(c(-c6c(F)c(F)c(F)c(F)c6F)c6ccc3[nH]6)C=C5)C=C4)cc2)cccc1C(=O)c1ccc(Br)cc1
REMARK SMILES IDX 10 1 9 2 8 3 7 4 5 5 6 6 4 8 3 9 2 10 83 11 80 12 82 13
REMARK SMILES IDX 81 14 1 15 84 18 85 19 86 20 87 21 92 22 88 23 91 24 89 25
REMARK SMILES IDX 90 26 11 27 12 28 13 29 14 30 15 31 16 33 17 34 18 35 79 36
REMARK SMILES IDX 19 37 78 38 20 39 21 40 22 41 72 42 23 43 77 44 71 45 73 46
REMARK SMILES IDX 24 47 76 48 70 49 69 50 25 52 57 53 37 54 56 55 38 56 41 57
REMARK SMILES IDX 55 58 74 59 39 60 40 61 54 63 75 64 42 65 26 66 27 67 35 68
REMARK SMILES IDX 28 69 29 70 33 71 36 72 30 73 31 74 34 75 32 76 58 77 59 78
REMARK SMILES IDX 67 79 60 80 61 81 65 82 68 83 62 84 63 85 66 86 64 87 43 88
REMARK SMILES IDX 44 89 52 90 45 91 46 92 50 93 53 94 47 95 48 96 51 97 49 98
REMARK H PARENT 7 7 1 16 1 17 14 32 73 51 41 62
REMARK Flexibility Score: inf
ROOT
ATOM      1  C   UNL A   1      37.205  21.751  24.359  1.00  0.00     0.002 C 
ENDROOT
BRANCH   1   2
ATOM      2  C   UNL A   1      36.328  22.899  24.874  1.00  0.00     0.021 C 
BRANCH   2   3
ATOM      3  C   UNL A   1      34.858  22.510  25.030  1.00  0.00     0.116 C 
BRANCH   3   4
ATOM      4  N   UNL A   1      34.230  22.313  23.740  1.00  0.00    -0.356 N 
ATOM      5  C   UNL A   1      33.746  23.246  22.870  1.00  0.00     0.224 C 
ATOM      6  O   UNL A   1      33.131  22.849  21.877  1.00  0.00    -0.275 OA
ATOM      7  H   UNL A   1      34.139  21.377  23.452  1.00  0.00     0.163 HD
BRANCH   5   8
ATOM      8  C   UNL A   1      34.033  24.724  23.077  1.00  0.00     0.137 C 
BRANCH   8   9
ATOM      9  C   UNL A   1      32.982  25.484  23.868  1.00  0.00    -0.015 A 
ATOM     10  C   UNL A   1      31.665  25.716  23.377  1.00  0.00     0.046 A 
ATOM     11  C   UNL A   1      30.776  26.506  24.151  1.00  0.00     0.046 A 
ATOM     12  C   UNL A   1      33.368  26.002  25.117  1.00  0.00     0.006 A 
ATOM     13  C   UNL A   1      31.210  27.018  25.391  1.00  0.00     0.014 A 
ATOM     14  C   UNL A   1      32.490  26.764  25.873  1.00  0.00     0.001 A 
BRANCH  10  15
ATOM     15  N   UNL A   1      31.325  25.194  22.134  1.00  0.00    -0.398 N 
ATOM     16  H   UNL A   1      30.696  25.679  21.552  1.00  0.00     0.156 HD
ATOM     17  H   UNL A   1      31.712  24.338  21.836  1.00  0.00     0.156 HD
ENDBRANCH  10  15
BRANCH  11  18
ATOM     18  C   UNL A   1      29.385  26.919  23.758  1.00  0.00     0.195 C 
ATOM     19  O   UNL A   1      28.427  26.190  24.018  1.00  0.00    -0.289 OA
BRANCH  18  20
ATOM     20  C   UNL A   1      29.062  28.215  23.136  1.00  0.00     0.023 A 
ATOM     21  C   UNL A   1      30.103  28.918  22.515  1.00  0.00     0.013 A 
ATOM     22  C   UNL A   1      27.758  28.720  23.117  1.00  0.00     0.013 A 
ATOM     23  C   UNL A   1      29.827  30.087  21.807  1.00  0.00     0.016 A 
ATOM     24  C   UNL A   1      27.482  29.886  22.396  1.00  0.00     0.016 A 
ATOM     25  C   UNL A   1      28.515  30.555  21.734  1.00  0.00     0.018 A 
ATOM     26  Br  UNL A   1      28.129  32.096  20.710  1.00  0.00    -0.051 Br
ENDBRANCH  18  20
ENDBRANCH  11  18
ENDBRANCH   8   9
ENDBRANCH   5   8
ENDBRANCH   3   4
ENDBRANCH   2   3
ENDBRANCH   1   2
BRANCH   1  27
ATOM     27  C   UNL A   1      36.896  20.380  24.975  1.00  0.00     0.002 C 
BRANCH  27  28
ATOM     28  C   UNL A   1      38.089  19.423  25.047  1.00  0.00     0.021 C 
BRANCH  28  29
ATOM     29  C   UNL A   1      39.304  19.989  25.773  1.00  0.00     0.116 C 
BRANCH  29  30
ATOM     30  N   UNL A   1      40.357  18.994  25.923  1.00  0.00    -0.352 N 
ATOM     31  C   UNL A   1      41.703  19.171  26.096  1.00  0.00     0.251 C 
ATOM     32  H   UNL A   1      40.056  18.057  25.897  1.00  0.00     0.163 HD
ATOM     33  O   UNL A   1      42.473  18.214  25.989  1.00  0.00    -0.269 OA
BRANCH  31  34
ATOM     34  C   UNL A   1      42.242  20.512  26.397  1.00  0.00     0.039 A 
ATOM     35  C   UNL A   1      42.693  21.313  25.345  1.00  0.00     0.014 A 
ATOM     36  C   UNL A   1      42.320  20.971  27.715  1.00  0.00     0.014 A 
ATOM     37  C   UNL A   1      43.171  22.597  25.609  1.00  0.00     0.010 A 
ATOM     38  C   UNL A   1      42.730  22.277  27.971  1.00  0.00     0.010 A 
ATOM     39  C   UNL A   1      43.164  23.100  26.921  1.00  0.00    -0.014 A 
BRANCH  39  40
ATOM     40  C   UNL A   1      43.615  24.483  27.216  1.00  0.00     0.031 A 
ATOM     41  C   UNL A   1      42.639  25.500  27.736  1.00  0.00     0.074 A 
ATOM     42  C   UNL A   1      44.889  24.838  26.957  1.00  0.00     0.049 A 
ATOM     43  N   UNL A   1      42.822  26.773  27.987  1.00  0.00    -0.248 NA
ATOM     44  C   UNL A   1      41.266  25.032  27.984  1.00  0.00     0.031 C 
ATOM     45  C   UNL A   1      45.918  23.952  26.413  1.00  0.00     0.029 A 
ATOM     46  N   UNL A   1      45.530  26.041  27.107  1.00  0.00    -0.354 N 
ATOM     47  C   UNL A   1      41.589  27.256  28.405  1.00  0.00     0.074 A 
ATOM     48  C   UNL A   1      40.653  26.156  28.323  1.00  0.00     0.031 C 
ATOM     49  C   UNL A   1      47.068  24.635  26.294  1.00  0.00     0.029 A 
ATOM     50  C   UNL A   1      46.847  26.015  26.716  1.00  0.00     0.049 A 
ATOM     51  H   UNL A   1      45.089  26.847  27.462  1.00  0.00     0.167 HD
ATOM     52  C   UNL A   1      41.272  28.499  28.840  1.00  0.00     0.037 A 
ATOM     53  C   UNL A   1      47.768  26.997  26.691  1.00  0.00     0.037 A 
ATOM     54  C   UNL A   1      42.212  29.585  28.940  1.00  0.00     0.049 A 
ATOM     55  C   UNL A   1      47.386  28.373  27.166  1.00  0.00     0.074 A 
ATOM     56  C   UNL A   1      42.005  30.865  29.422  1.00  0.00     0.029 A 
ATOM     57  N   UNL A   1      43.541  29.517  28.545  1.00  0.00    -0.354 N 
ATOM     58  N   UNL A   1      46.235  28.802  27.624  1.00  0.00    -0.248 NA
ATOM     59  C   UNL A   1      48.436  29.401  27.127  1.00  0.00     0.031 C 
ATOM     60  C   UNL A   1      43.194  31.587  29.273  1.00  0.00     0.029 A 
ATOM     61  C   UNL A   1      44.158  30.741  28.750  1.00  0.00     0.049 A 
ATOM     62  H   UNL A   1      43.980  28.718  28.173  1.00  0.00     0.167 HD
ATOM     63  C   UNL A   1      46.428  30.136  27.954  1.00  0.00     0.074 A 
ATOM     64  C   UNL A   1      47.813  30.443  27.658  1.00  0.00     0.031 C 
ATOM     65  C   UNL A   1      45.539  31.028  28.457  1.00  0.00     0.037 A 
BRANCH  52  66
ATOM     66  C   UNL A   1      39.848  28.751  29.244  1.00  0.00     0.064 A 
ATOM     67  C   UNL A   1      39.403  28.518  30.555  1.00  0.00     0.173 A 
ATOM     68  C   UNL A   1      38.924  29.263  28.321  1.00  0.00     0.173 A 
ATOM     69  F   UNL A   1      40.243  28.020  31.475  1.00  0.00    -0.203 F 
ATOM     70  C   UNL A   1      38.080  28.759  30.917  1.00  0.00     0.198 A 
ATOM     71  C   UNL A   1      37.610  29.533  28.694  1.00  0.00     0.198 A 
ATOM     72  F   UNL A   1      39.298  29.511  27.056  1.00  0.00    -0.203 F 
ATOM     73  F   UNL A   1      37.666  28.480  32.160  1.00  0.00    -0.200 F 
ATOM     74  C   UNL A   1      37.186  29.272  29.989  1.00  0.00     0.200 A 
ATOM     75  F   UNL A   1      36.752  30.043  27.800  1.00  0.00    -0.200 F 
ATOM     76  F   UNL A   1      35.916  29.510  30.340  1.00  0.00    -0.200 F 
ENDBRANCH  52  66
BRANCH  53  77
ATOM     77  C   UNL A   1      49.148  26.709  26.219  1.00  0.00     0.064 A 
ATOM     78  C   UNL A   1      50.101  26.151  27.083  1.00  0.00     0.173 A 
ATOM     79  C   UNL A   1      49.545  26.990  24.904  1.00  0.00     0.173 A 
ATOM     80  F   UNL A   1      49.775  25.883  28.356  1.00  0.00    -0.203 F 
ATOM     81  C   UNL A   1      51.404  25.905  26.655  1.00  0.00     0.198 A 
ATOM     82  C   UNL A   1      50.841  26.716  24.469  1.00  0.00     0.198 A 
ATOM     83  F   UNL A   1      48.670  27.518  24.035  1.00  0.00    -0.203 F 
ATOM     84  F   UNL A   1      52.307  25.416  27.516  1.00  0.00    -0.200 F 
ATOM     85  C   UNL A   1      51.771  26.183  25.348  1.00  0.00     0.200 A 
ATOM     86  F   UNL A   1      51.186  26.970  23.199  1.00  0.00    -0.200 F 
ATOM     87  F   UNL A   1      53.023  25.942  24.936  1.00  0.00    -0.200 F 
ENDBRANCH  53  77
BRANCH  65  88
ATOM     88  C   UNL A   1      46.045  32.409  28.756  1.00  0.00     0.064 A 
ATOM     89  C   UNL A   1      46.614  32.734  29.996  1.00  0.00     0.173 A 
ATOM     90  C   UNL A   1      45.996  33.410  27.773  1.00  0.00     0.173 A 
ATOM     91  F   UNL A   1      46.670  31.817  30.974  1.00  0.00    -0.203 F 
ATOM     92  C   UNL A   1      47.090  34.017  30.252  1.00  0.00     0.198 A 
ATOM     93  C   UNL A   1      46.503  34.683  28.021  1.00  0.00     0.198 A 
ATOM     94  F   UNL A   1      45.469  33.150  26.568  1.00  0.00    -0.203 F 
ATOM     95  F   UNL A   1      47.584  34.318  31.460  1.00  0.00    -0.200 F 
ATOM     96  C   UNL A   1      47.043  34.988  29.262  1.00  0.00     0.200 A 
ATOM     97  F   UNL A   1      46.468  35.615  27.058  1.00  0.00    -0.200 F 
ATOM     98  F   UNL A   1      47.509  36.220  29.506  1.00  0.00    -0.200 F 
ENDBRANCH  65  88
ENDBRANCH  39  40
ENDBRANCH  31  34
ENDBRANCH  29  30
ENDBRANCH  28  29
ENDBRANCH  27  28
ENDBRANCH   1  27
TORSDOF 17
ENDMDL
