MODEL 1
REMARK VINA RESULT:     -11.9      0.000      0.000
REMARK SMILES COc1ccc(C(=O)Nc2ccccc2C(=O)N[C@@H](C(=O)NCCCCCCNC(=O)c2ccc(-c3c4nc(c(-c5c(F)c(F)c(F)c(F)c5F)c5ccc([nH]5)c(-c5c(F)c(F)c(F)c(F)c5F)c5nc(c(-c6c(F)c(F)c(F)c(F)c6F)c6ccc3[nH]6)C=C5)C=C4)cc2)C(C)C)cc1
REMARK SMILES IDX 24 1 23 2 22 3 20 4 21 5 19 7 18 8 16 9 17 10 15 12 10 13
REMARK SMILES IDX 11 14 12 15 14 16 13 17 9 18 7 19 8 20 6 22 3 23 4 24 99 25
REMARK SMILES IDX 5 26 98 27 2 28 1 29 95 30 96 31 97 32 25 33 26 34 27 35
REMARK SMILES IDX 28 36 29 37 30 38 31 40 32 41 33 42 94 43 34 44 93 45 35 46
REMARK SMILES IDX 36 47 37 48 87 49 38 50 92 51 86 52 88 53 39 54 91 55 85 56
REMARK SMILES IDX 84 57 40 59 72 60 52 61 71 62 53 63 56 64 70 65 89 66 54 67
REMARK SMILES IDX 55 68 69 70 90 71 57 72 41 73 42 74 50 75 43 76 44 77 48 78
REMARK SMILES IDX 51 79 45 80 46 81 49 82 47 83 73 84 74 85 82 86 75 87 76 88
REMARK SMILES IDX 80 89 83 90 77 91 78 92 81 93 79 94 58 95 59 96 67 97 60 98
REMARK SMILES IDX 61 99 65 100 68 101 62 102 63 103 66 104 64 105
REMARK H PARENT 22 6 18 11 9 21 29 39 88 58 56 69
REMARK Flexibility Score: inf
ROOT
ATOM      1  C   UNL A   1      37.455  22.368  25.192  1.00  0.00     0.021 C 
ENDROOT
BRANCH   1   2
ATOM      2  C   UNL A   1      36.593  23.272  26.075  1.00  0.00     0.116 C 
BRANCH   2   3
ATOM      3  N   UNL A   1      35.510  22.504  26.627  1.00  0.00    -0.354 N 
ATOM      4  C   UNL A   1      34.179  22.733  26.509  1.00  0.00     0.242 C 
ATOM      5  O   UNL A   1      33.483  22.298  27.432  1.00  0.00    -0.273 OA
ATOM      6  H   UNL A   1      35.767  21.715  27.158  1.00  0.00     0.163 HD
BRANCH   4   7
ATOM      7  C   UNL A   1      33.583  23.498  25.274  1.00  0.00     0.174 C 
BRANCH   7   8
ATOM      8  N   UNL A   1      32.275  24.041  25.719  1.00  0.00    -0.340 N 
ATOM      9  C   UNL A   1      31.794  25.240  26.244  1.00  0.00     0.254 C 
ATOM     10  O   UNL A   1      30.732  25.129  26.870  1.00  0.00    -0.269 OA
ATOM     11  H   UNL A   1      31.555  23.378  25.617  1.00  0.00     0.164 HD
BRANCH   9  12
ATOM     12  C   UNL A   1      32.396  26.637  26.185  1.00  0.00     0.063 A 
ATOM     13  C   UNL A   1      33.418  27.101  25.349  1.00  0.00     0.054 A 
ATOM     14  C   UNL A   1      34.034  28.354  25.570  1.00  0.00     0.027 A 
ATOM     15  C   UNL A   1      33.477  29.270  26.453  1.00  0.00     0.002 A 
ATOM     16  C   UNL A   1      31.839  27.603  27.061  1.00  0.00     0.016 A 
ATOM     17  C   UNL A   1      32.340  28.913  27.159  1.00  0.00     0.001 A 
BRANCH  13  18
ATOM     18  N   UNL A   1      33.732  26.550  24.104  1.00  0.00    -0.321 N 
ATOM     19  C   UNL A   1      33.065  26.835  22.930  1.00  0.00     0.255 C 
ATOM     20  O   UNL A   1      33.587  26.534  21.859  1.00  0.00    -0.269 OA
ATOM     21  H   UNL A   1      34.482  25.914  24.062  1.00  0.00     0.170 HD
BRANCH  19  22
ATOM     22  C   UNL A   1      31.784  27.582  22.930  1.00  0.00     0.040 A 
ATOM     23  C   UNL A   1      29.318  28.884  22.831  1.00  0.00     0.118 A 
ATOM     24  C   UNL A   1      29.363  27.551  23.184  1.00  0.00     0.047 A 
ATOM     25  C   UNL A   1      30.504  29.593  22.599  1.00  0.00     0.047 A 
ATOM     26  C   UNL A   1      30.592  26.914  23.212  1.00  0.00     0.017 A 
ATOM     27  C   UNL A   1      31.742  28.941  22.639  1.00  0.00     0.017 A 
BRANCH  23  28
ATOM     28  O   UNL A   1      28.070  29.433  22.748  1.00  0.00    -0.497 OA
ATOM     29  C   UNL A   1      27.072  28.563  23.268  1.00  0.00     0.278 C 
ENDBRANCH  23  28
ENDBRANCH  19  22
ENDBRANCH  13  18
ENDBRANCH   9  12
ENDBRANCH   7   8
BRANCH   7  30
ATOM     30  C   UNL A   1      33.585  22.391  24.119  1.00  0.00     0.015 C 
ATOM     31  C   UNL A   1      32.394  21.498  23.772  1.00  0.00     0.010 C 
ATOM     32  C   UNL A   1      33.964  23.088  22.795  1.00  0.00     0.010 C 
ENDBRANCH   7  30
ENDBRANCH   4   7
ENDBRANCH   2   3
ENDBRANCH   1   2
BRANCH   1  33
ATOM     33  C   UNL A   1      36.816  20.989  24.981  1.00  0.00     0.002 C 
BRANCH  33  34
ATOM     34  C   UNL A   1      37.831  19.842  24.932  1.00  0.00     0.002 C 
BRANCH  34  35
ATOM     35  C   UNL A   1      39.266  20.266  25.247  1.00  0.00     0.021 C 
BRANCH  35  36
ATOM     36  C   UNL A   1      39.890  19.496  26.405  1.00  0.00     0.116 C 
BRANCH  36  37
ATOM     37  N   UNL A   1      41.134  18.855  26.007  1.00  0.00    -0.352 N 
ATOM     38  C   UNL A   1      42.370  19.409  25.796  1.00  0.00     0.251 C 
ATOM     39  H   UNL A   1      41.081  17.881  25.870  1.00  0.00     0.163 HD
ATOM     40  O   UNL A   1      43.245  18.779  25.218  1.00  0.00    -0.269 OA
BRANCH  38  41
ATOM     41  C   UNL A   1      42.633  20.782  26.268  1.00  0.00     0.039 A 
ATOM     42  C   UNL A   1      42.458  21.079  27.620  1.00  0.00     0.014 A 
ATOM     43  C   UNL A   1      43.044  21.773  25.371  1.00  0.00     0.014 A 
ATOM     44  C   UNL A   1      42.746  22.362  28.085  1.00  0.00     0.010 A 
ATOM     45  C   UNL A   1      43.405  23.027  25.848  1.00  0.00     0.010 A 
ATOM     46  C   UNL A   1      43.252  23.336  27.206  1.00  0.00    -0.014 A 
BRANCH  46  47
ATOM     47  C   UNL A   1      43.623  24.687  27.694  1.00  0.00     0.031 A 
ATOM     48  C   UNL A   1      42.551  25.690  28.019  1.00  0.00     0.074 A 
ATOM     49  C   UNL A   1      44.923  25.026  27.783  1.00  0.00     0.049 A 
ATOM     50  N   UNL A   1      42.673  26.939  28.391  1.00  0.00    -0.248 NA
ATOM     51  C   UNL A   1      41.156  25.239  27.883  1.00  0.00     0.031 C 
ATOM     52  C   UNL A   1      46.050  24.153  27.450  1.00  0.00     0.029 A 
ATOM     53  N   UNL A   1      45.517  26.201  28.170  1.00  0.00    -0.354 N 
ATOM     54  C   UNL A   1      41.378  27.422  28.520  1.00  0.00     0.074 A 
ATOM     55  C   UNL A   1      40.483  26.352  28.135  1.00  0.00     0.031 C 
ATOM     56  C   UNL A   1      47.198  24.814  27.668  1.00  0.00     0.029 A 
ATOM     57  C   UNL A   1      46.890  26.169  28.113  1.00  0.00     0.049 A 
ATOM     58  H   UNL A   1      45.009  26.992  28.462  1.00  0.00     0.167 HD
ATOM     59  C   UNL A   1      40.972  28.642  28.945  1.00  0.00     0.037 A 
ATOM     60  C   UNL A   1      47.795  27.130  28.376  1.00  0.00     0.037 A 
ATOM     61  C   UNL A   1      41.866  29.694  29.351  1.00  0.00     0.049 A 
ATOM     62  C   UNL A   1      47.312  28.482  28.834  1.00  0.00     0.074 A 
ATOM     63  C   UNL A   1      41.554  30.944  29.855  1.00  0.00     0.029 A 
ATOM     64  N   UNL A   1      43.251  29.619  29.296  1.00  0.00    -0.354 N 
ATOM     65  N   UNL A   1      46.086  28.902  29.025  1.00  0.00    -0.248 NA
ATOM     66  C   UNL A   1      48.342  29.490  29.122  1.00  0.00     0.031 C 
ATOM     67  C   UNL A   1      42.746  31.646  30.051  1.00  0.00     0.029 A 
ATOM     68  C   UNL A   1      43.805  30.812  29.732  1.00  0.00     0.049 A 
ATOM     69  H   UNL A   1      43.763  28.835  28.993  1.00  0.00     0.167 HD
ATOM     70  C   UNL A   1      46.197  30.207  29.487  1.00  0.00     0.074 A 
ATOM     71  C   UNL A   1      47.612  30.504  29.563  1.00  0.00     0.031 C 
ATOM     72  C   UNL A   1      45.217  31.083  29.818  1.00  0.00     0.037 A 
BRANCH  59  73
ATOM     73  C   UNL A   1      39.496  28.912  28.999  1.00  0.00     0.064 A 
ATOM     74  C   UNL A   1      38.772  28.814  30.196  1.00  0.00     0.173 A 
ATOM     75  C   UNL A   1      38.809  29.337  27.851  1.00  0.00     0.173 A 
ATOM     76  F   UNL A   1      39.377  28.402  31.320  1.00  0.00    -0.203 F 
ATOM     77  C   UNL A   1      37.412  29.113  30.238  1.00  0.00     0.198 A 
ATOM     78  C   UNL A   1      37.457  29.665  27.904  1.00  0.00     0.198 A 
ATOM     79  F   UNL A   1      39.455  29.452  26.680  1.00  0.00    -0.203 F 
ATOM     80  F   UNL A   1      36.733  28.974  31.385  1.00  0.00    -0.200 F 
ATOM     81  C   UNL A   1      36.758  29.548  29.096  1.00  0.00     0.200 A 
ATOM     82  F   UNL A   1      36.831  30.102  26.801  1.00  0.00    -0.200 F 
ATOM     83  F   UNL A   1      35.454  29.852  29.142  1.00  0.00    -0.200 F 
ENDBRANCH  59  73
BRANCH  60  84
ATOM     84  C   UNL A   1      49.249  26.854  28.224  1.00  0.00     0.064 A 
ATOM     85  C   UNL A   1      49.872  26.930  26.970  1.00  0.00     0.173 A 
ATOM     86  C   UNL A   1      50.038  26.476  29.321  1.00  0.00     0.173 A 
ATOM     87  F   UNL A   1      49.157  27.268  25.887  1.00  0.00    -0.203 F 
ATOM     88  C   UNL A   1      51.218  26.604  26.813  1.00  0.00     0.198 A 
ATOM     89  C   UNL A   1      51.392  26.185  29.168  1.00  0.00     0.198 A 
ATOM     90  F   UNL A   1      49.495  26.397  30.545  1.00  0.00    -0.203 F 
ATOM     91  F   UNL A   1      51.771  26.623  25.593  1.00  0.00    -0.200 F 
ATOM     92  C   UNL A   1      51.978  26.236  27.913  1.00  0.00     0.200 A 
ATOM     93  F   UNL A   1      52.126  25.848  30.237  1.00  0.00    -0.200 F 
ATOM     94  F   UNL A   1      53.271  25.919  27.761  1.00  0.00    -0.200 F 
ENDBRANCH  60  84
BRANCH  72  95
ATOM     95  C   UNL A   1      45.638  32.427  30.340  1.00  0.00     0.064 A 
ATOM     96  C   UNL A   1      45.804  33.532  29.492  1.00  0.00     0.173 A 
ATOM     97  C   UNL A   1      45.837  32.619  31.715  1.00  0.00     0.173 A 
ATOM     98  F   UNL A   1      45.639  33.397  28.167  1.00  0.00    -0.203 F 
ATOM     99  C   UNL A   1      46.183  34.772  29.999  1.00  0.00     0.198 A 
ATOM    100  C   UNL A   1      46.181  33.869  32.223  1.00  0.00     0.198 A 
ATOM    101  F   UNL A   1      45.684  31.597  32.571  1.00  0.00    -0.203 F 
ATOM    102  F   UNL A   1      46.388  35.800  29.164  1.00  0.00    -0.200 F 
ATOM    103  C   UNL A   1      46.363  34.941  31.364  1.00  0.00     0.200 A 
ATOM    104  F   UNL A   1      46.338  34.035  33.543  1.00  0.00    -0.200 F 
ATOM    105  F   UNL A   1      46.718  36.138  31.850  1.00  0.00    -0.200 F 
ENDBRANCH  72  95
ENDBRANCH  46  47
ENDBRANCH  38  41
ENDBRANCH  36  37
ENDBRANCH  35  36
ENDBRANCH  34  35
ENDBRANCH  33  34
ENDBRANCH   1  33
TORSDOF 19
ENDMDL
MODEL 2
REMARK VINA RESULT:     -11.9      0.423      7.143
REMARK SMILES COc1ccc(C(=O)Nc2ccccc2C(=O)N[C@@H](C(=O)NCCCCCCNC(=O)c2ccc(-c3c4nc(c(-c5c(F)c(F)c(F)c(F)c5F)c5ccc([nH]5)c(-c5c(F)c(F)c(F)c(F)c5F)c5nc(c(-c6c(F)c(F)c(F)c(F)c6F)c6ccc3[nH]6)C=C5)C=C4)cc2)C(C)C)cc1
REMARK SMILES IDX 24 1 23 2 22 3 20 4 21 5 19 7 18 8 16 9 17 10 15 12 10 13
REMARK SMILES IDX 11 14 12 15 14 16 13 17 9 18 7 19 8 20 6 22 3 23 4 24 99 25
REMARK SMILES IDX 5 26 98 27 2 28 1 29 95 30 96 31 97 32 25 33 26 34 27 35
REMARK SMILES IDX 28 36 29 37 30 38 31 40 32 41 33 42 94 43 34 44 93 45 35 46
REMARK SMILES IDX 36 47 37 48 87 49 38 50 92 51 86 52 88 53 39 54 91 55 85 56
REMARK SMILES IDX 84 57 40 59 72 60 52 61 71 62 53 63 56 64 70 65 89 66 54 67
REMARK SMILES IDX 55 68 69 70 90 71 57 72 41 73 42 74 50 75 43 76 44 77 48 78
REMARK SMILES IDX 51 79 45 80 46 81 49 82 47 83 73 84 74 85 82 86 75 87 76 88
REMARK SMILES IDX 80 89 83 90 77 91 78 92 81 93 79 94 58 95 59 96 67 97 60 98
REMARK SMILES IDX 61 99 65 100 68 101 62 102 63 103 66 104 64 105
REMARK H PARENT 22 6 18 11 9 21 29 39 88 58 56 69
REMARK Flexibility Score: inf
ROOT
ATOM      1  C   UNL A   1      37.358  22.534  25.047  1.00  0.00     0.021 C 
ENDROOT
BRANCH   1   2
ATOM      2  C   UNL A   1      36.423  23.418  25.874  1.00  0.00     0.116 C 
BRANCH   2   3
ATOM      3  N   UNL A   1      35.470  22.590  26.561  1.00  0.00    -0.354 N 
ATOM      4  C   UNL A   1      34.117  22.633  26.483  1.00  0.00     0.242 C 
ATOM      5  O   UNL A   1      33.516  22.224  27.482  1.00  0.00    -0.273 OA
ATOM      6  H   UNL A   1      35.846  21.907  27.163  1.00  0.00     0.163 HD
BRANCH   4   7
ATOM      7  C   UNL A   1      33.384  23.166  25.201  1.00  0.00     0.174 C 
BRANCH   7   8
ATOM      8  N   UNL A   1      32.112  23.767  25.674  1.00  0.00    -0.340 N 
ATOM      9  C   UNL A   1      31.703  24.973  26.243  1.00  0.00     0.254 C 
ATOM     10  O   UNL A   1      30.640  24.901  26.873  1.00  0.00    -0.269 OA
ATOM     11  H   UNL A   1      31.355  23.150  25.555  1.00  0.00     0.164 HD
BRANCH   9  12
ATOM     12  C   UNL A   1      32.383  26.335  26.226  1.00  0.00     0.063 A 
ATOM     13  C   UNL A   1      33.458  26.752  25.433  1.00  0.00     0.054 A 
ATOM     14  C   UNL A   1      34.135  27.965  25.694  1.00  0.00     0.027 A 
ATOM     15  C   UNL A   1      33.598  28.900  26.571  1.00  0.00     0.002 A 
ATOM     16  C   UNL A   1      31.850  27.319  27.096  1.00  0.00     0.016 A 
ATOM     17  C   UNL A   1      32.418  28.597  27.232  1.00  0.00     0.001 A 
BRANCH  13  18
ATOM     18  N   UNL A   1      33.785  26.201  24.192  1.00  0.00    -0.321 N 
ATOM     19  C   UNL A   1      33.149  26.506  23.006  1.00  0.00     0.255 C 
ATOM     20  O   UNL A   1      33.686  26.200  21.944  1.00  0.00    -0.269 OA
ATOM     21  H   UNL A   1      34.522  25.548  24.161  1.00  0.00     0.170 HD
BRANCH  19  22
ATOM     22  C   UNL A   1      31.885  27.282  22.984  1.00  0.00     0.040 A 
ATOM     23  C   UNL A   1      29.567  28.836  23.049  1.00  0.00     0.118 A 
ATOM     24  C   UNL A   1      30.777  29.440  22.769  1.00  0.00     0.047 A 
ATOM     25  C   UNL A   1      29.495  27.448  23.222  1.00  0.00     0.047 A 
ATOM     26  C   UNL A   1      31.920  28.658  22.757  1.00  0.00     0.017 A 
ATOM     27  C   UNL A   1      30.657  26.666  23.199  1.00  0.00     0.017 A 
BRANCH  23  28
ATOM     28  O   UNL A   1      28.491  29.673  23.120  1.00  0.00    -0.497 OA
ATOM     29  C   UNL A   1      27.266  28.983  22.896  1.00  0.00     0.278 C 
ENDBRANCH  23  28
ENDBRANCH  19  22
ENDBRANCH  13  18
ENDBRANCH   9  12
ENDBRANCH   7   8
BRANCH   7  30
ATOM     30  C   UNL A   1      33.303  21.876  24.259  1.00  0.00     0.015 C 
ATOM     31  C   UNL A   1      32.526  20.603  24.597  1.00  0.00     0.010 C 
ATOM     32  C   UNL A   1      32.760  22.324  22.885  1.00  0.00     0.010 C 
ENDBRANCH   7  30
ENDBRANCH   4   7
ENDBRANCH   2   3
ENDBRANCH   1   2
BRANCH   1  33
ATOM     33  C   UNL A   1      36.825  21.103  24.906  1.00  0.00     0.002 C 
BRANCH  33  34
ATOM     34  C   UNL A   1      37.915  20.029  24.979  1.00  0.00     0.002 C 
BRANCH  34  35
ATOM     35  C   UNL A   1      39.293  20.566  25.371  1.00  0.00     0.021 C 
BRANCH  35  36
ATOM     36  C   UNL A   1      39.941  19.804  26.521  1.00  0.00     0.116 C 
BRANCH  36  37
ATOM     37  N   UNL A   1      41.116  19.071  26.075  1.00  0.00    -0.352 N 
ATOM     38  C   UNL A   1      42.380  19.531  25.808  1.00  0.00     0.251 C 
ATOM     39  H   UNL A   1      40.986  18.103  25.947  1.00  0.00     0.163 HD
ATOM     40  O   UNL A   1      43.180  18.836  25.199  1.00  0.00    -0.269 OA
BRANCH  38  41
ATOM     41  C   UNL A   1      42.763  20.884  26.258  1.00  0.00     0.039 A 
ATOM     42  C   UNL A   1      43.138  21.833  25.306  1.00  0.00     0.014 A 
ATOM     43  C   UNL A   1      42.759  21.206  27.619  1.00  0.00     0.014 A 
ATOM     44  C   UNL A   1      43.459  23.127  25.717  1.00  0.00     0.010 A 
ATOM     45  C   UNL A   1      43.002  22.514  28.018  1.00  0.00     0.010 A 
ATOM     46  C   UNL A   1      43.363  23.485  27.073  1.00  0.00    -0.014 A 
BRANCH  46  47
ATOM     47  C   UNL A   1      43.640  24.872  27.520  1.00  0.00     0.031 A 
ATOM     48  C   UNL A   1      45.057  25.324  27.734  1.00  0.00     0.074 A 
ATOM     49  C   UNL A   1      42.612  25.699  27.791  1.00  0.00     0.049 A 
ATOM     50  N   UNL A   1      45.501  26.469  28.186  1.00  0.00    -0.248 NA
ATOM     51  C   UNL A   1      46.119  24.351  27.425  1.00  0.00     0.031 C 
ATOM     52  C   UNL A   1      41.194  25.356  27.665  1.00  0.00     0.029 A 
ATOM     53  N   UNL A   1      42.601  26.996  28.239  1.00  0.00    -0.354 N 
ATOM     54  C   UNL A   1      46.883  26.350  28.227  1.00  0.00     0.074 A 
ATOM     55  C   UNL A   1      47.207  25.004  27.806  1.00  0.00     0.031 C 
ATOM     56  C   UNL A   1      40.452  26.422  28.007  1.00  0.00     0.029 A 
ATOM     57  C   UNL A   1      41.338  27.506  28.416  1.00  0.00     0.049 A 
ATOM     58  H   UNL A   1      43.421  27.512  28.417  1.00  0.00     0.167 HD
ATOM     59  C   UNL A   1      47.800  27.287  28.562  1.00  0.00     0.037 A 
ATOM     60  C   UNL A   1      40.941  28.710  28.871  1.00  0.00     0.037 A 
ATOM     61  C   UNL A   1      47.473  28.633  28.955  1.00  0.00     0.049 A 
ATOM     62  C   UNL A   1      41.986  29.728  29.249  1.00  0.00     0.074 A 
ATOM     63  C   UNL A   1      48.331  29.676  29.255  1.00  0.00     0.029 A 
ATOM     64  N   UNL A   1      46.183  29.120  29.106  1.00  0.00    -0.354 N 
ATOM     65  N   UNL A   1      43.291  29.629  29.210  1.00  0.00    -0.248 NA
ATOM     66  C   UNL A   1      41.499  31.030  29.726  1.00  0.00     0.031 C 
ATOM     67  C   UNL A   1      47.562  30.776  29.642  1.00  0.00     0.029 A 
ATOM     68  C   UNL A   1      46.223  30.441  29.521  1.00  0.00     0.049 A 
ATOM     69  H   UNL A   1      45.360  28.603  28.942  1.00  0.00     0.167 HD
ATOM     70  C   UNL A   1      43.781  30.861  29.623  1.00  0.00     0.074 A 
ATOM     71  C   UNL A   1      42.631  31.698  29.891  1.00  0.00     0.031 C 
ATOM     72  C   UNL A   1      45.067  31.264  29.767  1.00  0.00     0.037 A 
BRANCH  59  73
ATOM     73  C   UNL A   1      49.250  26.900  28.517  1.00  0.00     0.064 A 
ATOM     74  C   UNL A   1      50.026  27.081  27.363  1.00  0.00     0.173 A 
ATOM     75  C   UNL A   1      49.887  26.400  29.663  1.00  0.00     0.173 A 
ATOM     76  F   UNL A   1      49.464  27.546  26.237  1.00  0.00    -0.203 F 
ATOM     77  C   UNL A   1      51.381  26.759  27.352  1.00  0.00     0.198 A 
ATOM     78  C   UNL A   1      51.249  26.109  29.657  1.00  0.00     0.198 A 
ATOM     79  F   UNL A   1      49.193  26.211  30.795  1.00  0.00    -0.203 F 
ATOM     80  F   UNL A   1      52.093  26.904  26.225  1.00  0.00    -0.200 F 
ATOM     81  C   UNL A   1      51.994  26.284  28.501  1.00  0.00     0.200 A 
ATOM     82  F   UNL A   1      51.843  25.665  30.775  1.00  0.00    -0.200 F 
ATOM     83  F   UNL A   1      53.302  25.991  28.493  1.00  0.00    -0.200 F 
ENDBRANCH  59  73
BRANCH  60  84
ATOM     84  C   UNL A   1      39.493  29.028  28.989  1.00  0.00     0.064 A 
ATOM     85  C   UNL A   1      38.824  28.910  30.215  1.00  0.00     0.173 A 
ATOM     86  C   UNL A   1      38.740  29.424  27.873  1.00  0.00     0.173 A 
ATOM     87  F   UNL A   1      39.495  28.516  31.309  1.00  0.00    -0.203 F 
ATOM     88  C   UNL A   1      37.453  29.139  30.315  1.00  0.00     0.198 A 
ATOM     89  C   UNL A   1      37.376  29.688  27.981  1.00  0.00     0.198 A 
ATOM     90  F   UNL A   1      39.331  29.562  26.677  1.00  0.00    -0.203 F 
ATOM     91  F   UNL A   1      36.829  28.956  31.485  1.00  0.00    -0.200 F 
ATOM     92  C   UNL A   1      36.731  29.532  29.197  1.00  0.00     0.200 A 
ATOM     93  F   UNL A   1      36.686  30.084  26.902  1.00  0.00    -0.200 F 
ATOM     94  F   UNL A   1      35.412  29.749  29.292  1.00  0.00    -0.200 F 
ENDBRANCH  60  84
BRANCH  72  95
ATOM     95  C   UNL A   1      45.302  32.687  30.188  1.00  0.00     0.064 A 
ATOM     96  C   UNL A   1      45.460  33.044  31.535  1.00  0.00     0.173 A 
ATOM     97  C   UNL A   1      45.412  33.700  29.223  1.00  0.00     0.173 A 
ATOM     98  F   UNL A   1      45.349  32.116  32.498  1.00  0.00    -0.203 F 
ATOM     99  C   UNL A   1      45.689  34.367  31.902  1.00  0.00     0.198 A 
ATOM    100  C   UNL A   1      45.676  35.016  29.591  1.00  0.00     0.198 A 
ATOM    101  F   UNL A   1      45.277  33.411  27.920  1.00  0.00    -0.203 F 
ATOM    102  F   UNL A   1      45.782  34.694  33.199  1.00  0.00    -0.200 F 
ATOM    103  C   UNL A   1      45.806  35.350  30.930  1.00  0.00     0.200 A 
ATOM    104  F   UNL A   1      45.806  35.961  28.650  1.00  0.00    -0.200 F 
ATOM    105  F   UNL A   1      46.036  36.621  31.285  1.00  0.00    -0.200 F 
ENDBRANCH  72  95
ENDBRANCH  46  47
ENDBRANCH  38  41
ENDBRANCH  36  37
ENDBRANCH  35  36
ENDBRANCH  34  35
ENDBRANCH  33  34
ENDBRANCH   1  33
TORSDOF 19
ENDMDL
MODEL 3
REMARK VINA RESULT:     -11.9      1.553      2.716
REMARK SMILES COc1ccc(C(=O)Nc2ccccc2C(=O)N[C@@H](C(=O)NCCCCCCNC(=O)c2ccc(-c3c4nc(c(-c5c(F)c(F)c(F)c(F)c5F)c5ccc([nH]5)c(-c5c(F)c(F)c(F)c(F)c5F)c5nc(c(-c6c(F)c(F)c(F)c(F)c6F)c6ccc3[nH]6)C=C5)C=C4)cc2)C(C)C)cc1
REMARK SMILES IDX 24 1 23 2 22 3 20 4 21 5 19 7 18 8 16 9 17 10 15 12 10 13
REMARK SMILES IDX 11 14 12 15 14 16 13 17 9 18 7 19 8 20 6 22 3 23 4 24 99 25
REMARK SMILES IDX 5 26 98 27 2 28 1 29 95 30 96 31 97 32 25 33 26 34 27 35
REMARK SMILES IDX 28 36 29 37 30 38 31 40 32 41 33 42 94 43 34 44 93 45 35 46
REMARK SMILES IDX 36 47 37 48 87 49 38 50 92 51 86 52 88 53 39 54 91 55 85 56
REMARK SMILES IDX 84 57 40 59 72 60 52 61 71 62 53 63 56 64 70 65 89 66 54 67
REMARK SMILES IDX 55 68 69 70 90 71 57 72 41 73 42 74 50 75 43 76 44 77 48 78
REMARK SMILES IDX 51 79 45 80 46 81 49 82 47 83 73 84 74 85 82 86 75 87 76 88
REMARK SMILES IDX 80 89 83 90 77 91 78 92 81 93 79 94 58 95 59 96 67 97 60 98
REMARK SMILES IDX 61 99 65 100 68 101 62 102 63 103 66 104 64 105
REMARK H PARENT 22 6 18 11 9 21 29 39 88 58 56 69
REMARK Flexibility Score: inf
ROOT
ATOM      1  C   UNL A   1      37.416  23.517  25.993  1.00  0.00     0.021 C 
ENDROOT
BRANCH   1   2
ATOM      2  C   UNL A   1      35.992  23.099  25.620  1.00  0.00     0.116 C 
BRANCH   2   3
ATOM      3  N   UNL A   1      35.420  22.344  26.702  1.00  0.00    -0.354 N 
ATOM      4  C   UNL A   1      34.210  21.735  26.746  1.00  0.00     0.242 C 
ATOM      5  O   UNL A   1      33.725  21.603  27.875  1.00  0.00    -0.273 OA
ATOM      6  H   UNL A   1      35.976  22.259  27.510  1.00  0.00     0.163 HD
BRANCH   4   7
ATOM      7  C   UNL A   1      33.491  21.237  25.442  1.00  0.00     0.174 C 
BRANCH   7   8
ATOM      8  N   UNL A   1      32.120  21.805  25.484  1.00  0.00    -0.340 N 
ATOM      9  C   UNL A   1      31.488  22.976  25.066  1.00  0.00     0.254 C 
ATOM     10  O   UNL A   1      30.439  23.229  25.673  1.00  0.00    -0.269 OA
ATOM     11  H   UNL A   1      31.490  21.192  25.925  1.00  0.00     0.164 HD
BRANCH   9  12
ATOM     12  C   UNL A   1      31.914  23.986  24.011  1.00  0.00     0.063 A 
ATOM     13  C   UNL A   1      31.098  24.753  23.172  1.00  0.00     0.054 A 
ATOM     14  C   UNL A   1      31.636  25.471  22.080  1.00  0.00     0.027 A 
ATOM     15  C   UNL A   1      33.009  25.649  21.958  1.00  0.00     0.002 A 
ATOM     16  C   UNL A   1      33.308  24.205  23.871  1.00  0.00     0.016 A 
ATOM     17  C   UNL A   1      33.845  25.059  22.892  1.00  0.00     0.001 A 
BRANCH  13  18
ATOM     18  N   UNL A   1      29.781  25.115  23.467  1.00  0.00    -0.321 N 
ATOM     19  C   UNL A   1      29.412  26.280  24.108  1.00  0.00     0.255 C 
ATOM     20  O   UNL A   1      28.239  26.641  24.063  1.00  0.00    -0.269 OA
ATOM     21  H   UNL A   1      29.065  24.494  23.198  1.00  0.00     0.170 HD
BRANCH  19  22
ATOM     22  C   UNL A   1      30.417  27.153  24.763  1.00  0.00     0.040 A 
ATOM     23  C   UNL A   1      32.387  28.795  25.863  1.00  0.00     0.118 A 
ATOM     24  C   UNL A   1      31.758  29.184  24.698  1.00  0.00     0.047 A 
ATOM     25  C   UNL A   1      31.987  27.626  26.524  1.00  0.00     0.047 A 
ATOM     26  C   UNL A   1      30.794  28.351  24.156  1.00  0.00     0.017 A 
ATOM     27  C   UNL A   1      31.004  26.796  25.971  1.00  0.00     0.017 A 
BRANCH  23  28
ATOM     28  O   UNL A   1      33.379  29.622  26.305  1.00  0.00    -0.497 OA
ATOM     29  C   UNL A   1      32.876  30.654  27.145  1.00  0.00     0.278 C 
ENDBRANCH  23  28
ENDBRANCH  19  22
ENDBRANCH  13  18
ENDBRANCH   9  12
ENDBRANCH   7   8
BRANCH   7  30
ATOM     30  C   UNL A   1      33.651  19.647  25.517  1.00  0.00     0.015 C 
ATOM     31  C   UNL A   1      32.554  18.648  25.150  1.00  0.00     0.010 C 
ATOM     32  C   UNL A   1      34.863  19.250  24.648  1.00  0.00     0.010 C 
ENDBRANCH   7  30
ENDBRANCH   4   7
ENDBRANCH   2   3
ENDBRANCH   1   2
BRANCH   1  33
ATOM     33  C   UNL A   1      38.431  22.395  25.740  1.00  0.00     0.002 C 
BRANCH  33  34
ATOM     34  C   UNL A   1      37.893  21.267  24.853  1.00  0.00     0.002 C 
BRANCH  34  35
ATOM     35  C   UNL A   1      38.682  19.961  24.961  1.00  0.00     0.021 C 
BRANCH  35  36
ATOM     36  C   UNL A   1      39.486  19.838  26.250  1.00  0.00     0.116 C 
BRANCH  36  37
ATOM     37  N   UNL A   1      40.586  18.897  26.102  1.00  0.00    -0.352 N 
ATOM     38  C   UNL A   1      41.929  19.141  25.975  1.00  0.00     0.251 C 
ATOM     39  H   UNL A   1      40.329  17.946  26.093  1.00  0.00     0.163 HD
ATOM     40  O   UNL A   1      42.689  18.259  25.603  1.00  0.00    -0.269 OA
BRANCH  38  41
ATOM     41  C   UNL A   1      42.448  20.487  26.285  1.00  0.00     0.039 A 
ATOM     42  C   UNL A   1      42.814  21.330  25.234  1.00  0.00     0.014 A 
ATOM     43  C   UNL A   1      42.579  20.908  27.612  1.00  0.00     0.014 A 
ATOM     44  C   UNL A   1      43.264  22.620  25.515  1.00  0.00     0.010 A 
ATOM     45  C   UNL A   1      42.952  22.218  27.885  1.00  0.00     0.010 A 
ATOM     46  C   UNL A   1      43.306  23.084  26.841  1.00  0.00    -0.014 A 
BRANCH  46  47
ATOM     47  C   UNL A   1      43.722  24.473  27.153  1.00  0.00     0.031 A 
ATOM     48  C   UNL A   1      42.712  25.465  27.659  1.00  0.00     0.074 A 
ATOM     49  C   UNL A   1      44.994  24.852  26.922  1.00  0.00     0.049 A 
ATOM     50  N   UNL A   1      42.863  26.738  27.922  1.00  0.00    -0.248 NA
ATOM     51  C   UNL A   1      41.342  24.968  27.872  1.00  0.00     0.031 C 
ATOM     52  C   UNL A   1      46.050  23.990  26.389  1.00  0.00     0.029 A 
ATOM     53  N   UNL A   1      45.611  26.066  27.096  1.00  0.00    -0.354 N 
ATOM     54  C   UNL A   1      41.613  27.193  28.318  1.00  0.00     0.074 A 
ATOM     55  C   UNL A   1      40.699  26.076  28.209  1.00  0.00     0.031 C 
ATOM     56  C   UNL A   1      47.189  24.695  26.299  1.00  0.00     0.029 A 
ATOM     57  C   UNL A   1      46.934  26.067  26.726  1.00  0.00     0.049 A 
ATOM     58  H   UNL A   1      45.150  26.859  27.451  1.00  0.00     0.167 HD
ATOM     59  C   UNL A   1      41.264  28.426  28.755  1.00  0.00     0.037 A 
ATOM     60  C   UNL A   1      47.836  27.068  26.720  1.00  0.00     0.037 A 
ATOM     61  C   UNL A   1      42.183  29.526  28.885  1.00  0.00     0.049 A 
ATOM     62  C   UNL A   1      47.414  28.432  27.200  1.00  0.00     0.074 A 
ATOM     63  C   UNL A   1      41.942  30.797  29.376  1.00  0.00     0.029 A 
ATOM     64  N   UNL A   1      43.521  29.485  28.518  1.00  0.00    -0.354 N 
ATOM     65  N   UNL A   1      46.248  28.830  27.643  1.00  0.00    -0.248 NA
ATOM     66  C   UNL A   1      48.440  29.484  27.186  1.00  0.00     0.031 C 
ATOM     67  C   UNL A   1      43.118  31.543  29.253  1.00  0.00     0.029 A 
ATOM     68  C   UNL A   1      44.110  30.718  28.747  1.00  0.00     0.049 A 
ATOM     69  H   UNL A   1      43.983  28.697  28.149  1.00  0.00     0.167 HD
ATOM     70  C   UNL A   1      46.407  30.165  27.993  1.00  0.00     0.074 A 
ATOM     71  C   UNL A   1      47.788  30.504  27.725  1.00  0.00     0.031 C 
ATOM     72  C   UNL A   1      45.492  31.033  28.490  1.00  0.00     0.037 A 
BRANCH  59  73
ATOM     73  C   UNL A   1      39.829  28.659  29.131  1.00  0.00     0.064 A 
ATOM     74  C   UNL A   1      39.368  28.454  30.439  1.00  0.00     0.173 A 
ATOM     75  C   UNL A   1      38.919  29.154  28.185  1.00  0.00     0.173 A 
ATOM     76  F   UNL A   1      40.194  27.971  31.379  1.00  0.00    -0.203 F 
ATOM     77  C   UNL A   1      38.044  28.719  30.783  1.00  0.00     0.198 A 
ATOM     78  C   UNL A   1      37.605  29.448  28.540  1.00  0.00     0.198 A 
ATOM     79  F   UNL A   1      39.309  29.373  26.920  1.00  0.00    -0.203 F 
ATOM     80  F   UNL A   1      37.617  28.477  32.030  1.00  0.00    -0.200 F 
ATOM     81  C   UNL A   1      37.167  29.225  29.836  1.00  0.00     0.200 A 
ATOM     82  F   UNL A   1      36.762  29.953  27.626  1.00  0.00    -0.200 F 
ATOM     83  F   UNL A   1      35.898  29.495  30.172  1.00  0.00    -0.200 F 
ENDBRANCH  59  73
BRANCH  60  84
ATOM     84  C   UNL A   1      49.226  26.822  26.255  1.00  0.00     0.064 A 
ATOM     85  C   UNL A   1      49.595  27.057  24.922  1.00  0.00     0.173 A 
ATOM     86  C   UNL A   1      50.208  26.316  27.120  1.00  0.00     0.173 A 
ATOM     87  F   UNL A   1      48.689  27.523  24.049  1.00  0.00    -0.203 F 
ATOM     88  C   UNL A   1      50.878  26.763  24.466  1.00  0.00     0.198 A 
ATOM     89  C   UNL A   1      51.501  26.055  26.671  1.00  0.00     0.198 A 
ATOM     90  F   UNL A   1      49.912  26.081  28.408  1.00  0.00    -0.203 F 
ATOM     91  F   UNL A   1      51.183  26.937  23.173  1.00  0.00    -0.200 F 
ATOM     92  C   UNL A   1      51.832  26.266  25.342  1.00  0.00     0.200 A 
ATOM     93  F   UNL A   1      52.423  25.592  27.527  1.00  0.00    -0.200 F 
ATOM     94  F   UNL A   1      53.064  25.979  24.902  1.00  0.00    -0.200 F 
ENDBRANCH  60  84
BRANCH  72  95
ATOM     95  C   UNL A   1      45.965  32.419  28.825  1.00  0.00     0.064 A 
ATOM     96  C   UNL A   1      46.507  32.734  30.079  1.00  0.00     0.173 A 
ATOM     97  C   UNL A   1      45.913  33.435  27.859  1.00  0.00     0.173 A 
ATOM     98  F   UNL A   1      46.566  31.801  31.043  1.00  0.00    -0.203 F 
ATOM     99  C   UNL A   1      46.951  34.022  30.364  1.00  0.00     0.198 A 
ATOM    100  C   UNL A   1      46.391  34.713  28.135  1.00  0.00     0.198 A 
ATOM    101  F   UNL A   1      45.411  33.185  26.639  1.00  0.00    -0.203 F 
ATOM    102  F   UNL A   1      47.415  34.313  31.587  1.00  0.00    -0.200 F 
ATOM    103  C   UNL A   1      46.901  35.008  29.390  1.00  0.00     0.200 A 
ATOM    104  F   UNL A   1      46.357  35.659  27.186  1.00  0.00    -0.200 F 
ATOM    105  F   UNL A   1      47.338  36.244  29.662  1.00  0.00    -0.200 F 
ENDBRANCH  72  95
ENDBRANCH  46  47
ENDBRANCH  38  41
ENDBRANCH  36  37
ENDBRANCH  35  36
ENDBRANCH  34  35
ENDBRANCH  33  34
ENDBRANCH   1  33
TORSDOF 19
ENDMDL
