MODEL 1
REMARK VINA RESULT:     -12.1      0.000      0.000
REMARK SMILES C[NH2+][C@]1(C(=O)NCCCCCCNC(=O)c2ccc(-c3c4nc(c(-c5c(F)c(F)c(F)c(F)c5F)c5ccc([nH]5)c(-c5c(F)c(F)c(F)c(F)c5F)c5nc(c(-c6c(F)c(F)c(F)c(F)c6F)c6ccc3[nH]6)C=C5)C=C4)cc2)CC[C@H](Sc2ccc(Cl)cn2)C1
REMARK SMILES IDX 9 1 8 2 7 3 6 4 4 5 5 6 3 8 79 9 90 10 80 11 81 12 2 13 1 14
REMARK SMILES IDX 82 17 83 18 84 19 89 20 85 21 88 22 86 23 87 24 10 25 11 26
REMARK SMILES IDX 12 27 13 28 14 29 15 31 16 32 17 33 78 34 18 35 77 36 19 37
REMARK SMILES IDX 20 38 21 39 71 40 22 41 76 42 70 43 72 44 23 45 75 46 69 47
REMARK SMILES IDX 68 48 24 50 56 51 36 52 55 53 37 54 40 55 54 56 73 57 38 58
REMARK SMILES IDX 39 59 53 61 74 62 41 63 25 64 26 65 34 66 27 67 28 68 32 69
REMARK SMILES IDX 35 70 29 71 30 72 33 73 31 74 57 75 58 76 66 77 59 78 60 79
REMARK SMILES IDX 64 80 67 81 61 82 62 83 65 84 63 85 42 86 43 87 51 88 44 89
REMARK SMILES IDX 45 90 49 91 52 92 46 93 47 94 50 95 48 96
REMARK H PARENT 6 7 2 15 2 16 13 30 72 49 40 60
REMARK Flexibility Score: inf
ROOT
ATOM      1  C   UNL A   1      32.567  29.665  26.558  1.00  0.00     0.002 C 
ENDROOT
BRANCH   1   2
ATOM      2  C   UNL A   1      32.020  28.431  27.287  1.00  0.00     0.021 C 
BRANCH   2   3
ATOM      3  C   UNL A   1      32.173  27.133  26.498  1.00  0.00     0.116 C 
BRANCH   3   4
ATOM      4  N   UNL A   1      31.048  26.249  26.729  1.00  0.00    -0.351 N 
ATOM      5  C   UNL A   1      30.808  24.952  26.395  1.00  0.00     0.281 C 
ATOM      6  O   UNL A   1      29.746  24.489  26.826  1.00  0.00    -0.268 OA
ATOM      7  H   UNL A   1      30.312  26.670  27.228  1.00  0.00     0.163 HD
BRANCH   5   8
ATOM      8  C   UNL A   1      31.840  24.082  25.614  1.00  0.00     0.176 C 
ATOM      9  C   UNL A   1      33.197  23.844  26.292  1.00  0.00     0.080 C 
ATOM     10  C   UNL A   1      31.250  22.657  25.472  1.00  0.00     0.094 C 
ATOM     11  C   UNL A   1      33.679  22.489  25.781  1.00  0.00     0.022 C 
ATOM     12  C   UNL A   1      32.429  21.676  25.434  1.00  0.00     0.060 C 
BRANCH   8  13
ATOM     13  N   UNL A   1      32.076  24.597  24.236  1.00  0.00    -0.336 N 
ATOM     14  C   UNL A   1      30.937  24.497  23.326  1.00  0.00     0.331 C 
ATOM     15  H   UNL A   1      32.337  25.580  24.307  1.00  0.00     0.346 HD
ATOM     16  H   UNL A   1      32.807  24.007  23.836  1.00  0.00     0.346 HD
ENDBRANCH   8  13
BRANCH  12  17
ATOM     17  S   UNL A   1      32.482  20.867  23.794  1.00  0.00    -0.103 SA
BRANCH  17  18
ATOM     18  C   UNL A   1      32.689  19.136  24.127  1.00  0.00     0.096 A 
ATOM     19  C   UNL A   1      33.072  18.177  23.194  1.00  0.00     0.037 A 
ATOM     20  N   UNL A   1      32.451  18.809  25.419  1.00  0.00    -0.248 NA
ATOM     21  C   UNL A   1      33.180  16.841  23.591  1.00  0.00     0.025 A 
ATOM     22  C   UNL A   1      32.574  17.512  25.785  1.00  0.00     0.132 A 
ATOM     23  C   UNL A   1      32.925  16.500  24.911  1.00  0.00     0.059 A 
ATOM     24  Cl  UNL A   1      33.049  14.874  25.439  1.00  0.00    -0.083 Cl
ENDBRANCH  17  18
ENDBRANCH  12  17
ENDBRANCH   5   8
ENDBRANCH   3   4
ENDBRANCH   2   3
ENDBRANCH   1   2
BRANCH   1  25
ATOM     25  C   UNL A   1      31.506  30.529  25.869  1.00  0.00     0.002 C 
BRANCH  25  26
ATOM     26  C   UNL A   1      31.316  31.919  26.478  1.00  0.00     0.021 C 
BRANCH  26  27
ATOM     27  C   UNL A   1      32.549  32.465  27.187  1.00  0.00     0.116 C 
BRANCH  27  28
ATOM     28  N   UNL A   1      32.403  33.871  27.524  1.00  0.00    -0.352 N 
ATOM     29  C   UNL A   1      33.059  34.603  28.481  1.00  0.00     0.251 C 
ATOM     30  H   UNL A   1      31.740  34.369  26.992  1.00  0.00     0.163 HD
ATOM     31  O   UNL A   1      32.668  35.729  28.779  1.00  0.00    -0.269 OA
BRANCH  29  32
ATOM     32  C   UNL A   1      34.229  34.021  29.167  1.00  0.00     0.039 A 
ATOM     33  C   UNL A   1      34.020  33.155  30.243  1.00  0.00     0.014 A 
ATOM     34  C   UNL A   1      35.527  34.325  28.748  1.00  0.00     0.014 A 
ATOM     35  C   UNL A   1      35.115  32.551  30.863  1.00  0.00     0.010 A 
ATOM     36  C   UNL A   1      36.610  33.661  29.313  1.00  0.00     0.010 A 
ATOM     37  C   UNL A   1      36.416  32.773  30.382  1.00  0.00    -0.014 A 
BRANCH  37  38
ATOM     38  C   UNL A   1      37.585  32.087  30.987  1.00  0.00     0.031 A 
ATOM     39  C   UNL A   1      38.078  32.493  32.347  1.00  0.00     0.074 A 
ATOM     40  C   UNL A   1      38.237  31.140  30.285  1.00  0.00     0.049 A 
ATOM     41  N   UNL A   1      39.115  32.056  33.017  1.00  0.00    -0.248 NA
ATOM     42  C   UNL A   1      37.323  33.552  33.035  1.00  0.00     0.031 C 
ATOM     43  C   UNL A   1      37.882  30.693  28.937  1.00  0.00     0.029 A 
ATOM     44  N   UNL A   1      39.340  30.389  30.605  1.00  0.00    -0.354 N 
ATOM     45  C   UNL A   1      39.142  32.793  34.194  1.00  0.00     0.074 A 
ATOM     46  C   UNL A   1      38.056  33.746  34.121  1.00  0.00     0.031 C 
ATOM     47  C   UNL A   1      38.738  29.731  28.554  1.00  0.00     0.029 A 
ATOM     48  C   UNL A   1      39.724  29.524  29.609  1.00  0.00     0.049 A 
ATOM     49  H   UNL A   1      39.812  30.463  31.466  1.00  0.00     0.167 HD
ATOM     50  C   UNL A   1      39.981  32.668  35.250  1.00  0.00     0.037 A 
ATOM     51  C   UNL A   1      40.762  28.667  29.550  1.00  0.00     0.037 A 
ATOM     52  C   UNL A   1      41.049  31.705  35.322  1.00  0.00     0.049 A 
ATOM     53  C   UNL A   1      41.690  28.559  30.730  1.00  0.00     0.074 A 
ATOM     54  C   UNL A   1      41.917  31.458  36.371  1.00  0.00     0.029 A 
ATOM     55  N   UNL A   1      41.400  30.836  34.299  1.00  0.00    -0.354 N 
ATOM     56  N   UNL A   1      41.660  29.207  31.870  1.00  0.00    -0.248 NA
ATOM     57  C   UNL A   1      42.792  27.594  30.619  1.00  0.00     0.031 C 
ATOM     58  C   UNL A   1      42.832  30.482  35.960  1.00  0.00     0.029 A 
ATOM     59  C   UNL A   1      42.493  30.073  34.680  1.00  0.00     0.049 A 
ATOM     60  H   UNL A   1      40.941  30.771  33.430  1.00  0.00     0.167 HD
ATOM     61  C   UNL A   1      42.716  28.709  32.621  1.00  0.00     0.074 A 
ATOM     62  C   UNL A   1      43.358  27.692  31.813  1.00  0.00     0.031 C 
ATOM     63  C   UNL A   1      43.118  29.061  33.867  1.00  0.00     0.037 A 
BRANCH  50  64
ATOM     64  C   UNL A   1      39.782  33.601  36.411  1.00  0.00     0.064 A 
ATOM     65  C   UNL A   1      38.946  33.271  37.491  1.00  0.00     0.173 A 
ATOM     66  C   UNL A   1      40.459  34.829  36.462  1.00  0.00     0.173 A 
ATOM     67  F   UNL A   1      38.266  32.113  37.489  1.00  0.00    -0.203 F 
ATOM     68  C   UNL A   1      38.770  34.148  38.557  1.00  0.00     0.198 A 
ATOM     69  C   UNL A   1      40.307  35.688  37.547  1.00  0.00     0.198 A 
ATOM     70  F   UNL A   1      41.274  35.194  35.462  1.00  0.00    -0.203 F 
ATOM     71  F   UNL A   1      37.922  33.835  39.547  1.00  0.00    -0.200 F 
ATOM     72  C   UNL A   1      39.457  35.352  38.589  1.00  0.00     0.200 A 
ATOM     73  F   UNL A   1      40.983  36.845  37.583  1.00  0.00    -0.200 F 
ATOM     74  F   UNL A   1      39.291  36.193  39.620  1.00  0.00    -0.200 F 
ENDBRANCH  50  64
BRANCH  51  75
ATOM     75  C   UNL A   1      40.970  27.835  28.335  1.00  0.00     0.064 A 
ATOM     76  C   UNL A   1      40.381  26.568  28.217  1.00  0.00     0.173 A 
ATOM     77  C   UNL A   1      41.764  28.286  27.270  1.00  0.00     0.173 A 
ATOM     78  F   UNL A   1      39.628  26.085  29.216  1.00  0.00    -0.203 F 
ATOM     79  C   UNL A   1      40.599  25.775  27.093  1.00  0.00     0.198 A 
ATOM     80  C   UNL A   1      41.954  27.504  26.133  1.00  0.00     0.198 A 
ATOM     81  F   UNL A   1      42.345  29.493  27.328  1.00  0.00    -0.203 F 
ATOM     82  F   UNL A   1      40.065  24.547  27.030  1.00  0.00    -0.200 F 
ATOM     83  C   UNL A   1      41.379  26.245  26.049  1.00  0.00     0.200 A 
ATOM     84  F   UNL A   1      42.694  27.972  25.118  1.00  0.00    -0.200 F 
ATOM     85  F   UNL A   1      41.585  25.483  24.965  1.00  0.00    -0.200 F 
ENDBRANCH  51  75
BRANCH  63  86
ATOM     86  C   UNL A   1      44.284  28.317  34.452  1.00  0.00     0.064 A 
ATOM     87  C   UNL A   1      45.599  28.791  34.336  1.00  0.00     0.173 A 
ATOM     88  C   UNL A   1      44.078  27.131  35.173  1.00  0.00     0.173 A 
ATOM     89  F   UNL A   1      45.855  29.912  33.644  1.00  0.00    -0.203 F 
ATOM     90  C   UNL A   1      46.665  28.091  34.895  1.00  0.00     0.198 A 
ATOM     91  C   UNL A   1      45.141  26.453  35.762  1.00  0.00     0.198 A 
ATOM     92  F   UNL A   1      42.839  26.636  35.322  1.00  0.00    -0.203 F 
ATOM     93  F   UNL A   1      47.919  28.535  34.725  1.00  0.00    -0.200 F 
ATOM     94  C   UNL A   1      46.435  26.928  35.615  1.00  0.00     0.200 A 
ATOM     95  F   UNL A   1      44.914  25.339  36.471  1.00  0.00    -0.200 F 
ATOM     96  F   UNL A   1      47.461  26.262  36.160  1.00  0.00    -0.200 F 
ENDBRANCH  63  86
ENDBRANCH  37  38
ENDBRANCH  29  32
ENDBRANCH  27  28
ENDBRANCH  26  27
ENDBRANCH  25  26
ENDBRANCH   1  25
TORSDOF 16
ENDMDL
MODEL 2
REMARK VINA RESULT:     -12.1      0.746      7.478
REMARK SMILES C[NH2+][C@]1(C(=O)NCCCCCCNC(=O)c2ccc(-c3c4nc(c(-c5c(F)c(F)c(F)c(F)c5F)c5ccc([nH]5)c(-c5c(F)c(F)c(F)c(F)c5F)c5nc(c(-c6c(F)c(F)c(F)c(F)c6F)c6ccc3[nH]6)C=C5)C=C4)cc2)CC[C@H](Sc2ccc(Cl)cn2)C1
REMARK SMILES IDX 9 1 8 2 7 3 6 4 4 5 5 6 3 8 79 9 90 10 80 11 81 12 2 13 1 14
REMARK SMILES IDX 82 17 83 18 84 19 89 20 85 21 88 22 86 23 87 24 10 25 11 26
REMARK SMILES IDX 12 27 13 28 14 29 15 31 16 32 17 33 78 34 18 35 77 36 19 37
REMARK SMILES IDX 20 38 21 39 71 40 22 41 76 42 70 43 72 44 23 45 75 46 69 47
REMARK SMILES IDX 68 48 24 50 56 51 36 52 55 53 37 54 40 55 54 56 73 57 38 58
REMARK SMILES IDX 39 59 53 61 74 62 41 63 25 64 26 65 34 66 27 67 28 68 32 69
REMARK SMILES IDX 35 70 29 71 30 72 33 73 31 74 57 75 58 76 66 77 59 78 60 79
REMARK SMILES IDX 64 80 67 81 61 82 62 83 65 84 63 85 42 86 43 87 51 88 44 89
REMARK SMILES IDX 45 90 49 91 52 92 46 93 47 94 50 95 48 96
REMARK H PARENT 6 7 2 15 2 16 13 30 72 49 40 60
REMARK Flexibility Score: inf
ROOT
ATOM      1  C   UNL A   1      32.774  30.086  26.888  1.00  0.00     0.002 C 
ENDROOT
BRANCH   1   2
ATOM      2  C   UNL A   1      32.692  28.612  27.303  1.00  0.00     0.021 C 
BRANCH   2   3
ATOM      3  C   UNL A   1      32.434  27.659  26.138  1.00  0.00     0.116 C 
BRANCH   3   4
ATOM      4  N   UNL A   1      31.232  26.881  26.362  1.00  0.00    -0.351 N 
ATOM      5  C   UNL A   1      30.904  25.589  26.089  1.00  0.00     0.281 C 
ATOM      6  O   UNL A   1      29.789  25.237  26.490  1.00  0.00    -0.268 OA
ATOM      7  H   UNL A   1      30.509  27.387  26.797  1.00  0.00     0.163 HD
BRANCH   5   8
ATOM      8  C   UNL A   1      31.898  24.595  25.412  1.00  0.00     0.176 C 
ATOM      9  C   UNL A   1      33.142  24.204  26.223  1.00  0.00     0.080 C 
ATOM     10  C   UNL A   1      31.159  23.250  25.207  1.00  0.00     0.094 C 
ATOM     11  C   UNL A   1      33.508  22.797  25.757  1.00  0.00     0.022 C 
ATOM     12  C   UNL A   1      32.211  22.135  25.285  1.00  0.00     0.060 C 
BRANCH   8  13
ATOM     13  N   UNL A   1      32.329  25.067  24.067  1.00  0.00    -0.336 N 
ATOM     14  C   UNL A   1      31.310  25.000  23.022  1.00  0.00     0.331 C 
ATOM     15  H   UNL A   1      32.628  26.038  24.153  1.00  0.00     0.346 HD
ATOM     16  H   UNL A   1      33.075  24.434  23.772  1.00  0.00     0.346 HD
ENDBRANCH   8  13
BRANCH  12  17
ATOM     17  S   UNL A   1      32.331  21.311  23.655  1.00  0.00    -0.103 SA
BRANCH  17  18
ATOM     18  C   UNL A   1      32.549  19.587  24.012  1.00  0.00     0.096 A 
ATOM     19  C   UNL A   1      32.765  18.590  23.066  1.00  0.00     0.037 A 
ATOM     20  N   UNL A   1      32.505  19.306  25.336  1.00  0.00    -0.248 NA
ATOM     21  C   UNL A   1      32.904  17.265  23.487  1.00  0.00     0.025 A 
ATOM     22  C   UNL A   1      32.655  18.017  25.723  1.00  0.00     0.132 A 
ATOM     23  C   UNL A   1      32.847  16.971  24.841  1.00  0.00     0.059 A 
ATOM     24  Cl  UNL A   1      33.016  15.359  25.400  1.00  0.00    -0.083 Cl
ENDBRANCH  17  18
ENDBRANCH  12  17
ENDBRANCH   5   8
ENDBRANCH   3   4
ENDBRANCH   2   3
ENDBRANCH   1   2
BRANCH   1  25
ATOM     25  C   UNL A   1      31.428  30.739  26.556  1.00  0.00     0.002 C 
BRANCH  25  26
ATOM     26  C   UNL A   1      31.430  32.267  26.591  1.00  0.00     0.021 C 
BRANCH  26  27
ATOM     27  C   UNL A   1      32.629  32.875  27.308  1.00  0.00     0.116 C 
BRANCH  27  28
ATOM     28  N   UNL A   1      32.408  34.271  27.647  1.00  0.00    -0.352 N 
ATOM     29  C   UNL A   1      32.991  35.023  28.634  1.00  0.00     0.251 C 
ATOM     30  H   UNL A   1      31.747  34.743  27.090  1.00  0.00     0.163 HD
ATOM     31  O   UNL A   1      32.540  36.129  28.922  1.00  0.00    -0.269 OA
BRANCH  29  32
ATOM     32  C   UNL A   1      34.156  34.486  29.365  1.00  0.00     0.039 A 
ATOM     33  C   UNL A   1      33.953  33.869  30.601  1.00  0.00     0.014 A 
ATOM     34  C   UNL A   1      35.443  34.589  28.831  1.00  0.00     0.014 A 
ATOM     35  C   UNL A   1      35.036  33.305  31.276  1.00  0.00     0.010 A 
ATOM     36  C   UNL A   1      36.508  33.956  29.464  1.00  0.00     0.010 A 
ATOM     37  C   UNL A   1      36.317  33.315  30.697  1.00  0.00    -0.014 A 
BRANCH  37  38
ATOM     38  C   UNL A   1      37.467  32.661  31.370  1.00  0.00     0.031 A 
ATOM     39  C   UNL A   1      38.172  31.509  30.711  1.00  0.00     0.074 A 
ATOM     40  C   UNL A   1      37.836  33.067  32.600  1.00  0.00     0.049 A 
ATOM     41  N   UNL A   1      39.154  30.771  31.164  1.00  0.00    -0.248 NA
ATOM     42  C   UNL A   1      37.690  31.113  29.379  1.00  0.00     0.031 C 
ATOM     43  C   UNL A   1      37.199  34.143  33.361  1.00  0.00     0.029 A 
ATOM     44  N   UNL A   1      38.832  32.617  33.430  1.00  0.00    -0.354 N 
ATOM     45  C   UNL A   1      39.398  29.821  30.179  1.00  0.00     0.074 A 
ATOM     46  C   UNL A   1      38.421  30.037  29.134  1.00  0.00     0.031 C 
ATOM     47  C   UNL A   1      37.833  34.284  34.537  1.00  0.00     0.029 A 
ATOM     48  C   UNL A   1      38.891  33.283  34.630  1.00  0.00     0.049 A 
ATOM     49  H   UNL A   1      39.446  31.886  33.189  1.00  0.00     0.167 HD
ATOM     50  C   UNL A   1      40.364  28.873  30.141  1.00  0.00     0.037 A 
ATOM     51  C   UNL A   1      39.700  33.100  35.691  1.00  0.00     0.037 A 
ATOM     52  C   UNL A   1      41.343  28.676  31.178  1.00  0.00     0.049 A 
ATOM     53  C   UNL A   1      40.756  32.028  35.630  1.00  0.00     0.074 A 
ATOM     54  C   UNL A   1      42.399  27.783  31.208  1.00  0.00     0.029 A 
ATOM     55  N   UNL A   1      41.379  29.379  32.374  1.00  0.00    -0.354 N 
ATOM     56  N   UNL A   1      41.025  31.186  34.662  1.00  0.00    -0.248 NA
ATOM     57  C   UNL A   1      41.624  31.886  36.806  1.00  0.00     0.031 C 
ATOM     58  C   UNL A   1      43.038  27.903  32.447  1.00  0.00     0.029 A 
ATOM     59  C   UNL A   1      42.422  28.917  33.163  1.00  0.00     0.049 A 
ATOM     60  H   UNL A   1      40.757  30.099  32.626  1.00  0.00     0.167 HD
ATOM     61  C   UNL A   1      42.110  30.437  35.098  1.00  0.00     0.074 A 
ATOM     62  C   UNL A   1      42.459  30.936  36.412  1.00  0.00     0.031 C 
ATOM     63  C   UNL A   1      42.759  29.427  34.467  1.00  0.00     0.037 A 
BRANCH  50  64
ATOM     64  C   UNL A   1      40.405  27.970  28.941  1.00  0.00     0.064 A 
ATOM     65  C   UNL A   1      41.178  28.277  27.809  1.00  0.00     0.173 A 
ATOM     66  C   UNL A   1      39.687  26.764  28.932  1.00  0.00     0.173 A 
ATOM     67  F   UNL A   1      41.876  29.423  27.760  1.00  0.00    -0.203 F 
ATOM     68  C   UNL A   1      41.202  27.431  26.704  1.00  0.00     0.198 A 
ATOM     69  C   UNL A   1      39.741  25.903  27.839  1.00  0.00     0.198 A 
ATOM     70  F   UNL A   1      38.936  26.416  29.987  1.00  0.00    -0.203 F 
ATOM     71  F   UNL A   1      41.901  27.776  25.614  1.00  0.00    -0.200 F 
ATOM     72  C   UNL A   1      40.491  26.241  26.722  1.00  0.00     0.200 A 
ATOM     73  F   UNL A   1      39.065  24.746  27.864  1.00  0.00    -0.200 F 
ATOM     74  F   UNL A   1      40.520  25.425  25.660  1.00  0.00    -0.200 F 
ENDBRANCH  50  64
BRANCH  51  75
ATOM     75  C   UNL A   1      39.553  33.960  36.895  1.00  0.00     0.064 A 
ATOM     76  C   UNL A   1      40.187  35.208  36.974  1.00  0.00     0.173 A 
ATOM     77  C   UNL A   1      38.781  33.552  37.992  1.00  0.00     0.173 A 
ATOM     78  F   UNL A   1      40.952  35.635  35.958  1.00  0.00    -0.203 F 
ATOM     79  C   UNL A   1      40.075  36.002  38.112  1.00  0.00     0.198 A 
ATOM     80  C   UNL A   1      38.643  34.362  39.117  1.00  0.00     0.198 A 
ATOM     81  F   UNL A   1      38.147  32.370  37.966  1.00  0.00    -0.203 F 
ATOM     82  F   UNL A   1      40.735  37.167  38.181  1.00  0.00    -0.200 F 
ATOM     83  C   UNL A   1      39.298  35.583  39.181  1.00  0.00     0.200 A 
ATOM     84  F   UNL A   1      37.876  33.960  40.140  1.00  0.00    -0.200 F 
ATOM     85  F   UNL A   1      39.187  36.349  40.275  1.00  0.00    -0.200 F 
ENDBRANCH  51  75
BRANCH  63  86
ATOM     86  C   UNL A   1      43.938  28.818  35.173  1.00  0.00     0.064 A 
ATOM     87  C   UNL A   1      43.794  27.739  36.058  1.00  0.00     0.173 A 
ATOM     88  C   UNL A   1      45.234  29.296  34.928  1.00  0.00     0.173 A 
ATOM     89  F   UNL A   1      42.575  27.253  36.339  1.00  0.00    -0.203 F 
ATOM     90  C   UNL A   1      44.901  27.181  36.692  1.00  0.00     0.198 A 
ATOM     91  C   UNL A   1      46.342  28.713  35.536  1.00  0.00     0.198 A 
ATOM     92  F   UNL A   1      45.430  30.321  34.084  1.00  0.00    -0.203 F 
ATOM     93  F   UNL A   1      44.734  26.186  37.576  1.00  0.00    -0.200 F 
ATOM     94  C   UNL A   1      46.174  27.662  36.425  1.00  0.00     0.200 A 
ATOM     95  F   UNL A   1      47.572  29.168  35.263  1.00  0.00    -0.200 F 
ATOM     96  F   UNL A   1      47.239  27.118  37.030  1.00  0.00    -0.200 F 
ENDBRANCH  63  86
ENDBRANCH  37  38
ENDBRANCH  29  32
ENDBRANCH  27  28
ENDBRANCH  26  27
ENDBRANCH  25  26
ENDBRANCH   1  25
TORSDOF 16
ENDMDL
MODEL 3
REMARK VINA RESULT:     -11.7      5.611     10.005
REMARK SMILES C[NH2+][C@]1(C(=O)NCCCCCCNC(=O)c2ccc(-c3c4nc(c(-c5c(F)c(F)c(F)c(F)c5F)c5ccc([nH]5)c(-c5c(F)c(F)c(F)c(F)c5F)c5nc(c(-c6c(F)c(F)c(F)c(F)c6F)c6ccc3[nH]6)C=C5)C=C4)cc2)CC[C@H](Sc2ccc(Cl)cn2)C1
REMARK SMILES IDX 9 1 8 2 7 3 6 4 4 5 5 6 3 8 79 9 90 10 80 11 81 12 2 13 1 14
REMARK SMILES IDX 82 17 83 18 84 19 89 20 85 21 88 22 86 23 87 24 10 25 11 26
REMARK SMILES IDX 12 27 13 28 14 29 15 31 16 32 17 33 78 34 18 35 77 36 19 37
REMARK SMILES IDX 20 38 21 39 71 40 22 41 76 42 70 43 72 44 23 45 75 46 69 47
REMARK SMILES IDX 68 48 24 50 56 51 36 52 55 53 37 54 40 55 54 56 73 57 38 58
REMARK SMILES IDX 39 59 53 61 74 62 41 63 25 64 26 65 34 66 27 67 28 68 32 69
REMARK SMILES IDX 35 70 29 71 30 72 33 73 31 74 57 75 58 76 66 77 59 78 60 79
REMARK SMILES IDX 64 80 67 81 61 82 62 83 65 84 63 85 42 86 43 87 51 88 44 89
REMARK SMILES IDX 45 90 49 91 52 92 46 93 47 94 50 95 48 96
REMARK H PARENT 6 7 2 15 2 16 13 30 72 49 40 60
REMARK Flexibility Score: inf
ROOT
ATOM      1  C   UNL A   1      35.914  20.651  25.043  1.00  0.00     0.002 C 
ENDROOT
BRANCH   1   2
ATOM      2  C   UNL A   1      35.436  21.630  26.124  1.00  0.00     0.021 C 
BRANCH   2   3
ATOM      3  C   UNL A   1      33.974  21.442  26.521  1.00  0.00     0.116 C 
BRANCH   3   4
ATOM      4  N   UNL A   1      33.150  21.181  25.357  1.00  0.00    -0.351 N 
ATOM      5  C   UNL A   1      32.409  21.989  24.551  1.00  0.00     0.281 C 
ATOM      6  O   UNL A   1      31.879  21.422  23.588  1.00  0.00    -0.268 OA
ATOM      7  H   UNL A   1      33.122  20.233  25.098  1.00  0.00     0.163 HD
BRANCH   5   8
ATOM      8  C   UNL A   1      32.316  23.531  24.763  1.00  0.00     0.176 C 
ATOM      9  C   UNL A   1      33.552  24.357  24.377  1.00  0.00     0.080 C 
ATOM     10  C   UNL A   1      31.209  24.074  23.827  1.00  0.00     0.094 C 
ATOM     11  C   UNL A   1      33.018  25.727  23.969  1.00  0.00     0.022 C 
ATOM     12  C   UNL A   1      31.594  25.511  23.450  1.00  0.00     0.060 C 
BRANCH   8  13
ATOM     13  N   UNL A   1      31.921  23.880  26.156  1.00  0.00    -0.336 N 
ATOM     14  C   UNL A   1      30.608  23.396  26.576  1.00  0.00     0.331 C 
ATOM     15  H   UNL A   1      32.618  23.488  26.789  1.00  0.00     0.346 HD
ATOM     16  H   UNL A   1      31.867  24.899  26.187  1.00  0.00     0.346 HD
ENDBRANCH   8  13
BRANCH  12  17
ATOM     17  S   UNL A   1      30.352  26.664  24.141  1.00  0.00    -0.103 SA
BRANCH  17  18
ATOM     18  C   UNL A   1      31.254  27.727  25.240  1.00  0.00     0.096 A 
ATOM     19  C   UNL A   1      31.523  27.458  26.578  1.00  0.00     0.037 A 
ATOM     20  N   UNL A   1      31.693  28.861  24.645  1.00  0.00    -0.248 NA
ATOM     21  C   UNL A   1      32.232  28.395  27.335  1.00  0.00     0.025 A 
ATOM     22  C   UNL A   1      32.389  29.749  25.393  1.00  0.00     0.132 A 
ATOM     23  C   UNL A   1      32.673  29.564  26.732  1.00  0.00     0.059 A 
ATOM     24  Cl  UNL A   1      33.549  30.737  27.624  1.00  0.00    -0.083 Cl
ENDBRANCH  17  18
ENDBRANCH  12  17
ENDBRANCH   5   8
ENDBRANCH   3   4
ENDBRANCH   2   3
ENDBRANCH   1   2
BRANCH   1  25
ATOM     25  C   UNL A   1      37.374  20.827  24.614  1.00  0.00     0.002 C 
BRANCH  25  26
ATOM     26  C   UNL A   1      38.289  19.651  24.955  1.00  0.00     0.021 C 
BRANCH  26  27
ATOM     27  C   UNL A   1      39.387  19.983  25.958  1.00  0.00     0.116 C 
BRANCH  27  28
ATOM     28  N   UNL A   1      40.432  18.974  25.973  1.00  0.00    -0.352 N 
ATOM     29  C   UNL A   1      41.791  19.138  26.045  1.00  0.00     0.251 C 
ATOM     30  H   UNL A   1      40.120  18.040  25.925  1.00  0.00     0.163 HD
ATOM     31  O   UNL A   1      42.544  18.190  25.836  1.00  0.00    -0.269 OA
BRANCH  29  32
ATOM     32  C   UNL A   1      42.348  20.469  26.358  1.00  0.00     0.039 A 
ATOM     33  C   UNL A   1      42.846  21.254  25.316  1.00  0.00     0.014 A 
ATOM     34  C   UNL A   1      42.374  20.941  27.673  1.00  0.00     0.014 A 
ATOM     35  C   UNL A   1      43.321  22.538  25.588  1.00  0.00     0.010 A 
ATOM     36  C   UNL A   1      42.770  22.249  27.931  1.00  0.00     0.010 A 
ATOM     37  C   UNL A   1      43.256  23.058  26.892  1.00  0.00    -0.014 A 
BRANCH  37  38
ATOM     38  C   UNL A   1      43.694  24.445  27.187  1.00  0.00     0.031 A 
ATOM     39  C   UNL A   1      42.705  25.459  27.688  1.00  0.00     0.074 A 
ATOM     40  C   UNL A   1      44.969  24.805  26.945  1.00  0.00     0.049 A 
ATOM     41  N   UNL A   1      42.881  26.732  27.945  1.00  0.00    -0.248 NA
ATOM     42  C   UNL A   1      41.328  24.990  27.903  1.00  0.00     0.031 C 
ATOM     43  C   UNL A   1      46.010  23.923  26.414  1.00  0.00     0.029 A 
ATOM     44  N   UNL A   1      45.606  26.011  27.106  1.00  0.00    -0.354 N 
ATOM     45  C   UNL A   1      41.638  27.213  28.338  1.00  0.00     0.074 A 
ATOM     46  C   UNL A   1      40.705  26.113  28.227  1.00  0.00     0.031 C 
ATOM     47  C   UNL A   1      47.159  24.610  26.313  1.00  0.00     0.029 A 
ATOM     48  C   UNL A   1      46.927  25.990  26.731  1.00  0.00     0.049 A 
ATOM     49  H   UNL A   1      45.158  26.814  27.456  1.00  0.00     0.167 HD
ATOM     50  C   UNL A   1      41.312  28.452  28.774  1.00  0.00     0.037 A 
ATOM     51  C   UNL A   1      47.846  26.975  26.717  1.00  0.00     0.037 A 
ATOM     52  C   UNL A   1      42.251  29.538  28.898  1.00  0.00     0.049 A 
ATOM     53  C   UNL A   1      47.454  28.348  27.192  1.00  0.00     0.074 A 
ATOM     54  C   UNL A   1      42.033  30.814  29.386  1.00  0.00     0.029 A 
ATOM     55  N   UNL A   1      43.585  29.475  28.520  1.00  0.00    -0.354 N 
ATOM     56  N   UNL A   1      46.294  28.772  27.633  1.00  0.00    -0.248 NA
ATOM     57  C   UNL A   1      48.500  29.379  27.173  1.00  0.00     0.031 C 
ATOM     58  C   UNL A   1      43.220  31.542  29.248  1.00  0.00     0.029 A 
ATOM     59  C   UNL A   1      44.195  30.701  28.736  1.00  0.00     0.049 A 
ATOM     60  H   UNL A   1      44.032  28.678  28.154  1.00  0.00     0.167 HD
ATOM     61  C   UNL A   1      46.478  30.106  27.973  1.00  0.00     0.074 A 
ATOM     62  C   UNL A   1      47.867  30.415  27.701  1.00  0.00     0.031 C 
ATOM     63  C   UNL A   1      45.579  30.993  28.465  1.00  0.00     0.037 A 
BRANCH  50  64
ATOM     64  C   UNL A   1      39.878  28.705  29.145  1.00  0.00     0.064 A 
ATOM     65  C   UNL A   1      39.402  28.494  30.449  1.00  0.00     0.173 A 
ATOM     66  C   UNL A   1      38.971  29.193  28.191  1.00  0.00     0.173 A 
ATOM     67  F   UNL A   1      40.223  28.018  31.398  1.00  0.00    -0.203 F 
ATOM     68  C   UNL A   1      38.069  28.729  30.775  1.00  0.00     0.198 A 
ATOM     69  C   UNL A   1      37.648  29.461  28.529  1.00  0.00     0.198 A 
ATOM     70  F   UNL A   1      39.371  29.418  26.931  1.00  0.00    -0.203 F 
ATOM     71  F   UNL A   1      37.627  28.465  32.012  1.00  0.00    -0.200 F 
ATOM     72  C   UNL A   1      37.195  29.220  29.817  1.00  0.00     0.200 A 
ATOM     73  F   UNL A   1      36.808  29.950  27.606  1.00  0.00    -0.200 F 
ATOM     74  F   UNL A   1      35.914  29.453  30.134  1.00  0.00    -0.200 F 
ENDBRANCH  50  64
BRANCH  51  75
ATOM     75  C   UNL A   1      49.229  26.693  26.248  1.00  0.00     0.064 A 
ATOM     76  C   UNL A   1      49.603  26.928  24.917  1.00  0.00     0.173 A 
ATOM     77  C   UNL A   1      50.202  26.179  27.117  1.00  0.00     0.173 A 
ATOM     78  F   UNL A   1      48.702  27.402  24.043  1.00  0.00    -0.203 F 
ATOM     79  C   UNL A   1      50.889  26.637  24.468  1.00  0.00     0.198 A 
ATOM     80  C   UNL A   1      51.498  25.920  26.674  1.00  0.00     0.198 A 
ATOM     81  F   UNL A   1      49.900  25.943  28.401  1.00  0.00    -0.203 F 
ATOM     82  F   UNL A   1      51.203  26.824  23.178  1.00  0.00    -0.200 F 
ATOM     83  C   UNL A   1      51.837  26.140  25.347  1.00  0.00     0.200 A 
ATOM     84  F   UNL A   1      52.416  25.456  27.533  1.00  0.00    -0.200 F 
ATOM     85  F   UNL A   1      53.076  25.864  24.917  1.00  0.00    -0.200 F 
ENDBRANCH  51  75
BRANCH  63  86
ATOM     86  C   UNL A   1      46.076  32.376  28.779  1.00  0.00     0.064 A 
ATOM     87  C   UNL A   1      46.034  33.411  27.833  1.00  0.00     0.173 A 
ATOM     88  C   UNL A   1      46.566  32.678  30.059  1.00  0.00     0.173 A 
ATOM     89  F   UNL A   1      45.590  33.172  26.590  1.00  0.00    -0.203 F 
ATOM     90  C   UNL A   1      46.489  34.689  28.149  1.00  0.00     0.198 A 
ATOM     91  C   UNL A   1      46.986  33.965  30.383  1.00  0.00     0.198 A 
ATOM     92  F   UNL A   1      46.621  31.728  31.005  1.00  0.00    -0.203 F 
ATOM     93  F   UNL A   1      46.490  35.648  27.212  1.00  0.00    -0.200 F 
ATOM     94  C   UNL A   1      46.957  34.967  29.424  1.00  0.00     0.200 A 
ATOM     95  F   UNL A   1      47.421  34.236  31.621  1.00  0.00    -0.200 F 
ATOM     96  F   UNL A   1      47.385  36.200  29.729  1.00  0.00    -0.200 F 
ENDBRANCH  63  86
ENDBRANCH  37  38
ENDBRANCH  29  32
ENDBRANCH  27  28
ENDBRANCH  26  27
ENDBRANCH  25  26
ENDBRANCH   1  25
TORSDOF 16
ENDMDL
