MODEL 1
REMARK VINA RESULT:     -13.7      0.000      0.000
REMARK SMILES Cc1cccc(NC(=O)C[C@@H]2CCCCO2)c1C(=O)NCCCCCCNC(=O)c1ccc(-c2c3nc(c(-c4c(F)c(F)c(F)c(F)c4F)c4ccc([nH]4)c(-c4c(F)c(F)c(F)c(F)c4F)c4nc(c(-c5c(F)c(F)c(F)c(F)c5F)c5ccc2[nH]5)C=C4)C=C3)cc1
REMARK SMILES IDX 23 1 22 2 21 3 20 4 18 5 19 6 17 8 1 9 2 10 3 11 4 12 6 13
REMARK SMILES IDX 5 14 7 15 8 16 9 18 10 19 11 20 12 21 16 22 13 23 15 24
REMARK SMILES IDX 14 25 24 26 25 27 26 28 27 29 28 30 29 32 30 33 31 34 92 35
REMARK SMILES IDX 32 36 91 37 33 38 34 39 35 40 85 41 36 42 90 43 84 44 86 45
REMARK SMILES IDX 37 46 89 47 83 48 82 49 38 51 70 52 50 53 69 54 51 55 54 56
REMARK SMILES IDX 68 57 87 58 52 59 53 60 67 62 88 63 55 64 39 65 40 66 48 67
REMARK SMILES IDX 41 68 42 69 46 70 49 71 43 72 44 73 47 74 45 75 71 76 72 77
REMARK SMILES IDX 80 78 73 79 74 80 78 81 81 82 75 83 76 84 79 85 77 86 56 87
REMARK SMILES IDX 57 88 65 89 58 90 59 91 63 92 66 93 60 94 61 95 64 96 62 97
REMARK H PARENT 20 7 7 17 27 31 86 50 54 61
REMARK Flexibility Score: inf
ROOT
ATOM      1  C   UNL A   1      35.302  24.362  25.179  1.00  0.00     0.002 C 
ENDROOT
BRANCH   1   2
ATOM      2  C   UNL A   1      34.270  24.001  26.253  1.00  0.00     0.021 C 
BRANCH   2   3
ATOM      3  C   UNL A   1      32.841  23.827  25.723  1.00  0.00     0.116 C 
BRANCH   3   4
ATOM      4  N   UNL A   1      31.963  24.773  26.386  1.00  0.00    -0.352 N 
ATOM      5  C   UNL A   1      31.710  26.106  26.185  1.00  0.00     0.253 C 
ATOM      6  O   UNL A   1      30.906  26.644  26.946  1.00  0.00    -0.269 OA
ATOM      7  H   UNL A   1      31.446  24.380  27.127  1.00  0.00     0.163 HD
BRANCH   5   8
ATOM      8  C   UNL A   1      32.247  26.856  25.010  1.00  0.00     0.066 A 
ATOM      9  C   UNL A   1      33.969  28.223  26.333  1.00  0.00     0.045 C 
ATOM     10  C   UNL A   1      33.398  27.673  25.056  1.00  0.00    -0.036 A 
ATOM     11  C   UNL A   1      33.961  28.138  23.853  1.00  0.00     0.004 A 
ATOM     12  C   UNL A   1      33.350  27.869  22.632  1.00  0.00     0.002 A 
ATOM     13  C   UNL A   1      31.500  26.833  23.806  1.00  0.00     0.054 A 
ATOM     14  C   UNL A   1      32.108  27.239  22.613  1.00  0.00     0.027 A 
BRANCH  13  15
ATOM     15  N   UNL A   1      30.122  26.517  23.848  1.00  0.00    -0.325 N 
ATOM     16  C   UNL A   1      29.025  27.299  23.572  1.00  0.00     0.227 C 
ATOM     17  H   UNL A   1      29.915  25.593  24.118  1.00  0.00     0.169 HD
ATOM     18  O   UNL A   1      27.900  26.818  23.745  1.00  0.00    -0.275 OA
BRANCH  16  19
ATOM     19  C   UNL A   1      29.160  28.737  23.110  1.00  0.00     0.132 C 
BRANCH  19  20
ATOM     20  C   UNL A   1      27.881  29.334  22.493  1.00  0.00     0.127 C 
ATOM     21  C   UNL A   1      28.216  30.220  21.280  1.00  0.00     0.033 C 
ATOM     22  O   UNL A   1      27.059  30.083  23.395  1.00  0.00    -0.378 OA
ATOM     23  C   UNL A   1      28.883  31.529  21.700  1.00  0.00     0.005 C 
ATOM     24  C   UNL A   1      27.594  31.316  23.851  1.00  0.00     0.160 C 
ATOM     25  C   UNL A   1      28.032  32.250  22.736  1.00  0.00     0.029 C 
ENDBRANCH  19  20
ENDBRANCH  16  19
ENDBRANCH  13  15
ENDBRANCH   5   8
ENDBRANCH   3   4
ENDBRANCH   2   3
ENDBRANCH   1   2
BRANCH   1  26
ATOM     26  C   UNL A   1      36.386  23.305  24.906  1.00  0.00     0.002 C 
BRANCH  26  27
ATOM     27  C   UNL A   1      37.821  23.716  25.240  1.00  0.00     0.021 C 
BRANCH  27  28
ATOM     28  C   UNL A   1      38.465  22.871  26.333  1.00  0.00     0.116 C 
BRANCH  28  29
ATOM     29  N   UNL A   1      39.920  22.949  26.352  1.00  0.00    -0.352 N 
ATOM     30  C   UNL A   1      40.738  24.037  26.586  1.00  0.00     0.251 C 
ATOM     31  H   UNL A   1      40.389  22.102  26.174  1.00  0.00     0.163 HD
ATOM     32  O   UNL A   1      41.959  23.921  26.502  1.00  0.00    -0.269 OA
BRANCH  30  33
ATOM     33  C   UNL A   1      40.148  25.310  27.054  1.00  0.00     0.039 A 
ATOM     34  C   UNL A   1      40.519  26.491  26.399  1.00  0.00     0.014 A 
ATOM     35  C   UNL A   1      39.380  25.366  28.215  1.00  0.00     0.014 A 
ATOM     36  C   UNL A   1      40.315  27.719  27.027  1.00  0.00     0.010 A 
ATOM     37  C   UNL A   1      39.254  26.571  28.880  1.00  0.00     0.010 A 
ATOM     38  C   UNL A   1      39.780  27.737  28.315  1.00  0.00    -0.014 A 
BRANCH  38  39
ATOM     39  C   UNL A   1      39.816  28.911  29.181  1.00  0.00     0.031 A 
ATOM     40  C   UNL A   1      38.778  29.957  29.078  1.00  0.00     0.074 A 
ATOM     41  C   UNL A   1      40.774  28.999  30.131  1.00  0.00     0.049 A 
ATOM     42  N   UNL A   1      38.911  31.161  29.524  1.00  0.00    -0.248 NA
ATOM     43  C   UNL A   1      37.498  29.725  28.421  1.00  0.00     0.031 C 
ATOM     44  C   UNL A   1      40.843  29.945  31.241  1.00  0.00     0.029 A 
ATOM     45  N   UNL A   1      42.026  28.365  30.136  1.00  0.00    -0.354 N 
ATOM     46  C   UNL A   1      37.694  31.791  29.422  1.00  0.00     0.074 A 
ATOM     47  C   UNL A   1      36.852  30.861  28.701  1.00  0.00     0.031 C 
ATOM     48  C   UNL A   1      42.127  30.079  31.609  1.00  0.00     0.029 A 
ATOM     49  C   UNL A   1      42.925  29.328  30.656  1.00  0.00     0.049 A 
ATOM     50  H   UNL A   1      42.235  27.448  29.843  1.00  0.00     0.167 HD
ATOM     51  C   UNL A   1      37.506  32.990  30.045  1.00  0.00     0.037 A 
ATOM     52  C   UNL A   1      43.921  29.844  29.878  1.00  0.00     0.037 A 
ATOM     53  C   UNL A   1      38.739  33.482  30.651  1.00  0.00     0.049 A 
ATOM     54  C   UNL A   1      43.856  31.342  29.675  1.00  0.00     0.074 A 
ATOM     55  C   UNL A   1      39.279  33.428  31.925  1.00  0.00     0.029 A 
ATOM     56  N   UNL A   1      39.764  33.889  29.817  1.00  0.00    -0.354 N 
ATOM     57  N   UNL A   1      42.864  32.095  30.062  1.00  0.00    -0.248 NA
ATOM     58  C   UNL A   1      44.862  32.091  28.918  1.00  0.00     0.031 C 
ATOM     59  C   UNL A   1      40.657  33.777  31.838  1.00  0.00     0.029 A 
ATOM     60  C   UNL A   1      40.945  34.047  30.513  1.00  0.00     0.049 A 
ATOM     61  H   UNL A   1      39.663  34.047  28.851  1.00  0.00     0.167 HD
ATOM     62  C   UNL A   1      43.056  33.366  29.593  1.00  0.00     0.074 A 
ATOM     63  C   UNL A   1      44.318  33.318  28.882  1.00  0.00     0.031 C 
ATOM     64  C   UNL A   1      42.154  34.367  29.782  1.00  0.00     0.037 A 
BRANCH  51  65
ATOM     65  C   UNL A   1      36.156  33.622  30.281  1.00  0.00     0.064 A 
ATOM     66  C   UNL A   1      35.390  34.107  29.199  1.00  0.00     0.173 A 
ATOM     67  C   UNL A   1      35.579  33.818  31.548  1.00  0.00     0.173 A 
ATOM     68  F   UNL A   1      35.765  33.906  27.929  1.00  0.00    -0.203 F 
ATOM     69  C   UNL A   1      34.209  34.830  29.381  1.00  0.00     0.198 A 
ATOM     70  C   UNL A   1      34.431  34.595  31.736  1.00  0.00     0.198 A 
ATOM     71  F   UNL A   1      36.077  33.220  32.638  1.00  0.00    -0.203 F 
ATOM     72  F   UNL A   1      33.526  35.270  28.314  1.00  0.00    -0.200 F 
ATOM     73  C   UNL A   1      33.751  35.111  30.651  1.00  0.00     0.200 A 
ATOM     74  F   UNL A   1      33.989  34.839  32.978  1.00  0.00    -0.200 F 
ATOM     75  F   UNL A   1      32.650  35.852  30.829  1.00  0.00    -0.200 F 
ENDBRANCH  51  65
BRANCH  52  76
ATOM     76  C   UNL A   1      44.425  28.876  28.866  1.00  0.00     0.064 A 
ATOM     77  C   UNL A   1      45.208  27.789  29.303  1.00  0.00     0.173 A 
ATOM     78  C   UNL A   1      43.869  28.800  27.585  1.00  0.00     0.173 A 
ATOM     79  F   UNL A   1      45.766  27.812  30.525  1.00  0.00    -0.203 F 
ATOM     80  C   UNL A   1      45.317  26.627  28.545  1.00  0.00     0.198 A 
ATOM     81  C   UNL A   1      44.003  27.642  26.818  1.00  0.00     0.198 A 
ATOM     82  F   UNL A   1      43.099  29.792  27.115  1.00  0.00    -0.203 F 
ATOM     83  F   UNL A   1      45.962  25.562  29.045  1.00  0.00    -0.200 F 
ATOM     84  C   UNL A   1      44.693  26.546  27.313  1.00  0.00     0.200 A 
ATOM     85  F   UNL A   1      43.379  27.556  25.634  1.00  0.00    -0.200 F 
ATOM     86  F   UNL A   1      44.719  25.398  26.621  1.00  0.00    -0.200 F 
ENDBRANCH  52  76
BRANCH  64  87
ATOM     87  C   UNL A   1      42.375  35.754  29.277  1.00  0.00     0.064 A 
ATOM     88  C   UNL A   1      41.823  36.195  28.066  1.00  0.00     0.173 A 
ATOM     89  C   UNL A   1      43.247  36.639  29.939  1.00  0.00     0.173 A 
ATOM     90  F   UNL A   1      41.005  35.399  27.359  1.00  0.00    -0.203 F 
ATOM     91  C   UNL A   1      42.110  37.460  27.556  1.00  0.00     0.198 A 
ATOM     92  C   UNL A   1      43.567  37.884  29.406  1.00  0.00     0.198 A 
ATOM     93  F   UNL A   1      43.789  36.319  31.124  1.00  0.00    -0.203 F 
ATOM     94  F   UNL A   1      41.535  37.866  26.416  1.00  0.00    -0.200 F 
ATOM     95  C   UNL A   1      42.993  38.299  28.219  1.00  0.00     0.200 A 
ATOM     96  F   UNL A   1      44.431  38.681  30.049  1.00  0.00    -0.200 F 
ATOM     97  F   UNL A   1      43.286  39.505  27.714  1.00  0.00    -0.200 F 
ENDBRANCH  64  87
ENDBRANCH  38  39
ENDBRANCH  30  33
ENDBRANCH  28  29
ENDBRANCH  27  28
ENDBRANCH  26  27
ENDBRANCH   1  26
TORSDOF 16
ENDMDL
MODEL 2
REMARK VINA RESULT:     -13.6      3.623     10.097
REMARK SMILES Cc1cccc(NC(=O)C[C@@H]2CCCCO2)c1C(=O)NCCCCCCNC(=O)c1ccc(-c2c3nc(c(-c4c(F)c(F)c(F)c(F)c4F)c4ccc([nH]4)c(-c4c(F)c(F)c(F)c(F)c4F)c4nc(c(-c5c(F)c(F)c(F)c(F)c5F)c5ccc2[nH]5)C=C4)C=C3)cc1
REMARK SMILES IDX 23 1 22 2 21 3 20 4 18 5 19 6 17 8 1 9 2 10 3 11 4 12 6 13
REMARK SMILES IDX 5 14 7 15 8 16 9 18 10 19 11 20 12 21 16 22 13 23 15 24
REMARK SMILES IDX 14 25 24 26 25 27 26 28 27 29 28 30 29 32 30 33 31 34 92 35
REMARK SMILES IDX 32 36 91 37 33 38 34 39 35 40 85 41 36 42 90 43 84 44 86 45
REMARK SMILES IDX 37 46 89 47 83 48 82 49 38 51 70 52 50 53 69 54 51 55 54 56
REMARK SMILES IDX 68 57 87 58 52 59 53 60 67 62 88 63 55 64 39 65 40 66 48 67
REMARK SMILES IDX 41 68 42 69 46 70 49 71 43 72 44 73 47 74 45 75 71 76 72 77
REMARK SMILES IDX 80 78 73 79 74 80 78 81 81 82 75 83 76 84 79 85 77 86 56 87
REMARK SMILES IDX 57 88 65 89 58 90 59 91 63 92 66 93 60 94 61 95 64 96 62 97
REMARK H PARENT 20 7 7 17 27 31 86 50 54 61
REMARK Flexibility Score: inf
ROOT
ATOM      1  C   UNL A   1      32.436  28.476  27.199  1.00  0.00     0.002 C 
ENDROOT
BRANCH   1   2
ATOM      2  C   UNL A   1      31.366  27.381  27.134  1.00  0.00     0.021 C 
BRANCH   2   3
ATOM      3  C   UNL A   1      31.842  26.069  26.498  1.00  0.00     0.116 C 
BRANCH   3   4
ATOM      4  N   UNL A   1      30.860  25.618  25.529  1.00  0.00    -0.352 N 
ATOM      5  C   UNL A   1      30.644  25.931  24.211  1.00  0.00     0.253 C 
ATOM      6  O   UNL A   1      29.692  25.381  23.655  1.00  0.00    -0.269 OA
ATOM      7  H   UNL A   1      30.224  24.958  25.889  1.00  0.00     0.163 HD
BRANCH   5   8
ATOM      8  C   UNL A   1      31.591  26.771  23.419  1.00  0.00     0.066 A 
ATOM      9  C   UNL A   1      30.264  28.955  23.647  1.00  0.00     0.045 C 
ATOM     10  C   UNL A   1      31.511  28.177  23.328  1.00  0.00    -0.036 A 
ATOM     11  C   UNL A   1      32.582  28.894  22.764  1.00  0.00     0.004 A 
ATOM     12  C   UNL A   1      33.678  28.227  22.224  1.00  0.00     0.002 A 
ATOM     13  C   UNL A   1      32.563  26.112  22.626  1.00  0.00     0.054 A 
ATOM     14  C   UNL A   1      33.654  26.837  22.134  1.00  0.00     0.027 A 
BRANCH  13  15
ATOM     15  N   UNL A   1      32.354  24.766  22.245  1.00  0.00    -0.325 N 
ATOM     16  C   UNL A   1      33.124  23.650  22.473  1.00  0.00     0.227 C 
ATOM     17  H   UNL A   1      31.528  24.602  21.735  1.00  0.00     0.169 HD
ATOM     18  O   UNL A   1      32.766  22.576  21.979  1.00  0.00    -0.275 OA
BRANCH  16  19
ATOM     19  C   UNL A   1      34.413  23.713  23.271  1.00  0.00     0.132 C 
BRANCH  19  20
ATOM     20  C   UNL A   1      34.247  23.446  24.779  1.00  0.00     0.127 C 
ATOM     21  C   UNL A   1      35.278  24.244  25.596  1.00  0.00     0.033 C 
ATOM     22  O   UNL A   1      34.318  22.070  25.168  1.00  0.00    -0.378 OA
ATOM     23  C   UNL A   1      36.690  23.682  25.433  1.00  0.00     0.005 C 
ATOM     24  C   UNL A   1      35.590  21.452  25.046  1.00  0.00     0.160 C 
ATOM     25  C   UNL A   1      36.709  22.194  25.754  1.00  0.00     0.029 C 
ENDBRANCH  19  20
ENDBRANCH  16  19
ENDBRANCH  13  15
ENDBRANCH   5   8
ENDBRANCH   3   4
ENDBRANCH   2   3
ENDBRANCH   1   2
BRANCH   1  26
ATOM     26  C   UNL A   1      31.991  29.878  26.749  1.00  0.00     0.002 C 
BRANCH  26  27
ATOM     27  C   UNL A   1      32.895  31.036  27.179  1.00  0.00     0.021 C 
BRANCH  27  28
ATOM     28  C   UNL A   1      34.284  30.599  27.626  1.00  0.00     0.116 C 
BRANCH  28  29
ATOM     29  N   UNL A   1      34.800  31.357  28.760  1.00  0.00    -0.352 N 
ATOM     30  C   UNL A   1      35.872  31.080  29.585  1.00  0.00     0.251 C 
ATOM     31  H   UNL A   1      34.313  32.187  28.967  1.00  0.00     0.163 HD
ATOM     32  O   UNL A   1      36.124  31.815  30.538  1.00  0.00    -0.269 OA
BRANCH  30  33
ATOM     33  C   UNL A   1      36.789  29.968  29.249  1.00  0.00     0.039 A 
ATOM     34  C   UNL A   1      37.077  29.026  30.245  1.00  0.00     0.014 A 
ATOM     35  C   UNL A   1      37.480  29.943  28.040  1.00  0.00     0.014 A 
ATOM     36  C   UNL A   1      38.203  28.214  30.115  1.00  0.00     0.010 A 
ATOM     37  C   UNL A   1      38.644  29.203  27.947  1.00  0.00     0.010 A 
ATOM     38  C   UNL A   1      39.039  28.388  29.012  1.00  0.00    -0.014 A 
BRANCH  38  39
ATOM     39  C   UNL A   1      40.385  27.833  28.932  1.00  0.00     0.031 A 
ATOM     40  C   UNL A   1      40.596  26.416  28.571  1.00  0.00     0.074 A 
ATOM     41  C   UNL A   1      41.446  28.647  29.122  1.00  0.00     0.049 A 
ATOM     42  N   UNL A   1      41.679  25.756  28.816  1.00  0.00    -0.248 NA
ATOM     43  C   UNL A   1      39.567  25.613  27.923  1.00  0.00     0.031 C 
ATOM     44  C   UNL A   1      42.852  28.360  28.849  1.00  0.00     0.029 A 
ATOM     45  N   UNL A   1      41.472  29.856  29.837  1.00  0.00    -0.354 N 
ATOM     46  C   UNL A   1      41.590  24.540  28.181  1.00  0.00     0.074 A 
ATOM     47  C   UNL A   1      40.241  24.488  27.662  1.00  0.00     0.031 C 
ATOM     48  C   UNL A   1      43.609  29.142  29.634  1.00  0.00     0.029 A 
ATOM     49  C   UNL A   1      42.709  29.850  30.527  1.00  0.00     0.049 A 
ATOM     50  H   UNL A   1      40.780  30.557  29.855  1.00  0.00     0.167 HD
ATOM     51  C   UNL A   1      42.700  23.753  28.084  1.00  0.00     0.037 A 
ATOM     52  C   UNL A   1      42.747  29.801  31.891  1.00  0.00     0.037 A 
ATOM     53  C   UNL A   1      43.829  24.320  28.814  1.00  0.00     0.049 A 
ATOM     54  C   UNL A   1      43.456  28.593  32.463  1.00  0.00     0.074 A 
ATOM     55  C   UNL A   1      44.917  25.100  28.459  1.00  0.00     0.029 A 
ATOM     56  N   UNL A   1      43.770  24.349  30.194  1.00  0.00    -0.354 N 
ATOM     57  N   UNL A   1      43.874  27.581  31.754  1.00  0.00    -0.248 NA
ATOM     58  C   UNL A   1      43.650  28.385  33.900  1.00  0.00     0.031 C 
ATOM     59  C   UNL A   1      45.491  25.628  29.650  1.00  0.00     0.029 A 
ATOM     60  C   UNL A   1      44.754  25.161  30.723  1.00  0.00     0.049 A 
ATOM     61  H   UNL A   1      43.112  23.853  30.732  1.00  0.00     0.167 HD
ATOM     62  C   UNL A   1      44.333  26.604  32.595  1.00  0.00     0.074 A 
ATOM     63  C   UNL A   1      44.173  27.149  33.929  1.00  0.00     0.031 C 
ATOM     64  C   UNL A   1      44.778  25.397  32.152  1.00  0.00     0.037 A 
BRANCH  51  65
ATOM     65  C   UNL A   1      42.822  22.568  27.156  1.00  0.00     0.064 A 
ATOM     66  C   UNL A   1      42.043  21.409  27.363  1.00  0.00     0.173 A 
ATOM     67  C   UNL A   1      43.715  22.494  26.072  1.00  0.00     0.173 A 
ATOM     68  F   UNL A   1      41.083  21.368  28.295  1.00  0.00    -0.203 F 
ATOM     69  C   UNL A   1      42.229  20.239  26.624  1.00  0.00     0.198 A 
ATOM     70  C   UNL A   1      43.947  21.306  25.373  1.00  0.00     0.198 A 
ATOM     71  F   UNL A   1      44.351  23.583  25.622  1.00  0.00    -0.203 F 
ATOM     72  F   UNL A   1      41.462  19.168  26.869  1.00  0.00    -0.200 F 
ATOM     73  C   UNL A   1      43.211  20.173  25.657  1.00  0.00     0.200 A 
ATOM     74  F   UNL A   1      44.890  21.267  24.421  1.00  0.00    -0.200 F 
ATOM     75  F   UNL A   1      43.428  19.034  24.986  1.00  0.00    -0.200 F 
ENDBRANCH  51  65
BRANCH  52  76
ATOM     76  C   UNL A   1      41.582  30.475  32.527  1.00  0.00     0.064 A 
ATOM     77  C   UNL A   1      41.543  31.884  32.538  1.00  0.00     0.173 A 
ATOM     78  C   UNL A   1      40.389  29.792  32.782  1.00  0.00     0.173 A 
ATOM     79  F   UNL A   1      42.660  32.589  32.299  1.00  0.00    -0.203 F 
ATOM     80  C   UNL A   1      40.339  32.571  32.667  1.00  0.00     0.198 A 
ATOM     81  C   UNL A   1      39.189  30.486  32.937  1.00  0.00     0.198 A 
ATOM     82  F   UNL A   1      40.354  28.452  32.769  1.00  0.00    -0.203 F 
ATOM     83  F   UNL A   1      40.316  33.907  32.544  1.00  0.00    -0.200 F 
ATOM     84  C   UNL A   1      39.160  31.870  32.842  1.00  0.00     0.200 A 
ATOM     85  F   UNL A   1      38.043  29.805  33.084  1.00  0.00    -0.200 F 
ATOM     86  F   UNL A   1      37.988  32.522  32.875  1.00  0.00    -0.200 F 
ENDBRANCH  52  76
BRANCH  64  87
ATOM     87  C   UNL A   1      45.288  24.340  33.073  1.00  0.00     0.064 A 
ATOM     88  C   UNL A   1      44.483  23.266  33.480  1.00  0.00     0.173 A 
ATOM     89  C   UNL A   1      46.559  24.443  33.667  1.00  0.00     0.173 A 
ATOM     90  F   UNL A   1      43.246  23.113  32.983  1.00  0.00    -0.203 F 
ATOM     91  C   UNL A   1      44.935  22.334  34.414  1.00  0.00     0.198 A 
ATOM     92  C   UNL A   1      46.991  23.537  34.632  1.00  0.00     0.198 A 
ATOM     93  F   UNL A   1      47.413  25.414  33.308  1.00  0.00    -0.203 F 
ATOM     94  F   UNL A   1      44.156  21.297  34.751  1.00  0.00    -0.200 F 
ATOM     95  C   UNL A   1      46.183  22.478  34.999  1.00  0.00     0.200 A 
ATOM     96  F   UNL A   1      48.195  23.693  35.200  1.00  0.00    -0.200 F 
ATOM     97  F   UNL A   1      46.605  21.595  35.914  1.00  0.00    -0.200 F 
ENDBRANCH  64  87
ENDBRANCH  38  39
ENDBRANCH  30  33
ENDBRANCH  28  29
ENDBRANCH  27  28
ENDBRANCH  26  27
ENDBRANCH   1  26
TORSDOF 16
ENDMDL
MODEL 3
REMARK VINA RESULT:     -13.5      4.133     10.489
REMARK SMILES Cc1cccc(NC(=O)C[C@@H]2CCCCO2)c1C(=O)NCCCCCCNC(=O)c1ccc(-c2c3nc(c(-c4c(F)c(F)c(F)c(F)c4F)c4ccc([nH]4)c(-c4c(F)c(F)c(F)c(F)c4F)c4nc(c(-c5c(F)c(F)c(F)c(F)c5F)c5ccc2[nH]5)C=C4)C=C3)cc1
REMARK SMILES IDX 23 1 22 2 21 3 20 4 18 5 19 6 17 8 1 9 2 10 3 11 4 12 6 13
REMARK SMILES IDX 5 14 7 15 8 16 9 18 10 19 11 20 12 21 16 22 13 23 15 24
REMARK SMILES IDX 14 25 24 26 25 27 26 28 27 29 28 30 29 32 30 33 31 34 92 35
REMARK SMILES IDX 32 36 91 37 33 38 34 39 35 40 85 41 36 42 90 43 84 44 86 45
REMARK SMILES IDX 37 46 89 47 83 48 82 49 38 51 70 52 50 53 69 54 51 55 54 56
REMARK SMILES IDX 68 57 87 58 52 59 53 60 67 62 88 63 55 64 39 65 40 66 48 67
REMARK SMILES IDX 41 68 42 69 46 70 49 71 43 72 44 73 47 74 45 75 71 76 72 77
REMARK SMILES IDX 80 78 73 79 74 80 78 81 81 82 75 83 76 84 79 85 77 86 56 87
REMARK SMILES IDX 57 88 65 89 58 90 59 91 63 92 66 93 60 94 61 95 64 96 62 97
REMARK H PARENT 20 7 7 17 27 31 86 50 54 61
REMARK Flexibility Score: inf
ROOT
ATOM      1  C   UNL A   1      33.764  27.433  25.964  1.00  0.00     0.002 C 
ENDROOT
BRANCH   1   2
ATOM      2  C   UNL A   1      34.006  27.222  24.465  1.00  0.00     0.021 C 
BRANCH   2   3
ATOM      3  C   UNL A   1      33.062  26.206  23.810  1.00  0.00     0.116 C 
BRANCH   3   4
ATOM      4  N   UNL A   1      33.844  25.208  23.104  1.00  0.00    -0.352 N 
ATOM      5  C   UNL A   1      34.369  23.999  23.484  1.00  0.00     0.253 C 
ATOM      6  O   UNL A   1      35.018  23.381  22.640  1.00  0.00    -0.269 OA
ATOM      7  H   UNL A   1      34.034  25.445  22.168  1.00  0.00     0.163 HD
BRANCH   5   8
ATOM      8  C   UNL A   1      34.056  23.365  24.800  1.00  0.00     0.066 A 
ATOM      9  C   UNL A   1      36.372  23.744  25.836  1.00  0.00     0.045 C 
ATOM     10  C   UNL A   1      34.905  23.423  25.925  1.00  0.00    -0.036 A 
ATOM     11  C   UNL A   1      34.418  23.010  27.179  1.00  0.00     0.004 A 
ATOM     12  C   UNL A   1      33.141  22.472  27.303  1.00  0.00     0.002 A 
ATOM     13  C   UNL A   1      32.887  22.570  24.894  1.00  0.00     0.054 A 
ATOM     14  C   UNL A   1      32.388  22.230  26.157  1.00  0.00     0.027 A 
BRANCH  13  15
ATOM     15  N   UNL A   1      32.315  22.031  23.718  1.00  0.00    -0.325 N 
ATOM     16  C   UNL A   1      32.335  20.745  23.231  1.00  0.00     0.227 C 
ATOM     17  H   UNL A   1      31.826  22.678  23.160  1.00  0.00     0.169 HD
ATOM     18  O   UNL A   1      31.814  20.523  22.133  1.00  0.00    -0.275 OA
BRANCH  16  19
ATOM     19  C   UNL A   1      33.014  19.614  23.980  1.00  0.00     0.132 C 
BRANCH  19  20
ATOM     20  C   UNL A   1      32.319  18.246  23.839  1.00  0.00     0.127 C 
ATOM     21  C   UNL A   1      32.375  17.462  25.162  1.00  0.00     0.033 C 
ATOM     22  O   UNL A   1      32.819  17.411  22.790  1.00  0.00    -0.378 OA
ATOM     23  C   UNL A   1      33.785  16.957  25.464  1.00  0.00     0.005 C 
ATOM     24  C   UNL A   1      34.129  16.895  22.971  1.00  0.00     0.160 C 
ATOM     25  C   UNL A   1      34.327  16.160  24.285  1.00  0.00     0.029 C 
ENDBRANCH  19  20
ENDBRANCH  16  19
ENDBRANCH  13  15
ENDBRANCH   5   8
ENDBRANCH   3   4
ENDBRANCH   2   3
ENDBRANCH   1   2
BRANCH   1  26
ATOM     26  C   UNL A   1      33.071  28.751  26.354  1.00  0.00     0.002 C 
BRANCH  26  27
ATOM     27  C   UNL A   1      33.595  29.433  27.619  1.00  0.00     0.021 C 
BRANCH  27  28
ATOM     28  C   UNL A   1      34.409  30.692  27.347  1.00  0.00     0.116 C 
BRANCH  28  29
ATOM     29  N   UNL A   1      34.822  31.395  28.556  1.00  0.00    -0.352 N 
ATOM     30  C   UNL A   1      35.811  31.072  29.463  1.00  0.00     0.251 C 
ATOM     31  H   UNL A   1      34.324  32.221  28.753  1.00  0.00     0.163 HD
ATOM     32  O   UNL A   1      35.978  31.762  30.467  1.00  0.00    -0.269 OA
BRANCH  30  33
ATOM     33  C   UNL A   1      36.747  29.965  29.166  1.00  0.00     0.039 A 
ATOM     34  C   UNL A   1      37.079  29.084  30.203  1.00  0.00     0.014 A 
ATOM     35  C   UNL A   1      37.414  29.892  27.945  1.00  0.00     0.014 A 
ATOM     36  C   UNL A   1      38.220  28.291  30.091  1.00  0.00     0.010 A 
ATOM     37  C   UNL A   1      38.592  29.175  27.866  1.00  0.00     0.010 A 
ATOM     38  C   UNL A   1      39.029  28.426  28.963  1.00  0.00    -0.014 A 
BRANCH  38  39
ATOM     39  C   UNL A   1      40.386  27.899  28.882  1.00  0.00     0.031 A 
ATOM     40  C   UNL A   1      40.626  26.490  28.509  1.00  0.00     0.074 A 
ATOM     41  C   UNL A   1      41.430  28.733  29.084  1.00  0.00     0.049 A 
ATOM     42  N   UNL A   1      41.721  25.849  28.751  1.00  0.00    -0.248 NA
ATOM     43  C   UNL A   1      39.616  25.673  27.850  1.00  0.00     0.031 C 
ATOM     44  C   UNL A   1      42.842  28.476  28.812  1.00  0.00     0.029 A 
ATOM     45  N   UNL A   1      41.430  29.935  29.809  1.00  0.00    -0.354 N 
ATOM     46  C   UNL A   1      41.658  24.637  28.105  1.00  0.00     0.074 A 
ATOM     47  C   UNL A   1      40.312  24.564  27.581  1.00  0.00     0.031 C 
ATOM     48  C   UNL A   1      43.581  29.265  29.607  1.00  0.00     0.029 A 
ATOM     49  C   UNL A   1      42.665  29.947  30.504  1.00  0.00     0.049 A 
ATOM     50  H   UNL A   1      40.724  30.622  29.831  1.00  0.00     0.167 HD
ATOM     51  C   UNL A   1      42.784  23.873  28.004  1.00  0.00     0.037 A 
ATOM     52  C   UNL A   1      42.698  29.886  31.867  1.00  0.00     0.037 A 
ATOM     53  C   UNL A   1      43.899  24.456  28.744  1.00  0.00     0.049 A 
ATOM     54  C   UNL A   1      43.430  28.687  32.431  1.00  0.00     0.074 A 
ATOM     55  C   UNL A   1      44.973  25.261  28.399  1.00  0.00     0.029 A 
ATOM     56  N   UNL A   1      43.836  24.471  30.124  1.00  0.00    -0.354 N 
ATOM     57  N   UNL A   1      43.870  27.690  31.714  1.00  0.00    -0.248 NA
ATOM     58  C   UNL A   1      43.623  28.470  33.866  1.00  0.00     0.031 C 
ATOM     59  C   UNL A   1      45.533  25.789  29.598  1.00  0.00     0.029 A 
ATOM     60  C   UNL A   1      44.801  25.298  30.663  1.00  0.00     0.049 A 
ATOM     61  H   UNL A   1      43.185  23.957  30.655  1.00  0.00     0.167 HD
ATOM     62  C   UNL A   1      44.346  26.715  32.547  1.00  0.00     0.074 A 
ATOM     63  C   UNL A   1      44.171  27.244  33.885  1.00  0.00     0.031 C 
ATOM     64  C   UNL A   1      44.816  25.521  32.095  1.00  0.00     0.037 A 
BRANCH  51  65
ATOM     65  C   UNL A   1      42.933  22.700  27.066  1.00  0.00     0.064 A 
ATOM     66  C   UNL A   1      42.208  21.508  27.285  1.00  0.00     0.173 A 
ATOM     67  C   UNL A   1      43.801  22.670  25.960  1.00  0.00     0.173 A 
ATOM     68  F   UNL A   1      41.274  21.422  28.240  1.00  0.00    -0.203 F 
ATOM     69  C   UNL A   1      42.425  20.351  26.533  1.00  0.00     0.198 A 
ATOM     70  C   UNL A   1      44.065  21.496  25.248  1.00  0.00     0.198 A 
ATOM     71  F   UNL A   1      44.380  23.787  25.502  1.00  0.00    -0.203 F 
ATOM     72  F   UNL A   1      41.709  19.247  26.790  1.00  0.00    -0.200 F 
ATOM     73  C   UNL A   1      43.384  20.331  25.542  1.00  0.00     0.200 A 
ATOM     74  F   UNL A   1      44.985  21.502  24.273  1.00  0.00    -0.200 F 
ATOM     75  F   UNL A   1      43.633  19.207  24.859  1.00  0.00    -0.200 F 
ENDBRANCH  51  65
BRANCH  52  76
ATOM     76  C   UNL A   1      41.519  30.531  32.505  1.00  0.00     0.064 A 
ATOM     77  C   UNL A   1      41.429  31.937  32.489  1.00  0.00     0.173 A 
ATOM     78  C   UNL A   1      40.354  29.811  32.790  1.00  0.00     0.173 A 
ATOM     79  F   UNL A   1      42.518  32.677  32.222  1.00  0.00    -0.203 F 
ATOM     80  C   UNL A   1      40.203  32.584  32.621  1.00  0.00     0.198 A 
ATOM     81  C   UNL A   1      39.133  30.465  32.947  1.00  0.00     0.198 A 
ATOM     82  F   UNL A   1      40.367  28.470  32.803  1.00  0.00    -0.203 F 
ATOM     83  F   UNL A   1      40.131  33.915  32.472  1.00  0.00    -0.200 F 
ATOM     84  C   UNL A   1      39.052  31.845  32.825  1.00  0.00     0.200 A 
ATOM     85  F   UNL A   1      38.014  29.747  33.123  1.00  0.00    -0.200 F 
ATOM     86  F   UNL A   1      37.859  32.455  32.861  1.00  0.00    -0.200 F 
ENDBRANCH  52  76
BRANCH  64  87
ATOM     87  C   UNL A   1      45.344  24.465  33.008  1.00  0.00     0.064 A 
ATOM     88  C   UNL A   1      44.551  23.385  33.421  1.00  0.00     0.173 A 
ATOM     89  C   UNL A   1      46.621  24.576  33.588  1.00  0.00     0.173 A 
ATOM     90  F   UNL A   1      43.310  23.225  32.938  1.00  0.00    -0.203 F 
ATOM     91  C   UNL A   1      45.020  22.454  34.348  1.00  0.00     0.198 A 
ATOM     92  C   UNL A   1      47.070  23.672  34.545  1.00  0.00     0.198 A 
ATOM     93  F   UNL A   1      47.464  25.555  33.221  1.00  0.00    -0.203 F 
ATOM     94  F   UNL A   1      44.252  21.411  34.692  1.00  0.00    -0.200 F 
ATOM     95  C   UNL A   1      46.273  22.606  34.920  1.00  0.00     0.200 A 
ATOM     96  F   UNL A   1      48.279  23.835  35.101  1.00  0.00    -0.200 F 
ATOM     97  F   UNL A   1      46.712  21.724  35.828  1.00  0.00    -0.200 F 
ENDBRANCH  64  87
ENDBRANCH  38  39
ENDBRANCH  30  33
ENDBRANCH  28  29
ENDBRANCH  27  28
ENDBRANCH  26  27
ENDBRANCH   1  26
TORSDOF 16
ENDMDL
