MODEL 1
REMARK VINA RESULT:     -12.1      0.000      0.000
REMARK SMILES CC(C)C[C@H](C(=O)NCCCCCCNC(=O)c1ccc(-c2c3nc(c(-c4c(F)c(F)c(F)c(F)c4F)c4ccc([nH]4)c(-c4c(F)c(F)c(F)c(F)c4F)c4nc(c(-c5c(F)c(F)c(F)c(F)c5F)c5ccc2[nH]5)C=C4)C=C3)cc1)N1C(=O)[C@H]2CCCC[C@@H]2C1=O
REMARK SMILES IDX 11 1 10 2 9 3 8 4 6 5 7 6 5 8 4 9 2 10 1 11 3 12 81 13 82 14
REMARK SMILES IDX 90 15 83 16 84 17 89 18 91 19 85 20 88 21 86 22 87 23 12 24
REMARK SMILES IDX 13 25 14 26 15 27 16 28 17 30 18 31 19 32 80 33 20 34 79 35
REMARK SMILES IDX 21 36 22 37 23 38 73 39 24 40 78 41 72 42 74 43 25 44 77 45
REMARK SMILES IDX 71 46 70 47 26 49 58 50 38 51 57 52 39 53 42 54 56 55 75 56
REMARK SMILES IDX 40 57 41 58 55 60 76 61 43 62 27 63 28 64 36 65 29 66 30 67
REMARK SMILES IDX 34 68 37 69 31 70 32 71 35 72 33 73 59 74 60 75 68 76 61 77
REMARK SMILES IDX 62 78 66 79 69 80 63 81 64 82 67 83 65 84 44 85 45 86 53 87
REMARK SMILES IDX 46 88 47 89 51 90 54 91 48 92 49 93 52 94 50 95
REMARK H PARENT 8 7 15 29 74 48 42 59
REMARK Flexibility Score: inf
ROOT
ATOM      1  C   UNL A   1      32.249  29.888  26.852  1.00  0.00     0.002 C 
ENDROOT
BRANCH   1   2
ATOM      2  C   UNL A   1      31.527  28.584  27.202  1.00  0.00     0.021 C 
BRANCH   2   3
ATOM      3  C   UNL A   1      32.201  27.335  26.630  1.00  0.00     0.116 C 
BRANCH   3   4
ATOM      4  N   UNL A   1      31.374  26.159  26.852  1.00  0.00    -0.354 N 
ATOM      5  C   UNL A   1      30.810  25.284  25.962  1.00  0.00     0.243 C 
ATOM      6  O   UNL A   1      30.069  24.414  26.423  1.00  0.00    -0.273 OA
ATOM      7  H   UNL A   1      31.191  25.959  27.798  1.00  0.00     0.163 HD
BRANCH   5   8
ATOM      8  C   UNL A   1      31.073  25.422  24.447  1.00  0.00     0.182 C 
BRANCH   8   9
ATOM      9  C   UNL A   1      31.002  24.043  23.735  1.00  0.00     0.039 C 
BRANCH   9  10
ATOM     10  C   UNL A   1      32.295  23.332  23.299  1.00  0.00    -0.015 C 
ATOM     11  C   UNL A   1      33.425  24.343  23.075  1.00  0.00     0.007 C 
ATOM     12  C   UNL A   1      32.749  22.316  24.354  1.00  0.00     0.007 C 
ENDBRANCH   9  10
ENDBRANCH   8   9
BRANCH   8  13
ATOM     13  N   UNL A   1      30.333  26.564  23.901  1.00  0.00    -0.269 N 
ATOM     14  C   UNL A   1      28.974  26.794  23.926  1.00  0.00     0.233 C 
ATOM     15  C   UNL A   1      30.977  27.710  23.466  1.00  0.00     0.233 C 
ATOM     16  O   UNL A   1      28.096  26.231  24.551  1.00  0.00    -0.274 OA
ATOM     17  C   UNL A   1      28.756  27.984  23.026  1.00  0.00     0.091 C 
ATOM     18  C   UNL A   1      29.941  28.801  23.490  1.00  0.00     0.091 C 
ATOM     19  O   UNL A   1      32.153  27.856  23.188  1.00  0.00    -0.274 OA
ATOM     20  C   UNL A   1      27.462  28.766  23.096  1.00  0.00     0.014 C 
ATOM     21  C   UNL A   1      30.138  30.062  22.683  1.00  0.00     0.014 C 
ATOM     22  C   UNL A   1      27.618  30.062  22.285  1.00  0.00     0.001 C 
ATOM     23  C   UNL A   1      28.839  30.881  22.720  1.00  0.00     0.001 C 
ENDBRANCH   8  13
ENDBRANCH   5   8
ENDBRANCH   3   4
ENDBRANCH   2   3
ENDBRANCH   1   2
BRANCH   1  24
ATOM     24  C   UNL A   1      31.441  30.857  25.981  1.00  0.00     0.002 C 
BRANCH  24  25
ATOM     25  C   UNL A   1      31.293  32.277  26.535  1.00  0.00     0.021 C 
BRANCH  25  26
ATOM     26  C   UNL A   1      32.527  32.829  27.244  1.00  0.00     0.116 C 
BRANCH  26  27
ATOM     27  N   UNL A   1      32.361  34.222  27.628  1.00  0.00    -0.352 N 
ATOM     28  C   UNL A   1      32.995  34.943  28.607  1.00  0.00     0.251 C 
ATOM     29  H   UNL A   1      31.694  34.723  27.104  1.00  0.00     0.163 HD
ATOM     30  O   UNL A   1      32.585  36.057  28.917  1.00  0.00    -0.269 OA
BRANCH  28  31
ATOM     31  C   UNL A   1      34.170  34.378  29.305  1.00  0.00     0.039 A 
ATOM     32  C   UNL A   1      33.976  33.697  30.510  1.00  0.00     0.014 A 
ATOM     33  C   UNL A   1      35.461  34.550  28.796  1.00  0.00     0.014 A 
ATOM     34  C   UNL A   1      35.069  33.141  31.178  1.00  0.00     0.010 A 
ATOM     35  C   UNL A   1      36.543  33.945  29.431  1.00  0.00     0.010 A 
ATOM     36  C   UNL A   1      36.358  33.238  30.629  1.00  0.00    -0.014 A 
BRANCH  36  37
ATOM     37  C   UNL A   1      37.528  32.616  31.300  1.00  0.00     0.031 A 
ATOM     38  C   UNL A   1      38.266  31.489  30.636  1.00  0.00     0.074 A 
ATOM     39  C   UNL A   1      37.881  33.021  32.535  1.00  0.00     0.049 A 
ATOM     40  N   UNL A   1      39.255  30.762  31.094  1.00  0.00    -0.248 NA
ATOM     41  C   UNL A   1      37.819  31.111  29.287  1.00  0.00     0.031 C 
ATOM     42  C   UNL A   1      37.216  34.076  33.301  1.00  0.00     0.029 A 
ATOM     43  N   UNL A   1      38.878  32.582  33.369  1.00  0.00    -0.354 N 
ATOM     44  C   UNL A   1      39.533  29.834  30.100  1.00  0.00     0.074 A 
ATOM     45  C   UNL A   1      38.582  30.059  29.033  1.00  0.00     0.031 C 
ATOM     46  C   UNL A   1      37.832  34.213  34.487  1.00  0.00     0.029 A 
ATOM     47  C   UNL A   1      38.913  33.234  34.577  1.00  0.00     0.049 A 
ATOM     48  H   UNL A   1      39.510  31.868  33.124  1.00  0.00     0.167 HD
ATOM     49  C   UNL A   1      40.506  28.891  30.073  1.00  0.00     0.037 A 
ATOM     50  C   UNL A   1      39.718  33.056  35.640  1.00  0.00     0.037 A 
ATOM     51  C   UNL A   1      41.470  28.690  31.122  1.00  0.00     0.049 A 
ATOM     52  C   UNL A   1      40.795  32.008  35.582  1.00  0.00     0.074 A 
ATOM     53  C   UNL A   1      42.532  27.804  31.161  1.00  0.00     0.029 A 
ATOM     54  N   UNL A   1      41.489  29.389  32.320  1.00  0.00    -0.354 N 
ATOM     55  N   UNL A   1      41.087  31.176  34.612  1.00  0.00    -0.248 NA
ATOM     56  C   UNL A   1      41.659  31.879  36.764  1.00  0.00     0.031 C 
ATOM     57  C   UNL A   1      43.172  27.940  32.398  1.00  0.00     0.029 A 
ATOM     58  C   UNL A   1      42.533  28.941  33.113  1.00  0.00     0.049 A 
ATOM     59  H   UNL A   1      40.854  30.098  32.571  1.00  0.00     0.167 HD
ATOM     60  C   UNL A   1      42.181  30.444  35.054  1.00  0.00     0.074 A 
ATOM     61  C   UNL A   1      42.509  30.939  36.374  1.00  0.00     0.031 C 
ATOM     62  C   UNL A   1      42.852  29.451  34.422  1.00  0.00     0.037 A 
BRANCH  49  63
ATOM     63  C   UNL A   1      40.578  28.006  28.863  1.00  0.00     0.064 A 
ATOM     64  C   UNL A   1      41.367  28.342  27.753  1.00  0.00     0.173 A 
ATOM     65  C   UNL A   1      39.879  26.791  28.828  1.00  0.00     0.173 A 
ATOM     66  F   UNL A   1      42.047  29.499  27.733  1.00  0.00    -0.203 F 
ATOM     67  C   UNL A   1      41.431  27.508  26.640  1.00  0.00     0.198 A 
ATOM     68  C   UNL A   1      39.967  25.945  27.725  1.00  0.00     0.198 A 
ATOM     69  F   UNL A   1      39.114  26.419  29.866  1.00  0.00    -0.203 F 
ATOM     70  F   UNL A   1      42.154  27.872  25.572  1.00  0.00    -0.200 F 
ATOM     71  C   UNL A   1      40.736  26.308  26.630  1.00  0.00     0.200 A 
ATOM     72  F   UNL A   1      39.304  24.780  27.720  1.00  0.00    -0.200 F 
ATOM     73  F   UNL A   1      40.803  25.502  25.560  1.00  0.00    -0.200 F 
ENDBRANCH  49  63
BRANCH  50  74
ATOM     74  C   UNL A   1      39.554  33.911  36.845  1.00  0.00     0.064 A 
ATOM     75  C   UNL A   1      38.768  33.485  37.923  1.00  0.00     0.173 A 
ATOM     76  C   UNL A   1      40.177  35.163  36.942  1.00  0.00     0.173 A 
ATOM     77  F   UNL A   1      38.135  32.304  37.866  1.00  0.00    -0.203 F 
ATOM     78  C   UNL A   1      38.596  34.289  39.049  1.00  0.00     0.198 A 
ATOM     79  C   UNL A   1      40.025  35.955  38.078  1.00  0.00     0.198 A 
ATOM     80  F   UNL A   1      40.943  35.612  35.937  1.00  0.00    -0.203 F 
ATOM     81  F   UNL A   1      37.805  33.876  40.049  1.00  0.00    -0.200 F 
ATOM     82  C   UNL A   1      39.230  35.520  39.128  1.00  0.00     0.200 A 
ATOM     83  F   UNL A   1      40.648  37.138  38.156  1.00  0.00    -0.200 F 
ATOM     84  F   UNL A   1      39.067  36.291  40.211  1.00  0.00    -0.200 F 
ENDBRANCH  50  74
BRANCH  62  85
ATOM     85  C   UNL A   1      44.028  28.854  35.137  1.00  0.00     0.064 A 
ATOM     86  C   UNL A   1      43.885  27.754  35.993  1.00  0.00     0.173 A 
ATOM     87  C   UNL A   1      45.318  29.366  34.929  1.00  0.00     0.173 A 
ATOM     88  F   UNL A   1      42.671  27.240  36.235  1.00  0.00    -0.203 F 
ATOM     89  C   UNL A   1      44.991  27.201  36.634  1.00  0.00     0.198 A 
ATOM     90  C   UNL A   1      46.424  28.794  35.551  1.00  0.00     0.198 A 
ATOM     91  F   UNL A   1      45.506  30.415  34.114  1.00  0.00    -0.203 F 
ATOM     92  F   UNL A   1      44.827  26.176  37.482  1.00  0.00    -0.200 F 
ATOM     93  C   UNL A   1      46.258  27.715  36.407  1.00  0.00     0.200 A 
ATOM     94  F   UNL A   1      47.649  29.287  35.324  1.00  0.00    -0.200 F 
ATOM     95  F   UNL A   1      47.321  27.178  37.021  1.00  0.00    -0.200 F 
ENDBRANCH  62  85
ENDBRANCH  36  37
ENDBRANCH  28  31
ENDBRANCH  26  27
ENDBRANCH  25  26
ENDBRANCH  24  25
ENDBRANCH   1  24
TORSDOF 16
ENDMDL
MODEL 2
REMARK VINA RESULT:     -12.0      5.805     11.424
REMARK SMILES CC(C)C[C@H](C(=O)NCCCCCCNC(=O)c1ccc(-c2c3nc(c(-c4c(F)c(F)c(F)c(F)c4F)c4ccc([nH]4)c(-c4c(F)c(F)c(F)c(F)c4F)c4nc(c(-c5c(F)c(F)c(F)c(F)c5F)c5ccc2[nH]5)C=C4)C=C3)cc1)N1C(=O)[C@H]2CCCC[C@@H]2C1=O
REMARK SMILES IDX 11 1 10 2 9 3 8 4 6 5 7 6 5 8 4 9 2 10 1 11 3 12 81 13 82 14
REMARK SMILES IDX 90 15 83 16 84 17 89 18 91 19 85 20 88 21 86 22 87 23 12 24
REMARK SMILES IDX 13 25 14 26 15 27 16 28 17 30 18 31 19 32 80 33 20 34 79 35
REMARK SMILES IDX 21 36 22 37 23 38 73 39 24 40 78 41 72 42 74 43 25 44 77 45
REMARK SMILES IDX 71 46 70 47 26 49 58 50 38 51 57 52 39 53 42 54 56 55 75 56
REMARK SMILES IDX 40 57 41 58 55 60 76 61 43 62 27 63 28 64 36 65 29 66 30 67
REMARK SMILES IDX 34 68 37 69 31 70 32 71 35 72 33 73 59 74 60 75 68 76 61 77
REMARK SMILES IDX 62 78 66 79 69 80 63 81 64 82 67 83 65 84 44 85 45 86 53 87
REMARK SMILES IDX 46 88 47 89 51 90 54 91 48 92 49 93 52 94 50 95
REMARK H PARENT 8 7 15 29 74 48 42 59
REMARK Flexibility Score: inf
ROOT
ATOM      1  C   UNL A   1      37.497  22.059  25.360  1.00  0.00     0.002 C 
ENDROOT
BRANCH   1   2
ATOM      2  C   UNL A   1      36.935  23.285  24.635  1.00  0.00     0.021 C 
BRANCH   2   3
ATOM      3  C   UNL A   1      35.508  23.645  25.052  1.00  0.00     0.116 C 
BRANCH   3   4
ATOM      4  N   UNL A   1      34.715  24.018  23.891  1.00  0.00    -0.354 N 
ATOM      5  C   UNL A   1      33.420  23.713  23.559  1.00  0.00     0.243 C 
ATOM      6  O   UNL A   1      33.020  24.090  22.456  1.00  0.00    -0.273 OA
ATOM      7  H   UNL A   1      35.184  24.583  23.237  1.00  0.00     0.163 HD
BRANCH   5   8
ATOM      8  C   UNL A   1      32.530  22.899  24.523  1.00  0.00     0.182 C 
BRANCH   8   9
ATOM      9  C   UNL A   1      31.103  23.506  24.618  1.00  0.00     0.039 C 
BRANCH   9  10
ATOM     10  C   UNL A   1      30.767  24.520  25.724  1.00  0.00    -0.015 C 
ATOM     11  C   UNL A   1      31.777  24.431  26.873  1.00  0.00     0.007 C 
ATOM     12  C   UNL A   1      30.773  25.954  25.179  1.00  0.00     0.007 C 
ENDBRANCH   9  10
ENDBRANCH   8   9
BRANCH   8  13
ATOM     13  N   UNL A   1      32.700  21.462  24.287  1.00  0.00    -0.269 N 
ATOM     14  C   UNL A   1      32.284  20.719  23.202  1.00  0.00     0.233 C 
ATOM     15  C   UNL A   1      33.535  20.688  25.072  1.00  0.00     0.233 C 
ATOM     16  O   UNL A   1      31.863  21.080  22.121  1.00  0.00    -0.274 OA
ATOM     17  C   UNL A   1      32.513  19.282  23.596  1.00  0.00     0.091 C 
ATOM     18  C   UNL A   1      33.863  19.470  24.251  1.00  0.00     0.091 C 
ATOM     19  O   UNL A   1      33.991  20.944  26.171  1.00  0.00    -0.274 OA
ATOM     20  C   UNL A   1      32.539  18.197  22.540  1.00  0.00     0.014 C 
ATOM     21  C   UNL A   1      34.374  18.213  24.915  1.00  0.00     0.014 C 
ATOM     22  C   UNL A   1      33.054  16.896  23.174  1.00  0.00     0.001 C 
ATOM     23  C   UNL A   1      34.405  17.082  23.876  1.00  0.00     0.001 C 
ENDBRANCH   8  13
ENDBRANCH   5   8
ENDBRANCH   3   4
ENDBRANCH   2   3
ENDBRANCH   1   2
BRANCH   1  24
ATOM     24  C   UNL A   1      37.217  20.719  24.669  1.00  0.00     0.002 C 
BRANCH  24  25
ATOM     25  C   UNL A   1      38.195  19.587  25.001  1.00  0.00     0.021 C 
BRANCH  25  26
ATOM     26  C   UNL A   1      39.228  19.916  26.075  1.00  0.00     0.116 C 
BRANCH  26  27
ATOM     27  N   UNL A   1      40.334  18.972  26.078  1.00  0.00    -0.352 N 
ATOM     28  C   UNL A   1      41.685  19.204  26.125  1.00  0.00     0.251 C 
ATOM     29  H   UNL A   1      40.074  18.023  26.042  1.00  0.00     0.163 HD
ATOM     30  O   UNL A   1      42.476  18.289  25.921  1.00  0.00    -0.269 OA
BRANCH  28  31
ATOM     31  C   UNL A   1      42.197  20.561  26.411  1.00  0.00     0.039 A 
ATOM     32  C   UNL A   1      42.523  21.399  25.341  1.00  0.00     0.014 A 
ATOM     33  C   UNL A   1      42.393  20.995  27.726  1.00  0.00     0.014 A 
ATOM     34  C   UNL A   1      42.993  22.691  25.587  1.00  0.00     0.010 A 
ATOM     35  C   UNL A   1      42.805  22.303  27.971  1.00  0.00     0.010 A 
ATOM     36  C   UNL A   1      43.113  23.161  26.904  1.00  0.00    -0.014 A 
BRANCH  36  37
ATOM     37  C   UNL A   1      43.568  24.546  27.187  1.00  0.00     0.031 A 
ATOM     38  C   UNL A   1      42.599  25.565  27.716  1.00  0.00     0.074 A 
ATOM     39  C   UNL A   1      44.836  24.902  26.905  1.00  0.00     0.049 A 
ATOM     40  N   UNL A   1      42.781  26.842  27.946  1.00  0.00    -0.248 NA
ATOM     41  C   UNL A   1      41.235  25.093  28.002  1.00  0.00     0.031 C 
ATOM     42  C   UNL A   1      45.858  24.014  26.349  1.00  0.00     0.029 A 
ATOM     43  N   UNL A   1      45.475  26.109  27.032  1.00  0.00    -0.354 N 
ATOM     44  C   UNL A   1      41.556  27.326  28.383  1.00  0.00     0.074 A 
ATOM     45  C   UNL A   1      40.626  26.218  28.346  1.00  0.00     0.031 C 
ATOM     46  C   UNL A   1      47.001  24.703  26.196  1.00  0.00     0.029 A 
ATOM     47  C   UNL A   1      46.782  26.086  26.612  1.00  0.00     0.049 A 
ATOM     48  H   UNL A   1      45.039  26.915  27.391  1.00  0.00     0.167 HD
ATOM     49  C   UNL A   1      41.241  28.577  28.796  1.00  0.00     0.037 A 
ATOM     50  C   UNL A   1      47.698  27.072  26.559  1.00  0.00     0.037 A 
ATOM     51  C   UNL A   1      42.175  29.669  28.861  1.00  0.00     0.049 A 
ATOM     52  C   UNL A   1      47.324  28.451  27.030  1.00  0.00     0.074 A 
ATOM     53  C   UNL A   1      41.968  30.957  29.324  1.00  0.00     0.029 A 
ATOM     54  N   UNL A   1      43.499  29.600  28.452  1.00  0.00    -0.354 N 
ATOM     55  N   UNL A   1      46.179  28.882  27.498  1.00  0.00    -0.248 NA
ATOM     56  C   UNL A   1      48.374  29.477  26.972  1.00  0.00     0.031 C 
ATOM     57  C   UNL A   1      43.155  31.678  29.161  1.00  0.00     0.029 A 
ATOM     58  C   UNL A   1      44.115  30.828  28.634  1.00  0.00     0.049 A 
ATOM     59  H   UNL A   1      43.936  28.798  28.085  1.00  0.00     0.167 HD
ATOM     60  C   UNL A   1      46.375  30.220  27.814  1.00  0.00     0.074 A 
ATOM     61  C   UNL A   1      47.754  30.526  27.496  1.00  0.00     0.031 C 
ATOM     62  C   UNL A   1      45.492  31.114  28.321  1.00  0.00     0.037 A 
BRANCH  49  63
ATOM     63  C   UNL A   1      39.822  28.831  29.215  1.00  0.00     0.064 A 
ATOM     64  C   UNL A   1      39.405  28.652  30.542  1.00  0.00     0.173 A 
ATOM     65  C   UNL A   1      38.877  29.291  28.286  1.00  0.00     0.173 A 
ATOM     66  F   UNL A   1      40.268  28.202  31.466  1.00  0.00    -0.203 F 
ATOM     67  C   UNL A   1      38.087  28.898  30.918  1.00  0.00     0.198 A 
ATOM     68  C   UNL A   1      37.567  29.564  28.671  1.00  0.00     0.198 A 
ATOM     69  F   UNL A   1      39.226  29.484  27.005  1.00  0.00    -0.203 F 
ATOM     70  F   UNL A   1      37.700  28.676  32.182  1.00  0.00    -0.200 F 
ATOM     71  C   UNL A   1      37.172  29.360  29.984  1.00  0.00     0.200 A 
ATOM     72  F   UNL A   1      36.686  30.019  27.770  1.00  0.00    -0.200 F 
ATOM     73  F   UNL A   1      35.904  29.602  30.349  1.00  0.00    -0.200 F 
ENDBRANCH  49  63
BRANCH  50  74
ATOM     74  C   UNL A   1      49.069  26.783  26.064  1.00  0.00     0.064 A 
ATOM     75  C   UNL A   1      49.405  26.999  24.721  1.00  0.00     0.173 A 
ATOM     76  C   UNL A   1      50.065  26.289  26.917  1.00  0.00     0.173 A 
ATOM     77  F   UNL A   1      48.479  27.451  23.862  1.00  0.00    -0.203 F 
ATOM     78  C   UNL A   1      50.684  26.715  24.245  1.00  0.00     0.198 A 
ATOM     79  C   UNL A   1      51.350  26.029  26.447  1.00  0.00     0.198 A 
ATOM     80  F   UNL A   1      49.792  26.070  28.212  1.00  0.00    -0.203 F 
ATOM     81  F   UNL A   1      50.968  26.892  22.947  1.00  0.00    -0.200 F 
ATOM     82  C   UNL A   1      51.657  26.236  25.110  1.00  0.00     0.200 A 
ATOM     83  F   UNL A   1      52.291  25.578  27.287  1.00  0.00    -0.200 F 
ATOM     84  F   UNL A   1      52.887  25.966  24.654  1.00  0.00    -0.200 F 
ENDBRANCH  50  74
BRANCH  62  85
ATOM     85  C   UNL A   1      45.997  32.499  28.593  1.00  0.00     0.064 A 
ATOM     86  C   UNL A   1      45.908  33.515  27.631  1.00  0.00     0.173 A 
ATOM     87  C   UNL A   1      46.539  32.822  29.846  1.00  0.00     0.173 A 
ATOM     88  F   UNL A   1      45.413  33.250  26.414  1.00  0.00    -0.203 F 
ATOM     89  C   UNL A   1      46.365  34.801  27.908  1.00  0.00     0.198 A 
ATOM     90  C   UNL A   1      46.971  34.115  30.128  1.00  0.00     0.198 A 
ATOM     91  F   UNL A   1      46.640  31.886  30.801  1.00  0.00    -0.203 F 
ATOM     92  F   UNL A   1      46.310  35.747  26.960  1.00  0.00    -0.200 F 
ATOM     93  C   UNL A   1      46.888  35.102  29.156  1.00  0.00     0.200 A 
ATOM     94  F   UNL A   1      47.467  34.407  31.338  1.00  0.00    -0.200 F 
ATOM     95  F   UNL A   1      47.323  36.341  29.422  1.00  0.00    -0.200 F 
ENDBRANCH  62  85
ENDBRANCH  36  37
ENDBRANCH  28  31
ENDBRANCH  26  27
ENDBRANCH  25  26
ENDBRANCH  24  25
ENDBRANCH   1  24
TORSDOF 16
ENDMDL
MODEL 3
REMARK VINA RESULT:     -12.0      1.505      3.463
REMARK SMILES CC(C)C[C@H](C(=O)NCCCCCCNC(=O)c1ccc(-c2c3nc(c(-c4c(F)c(F)c(F)c(F)c4F)c4ccc([nH]4)c(-c4c(F)c(F)c(F)c(F)c4F)c4nc(c(-c5c(F)c(F)c(F)c(F)c5F)c5ccc2[nH]5)C=C4)C=C3)cc1)N1C(=O)[C@H]2CCCC[C@@H]2C1=O
REMARK SMILES IDX 11 1 10 2 9 3 8 4 6 5 7 6 5 8 4 9 2 10 1 11 3 12 81 13 82 14
REMARK SMILES IDX 90 15 83 16 84 17 89 18 91 19 85 20 88 21 86 22 87 23 12 24
REMARK SMILES IDX 13 25 14 26 15 27 16 28 17 30 18 31 19 32 80 33 20 34 79 35
REMARK SMILES IDX 21 36 22 37 23 38 73 39 24 40 78 41 72 42 74 43 25 44 77 45
REMARK SMILES IDX 71 46 70 47 26 49 58 50 38 51 57 52 39 53 42 54 56 55 75 56
REMARK SMILES IDX 40 57 41 58 55 60 76 61 43 62 27 63 28 64 36 65 29 66 30 67
REMARK SMILES IDX 34 68 37 69 31 70 32 71 35 72 33 73 59 74 60 75 68 76 61 77
REMARK SMILES IDX 62 78 66 79 69 80 63 81 64 82 67 83 65 84 44 85 45 86 53 87
REMARK SMILES IDX 46 88 47 89 51 90 54 91 48 92 49 93 52 94 50 95
REMARK H PARENT 8 7 15 29 74 48 42 59
REMARK Flexibility Score: inf
ROOT
ATOM      1  C   UNL A   1      30.559  29.962  24.283  1.00  0.00     0.002 C 
ENDROOT
BRANCH   1   2
ATOM      2  C   UNL A   1      31.152  29.227  23.078  1.00  0.00     0.021 C 
BRANCH   2   3
ATOM      3  C   UNL A   1      32.621  28.838  23.258  1.00  0.00     0.116 C 
BRANCH   3   4
ATOM      4  N   UNL A   1      33.015  27.851  22.264  1.00  0.00    -0.354 N 
ATOM      5  C   UNL A   1      32.989  26.482  22.306  1.00  0.00     0.243 C 
ATOM      6  O   UNL A   1      33.473  25.881  21.345  1.00  0.00    -0.273 OA
ATOM      7  H   UNL A   1      33.353  28.230  21.421  1.00  0.00     0.163 HD
BRANCH   5   8
ATOM      8  C   UNL A   1      32.411  25.742  23.532  1.00  0.00     0.182 C 
BRANCH   8   9
ATOM      9  C   UNL A   1      30.941  25.306  23.283  1.00  0.00     0.039 C 
BRANCH   9  10
ATOM     10  C   UNL A   1      29.855  25.620  24.326  1.00  0.00    -0.015 C 
ATOM     11  C   UNL A   1      30.466  26.268  25.574  1.00  0.00     0.007 C 
ATOM     12  C   UNL A   1      28.796  26.570  23.752  1.00  0.00     0.007 C 
ENDBRANCH   9  10
ENDBRANCH   8   9
BRANCH   8  13
ATOM     13  N   UNL A   1      33.382  24.775  24.052  1.00  0.00    -0.269 N 
ATOM     14  C   UNL A   1      33.615  23.484  23.628  1.00  0.00     0.233 C 
ATOM     15  C   UNL A   1      34.381  25.148  24.935  1.00  0.00     0.233 C 
ATOM     16  O   UNL A   1      33.228  22.905  22.631  1.00  0.00    -0.274 OA
ATOM     17  C   UNL A   1      34.542  22.889  24.658  1.00  0.00     0.091 C 
ATOM     18  C   UNL A   1      35.446  24.090  24.824  1.00  0.00     0.091 C 
ATOM     19  O   UNL A   1      34.450  26.153  25.617  1.00  0.00    -0.274 OA
ATOM     20  C   UNL A   1      35.320  21.629  24.345  1.00  0.00     0.014 C 
ATOM     21  C   UNL A   1      36.465  23.911  25.924  1.00  0.00     0.014 C 
ATOM     22  C   UNL A   1      36.372  21.407  25.443  1.00  0.00     0.001 C 
ATOM     23  C   UNL A   1      37.271  22.632  25.649  1.00  0.00     0.001 C 
ENDBRANCH   8  13
ENDBRANCH   5   8
ENDBRANCH   3   4
ENDBRANCH   2   3
ENDBRANCH   1   2
BRANCH   1  24
ATOM     24  C   UNL A   1      31.545  30.221  25.427  1.00  0.00     0.002 C 
BRANCH  24  25
ATOM     25  C   UNL A   1      31.271  31.474  26.265  1.00  0.00     0.021 C 
BRANCH  25  26
ATOM     26  C   UNL A   1      32.500  32.093  26.927  1.00  0.00     0.116 C 
BRANCH  26  27
ATOM     27  N   UNL A   1      32.298  33.496  27.253  1.00  0.00    -0.352 N 
ATOM     28  C   UNL A   1      32.934  34.280  28.181  1.00  0.00     0.251 C 
ATOM     29  H   UNL A   1      31.601  33.951  26.727  1.00  0.00     0.163 HD
ATOM     30  O   UNL A   1      32.495  35.394  28.453  1.00  0.00    -0.269 OA
BRANCH  28  31
ATOM     31  C   UNL A   1      34.145  33.786  28.870  1.00  0.00     0.039 A 
ATOM     32  C   UNL A   1      34.004  32.832  29.882  1.00  0.00     0.014 A 
ATOM     33  C   UNL A   1      35.411  34.285  28.548  1.00  0.00     0.014 A 
ATOM     34  C   UNL A   1      35.136  32.338  30.534  1.00  0.00     0.010 A 
ATOM     35  C   UNL A   1      36.543  33.749  29.157  1.00  0.00     0.010 A 
ATOM     36  C   UNL A   1      36.416  32.774  30.159  1.00  0.00    -0.014 A 
BRANCH  36  37
ATOM     37  C   UNL A   1      37.635  32.230  30.809  1.00  0.00     0.031 A 
ATOM     38  C   UNL A   1      38.442  31.164  30.124  1.00  0.00     0.074 A 
ATOM     39  C   UNL A   1      37.975  32.647  32.043  1.00  0.00     0.049 A 
ATOM     40  N   UNL A   1      39.485  30.504  30.562  1.00  0.00    -0.248 NA
ATOM     41  C   UNL A   1      38.005  30.768  28.776  1.00  0.00     0.031 C 
ATOM     42  C   UNL A   1      37.247  33.645  32.828  1.00  0.00     0.029 A 
ATOM     43  N   UNL A   1      39.011  32.271  32.860  1.00  0.00    -0.354 N 
ATOM     44  C   UNL A   1      39.815  29.607  29.555  1.00  0.00     0.074 A 
ATOM     45  C   UNL A   1      38.837  29.774  28.502  1.00  0.00     0.031 C 
ATOM     46  C   UNL A   1      37.867  33.813  34.007  1.00  0.00     0.029 A 
ATOM     47  C   UNL A   1      39.015  32.912  34.074  1.00  0.00     0.049 A 
ATOM     48  H   UNL A   1      39.688  31.605  32.601  1.00  0.00     0.167 HD
ATOM     49  C   UNL A   1      40.851  28.735  29.507  1.00  0.00     0.037 A 
ATOM     50  C   UNL A   1      39.845  32.782  35.126  1.00  0.00     0.037 A 
ATOM     51  C   UNL A   1      41.840  28.592  30.542  1.00  0.00     0.049 A 
ATOM     52  C   UNL A   1      40.992  31.812  35.043  1.00  0.00     0.074 A 
ATOM     53  C   UNL A   1      42.962  27.782  30.559  1.00  0.00     0.029 A 
ATOM     54  N   UNL A   1      41.825  29.279  31.747  1.00  0.00    -0.354 N 
ATOM     55  N   UNL A   1      41.329  31.012  34.062  1.00  0.00    -0.248 NA
ATOM     56  C   UNL A   1      41.878  31.733  36.213  1.00  0.00     0.031 C 
ATOM     57  C   UNL A   1      43.607  27.952  31.789  1.00  0.00     0.029 A 
ATOM     58  C   UNL A   1      42.909  28.898  32.522  1.00  0.00     0.049 A 
ATOM     59  H   UNL A   1      41.145  29.939  32.013  1.00  0.00     0.167 HD
ATOM     60  C   UNL A   1      42.477  30.354  34.482  1.00  0.00     0.074 A 
ATOM     61  C   UNL A   1      42.786  30.859  35.804  1.00  0.00     0.031 C 
ATOM     62  C   UNL A   1      43.208  29.417  33.832  1.00  0.00     0.037 A 
BRANCH  49  63
ATOM     63  C   UNL A   1      40.970  27.868  28.287  1.00  0.00     0.064 A 
ATOM     64  C   UNL A   1      41.732  28.262  27.177  1.00  0.00     0.173 A 
ATOM     65  C   UNL A   1      40.343  26.615  28.241  1.00  0.00     0.173 A 
ATOM     66  F   UNL A   1      42.342  29.458  27.168  1.00  0.00    -0.203 F 
ATOM     67  C   UNL A   1      41.839  27.446  26.055  1.00  0.00     0.198 A 
ATOM     68  C   UNL A   1      40.476  25.787  27.129  1.00  0.00     0.198 A 
ATOM     69  F   UNL A   1      39.607  26.188  29.278  1.00  0.00    -0.203 F 
ATOM     70  F   UNL A   1      42.535  27.863  24.988  1.00  0.00    -0.200 F 
ATOM     71  C   UNL A   1      41.217  26.206  26.035  1.00  0.00     0.200 A 
ATOM     72  F   UNL A   1      39.882  24.586  27.114  1.00  0.00    -0.200 F 
ATOM     73  F   UNL A   1      41.325  25.418  24.956  1.00  0.00    -0.200 F 
ENDBRANCH  49  63
BRANCH  50  74
ATOM     74  C   UNL A   1      39.637  33.612  36.341  1.00  0.00     0.064 A 
ATOM     75  C   UNL A   1      38.853  33.142  37.403  1.00  0.00     0.173 A 
ATOM     76  C   UNL A   1      40.215  34.883  36.465  1.00  0.00     0.173 A 
ATOM     77  F   UNL A   1      38.263  31.940  37.320  1.00  0.00    -0.203 F 
ATOM     78  C   UNL A   1      38.639  33.922  38.538  1.00  0.00     0.198 A 
ATOM     79  C   UNL A   1      40.022  35.651  37.611  1.00  0.00     0.198 A 
ATOM     80  F   UNL A   1      40.977  35.373  35.476  1.00  0.00    -0.203 F 
ATOM     81  F   UNL A   1      37.852  33.466  39.523  1.00  0.00    -0.200 F 
ATOM     82  C   UNL A   1      39.229  35.172  38.644  1.00  0.00     0.200 A 
ATOM     83  F   UNL A   1      40.602  36.854  37.715  1.00  0.00    -0.200 F 
ATOM     84  F   UNL A   1      39.027  35.920  39.737  1.00  0.00    -0.200 F 
ENDBRANCH  50  74
BRANCH  62  85
ATOM     85  C   UNL A   1      44.432  28.898  34.526  1.00  0.00     0.064 A 
ATOM     86  C   UNL A   1      45.673  29.537  34.399  1.00  0.00     0.173 A 
ATOM     87  C   UNL A   1      44.352  27.771  35.359  1.00  0.00     0.173 A 
ATOM     88  F   UNL A   1      45.804  30.607  33.602  1.00  0.00    -0.203 F 
ATOM     89  C   UNL A   1      46.796  29.052  35.066  1.00  0.00     0.198 A 
ATOM     90  C   UNL A   1      45.470  27.306  36.044  1.00  0.00     0.198 A 
ATOM     91  F   UNL A   1      43.184  27.129  35.516  1.00  0.00    -0.203 F 
ATOM     92  F   UNL A   1      47.983  29.653  34.898  1.00  0.00    -0.200 F 
ATOM     93  C   UNL A   1      46.692  27.944  35.892  1.00  0.00     0.200 A 
ATOM     94  F   UNL A   1      45.366  26.240  36.849  1.00  0.00    -0.200 F 
ATOM     95  F   UNL A   1      47.773  27.483  36.537  1.00  0.00    -0.200 F 
ENDBRANCH  62  85
ENDBRANCH  36  37
ENDBRANCH  28  31
ENDBRANCH  26  27
ENDBRANCH  25  26
ENDBRANCH  24  25
ENDBRANCH   1  24
TORSDOF 16
ENDMDL
