MODEL 1
REMARK VINA RESULT:     -11.3      0.000      0.000
REMARK SMILES C[C@@H]1CN(c2nc(Br)cs2)C[C@@H]1C(=O)NCCCCCCNC(=O)c1ccc(-c2c3nc(c(-c4c(F)c(F)c(F)c(F)c4F)c4ccc([nH]4)c(-c4c(F)c(F)c(F)c(F)c4F)c4nc(c(-c5c(F)c(F)c(F)c(F)c5F)c5ccc2[nH]5)C=C4)C=C3)cc1
REMARK SMILES IDX 19 1 18 2 17 3 16 4 15 5 13 6 14 7 12 9 1 10 2 11 3 12 4 13
REMARK SMILES IDX 11 14 5 15 6 16 10 17 7 18 9 19 8 20 20 21 21 22 22 23 23 24
REMARK SMILES IDX 24 26 25 27 26 28 87 29 27 30 86 31 28 32 29 33 30 34 80 35
REMARK SMILES IDX 31 36 85 37 79 38 81 39 32 40 84 41 78 42 77 43 33 45 65 46
REMARK SMILES IDX 45 47 64 48 46 49 49 50 63 51 82 52 47 53 48 54 62 56 83 57
REMARK SMILES IDX 50 58 34 59 35 60 43 61 36 62 37 63 41 64 44 65 38 66 39 67
REMARK SMILES IDX 42 68 40 69 66 70 67 71 75 72 68 73 69 74 73 75 76 76 70 77
REMARK SMILES IDX 71 78 74 79 72 80 51 81 52 82 60 83 53 84 54 85 58 86 61 87
REMARK SMILES IDX 55 88 56 89 59 90 57 91
REMARK H PARENT 15 8 22 25 81 44 49 55
REMARK Flexibility Score: inf
ROOT
ATOM      1  C   UNL A   1      31.804  30.382  26.759  1.00  0.00     0.002 C 
ENDROOT
BRANCH   1   2
ATOM      2  C   UNL A   1      33.288  30.017  26.692  1.00  0.00     0.002 C 
BRANCH   2   3
ATOM      3  C   UNL A   1      33.654  28.661  27.302  1.00  0.00     0.021 C 
BRANCH   3   4
ATOM      4  C   UNL A   1      32.923  27.467  26.688  1.00  0.00     0.116 C 
BRANCH   4   5
ATOM      5  N   UNL A   1      33.464  27.089  25.394  1.00  0.00    -0.356 N 
ATOM      6  C   UNL A   1      32.931  27.269  24.147  1.00  0.00     0.225 C 
ATOM      7  O   UNL A   1      33.585  26.920  23.168  1.00  0.00    -0.275 OA
ATOM      8  H   UNL A   1      34.338  26.638  25.418  1.00  0.00     0.163 HD
BRANCH   6   9
ATOM      9  C   UNL A   1      31.559  27.893  24.033  1.00  0.00     0.102 C 
ATOM     10  C   UNL A   1      30.597  25.591  23.366  1.00  0.00     0.010 C 
ATOM     11  C   UNL A   1      30.377  26.911  24.108  1.00  0.00     0.020 C 
ATOM     12  C   UNL A   1      29.216  27.716  23.498  1.00  0.00     0.123 C 
ATOM     13  N   UNL A   1      29.859  28.786  22.751  1.00  0.00    -0.347 N 
ATOM     14  C   UNL A   1      31.308  28.618  22.709  1.00  0.00     0.132 C 
BRANCH  13  15
ATOM     15  C   UNL A   1      29.292  29.988  22.481  1.00  0.00     0.186 A 
ATOM     16  N   UNL A   1      28.933  30.368  21.274  1.00  0.00    -0.213 NA
ATOM     17  S   UNL A   1      29.041  31.202  23.700  1.00  0.00    -0.104 S 
ATOM     18  C   UNL A   1      28.390  31.633  21.308  1.00  0.00     0.119 A 
ATOM     19  C   UNL A   1      28.421  32.270  22.525  1.00  0.00     0.104 A 
ATOM     20  Br  UNL A   1      27.653  32.422  19.751  1.00  0.00    -0.028 Br
ENDBRANCH  13  15
ENDBRANCH   6   9
ENDBRANCH   4   5
ENDBRANCH   3   4
ENDBRANCH   2   3
ENDBRANCH   1   2
BRANCH   1  21
ATOM     21  C   UNL A   1      31.498  31.878  26.875  1.00  0.00     0.021 C 
BRANCH  21  22
ATOM     22  C   UNL A   1      32.719  32.795  26.876  1.00  0.00     0.116 C 
BRANCH  22  23
ATOM     23  N   UNL A   1      32.452  34.072  27.514  1.00  0.00    -0.352 N 
ATOM     24  C   UNL A   1      33.034  34.627  28.624  1.00  0.00     0.251 C 
ATOM     25  H   UNL A   1      31.752  34.618  27.089  1.00  0.00     0.163 HD
ATOM     26  O   UNL A   1      32.559  35.649  29.120  1.00  0.00    -0.269 OA
BRANCH  24  27
ATOM     27  C   UNL A   1      34.219  33.999  29.246  1.00  0.00     0.039 A 
ATOM     28  C   UNL A   1      34.024  32.968  30.169  1.00  0.00     0.014 A 
ATOM     29  C   UNL A   1      35.515  34.442  28.956  1.00  0.00     0.014 A 
ATOM     30  C   UNL A   1      35.125  32.352  30.767  1.00  0.00     0.010 A 
ATOM     31  C   UNL A   1      36.615  33.787  29.509  1.00  0.00     0.010 A 
ATOM     32  C   UNL A   1      36.430  32.741  30.426  1.00  0.00    -0.014 A 
BRANCH  32  33
ATOM     33  C   UNL A   1      37.604  32.062  31.031  1.00  0.00     0.031 A 
ATOM     34  C   UNL A   1      38.070  32.428  32.413  1.00  0.00     0.074 A 
ATOM     35  C   UNL A   1      38.274  31.136  30.317  1.00  0.00     0.049 A 
ATOM     36  N   UNL A   1      39.075  31.947  33.102  1.00  0.00    -0.248 NA
ATOM     37  C   UNL A   1      37.325  33.492  33.102  1.00  0.00     0.031 C 
ATOM     38  C   UNL A   1      37.958  30.736  28.946  1.00  0.00     0.029 A 
ATOM     39  N   UNL A   1      39.364  30.369  30.645  1.00  0.00    -0.354 N 
ATOM     40  C   UNL A   1      39.089  32.656  34.296  1.00  0.00     0.074 A 
ATOM     41  C   UNL A   1      38.024  33.632  34.220  1.00  0.00     0.031 C 
ATOM     42  C   UNL A   1      38.819  29.781  28.558  1.00  0.00     0.029 A 
ATOM     43  C   UNL A   1      39.759  29.517  29.643  1.00  0.00     0.049 A 
ATOM     44  H   UNL A   1      39.819  30.423  31.516  1.00  0.00     0.167 HD
ATOM     45  C   UNL A   1      39.902  32.490  35.368  1.00  0.00     0.037 A 
ATOM     46  C   UNL A   1      40.763  28.622  29.605  1.00  0.00     0.037 A 
ATOM     47  C   UNL A   1      40.940  31.497  35.455  1.00  0.00     0.049 A 
ATOM     48  C   UNL A   1      41.629  28.435  30.822  1.00  0.00     0.074 A 
ATOM     49  C   UNL A   1      41.771  31.207  36.523  1.00  0.00     0.029 A 
ATOM     50  N   UNL A   1      41.289  30.629  34.431  1.00  0.00    -0.354 N 
ATOM     51  N   UNL A   1      41.581  29.057  31.974  1.00  0.00    -0.248 NA
ATOM     52  C   UNL A   1      42.679  27.410  30.735  1.00  0.00     0.031 C 
ATOM     53  C   UNL A   1      42.648  30.189  36.132  1.00  0.00     0.029 A 
ATOM     54  C   UNL A   1      42.334  29.815  34.837  1.00  0.00     0.049 A 
ATOM     55  H   UNL A   1      40.858  30.597  33.546  1.00  0.00     0.167 HD
ATOM     56  C   UNL A   1      42.574  28.485  32.758  1.00  0.00     0.074 A 
ATOM     57  C   UNL A   1      43.195  27.453  31.955  1.00  0.00     0.031 C 
ATOM     58  C   UNL A   1      42.939  28.789  34.027  1.00  0.00     0.037 A 
BRANCH  45  59
ATOM     59  C   UNL A   1      39.695  33.401  36.543  1.00  0.00     0.064 A 
ATOM     60  C   UNL A   1      38.826  33.061  37.591  1.00  0.00     0.173 A 
ATOM     61  C   UNL A   1      40.408  34.604  36.646  1.00  0.00     0.173 A 
ATOM     62  F   UNL A   1      38.113  31.926  37.535  1.00  0.00    -0.203 F 
ATOM     63  C   UNL A   1      38.660  33.905  38.686  1.00  0.00     0.198 A 
ATOM     64  C   UNL A   1      40.260  35.432  37.756  1.00  0.00     0.198 A 
ATOM     65  F   UNL A   1      41.256  34.975  35.674  1.00  0.00    -0.203 F 
ATOM     66  F   UNL A   1      37.793  33.579  39.655  1.00  0.00    -0.200 F 
ATOM     67  C   UNL A   1      39.383  35.085  38.771  1.00  0.00     0.200 A 
ATOM     68  F   UNL A   1      40.968  36.568  37.842  1.00  0.00    -0.200 F 
ATOM     69  F   UNL A   1      39.228  35.891  39.831  1.00  0.00    -0.200 F 
ENDBRANCH  45  59
BRANCH  46  70
ATOM     70  C   UNL A   1      40.982  27.805  28.385  1.00  0.00     0.064 A 
ATOM     71  C   UNL A   1      40.324  26.578  28.211  1.00  0.00     0.173 A 
ATOM     72  C   UNL A   1      41.855  28.226  27.372  1.00  0.00     0.173 A 
ATOM     73  F   UNL A   1      39.495  26.125  29.163  1.00  0.00    -0.203 F 
ATOM     74  C   UNL A   1      40.546  25.796  27.081  1.00  0.00     0.198 A 
ATOM     75  C   UNL A   1      42.056  27.455  26.229  1.00  0.00     0.198 A 
ATOM     76  F   UNL A   1      42.503  29.394  27.487  1.00  0.00    -0.203 F 
ATOM     77  F   UNL A   1      39.939  24.607  26.962  1.00  0.00    -0.200 F 
ATOM     78  C   UNL A   1      41.409  26.237  26.089  1.00  0.00     0.200 A 
ATOM     79  F   UNL A   1      42.880  27.890  25.266  1.00  0.00    -0.200 F 
ATOM     80  F   UNL A   1      41.621  25.483  25.001  1.00  0.00    -0.200 F 
ENDBRANCH  46  70
BRANCH  58  81
ATOM     81  C   UNL A   1      44.045  27.976  34.633  1.00  0.00     0.064 A 
ATOM     82  C   UNL A   1      45.384  28.386  34.557  1.00  0.00     0.173 A 
ATOM     83  C   UNL A   1      43.758  26.785  35.317  1.00  0.00     0.173 A 
ATOM     84  F   UNL A   1      45.710  29.509  33.901  1.00  0.00    -0.203 F 
ATOM     85  C   UNL A   1      46.400  27.616  35.118  1.00  0.00     0.198 A 
ATOM     86  C   UNL A   1      44.774  26.033  35.901  1.00  0.00     0.198 A 
ATOM     87  F   UNL A   1      42.493  26.353  35.423  1.00  0.00    -0.203 F 
ATOM     88  F   UNL A   1      47.678  28.000  34.989  1.00  0.00    -0.200 F 
ATOM     89  C   UNL A   1      46.093  26.445  35.794  1.00  0.00     0.200 A 
ATOM     90  F   UNL A   1      44.475  24.906  36.564  1.00  0.00    -0.200 F 
ATOM     91  F   UNL A   1      47.073  25.706  36.335  1.00  0.00    -0.200 F 
ENDBRANCH  58  81
ENDBRANCH  32  33
ENDBRANCH  24  27
ENDBRANCH  22  23
ENDBRANCH  21  22
ENDBRANCH   1  21
TORSDOF 14
ENDMDL
MODEL 2
REMARK VINA RESULT:     -11.2      6.413     11.587
REMARK SMILES C[C@@H]1CN(c2nc(Br)cs2)C[C@@H]1C(=O)NCCCCCCNC(=O)c1ccc(-c2c3nc(c(-c4c(F)c(F)c(F)c(F)c4F)c4ccc([nH]4)c(-c4c(F)c(F)c(F)c(F)c4F)c4nc(c(-c5c(F)c(F)c(F)c(F)c5F)c5ccc2[nH]5)C=C4)C=C3)cc1
REMARK SMILES IDX 19 1 18 2 17 3 16 4 15 5 13 6 14 7 12 9 1 10 2 11 3 12 4 13
REMARK SMILES IDX 11 14 5 15 6 16 10 17 7 18 9 19 8 20 20 21 21 22 22 23 23 24
REMARK SMILES IDX 24 26 25 27 26 28 87 29 27 30 86 31 28 32 29 33 30 34 80 35
REMARK SMILES IDX 31 36 85 37 79 38 81 39 32 40 84 41 78 42 77 43 33 45 65 46
REMARK SMILES IDX 45 47 64 48 46 49 49 50 63 51 82 52 47 53 48 54 62 56 83 57
REMARK SMILES IDX 50 58 34 59 35 60 43 61 36 62 37 63 41 64 44 65 38 66 39 67
REMARK SMILES IDX 42 68 40 69 66 70 67 71 75 72 68 73 69 74 73 75 76 76 70 77
REMARK SMILES IDX 71 78 74 79 72 80 51 81 52 82 60 83 53 84 54 85 58 86 61 87
REMARK SMILES IDX 55 88 56 89 59 90 57 91
REMARK H PARENT 15 8 22 25 81 44 49 55
REMARK Flexibility Score: inf
ROOT
ATOM      1  C   UNL A   1      37.709  21.254  24.781  1.00  0.00     0.002 C 
ENDROOT
BRANCH   1   2
ATOM      2  C   UNL A   1      38.138  22.347  25.762  1.00  0.00     0.002 C 
BRANCH   2   3
ATOM      3  C   UNL A   1      37.537  23.730  25.501  1.00  0.00     0.021 C 
BRANCH   3   4
ATOM      4  C   UNL A   1      36.180  23.715  24.798  1.00  0.00     0.116 C 
BRANCH   4   5
ATOM      5  N   UNL A   1      35.077  23.951  25.713  1.00  0.00    -0.356 N 
ATOM      6  C   UNL A   1      33.974  23.179  25.958  1.00  0.00     0.225 C 
ATOM      7  O   UNL A   1      33.179  23.540  26.823  1.00  0.00    -0.275 OA
ATOM      8  H   UNL A   1      35.130  24.786  26.231  1.00  0.00     0.163 HD
BRANCH   6   9
ATOM      9  C   UNL A   1      33.787  21.913  25.153  1.00  0.00     0.102 C 
ATOM     10  C   UNL A   1      31.584  22.873  24.208  1.00  0.00     0.010 C 
ATOM     11  C   UNL A   1      32.834  22.029  23.951  1.00  0.00     0.020 C 
ATOM     12  C   UNL A   1      32.474  20.563  23.649  1.00  0.00     0.123 C 
ATOM     13  N   UNL A   1      32.810  19.841  24.866  1.00  0.00    -0.347 N 
ATOM     14  C   UNL A   1      33.187  20.749  25.945  1.00  0.00     0.132 C 
BRANCH  13  15
ATOM     15  C   UNL A   1      33.143  18.527  24.918  1.00  0.00     0.186 A 
ATOM     16  N   UNL A   1      32.364  17.600  25.430  1.00  0.00    -0.213 NA
ATOM     17  S   UNL A   1      34.681  17.927  24.375  1.00  0.00    -0.104 S 
ATOM     18  C   UNL A   1      32.965  16.364  25.345  1.00  0.00     0.119 A 
ATOM     19  C   UNL A   1      34.250  16.350  24.860  1.00  0.00     0.104 A 
ATOM     20  Br  UNL A   1      32.049  14.793  25.877  1.00  0.00    -0.028 Br
ENDBRANCH  13  15
ENDBRANCH   6   9
ENDBRANCH   4   5
ENDBRANCH   3   4
ENDBRANCH   2   3
ENDBRANCH   1   2
BRANCH   1  21
ATOM     21  C   UNL A   1      38.399  19.898  24.961  1.00  0.00     0.021 C 
BRANCH  21  22
ATOM     22  C   UNL A   1      39.244  19.760  26.226  1.00  0.00     0.116 C 
BRANCH  22  23
ATOM     23  N   UNL A   1      40.420  18.934  26.017  1.00  0.00    -0.352 N 
ATOM     24  C   UNL A   1      41.741  19.298  25.974  1.00  0.00     0.251 C 
ATOM     25  H   UNL A   1      40.244  17.975  25.888  1.00  0.00     0.163 HD
ATOM     26  O   UNL A   1      42.591  18.482  25.617  1.00  0.00    -0.269 OA
BRANCH  24  27
ATOM     27  C   UNL A   1      42.155  20.671  26.335  1.00  0.00     0.039 A 
ATOM     28  C   UNL A   1      42.301  21.616  25.315  1.00  0.00     0.014 A 
ATOM     29  C   UNL A   1      42.436  21.023  27.660  1.00  0.00     0.014 A 
ATOM     30  C   UNL A   1      42.685  22.921  25.628  1.00  0.00     0.010 A 
ATOM     31  C   UNL A   1      42.762  22.341  27.976  1.00  0.00     0.010 A 
ATOM     32  C   UNL A   1      42.897  23.301  26.963  1.00  0.00    -0.014 A 
BRANCH  32  33
ATOM     33  C   UNL A   1      43.268  24.699  27.301  1.00  0.00     0.031 A 
ATOM     34  C   UNL A   1      44.664  25.199  27.059  1.00  0.00     0.074 A 
ATOM     35  C   UNL A   1      42.350  25.510  27.863  1.00  0.00     0.049 A 
ATOM     36  N   UNL A   1      45.172  26.384  27.295  1.00  0.00    -0.248 NA
ATOM     37  C   UNL A   1      45.626  24.235  26.503  1.00  0.00     0.031 C 
ATOM     38  C   UNL A   1      40.979  25.126  28.202  1.00  0.00     0.029 A 
ATOM     39  N   UNL A   1      42.433  26.823  28.252  1.00  0.00    -0.354 N 
ATOM     40  C   UNL A   1      46.509  26.302  26.928  1.00  0.00     0.074 A 
ATOM     41  C   UNL A   1      46.747  24.941  26.499  1.00  0.00     0.031 C 
ATOM     42  C   UNL A   1      40.343  26.186  28.727  1.00  0.00     0.029 A 
ATOM     43  C   UNL A   1      41.266  27.316  28.780  1.00  0.00     0.049 A 
ATOM     44  H   UNL A   1      43.252  27.362  28.160  1.00  0.00     0.167 HD
ATOM     45  C   UNL A   1      47.446  27.282  26.926  1.00  0.00     0.037 A 
ATOM     46  C   UNL A   1      40.971  28.542  29.252  1.00  0.00     0.037 A 
ATOM     47  C   UNL A   1      47.199  28.643  27.322  1.00  0.00     0.049 A 
ATOM     48  C   UNL A   1      42.021  29.619  29.207  1.00  0.00     0.074 A 
ATOM     49  C   UNL A   1      48.065  29.722  27.292  1.00  0.00     0.029 A 
ATOM     50  N   UNL A   1      45.994  29.113  27.822  1.00  0.00    -0.354 N 
ATOM     51  N   UNL A   1      43.259  29.551  28.783  1.00  0.00    -0.248 NA
ATOM     52  C   UNL A   1      41.626  30.949  29.692  1.00  0.00     0.031 C 
ATOM     53  C   UNL A   1      47.395  30.837  27.808  1.00  0.00     0.029 A 
ATOM     54  C   UNL A   1      46.099  30.463  28.119  1.00  0.00     0.049 A 
ATOM     55  H   UNL A   1      45.183  28.569  27.947  1.00  0.00     0.167 HD
ATOM     56  C   UNL A   1      43.783  30.828  28.926  1.00  0.00     0.074 A 
ATOM     57  C   UNL A   1      42.722  31.656  29.459  1.00  0.00     0.031 C 
ATOM     58  C   UNL A   1      45.032  31.275  28.645  1.00  0.00     0.037 A 
BRANCH  45  59
ATOM     59  C   UNL A   1      48.829  26.918  26.472  1.00  0.00     0.064 A 
ATOM     60  C   UNL A   1      49.777  26.385  27.357  1.00  0.00     0.173 A 
ATOM     61  C   UNL A   1      49.197  27.060  25.125  1.00  0.00     0.173 A 
ATOM     62  F   UNL A   1      49.479  26.240  28.658  1.00  0.00    -0.203 F 
ATOM     63  C   UNL A   1      51.050  26.031  26.918  1.00  0.00     0.198 A 
ATOM     64  C   UNL A   1      50.462  26.680  24.683  1.00  0.00     0.198 A 
ATOM     65  F   UNL A   1      48.326  27.560  24.235  1.00  0.00    -0.203 F 
ATOM     66  F   UNL A   1      51.953  25.563  27.791  1.00  0.00    -0.200 F 
ATOM     67  C   UNL A   1      51.388  26.172  25.580  1.00  0.00     0.200 A 
ATOM     68  F   UNL A   1      50.783  26.805  23.388  1.00  0.00    -0.200 F 
ATOM     69  F   UNL A   1      52.611  25.822  25.157  1.00  0.00    -0.200 F 
ENDBRANCH  45  59
BRANCH  46  70
ATOM     70  C   UNL A   1      39.611  28.829  29.773  1.00  0.00     0.064 A 
ATOM     71  C   UNL A   1      38.621  29.374  28.942  1.00  0.00     0.173 A 
ATOM     72  C   UNL A   1      39.273  28.572  31.109  1.00  0.00     0.173 A 
ATOM     73  F   UNL A   1      38.905  29.655  27.662  1.00  0.00    -0.203 F 
ATOM     74  C   UNL A   1      37.352  29.669  29.433  1.00  0.00     0.198 A 
ATOM     75  C   UNL A   1      37.995  28.844  31.593  1.00  0.00     0.198 A 
ATOM     76  F   UNL A   1      40.182  28.046  31.942  1.00  0.00    -0.203 F 
ATOM     77  F   UNL A   1      36.439  30.231  28.629  1.00  0.00    -0.200 F 
ATOM     78  C   UNL A   1      37.039  29.400  30.757  1.00  0.00     0.200 A 
ATOM     79  F   UNL A   1      37.691  28.570  32.868  1.00  0.00    -0.200 F 
ATOM     80  F   UNL A   1      35.817  29.684  31.228  1.00  0.00    -0.200 F 
ENDBRANCH  46  70
BRANCH  58  81
ATOM     81  C   UNL A   1      45.307  32.730  28.883  1.00  0.00     0.064 A 
ATOM     82  C   UNL A   1      45.056  33.695  27.897  1.00  0.00     0.173 A 
ATOM     83  C   UNL A   1      45.804  33.166  30.121  1.00  0.00     0.173 A 
ATOM     84  F   UNL A   1      44.594  33.327  26.693  1.00  0.00    -0.203 F 
ATOM     85  C   UNL A   1      45.323  35.042  28.132  1.00  0.00     0.198 A 
ATOM     86  C   UNL A   1      46.044  34.515  30.360  1.00  0.00     0.198 A 
ATOM     87  F   UNL A   1      46.054  32.282  31.098  1.00  0.00    -0.203 F 
ATOM     88  F   UNL A   1      45.125  35.941  27.157  1.00  0.00    -0.200 F 
ATOM     89  C   UNL A   1      45.811  35.451  29.364  1.00  0.00     0.200 A 
ATOM     90  F   UNL A   1      46.504  34.911  31.556  1.00  0.00    -0.200 F 
ATOM     91  F   UNL A   1      46.066  36.748  29.587  1.00  0.00    -0.200 F 
ENDBRANCH  58  81
ENDBRANCH  32  33
ENDBRANCH  24  27
ENDBRANCH  22  23
ENDBRANCH  21  22
ENDBRANCH   1  21
TORSDOF 14
ENDMDL
MODEL 3
REMARK VINA RESULT:     -11.2      0.148      1.618
REMARK SMILES C[C@@H]1CN(c2nc(Br)cs2)C[C@@H]1C(=O)NCCCCCCNC(=O)c1ccc(-c2c3nc(c(-c4c(F)c(F)c(F)c(F)c4F)c4ccc([nH]4)c(-c4c(F)c(F)c(F)c(F)c4F)c4nc(c(-c5c(F)c(F)c(F)c(F)c5F)c5ccc2[nH]5)C=C4)C=C3)cc1
REMARK SMILES IDX 19 1 18 2 17 3 16 4 15 5 13 6 14 7 12 9 1 10 2 11 3 12 4 13
REMARK SMILES IDX 11 14 5 15 6 16 10 17 7 18 9 19 8 20 20 21 21 22 22 23 23 24
REMARK SMILES IDX 24 26 25 27 26 28 87 29 27 30 86 31 28 32 29 33 30 34 80 35
REMARK SMILES IDX 31 36 85 37 79 38 81 39 32 40 84 41 78 42 77 43 33 45 65 46
REMARK SMILES IDX 45 47 64 48 46 49 49 50 63 51 82 52 47 53 48 54 62 56 83 57
REMARK SMILES IDX 50 58 34 59 35 60 43 61 36 62 37 63 41 64 44 65 38 66 39 67
REMARK SMILES IDX 42 68 40 69 66 70 67 71 75 72 68 73 69 74 73 75 76 76 70 77
REMARK SMILES IDX 71 78 74 79 72 80 51 81 52 82 60 83 53 84 54 85 58 86 61 87
REMARK SMILES IDX 55 88 56 89 59 90 57 91
REMARK H PARENT 15 8 22 25 81 44 49 55
REMARK Flexibility Score: inf
ROOT
ATOM      1  C   UNL A   1      31.694  30.519  26.842  1.00  0.00     0.002 C 
ENDROOT
BRANCH   1   2
ATOM      2  C   UNL A   1      33.143  30.049  26.698  1.00  0.00     0.002 C 
BRANCH   2   3
ATOM      3  C   UNL A   1      33.457  28.696  27.343  1.00  0.00     0.021 C 
BRANCH   3   4
ATOM      4  C   UNL A   1      32.785  27.498  26.672  1.00  0.00     0.116 C 
BRANCH   4   5
ATOM      5  N   UNL A   1      33.381  27.173  25.388  1.00  0.00    -0.356 N 
ATOM      6  C   UNL A   1      32.873  27.346  24.128  1.00  0.00     0.225 C 
ATOM      7  O   UNL A   1      33.573  27.050  23.163  1.00  0.00    -0.275 OA
ATOM      8  H   UNL A   1      34.278  26.771  25.429  1.00  0.00     0.163 HD
BRANCH   6   9
ATOM      9  C   UNL A   1      31.473  27.896  23.985  1.00  0.00     0.102 C 
ATOM     10  C   UNL A   1      30.652  25.548  23.289  1.00  0.00     0.010 C 
ATOM     11  C   UNL A   1      30.344  26.851  24.030  1.00  0.00     0.020 C 
ATOM     12  C   UNL A   1      29.155  27.595  23.396  1.00  0.00     0.123 C 
ATOM     13  N   UNL A   1      29.756  28.701  22.668  1.00  0.00    -0.347 N 
ATOM     14  C   UNL A   1      31.213  28.611  22.658  1.00  0.00     0.132 C 
BRANCH  13  15
ATOM     15  C   UNL A   1      29.132  29.873  22.389  1.00  0.00     0.186 A 
ATOM     16  N   UNL A   1      28.976  30.341  21.170  1.00  0.00    -0.213 NA
ATOM     17  S   UNL A   1      28.526  30.931  23.628  1.00  0.00    -0.104 S 
ATOM     18  C   UNL A   1      28.310  31.546  21.198  1.00  0.00     0.119 A 
ATOM     19  C   UNL A   1      28.039  32.057  22.444  1.00  0.00     0.104 A 
ATOM     20  Br  UNL A   1      27.811  32.423  19.595  1.00  0.00    -0.028 Br
ENDBRANCH  13  15
ENDBRANCH   6   9
ENDBRANCH   4   5
ENDBRANCH   3   4
ENDBRANCH   2   3
ENDBRANCH   1   2
BRANCH   1  21
ATOM     21  C   UNL A   1      31.485  32.035  26.796  1.00  0.00     0.021 C 
BRANCH  21  22
ATOM     22  C   UNL A   1      32.753  32.873  26.946  1.00  0.00     0.116 C 
BRANCH  22  23
ATOM     23  N   UNL A   1      32.499  34.151  27.587  1.00  0.00    -0.352 N 
ATOM     24  C   UNL A   1      33.097  34.703  28.690  1.00  0.00     0.251 C 
ATOM     25  H   UNL A   1      31.797  34.700  27.170  1.00  0.00     0.163 HD
ATOM     26  O   UNL A   1      32.632  35.728  29.192  1.00  0.00    -0.269 OA
BRANCH  24  27
ATOM     27  C   UNL A   1      34.286  34.070  29.299  1.00  0.00     0.039 A 
ATOM     28  C   UNL A   1      34.095  33.054  30.240  1.00  0.00     0.014 A 
ATOM     29  C   UNL A   1      35.581  34.492  28.979  1.00  0.00     0.014 A 
ATOM     30  C   UNL A   1      35.200  32.433  30.826  1.00  0.00     0.010 A 
ATOM     31  C   UNL A   1      36.683  33.832  29.521  1.00  0.00     0.010 A 
ATOM     32  C   UNL A   1      36.503  32.801  30.455  1.00  0.00    -0.014 A 
BRANCH  32  33
ATOM     33  C   UNL A   1      37.680  32.116  31.049  1.00  0.00     0.031 A 
ATOM     34  C   UNL A   1      38.157  32.475  32.428  1.00  0.00     0.074 A 
ATOM     35  C   UNL A   1      38.342  31.192  30.326  1.00  0.00     0.049 A 
ATOM     36  N   UNL A   1      39.167  31.989  33.107  1.00  0.00    -0.248 NA
ATOM     37  C   UNL A   1      37.421  33.538  33.128  1.00  0.00     0.031 C 
ATOM     38  C   UNL A   1      38.014  30.799  28.955  1.00  0.00     0.029 A 
ATOM     39  N   UNL A   1      39.432  30.420  30.641  1.00  0.00    -0.354 N 
ATOM     40  C   UNL A   1      39.192  32.692  34.304  1.00  0.00     0.074 A 
ATOM     41  C   UNL A   1      38.129  33.671  34.241  1.00  0.00     0.031 C 
ATOM     42  C   UNL A   1      38.869  29.843  28.555  1.00  0.00     0.029 A 
ATOM     43  C   UNL A   1      39.817  29.572  29.632  1.00  0.00     0.049 A 
ATOM     44  H   UNL A   1      39.895  30.469  31.509  1.00  0.00     0.167 HD
ATOM     45  C   UNL A   1      40.013  32.520  35.369  1.00  0.00     0.037 A 
ATOM     46  C   UNL A   1      40.818  28.675  29.582  1.00  0.00     0.037 A 
ATOM     47  C   UNL A   1      41.049  31.524  35.443  1.00  0.00     0.049 A 
ATOM     48  C   UNL A   1      41.693  28.480  30.791  1.00  0.00     0.074 A 
ATOM     49  C   UNL A   1      41.888  31.227  36.503  1.00  0.00     0.029 A 
ATOM     50  N   UNL A   1      41.388  30.659  34.413  1.00  0.00    -0.354 N 
ATOM     51  N   UNL A   1      41.656  29.097  31.946  1.00  0.00    -0.248 NA
ATOM     52  C   UNL A   1      42.740  27.453  30.692  1.00  0.00     0.031 C 
ATOM     53  C   UNL A   1      42.759  30.208  36.102  1.00  0.00     0.029 A 
ATOM     54  C   UNL A   1      42.434  29.841  34.807  1.00  0.00     0.049 A 
ATOM     55  H   UNL A   1      40.950  30.632  33.531  1.00  0.00     0.167 HD
ATOM     56  C   UNL A   1      42.653  28.519  32.720  1.00  0.00     0.074 A 
ATOM     57  C   UNL A   1      43.266  27.488  31.908  1.00  0.00     0.031 C 
ATOM     58  C   UNL A   1      43.030  28.816  33.988  1.00  0.00     0.037 A 
BRANCH  45  59
ATOM     59  C   UNL A   1      39.818  33.425  36.549  1.00  0.00     0.064 A 
ATOM     60  C   UNL A   1      40.459  34.670  36.634  1.00  0.00     0.173 A 
ATOM     61  C   UNL A   1      38.944  33.066  37.586  1.00  0.00     0.173 A 
ATOM     62  F   UNL A   1      41.313  35.056  35.674  1.00  0.00    -0.203 F 
ATOM     63  C   UNL A   1      40.252  35.510  37.725  1.00  0.00     0.198 A 
ATOM     64  C   UNL A   1      38.718  33.921  38.662  1.00  0.00     0.198 A 
ATOM     65  F   UNL A   1      38.301  31.888  37.552  1.00  0.00    -0.203 F 
ATOM     66  F   UNL A   1      40.909  36.676  37.805  1.00  0.00    -0.200 F 
ATOM     67  C   UNL A   1      39.376  35.138  38.733  1.00  0.00     0.200 A 
ATOM     68  F   UNL A   1      37.862  33.565  39.631  1.00  0.00    -0.200 F 
ATOM     69  F   UNL A   1      39.171  35.953  39.779  1.00  0.00    -0.200 F 
ENDBRANCH  45  59
BRANCH  46  70
ATOM     70  C   UNL A   1      41.025  27.862  28.357  1.00  0.00     0.064 A 
ATOM     71  C   UNL A   1      40.406  26.612  28.208  1.00  0.00     0.173 A 
ATOM     72  C   UNL A   1      41.848  28.311  27.314  1.00  0.00     0.173 A 
ATOM     73  F   UNL A   1      39.627  26.132  29.188  1.00  0.00    -0.203 F 
ATOM     74  C   UNL A   1      40.619  25.835  27.072  1.00  0.00     0.198 A 
ATOM     75  C   UNL A   1      42.039  27.545  26.167  1.00  0.00     0.198 A 
ATOM     76  F   UNL A   1      42.457  29.503  27.406  1.00  0.00    -0.203 F 
ATOM     77  F   UNL A   1      40.051  24.625  26.976  1.00  0.00    -0.200 F 
ATOM     78  C   UNL A   1      41.431  26.304  26.051  1.00  0.00     0.200 A 
ATOM     79  F   UNL A   1      42.813  28.006  25.176  1.00  0.00    -0.200 F 
ATOM     80  F   UNL A   1      41.634  25.556  24.958  1.00  0.00    -0.200 F 
ENDBRANCH  46  70
BRANCH  58  81
ATOM     81  C   UNL A   1      44.138  27.998  34.581  1.00  0.00     0.064 A 
ATOM     82  C   UNL A   1      43.884  26.791  35.249  1.00  0.00     0.173 A 
ATOM     83  C   UNL A   1      45.473  28.414  34.458  1.00  0.00     0.173 A 
ATOM     84  F   UNL A   1      42.623  26.359  35.405  1.00  0.00    -0.203 F 
ATOM     85  C   UNL A   1      44.924  26.047  35.800  1.00  0.00     0.198 A 
ATOM     86  C   UNL A   1      46.511  27.652  34.986  1.00  0.00     0.198 A 
ATOM     87  F   UNL A   1      45.770  29.557  33.822  1.00  0.00    -0.203 F 
ATOM     88  F   UNL A   1      44.652  24.923  36.480  1.00  0.00    -0.200 F 
ATOM     89  C   UNL A   1      46.235  26.474  35.663  1.00  0.00     0.200 A 
ATOM     90  F   UNL A   1      47.781  28.060  34.843  1.00  0.00    -0.200 F 
ATOM     91  F   UNL A   1      47.234  25.755  36.194  1.00  0.00    -0.200 F 
ENDBRANCH  58  81
ENDBRANCH  32  33
ENDBRANCH  24  27
ENDBRANCH  22  23
ENDBRANCH  21  22
ENDBRANCH   1  21
TORSDOF 14
ENDMDL
