MODEL 1
REMARK VINA RESULT:     -11.2      0.000      0.000
REMARK SMILES CCOC(=O)[C@H]1CCCN(C(=O)N[C@](C)(CC)C(=O)NCCCCCCNC(=O)c2ccc(-c3c4nc(c(-c5c(F)c(F)c(F)c(F)c5F)c5ccc([nH]5)c(-c5c(F)c(F)c(F)c(F)c5F)c5nc(c(-c6c(F)c(F)c(F)c(F)c6F)c6ccc3[nH]6)C=C5)C=C4)cc2)C1
REMARK SMILES IDX 22 1 21 2 20 3 18 4 19 5 14 7 15 8 13 9 11 10 12 11 10 13
REMARK SMILES IDX 6 14 7 15 93 16 8 17 9 18 4 19 5 20 3 21 2 22 1 23 16 24
REMARK SMILES IDX 17 25 23 26 24 27 25 28 26 29 27 30 28 31 29 33 30 34 31 35
REMARK SMILES IDX 92 36 32 37 91 38 33 39 34 40 35 41 85 42 36 43 90 44 84 45
REMARK SMILES IDX 86 46 37 47 89 48 83 49 82 50 38 52 70 53 50 54 69 55 51 56
REMARK SMILES IDX 54 57 68 58 87 59 52 60 53 61 67 63 88 64 55 65 39 66 40 67
REMARK SMILES IDX 48 68 41 69 42 70 46 71 49 72 43 73 44 74 47 75 45 76 71 77
REMARK SMILES IDX 72 78 80 79 73 80 74 81 78 82 81 83 75 84 76 85 79 86 77 87
REMARK SMILES IDX 56 88 57 89 65 90 58 91 59 92 63 93 66 94 60 95 61 96 64 97
REMARK SMILES IDX 62 98
REMARK H PARENT 20 6 13 12 27 32 86 51 54 62
REMARK Flexibility Score: inf
ROOT
ATOM      1  C   UNL A   1      36.984  23.292  25.812  1.00  0.00     0.021 C 
ENDROOT
BRANCH   1   2
ATOM      2  C   UNL A   1      35.478  23.541  26.011  1.00  0.00     0.116 C 
BRANCH   2   3
ATOM      3  N   UNL A   1      34.899  24.149  24.831  1.00  0.00    -0.354 N 
ATOM      4  C   UNL A   1      34.099  23.594  23.878  1.00  0.00     0.245 C 
ATOM      5  O   UNL A   1      34.428  23.869  22.719  1.00  0.00    -0.272 OA
ATOM      6  H   UNL A   1      35.114  25.100  24.700  1.00  0.00     0.163 HD
BRANCH   4   7
ATOM      7  C   UNL A   1      32.896  22.630  24.222  1.00  0.00     0.117 C 
ATOM      8  C   UNL A   1      31.945  22.743  23.004  1.00  0.00     0.045 C 
BRANCH   7   9
ATOM      9  N   UNL A   1      32.273  23.196  25.466  1.00  0.00    -0.324 N 
ATOM     10  C   UNL A   1      31.686  24.316  25.934  1.00  0.00     0.318 C 
ATOM     11  O   UNL A   1      31.417  24.281  27.141  1.00  0.00    -0.249 OA
ATOM     12  H   UNL A   1      32.304  22.521  26.182  1.00  0.00     0.166 HD
BRANCH  10  13
ATOM     13  N   UNL A   1      31.430  25.434  25.184  1.00  0.00    -0.324 N 
ATOM     14  C   UNL A   1      31.787  27.954  25.129  1.00  0.00     0.119 C 
ATOM     15  C   UNL A   1      30.704  28.019  24.044  1.00  0.00     0.019 C 
ATOM     16  C   UNL A   1      32.413  26.551  25.223  1.00  0.00     0.136 C 
ATOM     17  C   UNL A   1      29.691  26.919  24.236  1.00  0.00     0.023 C 
ATOM     18  C   UNL A   1      30.393  25.580  24.185  1.00  0.00     0.121 C 
BRANCH  14  19
ATOM     19  C   UNL A   1      32.791  29.050  24.816  1.00  0.00     0.310 C 
ATOM     20  O   UNL A   1      33.146  29.335  23.675  1.00  0.00    -0.252 OA
BRANCH  19  21
ATOM     21  O   UNL A   1      33.175  29.743  25.920  1.00  0.00    -0.466 OA
BRANCH  21  22
ATOM     22  C   UNL A   1      32.091  30.089  26.802  1.00  0.00     0.229 C 
ATOM     23  C   UNL A   1      31.446  31.408  26.411  1.00  0.00     0.049 C 
ENDBRANCH  21  22
ENDBRANCH  19  21
ENDBRANCH  14  19
ENDBRANCH  10  13
ENDBRANCH   7   9
BRANCH   7  24
ATOM     24  C   UNL A   1      33.423  21.198  24.511  1.00  0.00     0.035 C 
ATOM     25  C   UNL A   1      33.295  20.720  25.949  1.00  0.00     0.007 C 
ENDBRANCH   7  24
ENDBRANCH   4   7
ENDBRANCH   2   3
ENDBRANCH   1   2
BRANCH   1  26
ATOM     26  C   UNL A   1      37.337  22.291  24.699  1.00  0.00     0.002 C 
BRANCH  26  27
ATOM     27  C   UNL A   1      36.918  20.842  24.960  1.00  0.00     0.002 C 
BRANCH  27  28
ATOM     28  C   UNL A   1      38.068  19.836  24.957  1.00  0.00     0.021 C 
BRANCH  28  29
ATOM     29  C   UNL A   1      39.257  20.244  25.817  1.00  0.00     0.116 C 
BRANCH  29  30
ATOM     30  N   UNL A   1      40.253  19.190  25.908  1.00  0.00    -0.352 N 
ATOM     31  C   UNL A   1      41.606  19.295  26.115  1.00  0.00     0.251 C 
ATOM     32  H   UNL A   1      39.910  18.272  25.806  1.00  0.00     0.163 HD
ATOM     33  O   UNL A   1      42.338  18.326  25.960  1.00  0.00    -0.269 OA
BRANCH  31  34
ATOM     34  C   UNL A   1      42.179  20.601  26.508  1.00  0.00     0.039 A 
ATOM     35  C   UNL A   1      42.636  21.467  25.513  1.00  0.00     0.014 A 
ATOM     36  C   UNL A   1      42.254  20.969  27.855  1.00  0.00     0.014 A 
ATOM     37  C   UNL A   1      43.117  22.728  25.867  1.00  0.00     0.010 A 
ATOM     38  C   UNL A   1      42.657  22.255  28.198  1.00  0.00     0.010 A 
ATOM     39  C   UNL A   1      43.099  23.146  27.208  1.00  0.00    -0.014 A 
BRANCH  39  40
ATOM     40  C   UNL A   1      43.548  24.508  27.596  1.00  0.00     0.031 A 
ATOM     41  C   UNL A   1      42.536  25.567  27.933  1.00  0.00     0.074 A 
ATOM     42  C   UNL A   1      44.863  24.804  27.591  1.00  0.00     0.049 A 
ATOM     43  N   UNL A   1      42.724  26.828  28.229  1.00  0.00    -0.248 NA
ATOM     44  C   UNL A   1      41.121  25.163  27.910  1.00  0.00     0.031 C 
ATOM     45  C   UNL A   1      45.938  23.874  27.240  1.00  0.00     0.029 A 
ATOM     46  N   UNL A   1      45.519  25.974  27.881  1.00  0.00    -0.354 N 
ATOM     47  C   UNL A   1      41.458  27.366  28.418  1.00  0.00     0.074 A 
ATOM     48  C   UNL A   1      40.505  26.312  28.144  1.00  0.00     0.031 C 
ATOM     49  C   UNL A   1      47.119  24.503  27.357  1.00  0.00     0.029 A 
ATOM     50  C   UNL A   1      46.884  25.889  27.748  1.00  0.00     0.049 A 
ATOM     51  H   UNL A   1      45.056  26.797  28.157  1.00  0.00     0.167 HD
ATOM     52  C   UNL A   1      41.121  28.617  28.811  1.00  0.00     0.037 A 
ATOM     53  C   UNL A   1      47.836  26.827  27.913  1.00  0.00     0.037 A 
ATOM     54  C   UNL A   1      42.073  29.656  29.102  1.00  0.00     0.049 A 
ATOM     55  C   UNL A   1      47.429  28.217  28.327  1.00  0.00     0.074 A 
ATOM     56  C   UNL A   1      41.833  30.943  29.552  1.00  0.00     0.029 A 
ATOM     57  N   UNL A   1      43.447  29.528  28.968  1.00  0.00    -0.354 N 
ATOM     58  N   UNL A   1      46.233  28.694  28.566  1.00  0.00    -0.248 NA
ATOM     59  C   UNL A   1      48.510  29.198  28.499  1.00  0.00     0.031 C 
ATOM     60  C   UNL A   1      43.059  31.610  29.639  1.00  0.00     0.029 A 
ATOM     61  C   UNL A   1      44.067  30.721  29.304  1.00  0.00     0.049 A 
ATOM     62  H   UNL A   1      43.914  28.711  28.676  1.00  0.00     0.167 HD
ATOM     63  C   UNL A   1      46.418  30.016  28.951  1.00  0.00     0.074 A 
ATOM     64  C   UNL A   1      47.844  30.260  28.929  1.00  0.00     0.031 C 
ATOM     65  C   UNL A   1      45.491  30.944  29.292  1.00  0.00     0.037 A 
BRANCH  52  66
ATOM     66  C   UNL A   1      39.660  28.933  28.959  1.00  0.00     0.064 A 
ATOM     67  C   UNL A   1      38.877  29.328  27.864  1.00  0.00     0.173 A 
ATOM     68  C   UNL A   1      39.021  28.785  30.200  1.00  0.00     0.173 A 
ATOM     69  F   UNL A   1      39.441  29.497  26.657  1.00  0.00    -0.203 F 
ATOM     70  C   UNL A   1      37.517  29.588  28.009  1.00  0.00     0.198 A 
ATOM     71  C   UNL A   1      37.654  29.013  30.335  1.00  0.00     0.198 A 
ATOM     72  F   UNL A   1      39.720  28.404  31.280  1.00  0.00    -0.203 F 
ATOM     73  F   UNL A   1      36.801  30.008  26.958  1.00  0.00    -0.200 F 
ATOM     74  C   UNL A   1      36.905  29.420  29.242  1.00  0.00     0.200 A 
ATOM     75  F   UNL A   1      37.062  28.836  31.525  1.00  0.00    -0.200 F 
ATOM     76  F   UNL A   1      35.593  29.656  29.378  1.00  0.00    -0.200 F 
ENDBRANCH  52  66
BRANCH  53  77
ATOM     77  C   UNL A   1      49.269  26.488  27.698  1.00  0.00     0.064 A 
ATOM     78  C   UNL A   1      50.132  26.277  28.783  1.00  0.00     0.173 A 
ATOM     79  C   UNL A   1      49.812  26.397  26.408  1.00  0.00     0.173 A 
ATOM     80  F   UNL A   1      49.666  26.373  30.037  1.00  0.00    -0.203 F 
ATOM     81  C   UNL A   1      51.488  26.025  28.587  1.00  0.00     0.198 A 
ATOM     82  C   UNL A   1      51.162  26.109  26.212  1.00  0.00     0.198 A 
ATOM     83  F   UNL A   1      49.030  26.583  25.334  1.00  0.00    -0.203 F 
ATOM     84  F   UNL A   1      52.301  25.892  29.644  1.00  0.00    -0.200 F 
ATOM     85  C   UNL A   1      52.002  25.936  27.302  1.00  0.00     0.200 A 
ATOM     86  F   UNL A   1      51.649  26.009  24.969  1.00  0.00    -0.200 F 
ATOM     87  F   UNL A   1      53.305  25.696  27.114  1.00  0.00    -0.200 F 
ENDBRANCH  53  77
BRANCH  65  88
ATOM     88  C   UNL A   1      45.989  32.297  29.714  1.00  0.00     0.064 A 
ATOM     89  C   UNL A   1      46.146  33.346  28.797  1.00  0.00     0.173 A 
ATOM     90  C   UNL A   1      46.277  32.555  31.063  1.00  0.00     0.173 A 
ATOM     91  F   UNL A   1      45.899  33.147  27.493  1.00  0.00    -0.203 F 
ATOM     92  C   UNL A   1      46.601  34.595  29.211  1.00  0.00     0.198 A 
ATOM     93  C   UNL A   1      46.696  33.815  31.479  1.00  0.00     0.198 A 
ATOM     94  F   UNL A   1      46.135  31.588  31.982  1.00  0.00    -0.203 F 
ATOM     95  F   UNL A   1      46.795  35.568  28.309  1.00  0.00    -0.200 F 
ATOM     96  C   UNL A   1      46.867  34.831  30.551  1.00  0.00     0.200 A 
ATOM     97  F   UNL A   1      46.936  34.045  32.776  1.00  0.00    -0.200 F 
ATOM     98  F   UNL A   1      47.296  36.037  30.949  1.00  0.00    -0.200 F 
ENDBRANCH  65  88
ENDBRANCH  39  40
ENDBRANCH  31  34
ENDBRANCH  29  30
ENDBRANCH  28  29
ENDBRANCH  27  28
ENDBRANCH  26  27
ENDBRANCH   1  26
TORSDOF 19
ENDMDL
MODEL 2
REMARK VINA RESULT:     -11.2      4.936      9.592
REMARK SMILES CCOC(=O)[C@H]1CCCN(C(=O)N[C@](C)(CC)C(=O)NCCCCCCNC(=O)c2ccc(-c3c4nc(c(-c5c(F)c(F)c(F)c(F)c5F)c5ccc([nH]5)c(-c5c(F)c(F)c(F)c(F)c5F)c5nc(c(-c6c(F)c(F)c(F)c(F)c6F)c6ccc3[nH]6)C=C5)C=C4)cc2)C1
REMARK SMILES IDX 22 1 21 2 20 3 18 4 19 5 14 7 15 8 13 9 11 10 12 11 10 13
REMARK SMILES IDX 6 14 7 15 93 16 8 17 9 18 4 19 5 20 3 21 2 22 1 23 16 24
REMARK SMILES IDX 17 25 23 26 24 27 25 28 26 29 27 30 28 31 29 33 30 34 31 35
REMARK SMILES IDX 92 36 32 37 91 38 33 39 34 40 35 41 85 42 36 43 90 44 84 45
REMARK SMILES IDX 86 46 37 47 89 48 83 49 82 50 38 52 70 53 50 54 69 55 51 56
REMARK SMILES IDX 54 57 68 58 87 59 52 60 53 61 67 63 88 64 55 65 39 66 40 67
REMARK SMILES IDX 48 68 41 69 42 70 46 71 49 72 43 73 44 74 47 75 45 76 71 77
REMARK SMILES IDX 72 78 80 79 73 80 74 81 78 82 81 83 75 84 76 85 79 86 77 87
REMARK SMILES IDX 56 88 57 89 65 90 58 91 59 92 63 93 66 94 60 95 61 96 64 97
REMARK SMILES IDX 62 98
REMARK H PARENT 20 6 13 12 27 32 86 51 54 62
REMARK Flexibility Score: inf
ROOT
ATOM      1  C   UNL A   1      31.943  29.160  27.374  1.00  0.00     0.021 C 
ENDROOT
BRANCH   1   2
ATOM      2  C   UNL A   1      31.867  27.665  27.021  1.00  0.00     0.116 C 
BRANCH   2   3
ATOM      3  N   UNL A   1      31.331  27.479  25.689  1.00  0.00    -0.354 N 
ATOM      4  C   UNL A   1      31.873  26.827  24.622  1.00  0.00     0.245 C 
ATOM      5  O   UNL A   1      31.798  27.449  23.557  1.00  0.00    -0.272 OA
ATOM      6  H   UNL A   1      30.446  27.882  25.532  1.00  0.00     0.163 HD
BRANCH   4   7
ATOM      7  C   UNL A   1      32.594  25.427  24.749  1.00  0.00     0.117 C 
ATOM      8  C   UNL A   1      33.921  25.738  25.485  1.00  0.00     0.045 C 
BRANCH   7   9
ATOM      9  N   UNL A   1      32.834  24.972  23.338  1.00  0.00    -0.324 N 
ATOM     10  C   UNL A   1      33.456  24.002  22.636  1.00  0.00     0.318 C 
ATOM     11  O   UNL A   1      33.411  24.157  21.410  1.00  0.00    -0.249 OA
ATOM     12  H   UNL A   1      32.389  25.590  22.716  1.00  0.00     0.166 HD
BRANCH  10  13
ATOM     13  N   UNL A   1      34.127  22.944  23.192  1.00  0.00    -0.324 N 
ATOM     14  C   UNL A   1      33.845  20.997  24.808  1.00  0.00     0.119 C 
ATOM     15  C   UNL A   1      35.374  20.882  24.835  1.00  0.00     0.019 C 
ATOM     16  C   UNL A   1      33.353  21.722  23.542  1.00  0.00     0.136 C 
ATOM     17  C   UNL A   1      36.014  22.231  24.626  1.00  0.00     0.023 C 
ATOM     18  C   UNL A   1      35.562  22.796  23.297  1.00  0.00     0.121 C 
BRANCH  14  19
ATOM     19  C   UNL A   1      33.293  19.589  24.957  1.00  0.00     0.310 C 
ATOM     20  O   UNL A   1      32.210  19.340  25.480  1.00  0.00    -0.252 OA
BRANCH  19  21
ATOM     21  O   UNL A   1      34.077  18.652  24.364  1.00  0.00    -0.466 OA
BRANCH  21  22
ATOM     22  C   UNL A   1      33.353  17.715  23.544  1.00  0.00     0.229 C 
ATOM     23  C   UNL A   1      34.202  16.507  23.186  1.00  0.00     0.049 C 
ENDBRANCH  21  22
ENDBRANCH  19  21
ENDBRANCH  14  19
ENDBRANCH  10  13
ENDBRANCH   7   9
BRANCH   7  24
ATOM     24  C   UNL A   1      31.667  24.410  25.471  1.00  0.00     0.035 C 
ATOM     25  C   UNL A   1      32.217  23.803  26.752  1.00  0.00     0.007 C 
ENDBRANCH   7  24
ENDBRANCH   4   7
ENDBRANCH   2   3
ENDBRANCH   1   2
BRANCH   1  26
ATOM     26  C   UNL A   1      32.285  30.091  26.199  1.00  0.00     0.002 C 
BRANCH  26  27
ATOM     27  C   UNL A   1      31.164  31.037  25.761  1.00  0.00     0.002 C 
BRANCH  27  28
ATOM     28  C   UNL A   1      31.192  32.409  26.429  1.00  0.00     0.021 C 
BRANCH  28  29
ATOM     29  C   UNL A   1      32.538  32.783  27.035  1.00  0.00     0.116 C 
BRANCH  29  30
ATOM     30  N   UNL A   1      32.544  34.137  27.562  1.00  0.00    -0.352 N 
ATOM     31  C   UNL A   1      33.313  34.669  28.567  1.00  0.00     0.251 C 
ATOM     32  H   UNL A   1      31.907  34.759  27.141  1.00  0.00     0.163 HD
ATOM     33  O   UNL A   1      33.055  35.771  29.034  1.00  0.00    -0.269 OA
BRANCH  31  34
ATOM     34  C   UNL A   1      34.452  33.888  29.099  1.00  0.00     0.039 A 
ATOM     35  C   UNL A   1      35.752  34.306  28.810  1.00  0.00     0.014 A 
ATOM     36  C   UNL A   1      34.232  32.755  29.887  1.00  0.00     0.014 A 
ATOM     37  C   UNL A   1      36.834  33.618  29.361  1.00  0.00     0.010 A 
ATOM     38  C   UNL A   1      35.307  32.121  30.501  1.00  0.00     0.010 A 
ATOM     39  C   UNL A   1      36.621  32.541  30.239  1.00  0.00    -0.014 A 
BRANCH  39  40
ATOM     40  C   UNL A   1      37.758  31.837  30.884  1.00  0.00     0.031 A 
ATOM     41  C   UNL A   1      38.183  32.212  32.277  1.00  0.00     0.074 A 
ATOM     42  C   UNL A   1      38.440  30.901  30.196  1.00  0.00     0.049 A 
ATOM     43  N   UNL A   1      39.188  31.763  32.985  1.00  0.00    -0.248 NA
ATOM     44  C   UNL A   1      37.388  33.248  32.956  1.00  0.00     0.031 C 
ATOM     45  C   UNL A   1      38.150  30.481  28.824  1.00  0.00     0.029 A 
ATOM     46  N   UNL A   1      39.523  30.138  30.554  1.00  0.00    -0.354 N 
ATOM     47  C   UNL A   1      39.151  32.465  34.182  1.00  0.00     0.074 A 
ATOM     48  C   UNL A   1      38.062  33.413  34.084  1.00  0.00     0.031 C 
ATOM     49  C   UNL A   1      39.019  29.523  28.465  1.00  0.00     0.029 A 
ATOM     50  C   UNL A   1      39.953  29.289  29.562  1.00  0.00     0.049 A 
ATOM     51  H   UNL A   1      39.954  30.194  31.437  1.00  0.00     0.167 HD
ATOM     52  C   UNL A   1      39.936  32.313  35.275  1.00  0.00     0.037 A 
ATOM     53  C   UNL A   1      40.989  28.430  29.538  1.00  0.00     0.037 A 
ATOM     54  C   UNL A   1      41.005  31.355  35.376  1.00  0.00     0.049 A 
ATOM     55  C   UNL A   1      41.860  28.300  30.760  1.00  0.00     0.074 A 
ATOM     56  C   UNL A   1      41.828  31.092  36.457  1.00  0.00     0.029 A 
ATOM     57  N   UNL A   1      41.401  30.505  34.355  1.00  0.00    -0.354 N 
ATOM     58  N   UNL A   1      41.773  28.922  31.910  1.00  0.00    -0.248 NA
ATOM     59  C   UNL A   1      42.972  27.342  30.681  1.00  0.00     0.031 C 
ATOM     60  C   UNL A   1      42.756  30.120  36.072  1.00  0.00     0.029 A 
ATOM     61  C   UNL A   1      42.473  29.733  34.773  1.00  0.00     0.049 A 
ATOM     62  H   UNL A   1      40.984  30.457  33.464  1.00  0.00     0.167 HD
ATOM     63  C   UNL A   1      42.791  28.407  32.702  1.00  0.00     0.074 A 
ATOM     64  C   UNL A   1      43.473  27.409  31.905  1.00  0.00     0.031 C 
ATOM     65  C   UNL A   1      43.132  28.731  33.973  1.00  0.00     0.037 A 
BRANCH  52  66
ATOM     66  C   UNL A   1      39.664  33.197  36.458  1.00  0.00     0.064 A 
ATOM     67  C   UNL A   1      40.318  34.428  36.623  1.00  0.00     0.173 A 
ATOM     68  C   UNL A   1      38.698  32.838  37.411  1.00  0.00     0.173 A 
ATOM     69  F   UNL A   1      41.259  34.815  35.748  1.00  0.00    -0.203 F 
ATOM     70  C   UNL A   1      40.033  35.253  37.708  1.00  0.00     0.198 A 
ATOM     71  C   UNL A   1      38.393  33.680  38.477  1.00  0.00     0.198 A 
ATOM     72  F   UNL A   1      38.039  31.674  37.300  1.00  0.00    -0.203 F 
ATOM     73  F   UNL A   1      40.704  36.402  37.868  1.00  0.00    -0.200 F 
ATOM     74  C   UNL A   1      39.064  34.883  38.628  1.00  0.00     0.200 A 
ATOM     75  F   UNL A   1      37.445  33.327  39.356  1.00  0.00    -0.200 F 
ATOM     76  F   UNL A   1      38.781  35.684  39.664  1.00  0.00    -0.200 F 
ENDBRANCH  52  66
BRANCH  53  77
ATOM     77  C   UNL A   1      41.260  27.614  28.323  1.00  0.00     0.064 A 
ATOM     78  C   UNL A   1      42.084  28.099  27.297  1.00  0.00     0.173 A 
ATOM     79  C   UNL A   1      40.679  26.350  28.148  1.00  0.00     0.173 A 
ATOM     80  F   UNL A   1      42.647  29.311  27.407  1.00  0.00    -0.203 F 
ATOM     81  C   UNL A   1      42.287  27.366  26.129  1.00  0.00     0.198 A 
ATOM     82  C   UNL A   1      40.911  25.603  26.995  1.00  0.00     0.198 A 
ATOM     83  F   UNL A   1      39.886  25.836  29.100  1.00  0.00    -0.203 F 
ATOM     84  F   UNL A   1      43.028  27.882  25.139  1.00  0.00    -0.200 F 
ATOM     85  C   UNL A   1      41.704  26.117  25.980  1.00  0.00     0.200 A 
ATOM     86  F   UNL A   1      40.359  24.390  26.863  1.00  0.00    -0.200 F 
ATOM     87  F   UNL A   1      41.898  25.415  24.857  1.00  0.00    -0.200 F 
ENDBRANCH  53  77
BRANCH  65  88
ATOM     88  C   UNL A   1      44.264  27.969  34.601  1.00  0.00     0.064 A 
ATOM     89  C   UNL A   1      45.584  28.439  34.563  1.00  0.00     0.173 A 
ATOM     90  C   UNL A   1      44.014  26.769  35.285  1.00  0.00     0.173 A 
ATOM     91  F   UNL A   1      45.878  29.574  33.909  1.00  0.00    -0.203 F 
ATOM     92  C   UNL A   1      46.617  27.722  35.160  1.00  0.00     0.198 A 
ATOM     93  C   UNL A   1      45.043  26.073  35.912  1.00  0.00     0.198 A 
ATOM     94  F   UNL A   1      42.767  26.279  35.359  1.00  0.00    -0.203 F 
ATOM     95  F   UNL A   1      47.879  28.163  35.064  1.00  0.00    -0.200 F 
ATOM     96  C   UNL A   1      46.345  26.545  35.841  1.00  0.00     0.200 A 
ATOM     97  F   UNL A   1      44.775  24.945  36.584  1.00  0.00    -0.200 F 
ATOM     98  F   UNL A   1      47.339  25.860  36.422  1.00  0.00    -0.200 F 
ENDBRANCH  65  88
ENDBRANCH  39  40
ENDBRANCH  31  34
ENDBRANCH  29  30
ENDBRANCH  28  29
ENDBRANCH  27  28
ENDBRANCH  26  27
ENDBRANCH   1  26
TORSDOF 19
ENDMDL
MODEL 3
REMARK VINA RESULT:     -11.2      0.855      2.131
REMARK SMILES CCOC(=O)[C@H]1CCCN(C(=O)N[C@](C)(CC)C(=O)NCCCCCCNC(=O)c2ccc(-c3c4nc(c(-c5c(F)c(F)c(F)c(F)c5F)c5ccc([nH]5)c(-c5c(F)c(F)c(F)c(F)c5F)c5nc(c(-c6c(F)c(F)c(F)c(F)c6F)c6ccc3[nH]6)C=C5)C=C4)cc2)C1
REMARK SMILES IDX 22 1 21 2 20 3 18 4 19 5 14 7 15 8 13 9 11 10 12 11 10 13
REMARK SMILES IDX 6 14 7 15 93 16 8 17 9 18 4 19 5 20 3 21 2 22 1 23 16 24
REMARK SMILES IDX 17 25 23 26 24 27 25 28 26 29 27 30 28 31 29 33 30 34 31 35
REMARK SMILES IDX 92 36 32 37 91 38 33 39 34 40 35 41 85 42 36 43 90 44 84 45
REMARK SMILES IDX 86 46 37 47 89 48 83 49 82 50 38 52 70 53 50 54 69 55 51 56
REMARK SMILES IDX 54 57 68 58 87 59 52 60 53 61 67 63 88 64 55 65 39 66 40 67
REMARK SMILES IDX 48 68 41 69 42 70 46 71 49 72 43 73 44 74 47 75 45 76 71 77
REMARK SMILES IDX 72 78 80 79 73 80 74 81 78 82 81 83 75 84 76 85 79 86 77 87
REMARK SMILES IDX 56 88 57 89 65 90 58 91 59 92 63 93 66 94 60 95 61 96 64 97
REMARK SMILES IDX 62 98
REMARK H PARENT 20 6 13 12 27 32 86 51 54 62
REMARK Flexibility Score: inf
ROOT
ATOM      1  C   UNL A   1      37.066  23.047  25.734  1.00  0.00     0.021 C 
ENDROOT
BRANCH   1   2
ATOM      2  C   UNL A   1      35.567  23.296  25.982  1.00  0.00     0.116 C 
BRANCH   2   3
ATOM      3  N   UNL A   1      34.973  24.000  24.864  1.00  0.00    -0.354 N 
ATOM      4  C   UNL A   1      34.129  23.536  23.901  1.00  0.00     0.245 C 
ATOM      5  O   UNL A   1      34.433  23.880  22.754  1.00  0.00    -0.272 OA
ATOM      6  H   UNL A   1      35.213  24.952  24.792  1.00  0.00     0.163 HD
BRANCH   4   7
ATOM      7  C   UNL A   1      32.908  22.585  24.216  1.00  0.00     0.117 C 
ATOM      8  C   UNL A   1      31.968  22.741  22.994  1.00  0.00     0.045 C 
BRANCH   7   9
ATOM      9  N   UNL A   1      32.286  23.134  25.468  1.00  0.00    -0.324 N 
ATOM     10  C   UNL A   1      31.680  24.240  25.945  1.00  0.00     0.318 C 
ATOM     11  O   UNL A   1      31.424  24.196  27.155  1.00  0.00    -0.249 OA
ATOM     12  H   UNL A   1      32.337  22.457  26.181  1.00  0.00     0.166 HD
BRANCH  10  13
ATOM     13  N   UNL A   1      31.394  25.356  25.202  1.00  0.00    -0.324 N 
ATOM     14  C   UNL A   1      31.699  27.882  25.151  1.00  0.00     0.119 C 
ATOM     15  C   UNL A   1      30.604  27.929  24.078  1.00  0.00     0.019 C 
ATOM     16  C   UNL A   1      32.355  26.491  25.234  1.00  0.00     0.136 C 
ATOM     17  C   UNL A   1      29.616  26.808  24.276  1.00  0.00     0.023 C 
ATOM     18  C   UNL A   1      30.345  25.483  24.213  1.00  0.00     0.121 C 
BRANCH  14  19
ATOM     19  C   UNL A   1      32.679  29.000  24.832  1.00  0.00     0.310 C 
ATOM     20  O   UNL A   1      32.988  29.319  23.687  1.00  0.00    -0.252 OA
BRANCH  19  21
ATOM     21  O   UNL A   1      33.093  29.668  25.939  1.00  0.00    -0.466 OA
BRANCH  21  22
ATOM     22  C   UNL A   1      32.027  30.039  26.834  1.00  0.00     0.229 C 
ATOM     23  C   UNL A   1      31.454  31.404  26.493  1.00  0.00     0.049 C 
ENDBRANCH  21  22
ENDBRANCH  19  21
ENDBRANCH  14  19
ENDBRANCH  10  13
ENDBRANCH   7   9
BRANCH   7  24
ATOM     24  C   UNL A   1      33.409  21.138  24.477  1.00  0.00     0.035 C 
ATOM     25  C   UNL A   1      33.196  20.605  25.884  1.00  0.00     0.007 C 
ENDBRANCH   7  24
ENDBRANCH   4   7
ENDBRANCH   2   3
ENDBRANCH   1   2
BRANCH   1  26
ATOM     26  C   UNL A   1      37.382  22.009  24.645  1.00  0.00     0.002 C 
BRANCH  26  27
ATOM     27  C   UNL A   1      36.987  20.568  24.975  1.00  0.00     0.002 C 
BRANCH  27  28
ATOM     28  C   UNL A   1      38.150  19.579  25.006  1.00  0.00     0.021 C 
BRANCH  28  29
ATOM     29  C   UNL A   1      39.368  20.071  25.776  1.00  0.00     0.116 C 
BRANCH  29  30
ATOM     30  N   UNL A   1      40.384  19.041  25.908  1.00  0.00    -0.352 N 
ATOM     31  C   UNL A   1      41.740  19.182  26.068  1.00  0.00     0.251 C 
ATOM     32  H   UNL A   1      40.055  18.113  25.877  1.00  0.00     0.163 HD
ATOM     33  O   UNL A   1      42.486  18.216  25.957  1.00  0.00    -0.269 OA
BRANCH  31  34
ATOM     34  C   UNL A   1      42.301  20.519  26.358  1.00  0.00     0.039 A 
ATOM     35  C   UNL A   1      42.818  21.279  25.307  1.00  0.00     0.014 A 
ATOM     36  C   UNL A   1      42.306  21.022  27.663  1.00  0.00     0.014 A 
ATOM     37  C   UNL A   1      43.289  22.569  25.557  1.00  0.00     0.010 A 
ATOM     38  C   UNL A   1      42.699  22.336  27.896  1.00  0.00     0.010 A 
ATOM     39  C   UNL A   1      43.201  23.121  26.846  1.00  0.00    -0.014 A 
BRANCH  39  40
ATOM     40  C   UNL A   1      43.638  24.514  27.118  1.00  0.00     0.031 A 
ATOM     41  C   UNL A   1      42.652  25.526  27.630  1.00  0.00     0.074 A 
ATOM     42  C   UNL A   1      44.908  24.879  26.852  1.00  0.00     0.049 A 
ATOM     43  N   UNL A   1      42.822  26.803  27.864  1.00  0.00    -0.248 NA
ATOM     44  C   UNL A   1      41.285  25.047  27.890  1.00  0.00     0.031 C 
ATOM     45  C   UNL A   1      45.946  23.998  26.312  1.00  0.00     0.029 A 
ATOM     46  N   UNL A   1      45.540  26.089  26.990  1.00  0.00    -0.354 N 
ATOM     47  C   UNL A   1      41.588  27.277  28.289  1.00  0.00     0.074 A 
ATOM     48  C   UNL A   1      40.662  26.168  28.222  1.00  0.00     0.031 C 
ATOM     49  C   UNL A   1      47.089  24.691  26.187  1.00  0.00     0.029 A 
ATOM     50  C   UNL A   1      46.856  26.073  26.595  1.00  0.00     0.049 A 
ATOM     51  H   UNL A   1      45.093  26.894  27.339  1.00  0.00     0.167 HD
ATOM     52  C   UNL A   1      41.263  28.519  28.721  1.00  0.00     0.037 A 
ATOM     53  C   UNL A   1      47.767  27.064  26.556  1.00  0.00     0.037 A 
ATOM     54  C   UNL A   1      42.192  29.614  28.804  1.00  0.00     0.049 A 
ATOM     55  C   UNL A   1      47.370  28.441  27.021  1.00  0.00     0.074 A 
ATOM     56  C   UNL A   1      41.972  30.898  29.273  1.00  0.00     0.029 A 
ATOM     57  N   UNL A   1      43.519  29.556  28.407  1.00  0.00    -0.354 N 
ATOM     58  N   UNL A   1      46.217  28.860  27.482  1.00  0.00    -0.248 NA
ATOM     59  C   UNL A   1      48.406  29.483  26.963  1.00  0.00     0.031 C 
ATOM     60  C   UNL A   1      43.151  31.631  29.109  1.00  0.00     0.029 A 
ATOM     61  C   UNL A   1      44.124  30.788  28.597  1.00  0.00     0.049 A 
ATOM     62  H   UNL A   1      43.966  28.757  28.042  1.00  0.00     0.167 HD
ATOM     63  C   UNL A   1      46.398  30.199  27.803  1.00  0.00     0.074 A 
ATOM     64  C   UNL A   1      47.777  30.518  27.499  1.00  0.00     0.031 C 
ATOM     65  C   UNL A   1      45.503  31.086  28.304  1.00  0.00     0.037 A 
BRANCH  52  66
ATOM     66  C   UNL A   1      39.843  28.761  29.147  1.00  0.00     0.064 A 
ATOM     67  C   UNL A   1      39.434  28.584  30.478  1.00  0.00     0.173 A 
ATOM     68  C   UNL A   1      38.892  29.228  28.227  1.00  0.00     0.173 A 
ATOM     69  F   UNL A   1      40.300  28.127  31.395  1.00  0.00    -0.203 F 
ATOM     70  C   UNL A   1      38.122  28.842  30.866  1.00  0.00     0.198 A 
ATOM     71  C   UNL A   1      37.590  29.517  28.625  1.00  0.00     0.198 A 
ATOM     72  F   UNL A   1      39.230  29.420  26.943  1.00  0.00    -0.203 F 
ATOM     73  F   UNL A   1      37.744  28.622  32.132  1.00  0.00    -0.200 F 
ATOM     74  C   UNL A   1      37.204  29.318  29.942  1.00  0.00     0.200 A 
ATOM     75  F   UNL A   1      36.708  29.992  27.734  1.00  0.00    -0.200 F 
ATOM     76  F   UNL A   1      35.945  29.581  30.319  1.00  0.00    -0.200 F 
ENDBRANCH  52  66
BRANCH  53  77
ATOM     77  C   UNL A   1      49.148  26.796  26.071  1.00  0.00     0.064 A 
ATOM     78  C   UNL A   1      49.499  27.021  24.732  1.00  0.00     0.173 A 
ATOM     79  C   UNL A   1      50.134  26.282  26.924  1.00  0.00     0.173 A 
ATOM     80  F   UNL A   1      48.585  27.493  23.871  1.00  0.00    -0.203 F 
ATOM     81  C   UNL A   1      50.772  26.710  24.258  1.00  0.00     0.198 A 
ATOM     82  C   UNL A   1      51.418  26.004  26.458  1.00  0.00     0.198 A 
ATOM     83  F   UNL A   1      49.855  26.053  28.216  1.00  0.00    -0.203 F 
ATOM     84  F   UNL A   1      51.059  26.875  22.960  1.00  0.00    -0.200 F 
ATOM     85  C   UNL A   1      51.732  26.205  25.123  1.00  0.00     0.200 A 
ATOM     86  F   UNL A   1      52.347  25.532  27.300  1.00  0.00    -0.200 F 
ATOM     87  F   UNL A   1      52.954  25.904  24.666  1.00  0.00    -0.200 F 
ENDBRANCH  53  77
BRANCH  65  88
ATOM     88  C   UNL A   1      45.996  32.473  28.600  1.00  0.00     0.064 A 
ATOM     89  C   UNL A   1      46.565  32.808  29.837  1.00  0.00     0.173 A 
ATOM     90  C   UNL A   1      45.933  33.472  27.614  1.00  0.00     0.173 A 
ATOM     91  F   UNL A   1      46.636  31.895  30.817  1.00  0.00    -0.203 F 
ATOM     92  C   UNL A   1      47.025  34.098  30.087  1.00  0.00     0.198 A 
ATOM     93  C   UNL A   1      46.426  34.750  27.856  1.00  0.00     0.198 A 
ATOM     94  F   UNL A   1      45.405  33.202  26.411  1.00  0.00    -0.203 F 
ATOM     95  F   UNL A   1      47.516  34.410  31.295  1.00  0.00    -0.200 F 
ATOM     96  C   UNL A   1      46.963  35.065  29.095  1.00  0.00     0.200 A 
ATOM     97  F   UNL A   1      46.381  35.677  26.890  1.00  0.00    -0.200 F 
ATOM     98  F   UNL A   1      47.414  36.304  29.335  1.00  0.00    -0.200 F 
ENDBRANCH  65  88
ENDBRANCH  39  40
ENDBRANCH  31  34
ENDBRANCH  29  30
ENDBRANCH  28  29
ENDBRANCH  27  28
ENDBRANCH  26  27
ENDBRANCH   1  26
TORSDOF 19
ENDMDL
