MODEL 1
REMARK VINA RESULT:     -14.1      0.000      0.000
REMARK SMILES Cc1[nH]c2ccccc2c1[C@H](C(=O)NCCCCCCNC(=O)c1ccc(-c2c3nc(c(-c4c(F)c(F)c(F)c(F)c4F)c4ccc([nH]4)c(-c4c(F)c(F)c(F)c(F)c4F)c4nc(c(-c5c(F)c(F)c(F)c(F)c5F)c5ccc2[nH]5)C=C4)C=C3)cc1)[NH+]1CCN(C(=O)c2ccco2)CC1
REMARK SMILES IDX 17 1 16 2 15 3 14 4 12 5 13 6 11 8 10 9 1 10 2 11 3 12 4 13
REMARK SMILES IDX 9 15 5 16 8 17 6 18 7 19 87 20 88 21 99 22 89 24 98 25 90 26
REMARK SMILES IDX 91 27 92 28 93 29 94 30 97 31 95 32 96 33 18 34 19 35 20 36
REMARK SMILES IDX 21 37 22 38 23 40 24 41 25 42 86 43 26 44 85 45 27 46 28 47
REMARK SMILES IDX 29 48 79 49 30 50 84 51 78 52 80 53 31 54 83 55 77 56 76 57
REMARK SMILES IDX 32 59 64 60 44 61 63 62 45 63 48 64 62 65 81 66 46 67 47 68
REMARK SMILES IDX 61 70 82 71 49 72 33 73 34 74 42 75 35 76 36 77 40 78 43 79
REMARK SMILES IDX 37 80 38 81 41 82 39 83 65 84 66 85 74 86 67 87 68 88 72 89
REMARK SMILES IDX 75 90 69 91 70 92 73 93 71 94 50 95 51 96 59 97 52 98 53 99
REMARK SMILES IDX 57 100 60 101 54 102 55 103 58 104 56 105
REMARK H PARENT 14 7 3 14 87 23 21 39 80 58 48 69
REMARK Flexibility Score: inf
ROOT
ATOM      1  C   UNL A   1      32.398  29.950  26.947  1.00  0.00     0.002 C 
ENDROOT
BRANCH   1   2
ATOM      2  C   UNL A   1      31.665  28.684  27.377  1.00  0.00     0.021 C 
BRANCH   2   3
ATOM      3  C   UNL A   1      32.351  27.428  26.874  1.00  0.00     0.116 C 
BRANCH   3   4
ATOM      4  N   UNL A   1      31.438  26.306  26.815  1.00  0.00    -0.351 N 
ATOM      5  C   UNL A   1      31.107  25.509  25.752  1.00  0.00     0.283 C 
ATOM      6  O   UNL A   1      30.296  24.601  25.969  1.00  0.00    -0.268 OA
ATOM      7  H   UNL A   1      30.989  26.085  27.663  1.00  0.00     0.163 HD
BRANCH   5   8
ATOM      8  C   UNL A   1      31.718  25.712  24.336  1.00  0.00     0.308 C 
BRANCH   8   9
ATOM      9  C   UNL A   1      31.483  27.134  23.812  1.00  0.00     0.047 A 
ATOM     10  C   UNL A   1      33.970  28.015  23.803  1.00  0.00     0.065 C 
ATOM     11  C   UNL A   1      32.501  28.060  23.550  1.00  0.00     0.022 A 
ATOM     12  N   UNL A   1      31.949  29.120  22.883  1.00  0.00    -0.358 N 
ATOM     13  C   UNL A   1      30.588  28.985  22.806  1.00  0.00     0.046 A 
ATOM     14  H   UNL A   1      32.459  29.875  22.510  1.00  0.00     0.166 HD
ATOM     15  C   UNL A   1      30.251  27.804  23.472  1.00  0.00     0.009 A 
ATOM     16  C   UNL A   1      29.645  29.828  22.205  1.00  0.00     0.027 A 
ATOM     17  C   UNL A   1      28.878  27.509  23.616  1.00  0.00     0.011 A 
ATOM     18  C   UNL A   1      28.298  29.494  22.343  1.00  0.00     0.002 A 
ATOM     19  C   UNL A   1      27.916  28.365  23.061  1.00  0.00     0.001 A 
ENDBRANCH   8   9
BRANCH   8  20
ATOM     20  N   UNL A   1      33.114  25.199  24.191  1.00  0.00    -0.318 N 
ATOM     21  C   UNL A   1      33.933  24.974  25.394  1.00  0.00     0.285 C 
ATOM     22  C   UNL A   1      33.197  23.981  23.361  1.00  0.00     0.285 C 
ATOM     23  H   UNL A   1      33.527  26.014  23.738  1.00  0.00     0.349 HD
ATOM     24  C   UNL A   1      33.678  23.674  26.188  1.00  0.00     0.181 C 
ATOM     25  C   UNL A   1      32.849  22.657  24.067  1.00  0.00     0.181 C 
ATOM     26  N   UNL A   1      33.511  22.480  25.366  1.00  0.00    -0.325 N 
ATOM     27  C   UNL A   1      33.466  21.256  26.063  1.00  0.00     0.289 C 
ATOM     28  O   UNL A   1      33.492  21.240  27.295  1.00  0.00    -0.265 OA
BRANCH  27  29
ATOM     29  C   UNL A   1      33.430  20.031  25.286  1.00  0.00     0.191 A 
ATOM     30  C   UNL A   1      34.427  19.285  24.681  1.00  0.00     0.056 A 
ATOM     31  O   UNL A   1      32.231  19.388  25.129  1.00  0.00    -0.459 OA
ATOM     32  C   UNL A   1      33.802  18.157  24.100  1.00  0.00     0.043 A 
ATOM     33  C   UNL A   1      32.465  18.266  24.401  1.00  0.00     0.196 A 
ENDBRANCH  27  29
ENDBRANCH   8  20
ENDBRANCH   5   8
ENDBRANCH   3   4
ENDBRANCH   2   3
ENDBRANCH   1   2
BRANCH   1  34
ATOM     34  C   UNL A   1      31.587  30.870  26.025  1.00  0.00     0.002 C 
BRANCH  34  35
ATOM     35  C   UNL A   1      31.368  32.289  26.555  1.00  0.00     0.021 C 
BRANCH  35  36
ATOM     36  C   UNL A   1      32.553  32.860  27.326  1.00  0.00     0.116 C 
BRANCH  36  37
ATOM     37  N   UNL A   1      32.365  34.268  27.631  1.00  0.00    -0.352 N 
ATOM     38  C   UNL A   1      32.961  35.015  28.610  1.00  0.00     0.251 C 
ATOM     39  H   UNL A   1      31.726  34.748  27.057  1.00  0.00     0.163 HD
ATOM     40  O   UNL A   1      32.557  36.135  28.890  1.00  0.00    -0.269 OA
BRANCH  38  41
ATOM     41  C   UNL A   1      34.105  34.432  29.327  1.00  0.00     0.039 A 
ATOM     42  C   UNL A   1      33.870  33.696  30.488  1.00  0.00     0.014 A 
ATOM     43  C   UNL A   1      35.398  34.593  28.820  1.00  0.00     0.014 A 
ATOM     44  C   UNL A   1      34.945  33.089  31.133  1.00  0.00     0.010 A 
ATOM     45  C   UNL A   1      36.455  33.928  29.423  1.00  0.00     0.010 A 
ATOM     46  C   UNL A   1      36.239  33.187  30.596  1.00  0.00    -0.014 A 
BRANCH  46  47
ATOM     47  C   UNL A   1      37.390  32.548  31.272  1.00  0.00     0.031 A 
ATOM     48  C   UNL A   1      38.111  31.418  30.596  1.00  0.00     0.074 A 
ATOM     49  C   UNL A   1      37.746  32.957  32.503  1.00  0.00     0.049 A 
ATOM     50  N   UNL A   1      39.113  30.698  31.031  1.00  0.00    -0.248 NA
ATOM     51  C   UNL A   1      37.622  31.022  29.265  1.00  0.00     0.031 C 
ATOM     52  C   UNL A   1      37.081  34.011  33.270  1.00  0.00     0.029 A 
ATOM     53  N   UNL A   1      38.754  32.528  33.328  1.00  0.00    -0.354 N 
ATOM     54  C   UNL A   1      39.362  29.762  30.037  1.00  0.00     0.074 A 
ATOM     55  C   UNL A   1      38.372  29.963  29.004  1.00  0.00     0.031 C 
ATOM     56  C   UNL A   1      37.713  34.164  34.445  1.00  0.00     0.029 A 
ATOM     57  C   UNL A   1      38.804  33.197  34.526  1.00  0.00     0.049 A 
ATOM     58  H   UNL A   1      39.381  31.809  33.085  1.00  0.00     0.167 HD
ATOM     59  C   UNL A   1      40.348  28.836  29.983  1.00  0.00     0.037 A 
ATOM     60  C   UNL A   1      39.639  33.041  35.571  1.00  0.00     0.037 A 
ATOM     61  C   UNL A   1      41.345  28.667  31.005  1.00  0.00     0.049 A 
ATOM     62  C   UNL A   1      40.730  32.009  35.480  1.00  0.00     0.074 A 
ATOM     63  C   UNL A   1      42.427  27.805  31.021  1.00  0.00     0.029 A 
ATOM     64  N   UNL A   1      41.380  29.377  32.196  1.00  0.00    -0.354 N 
ATOM     65  N   UNL A   1      41.006  31.179  34.504  1.00  0.00    -0.248 NA
ATOM     66  C   UNL A   1      41.633  31.899  36.634  1.00  0.00     0.031 C 
ATOM     67  C   UNL A   1      43.088  27.959  32.244  1.00  0.00     0.029 A 
ATOM     68  C   UNL A   1      42.451  28.957  32.967  1.00  0.00     0.049 A 
ATOM     69  H   UNL A   1      40.738  30.078  32.456  1.00  0.00     0.167 HD
ATOM     70  C   UNL A   1      42.127  30.469  34.910  1.00  0.00     0.074 A 
ATOM     71  C   UNL A   1      42.490  30.978  36.216  1.00  0.00     0.031 C 
ATOM     72  C   UNL A   1      42.797  29.485  34.262  1.00  0.00     0.037 A 
BRANCH  59  73
ATOM     73  C   UNL A   1      40.395  27.940  28.779  1.00  0.00     0.064 A 
ATOM     74  C   UNL A   1      41.125  28.285  27.631  1.00  0.00     0.173 A 
ATOM     75  C   UNL A   1      39.726  26.707  28.784  1.00  0.00     0.173 A 
ATOM     76  F   UNL A   1      41.771  29.459  27.568  1.00  0.00    -0.203 F 
ATOM     77  C   UNL A   1      41.161  27.441  26.523  1.00  0.00     0.198 A 
ATOM     78  C   UNL A   1      39.791  25.852  27.687  1.00  0.00     0.198 A 
ATOM     79  F   UNL A   1      39.014  26.327  29.855  1.00  0.00    -0.203 F 
ATOM     80  F   UNL A   1      41.823  27.815  25.420  1.00  0.00    -0.200 F 
ATOM     81  C   UNL A   1      40.501  26.223  26.555  1.00  0.00     0.200 A 
ATOM     82  F   UNL A   1      39.161  24.670  27.723  1.00  0.00    -0.200 F 
ATOM     83  F   UNL A   1      40.542  25.408  25.492  1.00  0.00    -0.200 F 
ENDBRANCH  59  73
BRANCH  60  84
ATOM     84  C   UNL A   1      39.492  33.901  36.774  1.00  0.00     0.064 A 
ATOM     85  C   UNL A   1      40.098  35.164  36.838  1.00  0.00     0.173 A 
ATOM     86  C   UNL A   1      38.744  33.480  37.884  1.00  0.00     0.173 A 
ATOM     87  F   UNL A   1      40.836  35.603  35.808  1.00  0.00    -0.203 F 
ATOM     88  C   UNL A   1      39.982  35.961  37.974  1.00  0.00     0.198 A 
ATOM     89  C   UNL A   1      38.605  34.291  39.008  1.00  0.00     0.198 A 
ATOM     90  F   UNL A   1      38.138  32.283  37.871  1.00  0.00    -0.203 F 
ATOM     91  F   UNL A   1      40.610  37.144  38.027  1.00  0.00    -0.200 F 
ATOM     92  C   UNL A   1      39.231  35.527  39.056  1.00  0.00     0.200 A 
ATOM     93  F   UNL A   1      37.865  33.874  40.045  1.00  0.00    -0.200 F 
ATOM     94  F   UNL A   1      39.117  36.297  40.147  1.00  0.00    -0.200 F 
ENDBRANCH  60  84
BRANCH  72  95
ATOM     95  C   UNL A   1      44.010  28.918  34.940  1.00  0.00     0.064 A 
ATOM     96  C   UNL A   1      43.927  27.802  35.785  1.00  0.00     0.173 A 
ATOM     97  C   UNL A   1      45.277  29.473  34.705  1.00  0.00     0.173 A 
ATOM     98  F   UNL A   1      42.737  27.244  36.053  1.00  0.00    -0.203 F 
ATOM     99  C   UNL A   1      45.066  27.278  36.390  1.00  0.00     0.198 A 
ATOM    100  C   UNL A   1      46.417  28.927  35.285  1.00  0.00     0.198 A 
ATOM    101  F   UNL A   1      45.411  30.536  33.897  1.00  0.00    -0.203 F 
ATOM    102  F   UNL A   1      44.958  26.242  37.232  1.00  0.00    -0.200 F 
ATOM    103  C   UNL A   1      46.310  27.836  36.133  1.00  0.00     0.200 A 
ATOM    104  F   UNL A   1      47.620  29.457  35.023  1.00  0.00    -0.200 F 
ATOM    105  F   UNL A   1      47.406  27.324  36.709  1.00  0.00    -0.200 F 
ENDBRANCH  72  95
ENDBRANCH  46  47
ENDBRANCH  38  41
ENDBRANCH  36  37
ENDBRANCH  35  36
ENDBRANCH  34  35
ENDBRANCH   1  34
TORSDOF 16
ENDMDL
MODEL 2
REMARK VINA RESULT:     -14.0      0.542      7.043
REMARK SMILES Cc1[nH]c2ccccc2c1[C@H](C(=O)NCCCCCCNC(=O)c1ccc(-c2c3nc(c(-c4c(F)c(F)c(F)c(F)c4F)c4ccc([nH]4)c(-c4c(F)c(F)c(F)c(F)c4F)c4nc(c(-c5c(F)c(F)c(F)c(F)c5F)c5ccc2[nH]5)C=C4)C=C3)cc1)[NH+]1CCN(C(=O)c2ccco2)CC1
REMARK SMILES IDX 17 1 16 2 15 3 14 4 12 5 13 6 11 8 10 9 1 10 2 11 3 12 4 13
REMARK SMILES IDX 9 15 5 16 8 17 6 18 7 19 87 20 88 21 99 22 89 24 98 25 90 26
REMARK SMILES IDX 91 27 92 28 93 29 94 30 97 31 95 32 96 33 18 34 19 35 20 36
REMARK SMILES IDX 21 37 22 38 23 40 24 41 25 42 86 43 26 44 85 45 27 46 28 47
REMARK SMILES IDX 29 48 79 49 30 50 84 51 78 52 80 53 31 54 83 55 77 56 76 57
REMARK SMILES IDX 32 59 64 60 44 61 63 62 45 63 48 64 62 65 81 66 46 67 47 68
REMARK SMILES IDX 61 70 82 71 49 72 33 73 34 74 42 75 35 76 36 77 40 78 43 79
REMARK SMILES IDX 37 80 38 81 41 82 39 83 65 84 66 85 74 86 67 87 68 88 72 89
REMARK SMILES IDX 75 90 69 91 70 92 73 93 71 94 50 95 51 96 59 97 52 98 53 99
REMARK SMILES IDX 57 100 60 101 54 102 55 103 58 104 56 105
REMARK H PARENT 14 7 3 14 87 23 21 39 80 58 48 69
REMARK Flexibility Score: inf
ROOT
ATOM      1  C   UNL A   1      32.422  29.989  26.624  1.00  0.00     0.002 C 
ENDROOT
BRANCH   1   2
ATOM      2  C   UNL A   1      31.764  28.776  27.271  1.00  0.00     0.021 C 
BRANCH   2   3
ATOM      3  C   UNL A   1      32.430  27.476  26.860  1.00  0.00     0.116 C 
BRANCH   3   4
ATOM      4  N   UNL A   1      31.486  26.379  26.821  1.00  0.00    -0.351 N 
ATOM      5  C   UNL A   1      31.131  25.574  25.772  1.00  0.00     0.283 C 
ATOM      6  O   UNL A   1      30.295  24.692  26.006  1.00  0.00    -0.268 OA
ATOM      7  H   UNL A   1      31.033  26.185  27.673  1.00  0.00     0.163 HD
BRANCH   5   8
ATOM      8  C   UNL A   1      31.743  25.736  24.352  1.00  0.00     0.308 C 
BRANCH   8   9
ATOM      9  C   UNL A   1      31.517  27.146  23.791  1.00  0.00     0.047 A 
ATOM     10  C   UNL A   1      34.014  27.994  23.716  1.00  0.00     0.065 C 
ATOM     11  C   UNL A   1      32.542  28.050  23.486  1.00  0.00     0.022 A 
ATOM     12  N   UNL A   1      31.992  29.098  22.798  1.00  0.00    -0.358 N 
ATOM     13  C   UNL A   1      30.629  28.978  22.747  1.00  0.00     0.046 A 
ATOM     14  H   UNL A   1      32.505  29.835  22.395  1.00  0.00     0.166 HD
ATOM     15  C   UNL A   1      30.288  27.822  23.453  1.00  0.00     0.009 A 
ATOM     16  C   UNL A   1      29.686  29.816  22.138  1.00  0.00     0.027 A 
ATOM     17  C   UNL A   1      28.914  27.549  23.627  1.00  0.00     0.011 A 
ATOM     18  C   UNL A   1      28.338  29.504  22.308  1.00  0.00     0.002 A 
ATOM     19  C   UNL A   1      27.953  28.401  23.063  1.00  0.00     0.001 A 
ENDBRANCH   8   9
BRANCH   8  20
ATOM     20  N   UNL A   1      33.136  25.211  24.221  1.00  0.00    -0.318 N 
ATOM     21  C   UNL A   1      33.936  24.964  25.432  1.00  0.00     0.285 C 
ATOM     22  C   UNL A   1      33.219  24.002  23.378  1.00  0.00     0.285 C 
ATOM     23  H   UNL A   1      33.564  26.027  23.784  1.00  0.00     0.349 HD
ATOM     24  C   UNL A   1      33.656  23.657  26.207  1.00  0.00     0.181 C 
ATOM     25  C   UNL A   1      32.847  22.673  24.063  1.00  0.00     0.181 C 
ATOM     26  N   UNL A   1      33.489  22.475  25.368  1.00  0.00    -0.325 N 
ATOM     27  C   UNL A   1      33.422  21.243  26.051  1.00  0.00     0.289 C 
ATOM     28  O   UNL A   1      33.430  21.213  27.283  1.00  0.00    -0.265 OA
BRANCH  27  29
ATOM     29  C   UNL A   1      33.385  20.028  25.259  1.00  0.00     0.191 A 
ATOM     30  C   UNL A   1      34.384  19.277  24.663  1.00  0.00     0.056 A 
ATOM     31  O   UNL A   1      32.181  19.402  25.073  1.00  0.00    -0.459 OA
ATOM     32  C   UNL A   1      33.756  18.163  24.058  1.00  0.00     0.043 A 
ATOM     33  C   UNL A   1      32.415  18.285  24.336  1.00  0.00     0.196 A 
ENDBRANCH  27  29
ENDBRANCH   8  20
ENDBRANCH   5   8
ENDBRANCH   3   4
ENDBRANCH   2   3
ENDBRANCH   1   2
BRANCH   1  34
ATOM     34  C   UNL A   1      31.450  30.923  25.892  1.00  0.00     0.002 C 
BRANCH  34  35
ATOM     35  C   UNL A   1      31.284  32.308  26.522  1.00  0.00     0.021 C 
BRANCH  35  36
ATOM     36  C   UNL A   1      32.528  32.824  27.236  1.00  0.00     0.116 C 
BRANCH  36  37
ATOM     37  N   UNL A   1      32.381  34.214  27.633  1.00  0.00    -0.352 N 
ATOM     38  C   UNL A   1      33.024  34.888  28.635  1.00  0.00     0.251 C 
ATOM     39  H   UNL A   1      31.733  34.741  27.112  1.00  0.00     0.163 HD
ATOM     40  O   UNL A   1      32.653  35.995  28.997  1.00  0.00    -0.269 OA
BRANCH  38  41
ATOM     41  C   UNL A   1      34.179  34.240  29.276  1.00  0.00     0.039 A 
ATOM     42  C   UNL A   1      33.954  33.310  30.291  1.00  0.00     0.014 A 
ATOM     43  C   UNL A   1      35.473  34.536  28.838  1.00  0.00     0.014 A 
ATOM     44  C   UNL A   1      35.041  32.648  30.855  1.00  0.00     0.010 A 
ATOM     45  C   UNL A   1      36.547  33.823  29.350  1.00  0.00     0.010 A 
ATOM     46  C   UNL A   1      36.341  32.888  30.376  1.00  0.00    -0.014 A 
BRANCH  46  47
ATOM     47  C   UNL A   1      37.505  32.193  30.967  1.00  0.00     0.031 A 
ATOM     48  C   UNL A   1      37.982  32.580  32.337  1.00  0.00     0.074 A 
ATOM     49  C   UNL A   1      38.151  31.254  30.251  1.00  0.00     0.049 A 
ATOM     50  N   UNL A   1      39.003  32.126  33.017  1.00  0.00    -0.248 NA
ATOM     51  C   UNL A   1      37.228  33.642  33.025  1.00  0.00     0.031 C 
ATOM     52  C   UNL A   1      37.804  30.839  28.892  1.00  0.00     0.029 A 
ATOM     53  N   UNL A   1      39.242  30.486  30.567  1.00  0.00    -0.354 N 
ATOM     54  C   UNL A   1      39.020  32.854  34.199  1.00  0.00     0.074 A 
ATOM     55  C   UNL A   1      37.948  33.819  34.122  1.00  0.00     0.031 C 
ATOM     56  C   UNL A   1      38.649  29.873  28.498  1.00  0.00     0.029 A 
ATOM     57  C   UNL A   1      39.617  29.627  29.563  1.00  0.00     0.049 A 
ATOM     58  H   UNL A   1      39.711  30.544  31.430  1.00  0.00     0.167 HD
ATOM     59  C   UNL A   1      39.842  32.708  35.264  1.00  0.00     0.037 A 
ATOM     60  C   UNL A   1      40.632  28.744  29.513  1.00  0.00     0.037 A 
ATOM     61  C   UNL A   1      40.888  31.723  35.340  1.00  0.00     0.049 A 
ATOM     62  C   UNL A   1      41.527  28.597  30.714  1.00  0.00     0.074 A 
ATOM     63  C   UNL A   1      41.737  31.445  36.396  1.00  0.00     0.029 A 
ATOM     64  N   UNL A   1      41.226  30.853  34.313  1.00  0.00    -0.354 N 
ATOM     65  N   UNL A   1      41.488  29.237  31.858  1.00  0.00    -0.248 NA
ATOM     66  C   UNL A   1      42.601  27.599  30.621  1.00  0.00     0.031 C 
ATOM     67  C   UNL A   1      42.622  30.441  35.990  1.00  0.00     0.029 A 
ATOM     68  C   UNL A   1      42.287  30.054  34.701  1.00  0.00     0.049 A 
ATOM     69  H   UNL A   1      40.778  30.811  33.437  1.00  0.00     0.167 HD
ATOM     70  C   UNL A   1      42.510  28.701  32.630  1.00  0.00     0.074 A 
ATOM     71  C   UNL A   1      43.140  27.672  31.829  1.00  0.00     0.031 C 
ATOM     72  C   UNL A   1      42.893  29.030  33.888  1.00  0.00     0.037 A 
BRANCH  59  73
ATOM     73  C   UNL A   1      39.642  33.633  36.430  1.00  0.00     0.064 A 
ATOM     74  C   UNL A   1      40.247  34.897  36.481  1.00  0.00     0.173 A 
ATOM     75  C   UNL A   1      38.808  33.262  37.496  1.00  0.00     0.173 A 
ATOM     76  F   UNL A   1      41.065  35.295  35.494  1.00  0.00    -0.203 F 
ATOM     77  C   UNL A   1      40.049  35.745  37.568  1.00  0.00     0.198 A 
ATOM     78  C   UNL A   1      38.587  34.125  38.566  1.00  0.00     0.198 A 
ATOM     79  F   UNL A   1      38.204  32.065  37.498  1.00  0.00    -0.203 F 
ATOM     80  F   UNL A   1      40.679  36.926  37.618  1.00  0.00    -0.200 F 
ATOM     81  C   UNL A   1      39.213  35.361  38.605  1.00  0.00     0.200 A 
ATOM     82  F   UNL A   1      37.770  33.757  39.563  1.00  0.00    -0.200 F 
ATOM     83  F   UNL A   1      39.017  36.181  39.648  1.00  0.00    -0.200 F 
ENDBRANCH  59  73
BRANCH  60  84
ATOM     84  C   UNL A   1      40.834  27.913  28.298  1.00  0.00     0.064 A 
ATOM     85  C   UNL A   1      40.241  26.648  28.180  1.00  0.00     0.173 A 
ATOM     86  C   UNL A   1      41.623  28.365  27.229  1.00  0.00     0.173 A 
ATOM     87  F   UNL A   1      39.492  26.166  29.182  1.00  0.00    -0.203 F 
ATOM     88  C   UNL A   1      40.450  25.857  27.052  1.00  0.00     0.198 A 
ATOM     89  C   UNL A   1      41.807  27.585  26.090  1.00  0.00     0.198 A 
ATOM     90  F   UNL A   1      42.207  29.571  27.288  1.00  0.00    -0.203 F 
ATOM     91  F   UNL A   1      39.910  24.632  26.987  1.00  0.00    -0.200 F 
ATOM     92  C   UNL A   1      41.228  26.328  26.006  1.00  0.00     0.200 A 
ATOM     93  F   UNL A   1      42.546  28.051  25.074  1.00  0.00    -0.200 F 
ATOM     94  F   UNL A   1      41.425  25.568  24.920  1.00  0.00    -0.200 F 
ENDBRANCH  60  84
BRANCH  72  95
ATOM     95  C   UNL A   1      44.024  28.246  34.488  1.00  0.00     0.064 A 
ATOM     96  C   UNL A   1      45.349  28.700  34.424  1.00  0.00     0.173 A 
ATOM     97  C   UNL A   1      43.770  27.049  35.174  1.00  0.00     0.173 A 
ATOM     98  F   UNL A   1      45.645  29.832  33.768  1.00  0.00    -0.203 F 
ATOM     99  C   UNL A   1      46.383  27.969  35.004  1.00  0.00     0.198 A 
ATOM    100  C   UNL A   1      44.800  26.338  35.780  1.00  0.00     0.198 A 
ATOM    101  F   UNL A   1      42.518  26.577  35.271  1.00  0.00    -0.203 F 
ATOM    102  F   UNL A   1      47.647  28.396  34.889  1.00  0.00    -0.200 F 
ATOM    103  C   UNL A   1      46.107  26.794  35.688  1.00  0.00     0.200 A 
ATOM    104  F   UNL A   1      44.531  25.211  36.454  1.00  0.00    -0.200 F 
ATOM    105  F   UNL A   1      47.102  26.097  36.253  1.00  0.00    -0.200 F 
ENDBRANCH  72  95
ENDBRANCH  46  47
ENDBRANCH  38  41
ENDBRANCH  36  37
ENDBRANCH  35  36
ENDBRANCH  34  35
ENDBRANCH   1  34
TORSDOF 16
ENDMDL
MODEL 3
REMARK VINA RESULT:     -13.9      0.339      1.552
REMARK SMILES Cc1[nH]c2ccccc2c1[C@H](C(=O)NCCCCCCNC(=O)c1ccc(-c2c3nc(c(-c4c(F)c(F)c(F)c(F)c4F)c4ccc([nH]4)c(-c4c(F)c(F)c(F)c(F)c4F)c4nc(c(-c5c(F)c(F)c(F)c(F)c5F)c5ccc2[nH]5)C=C4)C=C3)cc1)[NH+]1CCN(C(=O)c2ccco2)CC1
REMARK SMILES IDX 17 1 16 2 15 3 14 4 12 5 13 6 11 8 10 9 1 10 2 11 3 12 4 13
REMARK SMILES IDX 9 15 5 16 8 17 6 18 7 19 87 20 88 21 99 22 89 24 98 25 90 26
REMARK SMILES IDX 91 27 92 28 93 29 94 30 97 31 95 32 96 33 18 34 19 35 20 36
REMARK SMILES IDX 21 37 22 38 23 40 24 41 25 42 86 43 26 44 85 45 27 46 28 47
REMARK SMILES IDX 29 48 79 49 30 50 84 51 78 52 80 53 31 54 83 55 77 56 76 57
REMARK SMILES IDX 32 59 64 60 44 61 63 62 45 63 48 64 62 65 81 66 46 67 47 68
REMARK SMILES IDX 61 70 82 71 49 72 33 73 34 74 42 75 35 76 36 77 40 78 43 79
REMARK SMILES IDX 37 80 38 81 41 82 39 83 65 84 66 85 74 86 67 87 68 88 72 89
REMARK SMILES IDX 75 90 69 91 70 92 73 93 71 94 50 95 51 96 59 97 52 98 53 99
REMARK SMILES IDX 57 100 60 101 54 102 55 103 58 104 56 105
REMARK H PARENT 14 7 3 14 87 23 21 39 80 58 48 69
REMARK Flexibility Score: inf
ROOT
ATOM      1  C   UNL A   1      31.778  29.745  27.066  1.00  0.00     0.002 C 
ENDROOT
BRANCH   1   2
ATOM      2  C   UNL A   1      33.202  29.225  27.232  1.00  0.00     0.021 C 
BRANCH   2   3
ATOM      3  C   UNL A   1      33.395  27.870  26.577  1.00  0.00     0.116 C 
BRANCH   3   4
ATOM      4  N   UNL A   1      32.269  26.993  26.819  1.00  0.00    -0.351 N 
ATOM      5  C   UNL A   1      31.579  26.201  25.940  1.00  0.00     0.283 C 
ATOM      6  O   UNL A   1      30.649  25.532  26.407  1.00  0.00    -0.268 OA
ATOM      7  H   UNL A   1      31.953  26.962  27.751  1.00  0.00     0.163 HD
BRANCH   5   8
ATOM      8  C   UNL A   1      31.936  26.125  24.429  1.00  0.00     0.308 C 
BRANCH   8   9
ATOM      9  C   UNL A   1      31.626  27.440  23.702  1.00  0.00     0.047 A 
ATOM     10  C   UNL A   1      34.085  28.305  23.293  1.00  0.00     0.065 C 
ATOM     11  C   UNL A   1      32.597  28.308  23.187  1.00  0.00     0.022 A 
ATOM     12  N   UNL A   1      31.963  29.242  22.413  1.00  0.00    -0.358 N 
ATOM     13  C   UNL A   1      30.604  29.097  22.500  1.00  0.00     0.046 A 
ATOM     14  H   UNL A   1      32.420  29.923  21.870  1.00  0.00     0.166 HD
ATOM     15  C   UNL A   1      30.355  28.045  23.384  1.00  0.00     0.009 A 
ATOM     16  C   UNL A   1      29.591  29.828  21.866  1.00  0.00     0.027 A 
ATOM     17  C   UNL A   1      29.009  27.779  23.714  1.00  0.00     0.011 A 
ATOM     18  C   UNL A   1      28.271  29.524  22.195  1.00  0.00     0.002 A 
ATOM     19  C   UNL A   1      27.982  28.530  23.126  1.00  0.00     0.001 A 
ENDBRANCH   8   9
BRANCH   8  20
ATOM     20  N   UNL A   1      33.281  25.539  24.146  1.00  0.00    -0.318 N 
ATOM     21  C   UNL A   1      34.202  25.262  25.261  1.00  0.00     0.285 C 
ATOM     22  C   UNL A   1      33.216  24.324  23.310  1.00  0.00     0.285 C 
ATOM     23  H   UNL A   1      33.691  26.334  23.656  1.00  0.00     0.349 HD
ATOM     24  C   UNL A   1      33.956  23.972  26.074  1.00  0.00     0.181 C 
ATOM     25  C   UNL A   1      32.868  23.016  24.044  1.00  0.00     0.181 C 
ATOM     26  N   UNL A   1      33.644  22.794  25.270  1.00  0.00    -0.325 N 
ATOM     27  C   UNL A   1      33.602  21.569  25.967  1.00  0.00     0.289 C 
ATOM     28  O   UNL A   1      33.748  21.543  27.190  1.00  0.00    -0.265 OA
BRANCH  27  29
ATOM     29  C   UNL A   1      33.424  20.354  25.194  1.00  0.00     0.191 A 
ATOM     30  C   UNL A   1      34.328  19.473  24.626  1.00  0.00     0.056 A 
ATOM     31  O   UNL A   1      32.153  19.880  25.001  1.00  0.00    -0.459 OA
ATOM     32  C   UNL A   1      33.573  18.436  24.031  1.00  0.00     0.043 A 
ATOM     33  C   UNL A   1      32.255  18.729  24.287  1.00  0.00     0.196 A 
ENDBRANCH  27  29
ENDBRANCH   8  20
ENDBRANCH   5   8
ENDBRANCH   3   4
ENDBRANCH   2   3
ENDBRANCH   1   2
BRANCH   1  34
ATOM     34  C   UNL A   1      31.620  30.828  25.990  1.00  0.00     0.002 C 
BRANCH  34  35
ATOM     35  C   UNL A   1      31.402  32.246  26.524  1.00  0.00     0.021 C 
BRANCH  35  36
ATOM     36  C   UNL A   1      32.601  32.828  27.262  1.00  0.00     0.116 C 
BRANCH  36  37
ATOM     37  N   UNL A   1      32.388  34.221  27.616  1.00  0.00    -0.352 N 
ATOM     38  C   UNL A   1      32.953  34.939  28.634  1.00  0.00     0.251 C 
ATOM     39  H   UNL A   1      31.754  34.714  27.047  1.00  0.00     0.163 HD
ATOM     40  O   UNL A   1      32.528  36.042  28.947  1.00  0.00    -0.269 OA
BRANCH  38  41
ATOM     41  C   UNL A   1      34.091  34.345  29.353  1.00  0.00     0.039 A 
ATOM     42  C   UNL A   1      33.841  33.534  30.459  1.00  0.00     0.014 A 
ATOM     43  C   UNL A   1      35.393  34.571  28.899  1.00  0.00     0.014 A 
ATOM     44  C   UNL A   1      34.911  32.919  31.103  1.00  0.00     0.010 A 
ATOM     45  C   UNL A   1      36.450  33.899  29.496  1.00  0.00     0.010 A 
ATOM     46  C   UNL A   1      36.219  33.083  30.615  1.00  0.00    -0.014 A 
BRANCH  46  47
ATOM     47  C   UNL A   1      37.366  32.437  31.289  1.00  0.00     0.031 A 
ATOM     48  C   UNL A   1      38.074  31.297  30.615  1.00  0.00     0.074 A 
ATOM     49  C   UNL A   1      37.730  32.846  32.518  1.00  0.00     0.049 A 
ATOM     50  N   UNL A   1      39.071  30.570  31.049  1.00  0.00    -0.248 NA
ATOM     51  C   UNL A   1      37.578  30.902  29.286  1.00  0.00     0.031 C 
ATOM     52  C   UNL A   1      37.077  33.908  33.284  1.00  0.00     0.029 A 
ATOM     53  N   UNL A   1      38.736  32.410  33.341  1.00  0.00    -0.354 N 
ATOM     54  C   UNL A   1      39.309  29.628  30.057  1.00  0.00     0.074 A 
ATOM     55  C   UNL A   1      38.317  29.834  29.027  1.00  0.00     0.031 C 
ATOM     56  C   UNL A   1      37.714  34.059  34.456  1.00  0.00     0.029 A 
ATOM     57  C   UNL A   1      38.796  33.083  34.537  1.00  0.00     0.049 A 
ATOM     58  H   UNL A   1      39.356  31.685  33.098  1.00  0.00     0.167 HD
ATOM     59  C   UNL A   1      40.286  28.693  30.003  1.00  0.00     0.037 A 
ATOM     60  C   UNL A   1      39.634  32.923  35.579  1.00  0.00     0.037 A 
ATOM     61  C   UNL A   1      41.285  28.518  31.022  1.00  0.00     0.049 A 
ATOM     62  C   UNL A   1      40.715  31.880  35.489  1.00  0.00     0.074 A 
ATOM     63  C   UNL A   1      42.358  27.646  31.038  1.00  0.00     0.029 A 
ATOM     64  N   UNL A   1      41.330  29.232  32.211  1.00  0.00    -0.354 N 
ATOM     65  N   UNL A   1      40.980  31.045  34.514  1.00  0.00    -0.248 NA
ATOM     66  C   UNL A   1      41.620  31.765  36.640  1.00  0.00     0.031 C 
ATOM     67  C   UNL A   1      43.024  27.798  32.259  1.00  0.00     0.029 A 
ATOM     68  C   UNL A   1      42.399  28.804  32.979  1.00  0.00     0.049 A 
ATOM     69  H   UNL A   1      40.695  29.939  32.471  1.00  0.00     0.167 HD
ATOM     70  C   UNL A   1      42.096  30.326  34.919  1.00  0.00     0.074 A 
ATOM     71  C   UNL A   1      42.468  30.836  36.222  1.00  0.00     0.031 C 
ATOM     72  C   UNL A   1      42.754  29.333  34.272  1.00  0.00     0.037 A 
BRANCH  59  73
ATOM     73  C   UNL A   1      40.321  27.793  28.802  1.00  0.00     0.064 A 
ATOM     74  C   UNL A   1      41.063  28.119  27.656  1.00  0.00     0.173 A 
ATOM     75  C   UNL A   1      39.627  26.573  28.807  1.00  0.00     0.173 A 
ATOM     76  F   UNL A   1      41.732  29.281  27.593  1.00  0.00    -0.203 F 
ATOM     77  C   UNL A   1      41.087  27.272  26.551  1.00  0.00     0.198 A 
ATOM     78  C   UNL A   1      39.680  25.714  27.713  1.00  0.00     0.198 A 
ATOM     79  F   UNL A   1      38.903  26.211  29.876  1.00  0.00    -0.203 F 
ATOM     80  F   UNL A   1      41.761  27.630  25.450  1.00  0.00    -0.200 F 
ATOM     81  C   UNL A   1      40.403  26.067  26.584  1.00  0.00     0.200 A 
ATOM     82  F   UNL A   1      39.027  24.544  27.750  1.00  0.00    -0.200 F 
ATOM     83  F   UNL A   1      40.433  25.249  25.522  1.00  0.00    -0.200 F 
ENDBRANCH  59  73
BRANCH  60  84
ATOM     84  C   UNL A   1      39.498  33.787  36.780  1.00  0.00     0.064 A 
ATOM     85  C   UNL A   1      38.717  33.386  37.874  1.00  0.00     0.173 A 
ATOM     86  C   UNL A   1      40.143  35.030  36.860  1.00  0.00     0.173 A 
ATOM     87  F   UNL A   1      38.068  32.214  37.837  1.00  0.00    -0.203 F 
ATOM     88  C   UNL A   1      38.568  34.206  38.991  1.00  0.00     0.198 A 
ATOM     89  C   UNL A   1      40.016  35.836  37.990  1.00  0.00     0.198 A 
ATOM     90  F   UNL A   1      40.908  35.457  35.845  1.00  0.00    -0.203 F 
ATOM     91  F   UNL A   1      37.778  33.819  40.002  1.00  0.00    -0.200 F 
ATOM     92  C   UNL A   1      39.222  35.427  39.050  1.00  0.00     0.200 A 
ATOM     93  F   UNL A   1      40.663  37.008  38.050  1.00  0.00    -0.200 F 
ATOM     94  F   UNL A   1      39.080  36.213  40.127  1.00  0.00    -0.200 F 
ENDBRANCH  60  84
BRANCH  72  95
ATOM     95  C   UNL A   1      43.964  28.757  34.949  1.00  0.00     0.064 A 
ATOM     96  C   UNL A   1      45.241  29.306  34.766  1.00  0.00     0.173 A 
ATOM     97  C   UNL A   1      43.834  27.670  35.826  1.00  0.00     0.173 A 
ATOM     98  F   UNL A   1      45.420  30.338  33.927  1.00  0.00    -0.203 F 
ATOM     99  C   UNL A   1      46.348  28.771  35.418  1.00  0.00     0.198 A 
ATOM    100  C   UNL A   1      44.937  27.158  36.501  1.00  0.00     0.198 A 
ATOM    101  F   UNL A   1      42.632  27.114  36.041  1.00  0.00    -0.203 F 
ATOM    102  F   UNL A   1      47.567  29.280  35.191  1.00  0.00    -0.200 F 
ATOM    103  C   UNL A   1      46.194  27.703  36.290  1.00  0.00     0.200 A 
ATOM    104  F   UNL A   1      44.785  26.136  37.355  1.00  0.00    -0.200 F 
ATOM    105  F   UNL A   1      47.260  27.195  36.923  1.00  0.00    -0.200 F 
ENDBRANCH  72  95
ENDBRANCH  46  47
ENDBRANCH  38  41
ENDBRANCH  36  37
ENDBRANCH  35  36
ENDBRANCH  34  35
ENDBRANCH   1  34
TORSDOF 16
ENDMDL
