MODEL 1
REMARK VINA RESULT:     -13.2      0.000      0.000
REMARK SMILES CC1=C[C@H](C)[C@H](CN2C[C@@]34C=C[C@@H](O3)[C@@H](C(=O)NCCCCCCNC(=O)c3ccc(-c5c6nc(c(-c7c(F)c(F)c(F)c(F)c7F)c7ccc([nH]7)c(-c7c(F)c(F)c(F)c(F)c7F)c7nc(c(-c8c(F)c(F)c(F)c(F)c8F)c8ccc5[nH]8)C=C7)C=C6)cc3)[C@@H]4C2=O)[C@H](C)C1
REMARK SMILES IDX 21 1 20 2 19 3 18 4 16 5 17 6 15 8 8 9 9 10 92 11 10 12
REMARK SMILES IDX 91 13 93 14 11 15 14 16 12 17 13 18 7 19 6 20 1 21 2 22 3 23
REMARK SMILES IDX 96 24 4 25 94 26 5 27 95 28 22 29 23 30 24 31 25 32 26 33
REMARK SMILES IDX 27 35 28 36 29 37 90 38 30 39 89 40 31 41 32 42 33 43 83 44
REMARK SMILES IDX 34 45 88 46 82 47 84 48 35 49 87 50 81 51 80 52 36 54 68 55
REMARK SMILES IDX 48 56 67 57 49 58 52 59 66 60 85 61 50 62 51 63 65 65 86 66
REMARK SMILES IDX 53 67 37 68 38 69 46 70 39 71 40 72 44 73 47 74 41 75 42 76
REMARK SMILES IDX 45 77 43 78 69 79 70 80 78 81 71 82 72 83 76 84 79 85 73 86
REMARK SMILES IDX 74 87 77 88 75 89 54 90 55 91 63 92 56 93 57 94 61 95 64 96
REMARK SMILES IDX 58 97 59 98 62 99 60 100
REMARK H PARENT 18 7 25 34 84 53 52 64
REMARK Flexibility Score: inf
ROOT
ATOM      1  C   UNL A   1      33.039  30.437  27.169  1.00  0.00     0.002 C 
ENDROOT
BRANCH   1   2
ATOM      2  C   UNL A   1      33.284  28.939  26.953  1.00  0.00     0.021 C 
BRANCH   2   3
ATOM      3  C   UNL A   1      33.975  28.581  25.635  1.00  0.00     0.116 C 
BRANCH   3   4
ATOM      4  N   UNL A   1      33.523  29.410  24.545  1.00  0.00    -0.356 N 
ATOM      5  C   UNL A   1      33.433  28.804  23.299  1.00  0.00     0.227 C 
ATOM      6  O   UNL A   1      34.436  28.594  22.628  1.00  0.00    -0.275 OA
ATOM      7  H   UNL A   1      33.290  30.357  24.678  1.00  0.00     0.163 HD
BRANCH   5   8
ATOM      8  C   UNL A   1      31.953  28.551  22.864  1.00  0.00     0.127 C 
ATOM      9  N   UNL A   1      31.802  24.898  23.306  1.00  0.00    -0.339 N 
ATOM     10  C   UNL A   1      31.177  25.368  24.566  1.00  0.00     0.160 C 
ATOM     11  C   UNL A   1      31.846  25.950  22.379  1.00  0.00     0.230 C 
ATOM     12  C   UNL A   1      30.762  26.784  24.163  1.00  0.00     0.117 C 
ATOM     13  C   UNL A   1      31.972  27.115  23.286  1.00  0.00     0.132 C 
ATOM     14  O   UNL A   1      31.867  25.917  21.165  1.00  0.00    -0.274 OA
ATOM     15  C   UNL A   1      29.483  27.022  23.404  1.00  0.00     0.009 C 
ATOM     16  O   UNL A   1      30.829  27.947  24.966  1.00  0.00    -0.360 OA
ATOM     17  C   UNL A   1      29.498  28.333  23.133  1.00  0.00     0.004 C 
ATOM     18  C   UNL A   1      30.736  28.875  23.837  1.00  0.00     0.155 C 
BRANCH   9  19
ATOM     19  C   UNL A   1      32.575  23.700  23.107  1.00  0.00     0.124 C 
BRANCH  19  20
ATOM     20  C   UNL A   1      33.155  22.962  24.367  1.00  0.00     0.018 C 
ATOM     21  C   UNL A   1      36.940  20.576  24.933  1.00  0.00     0.039 C 
ATOM     22  C   UNL A   1      35.647  21.329  24.768  1.00  0.00    -0.077 C 
ATOM     23  C   UNL A   1      34.466  20.705  24.672  1.00  0.00    -0.025 C 
ATOM     24  C   UNL A   1      35.752  22.823  24.739  1.00  0.00     0.034 C 
ATOM     25  C   UNL A   1      33.126  21.388  24.515  1.00  0.00     0.014 C 
ATOM     26  C   UNL A   1      34.435  23.561  25.036  1.00  0.00    -0.005 C 
ATOM     27  C   UNL A   1      32.307  20.568  23.526  1.00  0.00     0.012 C 
ATOM     28  C   UNL A   1      34.635  25.064  24.839  1.00  0.00     0.008 C 
ENDBRANCH  19  20
ENDBRANCH   9  19
ENDBRANCH   5   8
ENDBRANCH   3   4
ENDBRANCH   2   3
ENDBRANCH   1   2
BRANCH   1  29
ATOM     29  C   UNL A   1      31.641  30.938  26.799  1.00  0.00     0.002 C 
BRANCH  29  30
ATOM     30  C   UNL A   1      31.462  32.455  26.849  1.00  0.00     0.021 C 
BRANCH  30  31
ATOM     31  C   UNL A   1      32.744  33.233  27.105  1.00  0.00     0.116 C 
BRANCH  31  32
ATOM     32  N   UNL A   1      32.493  34.504  27.764  1.00  0.00    -0.352 N 
ATOM     33  C   UNL A   1      33.075  35.019  28.895  1.00  0.00     0.251 C 
ATOM     34  H   UNL A   1      31.813  35.073  27.340  1.00  0.00     0.163 HD
ATOM     35  O   UNL A   1      32.610  36.021  29.426  1.00  0.00    -0.269 OA
BRANCH  33  36
ATOM     36  C   UNL A   1      34.253  34.348  29.490  1.00  0.00     0.039 A 
ATOM     37  C   UNL A   1      34.056  33.432  30.526  1.00  0.00     0.014 A 
ATOM     38  C   UNL A   1      35.548  34.629  29.044  1.00  0.00     0.014 A 
ATOM     39  C   UNL A   1      35.152  32.770  31.085  1.00  0.00     0.010 A 
ATOM     40  C   UNL A   1      36.627  33.900  29.536  1.00  0.00     0.010 A 
ATOM     41  C   UNL A   1      36.445  32.980  30.578  1.00  0.00    -0.014 A 
BRANCH  41  42
ATOM     42  C   UNL A   1      37.622  32.282  31.160  1.00  0.00     0.031 A 
ATOM     43  C   UNL A   1      38.129  32.673  32.523  1.00  0.00     0.074 A 
ATOM     44  C   UNL A   1      38.253  31.320  30.455  1.00  0.00     0.049 A 
ATOM     45  N   UNL A   1      39.165  32.219  33.185  1.00  0.00    -0.248 NA
ATOM     46  C   UNL A   1      37.391  33.734  33.228  1.00  0.00     0.031 C 
ATOM     47  C   UNL A   1      37.882  30.874  29.112  1.00  0.00     0.029 A 
ATOM     48  N   UNL A   1      39.342  30.546  30.774  1.00  0.00    -0.354 N 
ATOM     49  C   UNL A   1      39.200  32.940  34.373  1.00  0.00     0.074 A 
ATOM     50  C   UNL A   1      38.130  33.909  34.312  1.00  0.00     0.031 C 
ATOM     51  C   UNL A   1      38.710  29.888  28.732  1.00  0.00     0.029 A 
ATOM     52  C   UNL A   1      39.695  29.660  29.784  1.00  0.00     0.049 A 
ATOM     53  H   UNL A   1      39.824  30.619  31.628  1.00  0.00     0.167 HD
ATOM     54  C   UNL A   1      40.029  32.786  35.432  1.00  0.00     0.037 A 
ATOM     55  C   UNL A   1      40.707  28.771  29.732  1.00  0.00     0.037 A 
ATOM     56  C   UNL A   1      41.085  31.810  35.499  1.00  0.00     0.049 A 
ATOM     57  C   UNL A   1      41.636  28.649  30.912  1.00  0.00     0.074 A 
ATOM     58  C   UNL A   1      41.957  31.553  36.541  1.00  0.00     0.029 A 
ATOM     59  N   UNL A   1      41.410  30.928  34.478  1.00  0.00    -0.354 N 
ATOM     60  N   UNL A   1      41.621  29.294  32.054  1.00  0.00    -0.248 NA
ATOM     61  C   UNL A   1      42.720  27.663  30.800  1.00  0.00     0.031 C 
ATOM     62  C   UNL A   1      42.848  30.555  36.131  1.00  0.00     0.029 A 
ATOM     63  C   UNL A   1      42.484  30.141  34.860  1.00  0.00     0.049 A 
ATOM     64  H   UNL A   1      40.946  30.870  33.612  1.00  0.00     0.167 HD
ATOM     65  C   UNL A   1      42.660  28.763  32.808  1.00  0.00     0.074 A 
ATOM     66  C   UNL A   1      43.273  27.730  32.000  1.00  0.00     0.031 C 
ATOM     67  C   UNL A   1      43.072  29.102  34.055  1.00  0.00     0.037 A 
BRANCH  54  68
ATOM     68  C   UNL A   1      39.824  33.690  36.616  1.00  0.00     0.064 A 
ATOM     69  C   UNL A   1      40.441  34.948  36.695  1.00  0.00     0.173 A 
ATOM     70  C   UNL A   1      38.958  33.319  37.656  1.00  0.00     0.173 A 
ATOM     71  F   UNL A   1      41.287  35.348  35.734  1.00  0.00    -0.203 F 
ATOM     72  C   UNL A   1      40.218  35.789  37.783  1.00  0.00     0.198 A 
ATOM     73  C   UNL A   1      38.710  34.177  38.724  1.00  0.00     0.198 A 
ATOM     74  F   UNL A   1      38.338  32.129  37.629  1.00  0.00    -0.203 F 
ATOM     75  F   UNL A   1      40.857  36.965  37.860  1.00  0.00    -0.200 F 
ATOM     76  C   UNL A   1      39.346  35.408  38.791  1.00  0.00     0.200 A 
ATOM     77  F   UNL A   1      37.854  33.814  39.688  1.00  0.00    -0.200 F 
ATOM     78  F   UNL A   1      39.120  36.225  39.828  1.00  0.00    -0.200 F 
ENDBRANCH  54  68
BRANCH  55  79
ATOM     79  C   UNL A   1      40.900  27.915  28.530  1.00  0.00     0.064 A 
ATOM     80  C   UNL A   1      41.674  28.353  27.445  1.00  0.00     0.173 A 
ATOM     81  C   UNL A   1      40.272  26.665  28.415  1.00  0.00     0.173 A 
ATOM     82  F   UNL A   1      42.280  29.548  27.495  1.00  0.00    -0.203 F 
ATOM     83  C   UNL A   1      41.774  27.599  26.277  1.00  0.00     0.198 A 
ATOM     84  C   UNL A   1      40.405  25.893  27.261  1.00  0.00     0.198 A 
ATOM     85  F   UNL A   1      39.525  26.193  29.423  1.00  0.00    -0.203 F 
ATOM     86  F   UNL A   1      42.457  28.080  25.229  1.00  0.00    -0.200 F 
ATOM     87  C   UNL A   1      41.142  26.369  26.187  1.00  0.00     0.200 A 
ATOM     88  F   UNL A   1      39.806  24.698  27.186  1.00  0.00    -0.200 F 
ATOM     89  F   UNL A   1      41.231  25.648  25.062  1.00  0.00    -0.200 F 
ENDBRANCH  55  79
BRANCH  67  90
ATOM     90  C   UNL A   1      44.200  28.304  34.650  1.00  0.00     0.064 A 
ATOM     91  C   UNL A   1      45.539  28.702  34.529  1.00  0.00     0.173 A 
ATOM     92  C   UNL A   1      43.929  27.130  35.371  1.00  0.00     0.173 A 
ATOM     93  F   UNL A   1      45.855  29.810  33.840  1.00  0.00    -0.203 F 
ATOM     94  C   UNL A   1      46.567  27.934  35.069  1.00  0.00     0.198 A 
ATOM     95  C   UNL A   1      44.955  26.386  35.946  1.00  0.00     0.198 A 
ATOM     96  F   UNL A   1      42.666  26.708  35.528  1.00  0.00    -0.203 F 
ATOM     97  F   UNL A   1      47.843  28.298  34.880  1.00  0.00    -0.200 F 
ATOM     98  C   UNL A   1      46.274  26.781  35.782  1.00  0.00     0.200 A 
ATOM     99  F   UNL A   1      44.669  25.285  36.652  1.00  0.00    -0.200 F 
ATOM    100  F   UNL A   1      47.264  26.045  36.305  1.00  0.00    -0.200 F 
ENDBRANCH  67  90
ENDBRANCH  41  42
ENDBRANCH  33  36
ENDBRANCH  31  32
ENDBRANCH  30  31
ENDBRANCH  29  30
ENDBRANCH   1  29
TORSDOF 15
ENDMDL
MODEL 2
REMARK VINA RESULT:     -13.2      1.414      2.151
REMARK SMILES CC1=C[C@H](C)[C@H](CN2C[C@@]34C=C[C@@H](O3)[C@@H](C(=O)NCCCCCCNC(=O)c3ccc(-c5c6nc(c(-c7c(F)c(F)c(F)c(F)c7F)c7ccc([nH]7)c(-c7c(F)c(F)c(F)c(F)c7F)c7nc(c(-c8c(F)c(F)c(F)c(F)c8F)c8ccc5[nH]8)C=C7)C=C6)cc3)[C@@H]4C2=O)[C@H](C)C1
REMARK SMILES IDX 21 1 20 2 19 3 18 4 16 5 17 6 15 8 8 9 9 10 92 11 10 12
REMARK SMILES IDX 91 13 93 14 11 15 14 16 12 17 13 18 7 19 6 20 1 21 2 22 3 23
REMARK SMILES IDX 96 24 4 25 94 26 5 27 95 28 22 29 23 30 24 31 25 32 26 33
REMARK SMILES IDX 27 35 28 36 29 37 90 38 30 39 89 40 31 41 32 42 33 43 83 44
REMARK SMILES IDX 34 45 88 46 82 47 84 48 35 49 87 50 81 51 80 52 36 54 68 55
REMARK SMILES IDX 48 56 67 57 49 58 52 59 66 60 85 61 50 62 51 63 65 65 86 66
REMARK SMILES IDX 53 67 37 68 38 69 46 70 39 71 40 72 44 73 47 74 41 75 42 76
REMARK SMILES IDX 45 77 43 78 69 79 70 80 78 81 71 82 72 83 76 84 79 85 73 86
REMARK SMILES IDX 74 87 77 88 75 89 54 90 55 91 63 92 56 93 57 94 61 95 64 96
REMARK SMILES IDX 58 97 59 98 62 99 60 100
REMARK H PARENT 18 7 25 34 84 53 52 64
REMARK Flexibility Score: inf
ROOT
ATOM      1  C   UNL A   1      34.409  32.316  28.987  1.00  0.00     0.002 C 
ENDROOT
BRANCH   1   2
ATOM      2  C   UNL A   1      34.833  31.384  27.845  1.00  0.00     0.021 C 
BRANCH   2   3
ATOM      3  C   UNL A   1      33.696  30.570  27.222  1.00  0.00     0.116 C 
BRANCH   3   4
ATOM      4  N   UNL A   1      34.154  29.752  26.126  1.00  0.00    -0.356 N 
ATOM      5  C   UNL A   1      33.320  28.714  25.735  1.00  0.00     0.227 C 
ATOM      6  O   UNL A   1      33.257  27.678  26.387  1.00  0.00    -0.275 OA
ATOM      7  H   UNL A   1      35.014  29.922  25.679  1.00  0.00     0.163 HD
BRANCH   5   8
ATOM      8  C   UNL A   1      32.609  29.000  24.373  1.00  0.00     0.127 C 
ATOM      9  N   UNL A   1      32.542  25.588  22.989  1.00  0.00    -0.339 N 
ATOM     10  C   UNL A   1      31.170  25.703  23.540  1.00  0.00     0.160 C 
ATOM     11  C   UNL A   1      33.125  26.860  22.900  1.00  0.00     0.230 C 
ATOM     12  C   UNL A   1      31.026  27.224  23.618  1.00  0.00     0.117 C 
ATOM     13  C   UNL A   1      32.463  27.550  24.033  1.00  0.00     0.132 C 
ATOM     14  O   UNL A   1      33.997  27.267  22.159  1.00  0.00    -0.274 OA
ATOM     15  C   UNL A   1      30.638  28.022  22.401  1.00  0.00     0.009 C 
ATOM     16  O   UNL A   1      30.397  27.964  24.647  1.00  0.00    -0.360 OA
ATOM     17  C   UNL A   1      30.713  29.297  22.803  1.00  0.00     0.004 C 
ATOM     18  C   UNL A   1      31.037  29.231  24.290  1.00  0.00     0.155 C 
BRANCH   9  19
ATOM     19  C   UNL A   1      33.341  24.395  22.875  1.00  0.00     0.124 C 
BRANCH  19  20
ATOM     20  C   UNL A   1      33.313  23.358  24.054  1.00  0.00     0.018 C 
ATOM     21  C   UNL A   1      36.004  19.864  25.001  1.00  0.00     0.039 C 
ATOM     22  C   UNL A   1      35.060  20.996  24.691  1.00  0.00    -0.077 C 
ATOM     23  C   UNL A   1      33.839  20.785  24.185  1.00  0.00    -0.025 C 
ATOM     24  C   UNL A   1      35.557  22.374  25.003  1.00  0.00     0.034 C 
ATOM     25  C   UNL A   1      32.831  21.865  23.857  1.00  0.00     0.014 C 
ATOM     26  C   UNL A   1      34.452  23.439  25.122  1.00  0.00    -0.005 C 
ATOM     27  C   UNL A   1      32.151  21.475  22.550  1.00  0.00     0.012 C 
ATOM     28  C   UNL A   1      35.087  24.818  25.299  1.00  0.00     0.008 C 
ENDBRANCH  19  20
ENDBRANCH   9  19
ENDBRANCH   5   8
ENDBRANCH   3   4
ENDBRANCH   2   3
ENDBRANCH   1   2
BRANCH   1  29
ATOM     29  C   UNL A   1      34.510  33.814  28.689  1.00  0.00     0.002 C 
BRANCH  29  30
ATOM     30  C   UNL A   1      33.195  34.586  28.798  1.00  0.00     0.021 C 
BRANCH  30  31
ATOM     31  C   UNL A   1      33.346  36.028  29.259  1.00  0.00     0.116 C 
BRANCH  31  32
ATOM     32  N   UNL A   1      32.526  36.321  30.423  1.00  0.00    -0.352 N 
ATOM     33  C   UNL A   1      32.654  35.852  31.707  1.00  0.00     0.251 C 
ATOM     34  H   UNL A   1      31.778  36.940  30.269  1.00  0.00     0.163 HD
ATOM     35  O   UNL A   1      31.762  36.047  32.526  1.00  0.00    -0.269 OA
BRANCH  33  36
ATOM     36  C   UNL A   1      33.860  35.088  32.098  1.00  0.00     0.039 A 
ATOM     37  C   UNL A   1      33.720  33.748  32.464  1.00  0.00     0.014 A 
ATOM     38  C   UNL A   1      35.122  35.690  32.121  1.00  0.00     0.014 A 
ATOM     39  C   UNL A   1      34.848  33.002  32.814  1.00  0.00     0.010 A 
ATOM     40  C   UNL A   1      36.254  34.922  32.377  1.00  0.00     0.010 A 
ATOM     41  C   UNL A   1      36.129  33.576  32.749  1.00  0.00    -0.014 A 
BRANCH  41  42
ATOM     42  C   UNL A   1      37.341  32.796  33.115  1.00  0.00     0.031 A 
ATOM     43  C   UNL A   1      38.060  33.087  34.406  1.00  0.00     0.074 A 
ATOM     44  C   UNL A   1      37.812  31.849  32.279  1.00  0.00     0.049 A 
ATOM     45  N   UNL A   1      39.156  32.552  34.884  1.00  0.00    -0.248 NA
ATOM     46  C   UNL A   1      37.487  34.137  35.264  1.00  0.00     0.031 C 
ATOM     47  C   UNL A   1      37.228  31.496  30.984  1.00  0.00     0.029 A 
ATOM     48  N   UNL A   1      38.895  31.012  32.393  1.00  0.00    -0.354 N 
ATOM     49  C   UNL A   1      39.401  33.203  36.088  1.00  0.00     0.074 A 
ATOM     50  C   UNL A   1      38.384  34.219  36.234  1.00  0.00     0.031 C 
ATOM     51  C   UNL A   1      37.940  30.498  30.438  1.00  0.00     0.029 A 
ATOM     52  C   UNL A   1      39.055  30.168  31.320  1.00  0.00     0.049 A 
ATOM     53  H   UNL A   1      39.499  31.015  33.170  1.00  0.00     0.167 HD
ATOM     54  C   UNL A   1      40.367  32.953  37.004  1.00  0.00     0.037 A 
ATOM     55  C   UNL A   1      40.002  29.241  31.074  1.00  0.00     0.037 A 
ATOM     56  C   UNL A   1      41.369  31.930  36.865  1.00  0.00     0.049 A 
ATOM     57  C   UNL A   1      41.085  29.013  32.097  1.00  0.00     0.074 A 
ATOM     58  C   UNL A   1      42.370  31.577  37.753  1.00  0.00     0.029 A 
ATOM     59  N   UNL A   1      41.497  31.094  35.766  1.00  0.00    -0.354 N 
ATOM     60  N   UNL A   1      41.269  29.592  33.259  1.00  0.00    -0.248 NA
ATOM     61  C   UNL A   1      42.089  27.989  31.777  1.00  0.00     0.031 C 
ATOM     62  C   UNL A   1      43.139  30.567  37.167  1.00  0.00     0.029 A 
ATOM     63  C   UNL A   1      42.574  30.241  35.944  1.00  0.00     0.049 A 
ATOM     64  H   UNL A   1      40.910  31.106  34.975  1.00  0.00     0.167 HD
ATOM     65  C   UNL A   1      42.378  28.975  33.823  1.00  0.00     0.074 A 
ATOM     66  C   UNL A   1      42.814  27.963  32.884  1.00  0.00     0.031 C 
ATOM     67  C   UNL A   1      42.984  29.224  35.011  1.00  0.00     0.037 A 
BRANCH  54  68
ATOM     68  C   UNL A   1      40.382  33.797  38.248  1.00  0.00     0.064 A 
ATOM     69  C   UNL A   1      41.177  34.949  38.345  1.00  0.00     0.173 A 
ATOM     70  C   UNL A   1      39.552  33.482  39.334  1.00  0.00     0.173 A 
ATOM     71  F   UNL A   1      41.999  35.290  37.340  1.00  0.00    -0.203 F 
ATOM     72  C   UNL A   1      41.160  35.739  39.491  1.00  0.00     0.198 A 
ATOM     73  C   UNL A   1      39.510  34.294  40.465  1.00  0.00     0.198 A 
ATOM     74  F   UNL A   1      38.766  32.395  39.294  1.00  0.00    -0.203 F 
ATOM     75  F   UNL A   1      41.965  36.807  39.579  1.00  0.00    -0.200 F 
ATOM     76  C   UNL A   1      40.319  35.418  40.546  1.00  0.00     0.200 A 
ATOM     77  F   UNL A   1      38.684  33.991  41.475  1.00  0.00    -0.200 F 
ATOM     78  F   UNL A   1      40.291  36.188  41.642  1.00  0.00    -0.200 F 
ENDBRANCH  54  68
BRANCH  55  79
ATOM     79  C   UNL A   1      39.973  28.446  29.816  1.00  0.00     0.064 A 
ATOM     80  C   UNL A   1      39.337  27.196  29.764  1.00  0.00     0.173 A 
ATOM     81  C   UNL A   1      40.626  28.891  28.656  1.00  0.00     0.173 A 
ATOM     82  F   UNL A   1      38.715  26.716  30.850  1.00  0.00    -0.203 F 
ATOM     83  C   UNL A   1      39.395  26.404  28.619  1.00  0.00     0.198 A 
ATOM     84  C   UNL A   1      40.649  28.114  27.498  1.00  0.00     0.198 A 
ATOM     85  F   UNL A   1      41.245  30.080  28.647  1.00  0.00    -0.203 F 
ATOM     86  F   UNL A   1      38.845  25.182  28.624  1.00  0.00    -0.200 F 
ATOM     87  C   UNL A   1      40.049  26.865  27.486  1.00  0.00     0.200 A 
ATOM     88  F   UNL A   1      41.267  28.571  26.401  1.00  0.00    -0.200 F 
ATOM     89  F   UNL A   1      40.112  26.100  26.388  1.00  0.00    -0.200 F 
ENDBRANCH  55  79
BRANCH  67  90
ATOM     90  C   UNL A   1      44.144  28.346  35.392  1.00  0.00     0.064 A 
ATOM     91  C   UNL A   1      45.466  28.666  35.047  1.00  0.00     0.173 A 
ATOM     92  C   UNL A   1      43.927  27.174  36.134  1.00  0.00     0.173 A 
ATOM     93  F   UNL A   1      45.729  29.769  34.328  1.00  0.00    -0.203 F 
ATOM     94  C   UNL A   1      46.520  27.824  35.391  1.00  0.00     0.198 A 
ATOM     95  C   UNL A   1      44.988  26.357  36.514  1.00  0.00     0.198 A 
ATOM     96  F   UNL A   1      42.685  26.825  36.501  1.00  0.00    -0.203 F 
ATOM     97  F   UNL A   1      47.765  28.116  34.990  1.00  0.00    -0.200 F 
ATOM     98  C   UNL A   1      46.282  26.675  36.130  1.00  0.00     0.200 A 
ATOM     99  F   UNL A   1      44.757  25.258  37.245  1.00  0.00    -0.200 F 
ATOM    100  F   UNL A   1      47.297  25.868  36.465  1.00  0.00    -0.200 F 
ENDBRANCH  67  90
ENDBRANCH  41  42
ENDBRANCH  33  36
ENDBRANCH  31  32
ENDBRANCH  30  31
ENDBRANCH  29  30
ENDBRANCH   1  29
TORSDOF 15
ENDMDL
MODEL 3
REMARK VINA RESULT:     -13.1      1.683      3.044
REMARK SMILES CC1=C[C@H](C)[C@H](CN2C[C@@]34C=C[C@@H](O3)[C@@H](C(=O)NCCCCCCNC(=O)c3ccc(-c5c6nc(c(-c7c(F)c(F)c(F)c(F)c7F)c7ccc([nH]7)c(-c7c(F)c(F)c(F)c(F)c7F)c7nc(c(-c8c(F)c(F)c(F)c(F)c8F)c8ccc5[nH]8)C=C7)C=C6)cc3)[C@@H]4C2=O)[C@H](C)C1
REMARK SMILES IDX 21 1 20 2 19 3 18 4 16 5 17 6 15 8 8 9 9 10 92 11 10 12
REMARK SMILES IDX 91 13 93 14 11 15 14 16 12 17 13 18 7 19 6 20 1 21 2 22 3 23
REMARK SMILES IDX 96 24 4 25 94 26 5 27 95 28 22 29 23 30 24 31 25 32 26 33
REMARK SMILES IDX 27 35 28 36 29 37 90 38 30 39 89 40 31 41 32 42 33 43 83 44
REMARK SMILES IDX 34 45 88 46 82 47 84 48 35 49 87 50 81 51 80 52 36 54 68 55
REMARK SMILES IDX 48 56 67 57 49 58 52 59 66 60 85 61 50 62 51 63 65 65 86 66
REMARK SMILES IDX 53 67 37 68 38 69 46 70 39 71 40 72 44 73 47 74 41 75 42 76
REMARK SMILES IDX 45 77 43 78 69 79 70 80 78 81 71 82 72 83 76 84 79 85 73 86
REMARK SMILES IDX 74 87 77 88 75 89 54 90 55 91 63 92 56 93 57 94 61 95 64 96
REMARK SMILES IDX 58 97 59 98 62 99 60 100
REMARK H PARENT 18 7 25 34 84 53 52 64
REMARK Flexibility Score: inf
ROOT
ATOM      1  C   UNL A   1      34.372  32.932  29.199  1.00  0.00     0.002 C 
ENDROOT
BRANCH   1   2
ATOM      2  C   UNL A   1      34.871  31.875  28.206  1.00  0.00     0.021 C 
BRANCH   2   3
ATOM      3  C   UNL A   1      33.790  30.933  27.671  1.00  0.00     0.116 C 
BRANCH   3   4
ATOM      4  N   UNL A   1      34.263  29.576  27.556  1.00  0.00    -0.356 N 
ATOM      5  C   UNL A   1      33.420  28.675  26.921  1.00  0.00     0.227 C 
ATOM      6  O   UNL A   1      32.446  28.209  27.501  1.00  0.00    -0.275 OA
ATOM      7  H   UNL A   1      35.141  29.303  27.909  1.00  0.00     0.163 HD
BRANCH   5   8
ATOM      8  C   UNL A   1      33.927  28.285  25.495  1.00  0.00     0.127 C 
ATOM      9  N   UNL A   1      32.256  25.024  25.121  1.00  0.00    -0.339 N 
ATOM     10  C   UNL A   1      31.333  25.910  24.371  1.00  0.00     0.160 C 
ATOM     11  C   UNL A   1      33.479  25.680  25.327  1.00  0.00     0.230 C 
ATOM     12  C   UNL A   1      32.258  27.092  24.074  1.00  0.00     0.117 C 
ATOM     13  C   UNL A   1      33.030  27.091  25.396  1.00  0.00     0.132 C 
ATOM     14  O   UNL A   1      34.590  25.220  25.493  1.00  0.00    -0.274 OA
ATOM     15  C   UNL A   1      33.211  27.047  22.909  1.00  0.00     0.009 C 
ATOM     16  O   UNL A   1      31.912  28.464  24.097  1.00  0.00    -0.360 OA
ATOM     17  C   UNL A   1      33.920  28.178  23.018  1.00  0.00     0.004 C 
ATOM     18  C   UNL A   1      33.296  28.933  24.185  1.00  0.00     0.155 C 
BRANCH   9  19
ATOM     19  C   UNL A   1      31.920  23.832  25.857  1.00  0.00     0.124 C 
BRANCH  19  20
ATOM     20  C   UNL A   1      32.645  22.490  25.482  1.00  0.00     0.018 C 
ATOM     21  C   UNL A   1      36.981  21.595  24.625  1.00  0.00     0.039 C 
ATOM     22  C   UNL A   1      35.519  21.866  24.862  1.00  0.00    -0.077 C 
ATOM     23  C   UNL A   1      34.634  21.924  23.860  1.00  0.00    -0.025 C 
ATOM     24  C   UNL A   1      35.105  22.046  26.291  1.00  0.00     0.034 C 
ATOM     25  C   UNL A   1      33.152  22.182  24.016  1.00  0.00     0.014 C 
ATOM     26  C   UNL A   1      33.599  21.857  26.546  1.00  0.00    -0.005 C 
ATOM     27  C   UNL A   1      32.724  23.099  22.878  1.00  0.00     0.012 C 
ATOM     28  C   UNL A   1      33.280  22.203  28.001  1.00  0.00     0.008 C 
ENDBRANCH  19  20
ENDBRANCH   9  19
ENDBRANCH   5   8
ENDBRANCH   3   4
ENDBRANCH   2   3
ENDBRANCH   1   2
BRANCH   1  29
ATOM     29  C   UNL A   1      34.420  34.380  28.703  1.00  0.00     0.002 C 
BRANCH  29  30
ATOM     30  C   UNL A   1      33.126  35.171  28.889  1.00  0.00     0.021 C 
BRANCH  30  31
ATOM     31  C   UNL A   1      33.278  36.449  29.700  1.00  0.00     0.116 C 
BRANCH  31  32
ATOM     32  N   UNL A   1      32.361  36.498  30.826  1.00  0.00    -0.352 N 
ATOM     33  C   UNL A   1      32.436  35.840  32.028  1.00  0.00     0.251 C 
ATOM     34  H   UNL A   1      31.580  37.084  30.710  1.00  0.00     0.163 HD
ATOM     35  O   UNL A   1      31.478  35.843  32.793  1.00  0.00    -0.269 OA
BRANCH  33  36
ATOM     36  C   UNL A   1      33.668  35.104  32.392  1.00  0.00     0.039 A 
ATOM     37  C   UNL A   1      33.556  33.798  32.874  1.00  0.00     0.014 A 
ATOM     38  C   UNL A   1      34.928  35.699  32.275  1.00  0.00     0.014 A 
ATOM     39  C   UNL A   1      34.707  33.077  33.200  1.00  0.00     0.010 A 
ATOM     40  C   UNL A   1      36.077  34.948  32.509  1.00  0.00     0.010 A 
ATOM     41  C   UNL A   1      35.979  33.637  32.997  1.00  0.00    -0.014 A 
BRANCH  41  42
ATOM     42  C   UNL A   1      37.215  32.883  33.336  1.00  0.00     0.031 A 
ATOM     43  C   UNL A   1      37.946  33.177  34.620  1.00  0.00     0.074 A 
ATOM     44  C   UNL A   1      37.697  31.957  32.482  1.00  0.00     0.049 A 
ATOM     45  N   UNL A   1      39.062  32.664  35.077  1.00  0.00    -0.248 NA
ATOM     46  C   UNL A   1      37.360  34.203  35.499  1.00  0.00     0.031 C 
ATOM     47  C   UNL A   1      37.102  31.605  31.192  1.00  0.00     0.029 A 
ATOM     48  N   UNL A   1      38.801  31.146  32.572  1.00  0.00    -0.354 N 
ATOM     49  C   UNL A   1      39.308  33.306  36.284  1.00  0.00     0.074 A 
ATOM     50  C   UNL A   1      38.269  34.296  36.457  1.00  0.00     0.031 C 
ATOM     51  C   UNL A   1      37.831  30.631  30.624  1.00  0.00     0.029 A 
ATOM     52  C   UNL A   1      38.966  30.319  31.486  1.00  0.00     0.049 A 
ATOM     53  H   UNL A   1      39.417  31.156  33.340  1.00  0.00     0.167 HD
ATOM     54  C   UNL A   1      40.293  33.070  37.183  1.00  0.00     0.037 A 
ATOM     55  C   UNL A   1      39.932  29.418  31.216  1.00  0.00     0.037 A 
ATOM     56  C   UNL A   1      41.318  32.074  37.018  1.00  0.00     0.049 A 
ATOM     57  C   UNL A   1      41.035  29.205  32.220  1.00  0.00     0.074 A 
ATOM     58  C   UNL A   1      42.340  31.735  37.887  1.00  0.00     0.029 A 
ATOM     59  N   UNL A   1      41.450  31.254  35.907  1.00  0.00    -0.354 N 
ATOM     60  N   UNL A   1      41.222  29.775  33.386  1.00  0.00    -0.248 NA
ATOM     61  C   UNL A   1      42.059  28.209  31.874  1.00  0.00     0.031 C 
ATOM     62  C   UNL A   1      43.124  30.751  37.278  1.00  0.00     0.029 A 
ATOM     63  C   UNL A   1      42.550  30.425  36.060  1.00  0.00     0.049 A 
ATOM     64  H   UNL A   1      40.851  31.260  35.125  1.00  0.00     0.167 HD
ATOM     65  C   UNL A   1      42.354  29.179  33.927  1.00  0.00     0.074 A 
ATOM     66  C   UNL A   1      42.800  28.189  32.970  1.00  0.00     0.031 C 
ATOM     67  C   UNL A   1      42.971  29.430  35.109  1.00  0.00     0.037 A 
BRANCH  54  68
ATOM     68  C   UNL A   1      40.306  33.900  38.437  1.00  0.00     0.064 A 
ATOM     69  C   UNL A   1      39.595  33.513  39.582  1.00  0.00     0.173 A 
ATOM     70  C   UNL A   1      41.083  35.066  38.512  1.00  0.00     0.173 A 
ATOM     71  F   UNL A   1      38.826  32.414  39.561  1.00  0.00    -0.203 F 
ATOM     72  C   UNL A   1      39.640  34.275  40.747  1.00  0.00     0.198 A 
ATOM     73  C   UNL A   1      41.155  35.806  39.689  1.00  0.00     0.198 A 
ATOM     74  F   UNL A   1      41.788  35.481  37.448  1.00  0.00    -0.203 F 
ATOM     75  F   UNL A   1      38.912  33.911  41.812  1.00  0.00    -0.200 F 
ATOM     76  C   UNL A   1      40.427  35.415  40.803  1.00  0.00     0.200 A 
ATOM     77  F   UNL A   1      41.930  36.897  39.747  1.00  0.00    -0.200 F 
ATOM     78  F   UNL A   1      40.483  36.138  41.930  1.00  0.00    -0.200 F 
ENDBRANCH  54  68
BRANCH  55  79
ATOM     79  C   UNL A   1      39.904  28.637  29.949  1.00  0.00     0.064 A 
ATOM     80  C   UNL A   1      39.329  27.358  29.900  1.00  0.00     0.173 A 
ATOM     81  C   UNL A   1      40.499  29.127  28.776  1.00  0.00     0.173 A 
ATOM     82  F   UNL A   1      38.765  26.835  30.998  1.00  0.00    -0.203 F 
ATOM     83  C   UNL A   1      39.391  26.582  28.744  1.00  0.00     0.198 A 
ATOM     84  C   UNL A   1      40.525  28.365  27.608  1.00  0.00     0.198 A 
ATOM     85  F   UNL A   1      41.057  30.345  28.763  1.00  0.00    -0.203 F 
ATOM     86  F   UNL A   1      38.902  25.335  28.750  1.00  0.00    -0.200 F 
ATOM     87  C   UNL A   1      39.987  27.088  27.598  1.00  0.00     0.200 A 
ATOM     88  F   UNL A   1      41.086  28.865  26.499  1.00  0.00    -0.200 F 
ATOM     89  F   UNL A   1      40.054  26.339  26.489  1.00  0.00    -0.200 F 
ENDBRANCH  55  79
BRANCH  67  90
ATOM     90  C   UNL A   1      44.157  28.576  35.463  1.00  0.00     0.064 A 
ATOM     91  C   UNL A   1      44.025  27.371  36.170  1.00  0.00     0.173 A 
ATOM     92  C   UNL A   1      45.448  28.964  35.068  1.00  0.00     0.173 A 
ATOM     93  F   UNL A   1      42.815  26.959  36.581  1.00  0.00    -0.203 F 
ATOM     94  C   UNL A   1      45.142  26.611  36.506  1.00  0.00     0.198 A 
ATOM     95  C   UNL A   1      46.558  28.180  35.368  1.00  0.00     0.198 A 
ATOM     96  F   UNL A   1      45.633  30.100  34.380  1.00  0.00    -0.203 F 
ATOM     97  F   UNL A   1      44.996  25.500  37.242  1.00  0.00    -0.200 F 
ATOM     98  C   UNL A   1      46.406  27.011  36.099  1.00  0.00     0.200 A 
ATOM     99  F   UNL A   1      47.775  28.558  34.957  1.00  0.00    -0.200 F 
ATOM    100  F   UNL A   1      47.479  26.276  36.419  1.00  0.00    -0.200 F 
ENDBRANCH  67  90
ENDBRANCH  41  42
ENDBRANCH  33  36
ENDBRANCH  31  32
ENDBRANCH  30  31
ENDBRANCH  29  30
ENDBRANCH   1  29
TORSDOF 15
ENDMDL
