MODEL 1
REMARK VINA RESULT:     -14.3      0.000      0.000
REMARK SMILES O=C(NCCCCCCNC(=O)c1ccc([C@@H]2CC(O)=Nc3c2ncn3-c2cccc(Cl)c2)cc1)c1ccc(-c2c3nc(c(-c4c(F)c(F)c(F)c(F)c4F)c4ccc([nH]4)c(-c4c(F)c(F)c(F)c(F)c4F)c4nc(c(-c5c(F)c(F)c(F)c(F)c5F)c5ccc2[nH]5)C=C4)C=C3)cc1
REMARK SMILES IDX 6 1 5 2 4 3 3 4 1 5 2 6 36 8 37 9 98 10 38 11 97 12 39 13
REMARK SMILES IDX 40 14 41 15 91 16 42 17 96 18 90 19 92 20 43 21 95 22 89 23
REMARK SMILES IDX 88 24 44 26 76 27 56 28 75 29 57 30 60 31 74 32 93 33 58 34
REMARK SMILES IDX 59 35 73 37 94 38 61 39 45 40 46 41 54 42 47 43 48 44 52 45
REMARK SMILES IDX 55 46 49 47 50 48 53 49 51 50 77 51 78 52 86 53 79 54 80 55
REMARK SMILES IDX 84 56 87 57 81 58 82 59 85 60 83 61 62 62 63 63 71 64 64 65
REMARK SMILES IDX 65 66 69 67 72 68 66 69 67 70 70 71 68 72 7 73 8 74 9 75
REMARK SMILES IDX 10 76 11 77 12 79 13 80 14 81 35 82 15 83 34 84 16 85 17 86
REMARK SMILES IDX 18 87 23 88 19 89 22 90 24 91 21 92 26 93 25 94 20 95 27 97
REMARK SMILES IDX 28 98 33 99 29 100 31 101 30 102 32 103
REMARK H PARENT 3 7 92 25 60 36 10 78 20 96
REMARK Flexibility Score: inf
ROOT
ATOM      1  C   UNL A   1      35.294  22.612  23.413  1.00  0.00     0.002 C 
ENDROOT
BRANCH   1   2
ATOM      2  C   UNL A   1      36.072  21.809  24.462  1.00  0.00     0.021 C 
BRANCH   2   3
ATOM      3  C   UNL A   1      37.297  22.521  25.034  1.00  0.00     0.116 C 
BRANCH   3   4
ATOM      4  N   UNL A   1      38.426  21.656  25.298  1.00  0.00    -0.352 N 
ATOM      5  O   UNL A   1      40.231  20.730  26.185  1.00  0.00    -0.269 OA
ATOM      6  C   UNL A   1      39.523  21.736  26.109  1.00  0.00     0.251 C 
ATOM      7  H   UNL A   1      38.397  20.821  24.776  1.00  0.00     0.163 HD
BRANCH   6   8
ATOM      8  C   UNL A   1      39.950  22.962  26.835  1.00  0.00     0.039 A 
ATOM      9  C   UNL A   1      41.095  23.087  27.622  1.00  0.00     0.014 A 
ATOM     10  C   UNL A   1      39.104  24.079  26.692  1.00  0.00     0.014 A 
ATOM     11  C   UNL A   1      41.350  24.266  28.313  1.00  0.00     0.010 A 
ATOM     12  C   UNL A   1      39.361  25.266  27.363  1.00  0.00     0.010 A 
ATOM     13  C   UNL A   1      40.477  25.350  28.192  1.00  0.00    -0.014 A 
BRANCH  13  14
ATOM     14  C   UNL A   1      40.899  26.636  28.743  1.00  0.00     0.031 A 
ATOM     15  C   UNL A   1      42.150  27.156  28.121  1.00  0.00     0.074 A 
ATOM     16  C   UNL A   1      40.156  27.365  29.600  1.00  0.00     0.049 A 
ATOM     17  N   UNL A   1      43.266  27.454  28.701  1.00  0.00    -0.248 NA
ATOM     18  C   UNL A   1      42.206  27.239  26.650  1.00  0.00     0.031 C 
ATOM     19  C   UNL A   1      38.790  27.072  30.038  1.00  0.00     0.029 A 
ATOM     20  N   UNL A   1      40.409  28.583  30.168  1.00  0.00    -0.354 N 
ATOM     21  C   UNL A   1      44.099  27.946  27.695  1.00  0.00     0.074 A 
ATOM     22  C   UNL A   1      43.465  27.630  26.447  1.00  0.00     0.031 C 
ATOM     23  C   UNL A   1      38.257  28.177  30.602  1.00  0.00     0.029 A 
ATOM     24  C   UNL A   1      39.273  29.215  30.668  1.00  0.00     0.049 A 
ATOM     25  H   UNL A   1      41.309  28.977  30.220  1.00  0.00     0.167 HD
ATOM     26  C   UNL A   1      45.084  28.836  27.992  1.00  0.00     0.037 A 
ATOM     27  C   UNL A   1      39.153  30.514  31.041  1.00  0.00     0.037 A 
ATOM     28  C   UNL A   1      45.405  28.787  29.395  1.00  0.00     0.049 A 
ATOM     29  C   UNL A   1      40.513  31.038  31.293  1.00  0.00     0.074 A 
ATOM     30  C   UNL A   1      45.961  27.880  30.270  1.00  0.00     0.029 A 
ATOM     31  N   UNL A   1      44.779  29.738  30.154  1.00  0.00    -0.354 N 
ATOM     32  N   UNL A   1      41.258  30.686  32.301  1.00  0.00    -0.248 NA
ATOM     33  C   UNL A   1      41.205  31.746  30.224  1.00  0.00     0.031 C 
ATOM     34  C   UNL A   1      45.387  28.169  31.545  1.00  0.00     0.029 A 
ATOM     35  C   UNL A   1      44.535  29.265  31.410  1.00  0.00     0.049 A 
ATOM     36  H   UNL A   1      44.538  30.639  29.838  1.00  0.00     0.167 HD
ATOM     37  C   UNL A   1      42.544  30.707  31.797  1.00  0.00     0.074 A 
ATOM     38  C   UNL A   1      42.467  31.539  30.604  1.00  0.00     0.031 C 
ATOM     39  C   UNL A   1      43.458  29.785  32.220  1.00  0.00     0.037 A 
BRANCH  26  40
ATOM     40  C   UNL A   1      45.343  30.104  27.182  1.00  0.00     0.064 A 
ATOM     41  C   UNL A   1      46.683  30.497  26.965  1.00  0.00     0.173 A 
ATOM     42  C   UNL A   1      44.381  31.113  26.951  1.00  0.00     0.173 A 
ATOM     43  F   UNL A   1      47.688  29.628  27.154  1.00  0.00    -0.203 F 
ATOM     44  C   UNL A   1      47.034  31.819  26.672  1.00  0.00     0.198 A 
ATOM     45  C   UNL A   1      44.733  32.420  26.610  1.00  0.00     0.198 A 
ATOM     46  F   UNL A   1      43.074  30.924  27.150  1.00  0.00    -0.203 F 
ATOM     47  F   UNL A   1      48.325  32.173  26.633  1.00  0.00    -0.200 F 
ATOM     48  C   UNL A   1      46.057  32.783  26.511  1.00  0.00     0.200 A 
ATOM     49  F   UNL A   1      43.770  33.344  26.475  1.00  0.00    -0.200 F 
ATOM     50  F   UNL A   1      46.388  34.065  26.311  1.00  0.00    -0.200 F 
ENDBRANCH  26  40
BRANCH  27  51
ATOM     51  C   UNL A   1      37.972  31.413  30.982  1.00  0.00     0.064 A 
ATOM     52  C   UNL A   1      37.420  31.808  29.749  1.00  0.00     0.173 A 
ATOM     53  C   UNL A   1      37.191  31.676  32.123  1.00  0.00     0.173 A 
ATOM     54  F   UNL A   1      38.073  31.561  28.604  1.00  0.00    -0.203 F 
ATOM     55  C   UNL A   1      36.150  32.393  29.663  1.00  0.00     0.198 A 
ATOM     56  C   UNL A   1      35.930  32.271  32.036  1.00  0.00     0.198 A 
ATOM     57  F   UNL A   1      37.589  31.273  33.337  1.00  0.00    -0.203 F 
ATOM     58  F   UNL A   1      35.629  32.686  28.463  1.00  0.00    -0.200 F 
ATOM     59  C   UNL A   1      35.403  32.613  30.807  1.00  0.00     0.200 A 
ATOM     60  F   UNL A   1      35.203  32.447  33.150  1.00  0.00    -0.200 F 
ATOM     61  F   UNL A   1      34.162  33.112  30.721  1.00  0.00    -0.200 F 
ENDBRANCH  27  51
BRANCH  39  62
ATOM     62  C   UNL A   1      43.215  29.140  33.549  1.00  0.00     0.064 A 
ATOM     63  C   UNL A   1      43.627  29.669  34.783  1.00  0.00     0.173 A 
ATOM     64  C   UNL A   1      42.466  27.955  33.567  1.00  0.00     0.173 A 
ATOM     65  F   UNL A   1      44.262  30.846  34.857  1.00  0.00    -0.203 F 
ATOM     66  C   UNL A   1      43.350  29.002  35.975  1.00  0.00     0.198 A 
ATOM     67  C   UNL A   1      42.154  27.317  34.761  1.00  0.00     0.198 A 
ATOM     68  F   UNL A   1      42.007  27.432  32.419  1.00  0.00    -0.203 F 
ATOM     69  F   UNL A   1      43.781  29.506  37.142  1.00  0.00    -0.200 F 
ATOM     70  C   UNL A   1      42.610  27.831  35.964  1.00  0.00     0.200 A 
ATOM     71  F   UNL A   1      41.396  26.212  34.746  1.00  0.00    -0.200 F 
ATOM     72  F   UNL A   1      42.317  27.208  37.113  1.00  0.00    -0.200 F 
ENDBRANCH  39  62
ENDBRANCH  13  14
ENDBRANCH   6   8
ENDBRANCH   3   4
ENDBRANCH   2   3
ENDBRANCH   1   2
BRANCH   1  73
ATOM     73  C   UNL A   1      33.792  22.325  23.340  1.00  0.00     0.002 C 
BRANCH  73  74
ATOM     74  C   UNL A   1      33.286  21.221  24.272  1.00  0.00     0.021 C 
BRANCH  74  75
ATOM     75  C   UNL A   1      31.973  21.534  24.983  1.00  0.00     0.116 C 
BRANCH  75  76
ATOM     76  N   UNL A   1      32.138  21.606  26.425  1.00  0.00    -0.352 N 
ATOM     77  C   UNL A   1      32.619  22.643  27.178  1.00  0.00     0.251 C 
ATOM     78  H   UNL A   1      31.866  20.804  26.927  1.00  0.00     0.163 HD
ATOM     79  O   UNL A   1      32.872  22.481  28.377  1.00  0.00    -0.269 OA
BRANCH  77  80
ATOM     80  C   UNL A   1      32.854  23.957  26.553  1.00  0.00     0.039 A 
ATOM     81  C   UNL A   1      31.783  24.837  26.407  1.00  0.00     0.014 A 
ATOM     82  C   UNL A   1      34.130  24.316  26.104  1.00  0.00     0.014 A 
ATOM     83  C   UNL A   1      32.002  26.102  25.864  1.00  0.00     0.005 A 
ATOM     84  C   UNL A   1      34.349  25.588  25.576  1.00  0.00     0.005 A 
ATOM     85  C   UNL A   1      33.288  26.499  25.451  1.00  0.00    -0.038 A 
BRANCH  85  86
ATOM     86  C   UNL A   1      33.470  27.866  24.815  1.00  0.00     0.081 C 
ATOM     87  C   UNL A   1      33.644  28.977  25.876  1.00  0.00     0.111 C 
ATOM     88  C   UNL A   1      32.290  28.119  23.950  1.00  0.00     0.093 A 
ATOM     89  C   UNL A   1      32.459  29.916  26.021  1.00  0.00     0.188 C 
ATOM     90  C   UNL A   1      31.464  29.199  24.166  1.00  0.00     0.164 A 
ATOM     91  N   UNL A   1      31.869  27.370  22.884  1.00  0.00    -0.238 NA
ATOM     92  N   UNL A   1      31.471  30.075  25.200  1.00  0.00    -0.198 NA
ATOM     93  N   UNL A   1      30.520  29.147  23.159  1.00  0.00    -0.283 N 
ATOM     94  C   UNL A   1      30.780  27.983  22.463  1.00  0.00     0.206 A 
BRANCH  89  95
ATOM     95  O   UNL A   1      32.502  30.694  27.119  1.00  0.00    -0.496 OA
ATOM     96  H   UNL A   1      32.552  30.303  27.968  1.00  0.00     0.294 HD
ENDBRANCH  89  95
BRANCH  93  97
ATOM     97  C   UNL A   1      29.517  30.102  22.874  1.00  0.00     0.050 A 
ATOM     98  C   UNL A   1      28.623  30.515  23.869  1.00  0.00     0.027 A 
ATOM     99  C   UNL A   1      29.421  30.627  21.577  1.00  0.00     0.047 A 
ATOM    100  C   UNL A   1      27.665  31.487  23.572  1.00  0.00     0.004 A 
ATOM    101  C   UNL A   1      28.428  31.556  21.282  1.00  0.00     0.043 A 
ATOM    102  C   UNL A   1      27.560  32.001  22.276  1.00  0.00     0.020 A 
ATOM    103  Cl  UNL A   1      28.258  32.144  19.673  1.00  0.00    -0.084 Cl
ENDBRANCH  93  97
ENDBRANCH  85  86
ENDBRANCH  77  80
ENDBRANCH  75  76
ENDBRANCH  74  75
ENDBRANCH  73  74
ENDBRANCH   1  73
TORSDOF 16
ENDMDL
MODEL 2
REMARK VINA RESULT:     -14.2      3.343      9.141
REMARK SMILES O=C(NCCCCCCNC(=O)c1ccc([C@@H]2CC(O)=Nc3c2ncn3-c2cccc(Cl)c2)cc1)c1ccc(-c2c3nc(c(-c4c(F)c(F)c(F)c(F)c4F)c4ccc([nH]4)c(-c4c(F)c(F)c(F)c(F)c4F)c4nc(c(-c5c(F)c(F)c(F)c(F)c5F)c5ccc2[nH]5)C=C4)C=C3)cc1
REMARK SMILES IDX 6 1 5 2 4 3 3 4 1 5 2 6 36 8 37 9 98 10 38 11 97 12 39 13
REMARK SMILES IDX 40 14 41 15 91 16 42 17 96 18 90 19 92 20 43 21 95 22 89 23
REMARK SMILES IDX 88 24 44 26 76 27 56 28 75 29 57 30 60 31 74 32 93 33 58 34
REMARK SMILES IDX 59 35 73 37 94 38 61 39 45 40 46 41 54 42 47 43 48 44 52 45
REMARK SMILES IDX 55 46 49 47 50 48 53 49 51 50 77 51 78 52 86 53 79 54 80 55
REMARK SMILES IDX 84 56 87 57 81 58 82 59 85 60 83 61 62 62 63 63 71 64 64 65
REMARK SMILES IDX 65 66 69 67 72 68 66 69 67 70 70 71 68 72 7 73 8 74 9 75
REMARK SMILES IDX 10 76 11 77 12 79 13 80 14 81 35 82 15 83 34 84 16 85 17 86
REMARK SMILES IDX 18 87 23 88 19 89 22 90 24 91 21 92 26 93 25 94 20 95 27 97
REMARK SMILES IDX 28 98 33 99 29 100 31 101 30 102 32 103
REMARK H PARENT 3 7 92 25 60 36 10 78 20 96
REMARK Flexibility Score: inf
ROOT
ATOM      1  C   UNL A   1      31.404  27.477  26.852  1.00  0.00     0.002 C 
ENDROOT
BRANCH   1   2
ATOM      2  C   UNL A   1      31.737  28.961  27.038  1.00  0.00     0.021 C 
BRANCH   2   3
ATOM      3  C   UNL A   1      33.204  29.253  27.353  1.00  0.00     0.116 C 
BRANCH   3   4
ATOM      4  N   UNL A   1      33.503  30.651  27.575  1.00  0.00    -0.352 N 
ATOM      5  O   UNL A   1      34.551  32.587  27.811  1.00  0.00    -0.269 OA
ATOM      6  C   UNL A   1      34.651  31.358  27.798  1.00  0.00     0.251 C 
ATOM      7  H   UNL A   1      32.700  31.220  27.561  1.00  0.00     0.163 HD
BRANCH   6   8
ATOM      8  C   UNL A   1      35.975  30.750  28.094  1.00  0.00     0.039 A 
ATOM      9  C   UNL A   1      36.360  29.445  27.785  1.00  0.00     0.014 A 
ATOM     10  C   UNL A   1      36.901  31.591  28.741  1.00  0.00     0.014 A 
ATOM     11  C   UNL A   1      37.605  28.965  28.179  1.00  0.00     0.010 A 
ATOM     12  C   UNL A   1      38.152  31.126  29.121  1.00  0.00     0.010 A 
ATOM     13  C   UNL A   1      38.494  29.802  28.857  1.00  0.00    -0.014 A 
BRANCH  13  14
ATOM     14  C   UNL A   1      39.866  29.336  29.045  1.00  0.00     0.031 A 
ATOM     15  C   UNL A   1      40.254  29.223  30.480  1.00  0.00     0.074 A 
ATOM     16  C   UNL A   1      40.650  28.889  28.044  1.00  0.00     0.049 A 
ATOM     17  N   UNL A   1      41.226  29.815  31.093  1.00  0.00    -0.248 NA
ATOM     18  C   UNL A   1      39.373  28.450  31.375  1.00  0.00     0.031 C 
ATOM     19  C   UNL A   1      40.254  28.691  26.648  1.00  0.00     0.029 A 
ATOM     20  N   UNL A   1      41.928  28.403  28.075  1.00  0.00    -0.354 N 
ATOM     21  C   UNL A   1      41.198  29.337  32.403  1.00  0.00     0.074 A 
ATOM     22  C   UNL A   1      39.949  28.646  32.561  1.00  0.00     0.031 C 
ATOM     23  C   UNL A   1      41.176  27.920  26.030  1.00  0.00     0.029 A 
ATOM     24  C   UNL A   1      42.275  27.667  26.946  1.00  0.00     0.049 A 
ATOM     25  H   UNL A   1      42.545  28.559  28.826  1.00  0.00     0.167 HD
ATOM     26  C   UNL A   1      42.338  29.293  33.145  1.00  0.00     0.037 A 
ATOM     27  C   UNL A   1      43.349  26.851  26.796  1.00  0.00     0.037 A 
ATOM     28  C   UNL A   1      43.331  30.182  32.600  1.00  0.00     0.049 A 
ATOM     29  C   UNL A   1      44.347  27.225  27.823  1.00  0.00     0.074 A 
ATOM     30  C   UNL A   1      43.487  31.542  32.441  1.00  0.00     0.029 A 
ATOM     31  N   UNL A   1      44.242  29.580  31.776  1.00  0.00    -0.354 N 
ATOM     32  N   UNL A   1      45.029  28.333  27.809  1.00  0.00    -0.248 NA
ATOM     33  C   UNL A   1      44.373  26.492  29.082  1.00  0.00     0.031 C 
ATOM     34  C   UNL A   1      44.306  31.705  31.283  1.00  0.00     0.029 A 
ATOM     35  C   UNL A   1      44.654  30.443  30.804  1.00  0.00     0.049 A 
ATOM     36  H   UNL A   1      44.557  28.652  31.872  1.00  0.00     0.167 HD
ATOM     37  C   UNL A   1      45.171  28.662  29.144  1.00  0.00     0.074 A 
ATOM     38  C   UNL A   1      44.927  27.419  29.865  1.00  0.00     0.031 C 
ATOM     39  C   UNL A   1      45.149  29.970  29.531  1.00  0.00     0.037 A 
BRANCH  26  40
ATOM     40  C   UNL A   1      42.755  28.080  33.974  1.00  0.00     0.064 A 
ATOM     41  C   UNL A   1      43.045  28.275  35.343  1.00  0.00     0.173 A 
ATOM     42  C   UNL A   1      43.237  26.869  33.428  1.00  0.00     0.173 A 
ATOM     43  F   UNL A   1      42.643  29.388  35.975  1.00  0.00    -0.203 F 
ATOM     44  C   UNL A   1      43.859  27.394  36.064  1.00  0.00     0.198 A 
ATOM     45  C   UNL A   1      44.008  25.969  34.165  1.00  0.00     0.198 A 
ATOM     46  F   UNL A   1      43.089  26.548  32.140  1.00  0.00    -0.203 F 
ATOM     47  F   UNL A   1      44.234  27.704  37.312  1.00  0.00    -0.200 F 
ATOM     48  C   UNL A   1      44.352  26.250  35.468  1.00  0.00     0.200 A 
ATOM     49  F   UNL A   1      44.490  24.872  33.563  1.00  0.00    -0.200 F 
ATOM     50  F   UNL A   1      45.197  25.445  36.127  1.00  0.00    -0.200 F 
ENDBRANCH  26  40
BRANCH  27  51
ATOM     51  C   UNL A   1      43.498  25.617  25.982  1.00  0.00     0.064 A 
ATOM     52  C   UNL A   1      44.687  25.349  25.278  1.00  0.00     0.173 A 
ATOM     53  C   UNL A   1      42.594  24.545  26.101  1.00  0.00     0.173 A 
ATOM     54  F   UNL A   1      45.626  26.298  25.149  1.00  0.00    -0.203 F 
ATOM     55  C   UNL A   1      44.968  24.078  24.762  1.00  0.00     0.198 A 
ATOM     56  C   UNL A   1      42.870  23.281  25.574  1.00  0.00     0.198 A 
ATOM     57  F   UNL A   1      41.468  24.670  26.816  1.00  0.00    -0.203 F 
ATOM     58  F   UNL A   1      46.144  23.845  24.162  1.00  0.00    -0.200 F 
ATOM     59  C   UNL A   1      44.064  23.043  24.921  1.00  0.00     0.200 A 
ATOM     60  F   UNL A   1      42.000  22.279  25.766  1.00  0.00    -0.200 F 
ATOM     61  F   UNL A   1      44.358  21.810  24.484  1.00  0.00    -0.200 F 
ENDBRANCH  27  51
BRANCH  39  62
ATOM     62  C   UNL A   1      45.494  30.996  28.496  1.00  0.00     0.064 A 
ATOM     63  C   UNL A   1      44.598  31.505  27.542  1.00  0.00     0.173 A 
ATOM     64  C   UNL A   1      46.789  31.533  28.523  1.00  0.00     0.173 A 
ATOM     65  F   UNL A   1      43.317  31.114  27.515  1.00  0.00    -0.203 F 
ATOM     66  C   UNL A   1      45.005  32.465  26.619  1.00  0.00     0.198 A 
ATOM     67  C   UNL A   1      47.178  32.523  27.629  1.00  0.00     0.198 A 
ATOM     68  F   UNL A   1      47.671  31.116  29.446  1.00  0.00    -0.203 F 
ATOM     69  F   UNL A   1      44.144  32.915  25.693  1.00  0.00    -0.200 F 
ATOM     70  C   UNL A   1      46.292  32.977  26.666  1.00  0.00     0.200 A 
ATOM     71  F   UNL A   1      48.408  33.048  27.713  1.00  0.00    -0.200 F 
ATOM     72  F   UNL A   1      46.673  33.924  25.799  1.00  0.00    -0.200 F 
ENDBRANCH  39  62
ENDBRANCH  13  14
ENDBRANCH   6   8
ENDBRANCH   3   4
ENDBRANCH   2   3
ENDBRANCH   1   2
BRANCH   1  73
ATOM     73  C   UNL A   1      30.670  27.120  25.556  1.00  0.00     0.002 C 
BRANCH  73  74
ATOM     74  C   UNL A   1      30.826  28.126  24.413  1.00  0.00     0.021 C 
BRANCH  74  75
ATOM     75  C   UNL A   1      30.861  27.511  23.018  1.00  0.00     0.116 C 
BRANCH  75  76
ATOM     76  N   UNL A   1      32.022  27.945  22.258  1.00  0.00    -0.352 N 
ATOM     77  C   UNL A   1      33.327  27.556  22.398  1.00  0.00     0.251 C 
ATOM     78  H   UNL A   1      31.846  28.606  21.550  1.00  0.00     0.163 HD
ATOM     79  O   UNL A   1      34.225  28.157  21.799  1.00  0.00    -0.269 OA
BRANCH  77  80
ATOM     80  C   UNL A   1      33.665  26.425  23.281  1.00  0.00     0.039 A 
ATOM     81  C   UNL A   1      34.029  26.685  24.601  1.00  0.00     0.014 A 
ATOM     82  C   UNL A   1      33.630  25.111  22.803  1.00  0.00     0.014 A 
ATOM     83  C   UNL A   1      34.301  25.622  25.461  1.00  0.00     0.005 A 
ATOM     84  C   UNL A   1      33.887  24.049  23.669  1.00  0.00     0.005 A 
ATOM     85  C   UNL A   1      34.225  24.290  25.011  1.00  0.00    -0.038 A 
BRANCH  85  86
ATOM     86  C   UNL A   1      34.582  23.166  25.966  1.00  0.00     0.081 C 
ATOM     87  C   UNL A   1      36.087  22.816  25.910  1.00  0.00     0.111 C 
ATOM     88  C   UNL A   1      33.737  21.996  25.616  1.00  0.00     0.093 A 
ATOM     89  C   UNL A   1      36.412  21.489  25.247  1.00  0.00     0.188 C 
ATOM     90  C   UNL A   1      34.299  20.797  25.240  1.00  0.00     0.164 A 
ATOM     91  N   UNL A   1      32.370  21.934  25.612  1.00  0.00    -0.238 NA
ATOM     92  N   UNL A   1      35.600  20.515  24.988  1.00  0.00    -0.198 NA
ATOM     93  N   UNL A   1      33.235  19.938  25.042  1.00  0.00    -0.283 N 
ATOM     94  C   UNL A   1      32.099  20.705  25.216  1.00  0.00     0.206 A 
BRANCH  89  95
ATOM     95  O   UNL A   1      37.716  21.323  24.955  1.00  0.00    -0.496 OA
ATOM     96  H   UNL A   1      38.332  21.994  25.168  1.00  0.00     0.294 HD
ENDBRANCH  89  95
BRANCH  93  97
ATOM     97  C   UNL A   1      33.291  18.554  24.757  1.00  0.00     0.050 A 
ATOM     98  C   UNL A   1      33.868  18.095  23.567  1.00  0.00     0.027 A 
ATOM     99  C   UNL A   1      32.753  17.644  25.678  1.00  0.00     0.047 A 
ATOM    100  C   UNL A   1      33.944  16.721  23.326  1.00  0.00     0.004 A 
ATOM    101  C   UNL A   1      32.789  16.280  25.400  1.00  0.00     0.043 A 
ATOM    102  C   UNL A   1      33.397  15.814  24.237  1.00  0.00     0.020 A 
ATOM    103  Cl  UNL A   1      32.061  15.167  26.491  1.00  0.00    -0.084 Cl
ENDBRANCH  93  97
ENDBRANCH  85  86
ENDBRANCH  77  80
ENDBRANCH  75  76
ENDBRANCH  74  75
ENDBRANCH  73  74
ENDBRANCH   1  73
TORSDOF 16
ENDMDL
MODEL 3
REMARK VINA RESULT:     -14.0      2.320      4.169
REMARK SMILES O=C(NCCCCCCNC(=O)c1ccc([C@@H]2CC(O)=Nc3c2ncn3-c2cccc(Cl)c2)cc1)c1ccc(-c2c3nc(c(-c4c(F)c(F)c(F)c(F)c4F)c4ccc([nH]4)c(-c4c(F)c(F)c(F)c(F)c4F)c4nc(c(-c5c(F)c(F)c(F)c(F)c5F)c5ccc2[nH]5)C=C4)C=C3)cc1
REMARK SMILES IDX 6 1 5 2 4 3 3 4 1 5 2 6 36 8 37 9 98 10 38 11 97 12 39 13
REMARK SMILES IDX 40 14 41 15 91 16 42 17 96 18 90 19 92 20 43 21 95 22 89 23
REMARK SMILES IDX 88 24 44 26 76 27 56 28 75 29 57 30 60 31 74 32 93 33 58 34
REMARK SMILES IDX 59 35 73 37 94 38 61 39 45 40 46 41 54 42 47 43 48 44 52 45
REMARK SMILES IDX 55 46 49 47 50 48 53 49 51 50 77 51 78 52 86 53 79 54 80 55
REMARK SMILES IDX 84 56 87 57 81 58 82 59 85 60 83 61 62 62 63 63 71 64 64 65
REMARK SMILES IDX 65 66 69 67 72 68 66 69 67 70 70 71 68 72 7 73 8 74 9 75
REMARK SMILES IDX 10 76 11 77 12 79 13 80 14 81 35 82 15 83 34 84 16 85 17 86
REMARK SMILES IDX 18 87 23 88 19 89 22 90 24 91 21 92 26 93 25 94 20 95 27 97
REMARK SMILES IDX 28 98 33 99 29 100 31 101 30 102 32 103
REMARK H PARENT 3 7 92 25 60 36 10 78 20 96
REMARK Flexibility Score: inf
ROOT
ATOM      1  C   UNL A   1      41.338  21.065  27.633  1.00  0.00     0.002 C 
ENDROOT
BRANCH   1   2
ATOM      2  C   UNL A   1      42.303  19.956  27.199  1.00  0.00     0.021 C 
BRANCH   2   3
ATOM      3  C   UNL A   1      42.239  19.598  25.715  1.00  0.00     0.116 C 
BRANCH   3   4
ATOM      4  N   UNL A   1      43.486  19.772  25.001  1.00  0.00    -0.352 N 
ATOM      5  O   UNL A   1      45.452  20.522  24.312  1.00  0.00    -0.269 OA
ATOM      6  C   UNL A   1      44.417  20.770  24.933  1.00  0.00     0.251 C 
ATOM      7  H   UNL A   1      43.715  18.997  24.438  1.00  0.00     0.163 HD
BRANCH   6   8
ATOM      8  C   UNL A   1      44.232  22.137  25.489  1.00  0.00     0.039 A 
ATOM      9  C   UNL A   1      43.464  23.153  24.918  1.00  0.00     0.014 A 
ATOM     10  C   UNL A   1      44.902  22.397  26.700  1.00  0.00     0.014 A 
ATOM     11  C   UNL A   1      43.427  24.418  25.495  1.00  0.00     0.010 A 
ATOM     12  C   UNL A   1      44.855  23.651  27.293  1.00  0.00     0.010 A 
ATOM     13  C   UNL A   1      44.132  24.668  26.674  1.00  0.00    -0.014 A 
BRANCH  13  14
ATOM     14  C   UNL A   1      43.882  25.930  27.368  1.00  0.00     0.031 A 
ATOM     15  C   UNL A   1      44.848  27.004  26.997  1.00  0.00     0.074 A 
ATOM     16  C   UNL A   1      42.795  26.164  28.131  1.00  0.00     0.049 A 
ATOM     17  N   UNL A   1      45.642  27.665  27.773  1.00  0.00    -0.248 NA
ATOM     18  C   UNL A   1      45.045  27.290  25.564  1.00  0.00     0.031 C 
ATOM     19  C   UNL A   1      41.651  25.270  28.316  1.00  0.00     0.029 A 
ATOM     20  N   UNL A   1      42.421  27.291  28.810  1.00  0.00    -0.354 N 
ATOM     21  C   UNL A   1      46.296  28.586  26.953  1.00  0.00     0.074 A 
ATOM     22  C   UNL A   1      46.022  28.196  25.600  1.00  0.00     0.031 C 
ATOM     23  C   UNL A   1      40.624  25.967  28.851  1.00  0.00     0.029 A 
ATOM     24  C   UNL A   1      41.071  27.317  29.151  1.00  0.00     0.049 A 
ATOM     25  H   UNL A   1      43.046  28.016  29.036  1.00  0.00     0.167 HD
ATOM     26  C   UNL A   1      46.751  29.761  27.465  1.00  0.00     0.037 A 
ATOM     27  C   UNL A   1      40.353  28.386  29.580  1.00  0.00     0.037 A 
ATOM     28  C   UNL A   1      46.885  29.672  28.897  1.00  0.00     0.049 A 
ATOM     29  C   UNL A   1      41.307  29.396  30.087  1.00  0.00     0.074 A 
ATOM     30  C   UNL A   1      47.667  28.978  29.794  1.00  0.00     0.029 A 
ATOM     31  N   UNL A   1      45.819  30.165  29.598  1.00  0.00    -0.354 N 
ATOM     32  N   UNL A   1      42.000  29.262  31.181  1.00  0.00    -0.248 NA
ATOM     33  C   UNL A   1      41.749  30.460  29.195  1.00  0.00     0.031 C 
ATOM     34  C   UNL A   1      46.871  28.833  30.971  1.00  0.00     0.029 A 
ATOM     35  C   UNL A   1      45.652  29.477  30.764  1.00  0.00     0.049 A 
ATOM     36  H   UNL A   1      45.252  30.914  29.304  1.00  0.00     0.167 HD
ATOM     37  C   UNL A   1      43.200  29.886  30.903  1.00  0.00     0.074 A 
ATOM     38  C   UNL A   1      42.918  30.755  29.767  1.00  0.00     0.031 C 
ATOM     39  C   UNL A   1      44.364  29.387  31.413  1.00  0.00     0.037 A 
BRANCH  26  40
ATOM     40  C   UNL A   1      46.531  31.113  26.791  1.00  0.00     0.064 A 
ATOM     41  C   UNL A   1      47.601  32.036  26.780  1.00  0.00     0.173 A 
ATOM     42  C   UNL A   1      45.261  31.668  26.512  1.00  0.00     0.173 A 
ATOM     43  F   UNL A   1      48.855  31.632  27.033  1.00  0.00    -0.203 F 
ATOM     44  C   UNL A   1      47.396  33.413  26.633  1.00  0.00     0.198 A 
ATOM     45  C   UNL A   1      45.068  33.036  26.317  1.00  0.00     0.198 A 
ATOM     46  F   UNL A   1      44.138  30.945  26.526  1.00  0.00    -0.203 F 
ATOM     47  F   UNL A   1      48.422  34.259  26.787  1.00  0.00    -0.200 F 
ATOM     48  C   UNL A   1      46.126  33.912  26.417  1.00  0.00     0.200 A 
ATOM     49  F   UNL A   1      43.825  33.502  26.126  1.00  0.00    -0.200 F 
ATOM     50  F   UNL A   1      45.912  35.233  26.356  1.00  0.00    -0.200 F 
ENDBRANCH  26  40
BRANCH  27  51
ATOM     51  C   UNL A   1      38.916  28.705  29.380  1.00  0.00     0.064 A 
ATOM     52  C   UNL A   1      38.053  28.888  30.478  1.00  0.00     0.173 A 
ATOM     53  C   UNL A   1      38.422  29.115  28.129  1.00  0.00     0.173 A 
ATOM     54  F   UNL A   1      38.454  28.566  31.716  1.00  0.00    -0.203 F 
ATOM     55  C   UNL A   1      36.792  29.480  30.333  1.00  0.00     0.198 A 
ATOM     56  C   UNL A   1      37.158  29.693  27.984  1.00  0.00     0.198 A 
ATOM     57  F   UNL A   1      39.190  29.055  27.032  1.00  0.00    -0.203 F 
ATOM     58  F   UNL A   1      36.031  29.704  31.413  1.00  0.00    -0.200 F 
ATOM     59  C   UNL A   1      36.351  29.892  29.087  1.00  0.00     0.200 A 
ATOM     60  F   UNL A   1      36.759  30.118  26.776  1.00  0.00    -0.200 F 
ATOM     61  F   UNL A   1      35.173  30.516  28.956  1.00  0.00    -0.200 F 
ENDBRANCH  27  51
BRANCH  39  62
ATOM     62  C   UNL A   1      44.263  28.535  32.641  1.00  0.00     0.064 A 
ATOM     63  C   UNL A   1      44.043  27.148  32.637  1.00  0.00     0.173 A 
ATOM     64  C   UNL A   1      44.465  29.159  33.880  1.00  0.00     0.173 A 
ATOM     65  F   UNL A   1      43.937  26.465  31.490  1.00  0.00    -0.203 F 
ATOM     66  C   UNL A   1      43.970  26.433  33.831  1.00  0.00     0.198 A 
ATOM     67  C   UNL A   1      44.436  28.434  35.065  1.00  0.00     0.198 A 
ATOM     68  F   UNL A   1      44.727  30.474  33.937  1.00  0.00    -0.203 F 
ATOM     69  F   UNL A   1      43.725  25.114  33.809  1.00  0.00    -0.200 F 
ATOM     70  C   UNL A   1      44.171  27.075  35.042  1.00  0.00     0.200 A 
ATOM     71  F   UNL A   1      44.680  29.052  36.229  1.00  0.00    -0.200 F 
ATOM     72  F   UNL A   1      44.132  26.380  36.187  1.00  0.00    -0.200 F 
ENDBRANCH  39  62
ENDBRANCH  13  14
ENDBRANCH   6   8
ENDBRANCH   3   4
ENDBRANCH   2   3
ENDBRANCH   1   2
BRANCH   1  73
ATOM     73  C   UNL A   1      40.824  21.972  26.511  1.00  0.00     0.002 C 
BRANCH  73  74
ATOM     74  C   UNL A   1      39.674  22.907  26.895  1.00  0.00     0.021 C 
BRANCH  74  75
ATOM     75  C   UNL A   1      38.360  22.638  26.168  1.00  0.00     0.116 C 
BRANCH  75  76
ATOM     76  N   UNL A   1      38.334  21.318  25.559  1.00  0.00    -0.352 N 
ATOM     77  C   UNL A   1      37.307  20.706  24.892  1.00  0.00     0.251 C 
ATOM     78  H   UNL A   1      39.166  20.796  25.635  1.00  0.00     0.163 HD
ATOM     79  O   UNL A   1      37.380  19.509  24.595  1.00  0.00    -0.269 OA
BRANCH  77  80
ATOM     80  C   UNL A   1      36.099  21.474  24.541  1.00  0.00     0.039 A 
ATOM     81  C   UNL A   1      36.236  22.647  23.800  1.00  0.00     0.014 A 
ATOM     82  C   UNL A   1      34.833  21.041  24.951  1.00  0.00     0.014 A 
ATOM     83  C   UNL A   1      35.097  23.356  23.417  1.00  0.00     0.005 A 
ATOM     84  C   UNL A   1      33.695  21.742  24.554  1.00  0.00     0.005 A 
ATOM     85  C   UNL A   1      33.812  22.909  23.780  1.00  0.00    -0.038 A 
BRANCH  85  86
ATOM     86  C   UNL A   1      32.604  23.740  23.388  1.00  0.00     0.081 C 
ATOM     87  C   UNL A   1      32.780  24.396  22.000  1.00  0.00     0.111 C 
ATOM     88  C   UNL A   1      32.398  24.758  24.449  1.00  0.00     0.093 A 
ATOM     89  C   UNL A   1      32.999  25.899  22.024  1.00  0.00     0.188 C 
ATOM     90  C   UNL A   1      32.433  26.105  24.164  1.00  0.00     0.164 A 
ATOM     91  N   UNL A   1      32.162  24.532  25.779  1.00  0.00    -0.238 NA
ATOM     92  N   UNL A   1      32.780  26.714  23.005  1.00  0.00    -0.198 NA
ATOM     93  N   UNL A   1      32.157  26.741  25.359  1.00  0.00    -0.283 N 
ATOM     94  C   UNL A   1      32.071  25.739  26.305  1.00  0.00     0.206 A 
BRANCH  89  95
ATOM     95  O   UNL A   1      33.424  26.414  20.854  1.00  0.00    -0.496 OA
ATOM     96  H   UNL A   1      32.805  26.768  20.247  1.00  0.00     0.294 HD
ENDBRANCH  89  95
BRANCH  93  97
ATOM     97  C   UNL A   1      31.962  28.126  25.567  1.00  0.00     0.050 A 
ATOM     98  C   UNL A   1      32.661  28.798  26.577  1.00  0.00     0.027 A 
ATOM     99  C   UNL A   1      31.052  28.819  24.757  1.00  0.00     0.047 A 
ATOM    100  C   UNL A   1      32.479  30.174  26.739  1.00  0.00     0.004 A 
ATOM    101  C   UNL A   1      30.842  30.179  24.965  1.00  0.00     0.043 A 
ATOM    102  C   UNL A   1      31.563  30.863  25.940  1.00  0.00     0.020 A 
ATOM    103  Cl  UNL A   1      29.669  31.016  24.023  1.00  0.00    -0.084 Cl
ENDBRANCH  93  97
ENDBRANCH  85  86
ENDBRANCH  77  80
ENDBRANCH  75  76
ENDBRANCH  74  75
ENDBRANCH  73  74
ENDBRANCH   1  73
TORSDOF 16
ENDMDL
