MODEL 1
REMARK VINA RESULT:     -12.5      0.000      0.000
REMARK SMILES CCC[NH+]1CCN(c2cc(C(=O)NCCCCCCNC(=O)c3ccc(-c4c5nc(c(-c6c(F)c(F)c(F)c(F)c6F)c6ccc([nH]6)c(-c6c(F)c(F)c(F)c(F)c6F)c6nc(c(-c7c(F)c(F)c(F)c(F)c7F)c7ccc4[nH]7)C=C6)C=C5)cc3)c3cc(NC(=O)c4ccc(F)cc4)ccc3n2)CC1
REMARK SMILES IDX 16 1 15 2 14 3 13 4 11 5 12 6 10 8 8 9 9 10 102 11 101 12
REMARK SMILES IDX 86 13 100 14 87 15 99 16 88 17 7 18 4 19 5 20 104 21 6 23
REMARK SMILES IDX 103 24 3 25 2 26 1 27 89 28 90 29 91 31 92 32 93 33 98 34
REMARK SMILES IDX 94 35 97 36 95 37 96 38 17 39 18 40 19 41 20 42 21 43 22 45
REMARK SMILES IDX 23 46 24 47 85 48 25 49 84 50 26 51 27 52 28 53 78 54 29 55
REMARK SMILES IDX 83 56 77 57 79 58 30 59 82 60 76 61 75 62 31 64 63 65 43 66
REMARK SMILES IDX 62 67 44 68 47 69 61 70 80 71 45 72 46 73 60 75 81 76 48 77
REMARK SMILES IDX 32 78 33 79 41 80 34 81 35 82 39 83 42 84 36 85 37 86 40 87
REMARK SMILES IDX 38 88 64 89 65 90 73 91 66 92 67 93 71 94 74 95 68 96 69 97
REMARK SMILES IDX 72 98 70 99 49 100 50 101 58 102 51 103 52 104 56 105 59 106
REMARK SMILES IDX 53 107 54 108 57 109 55 110
REMARK H PARENT 13 7 4 22 89 30 20 44 79 63 47 74
REMARK Flexibility Score: inf
ROOT
ATOM      1  C   UNL A   1      39.278  22.194  26.312  1.00  0.00     0.002 C 
ENDROOT
BRANCH   1   2
ATOM      2  C   UNL A   1      38.772  23.647  26.303  1.00  0.00     0.021 C 
BRANCH   2   3
ATOM      3  C   UNL A   1      37.370  23.973  25.769  1.00  0.00     0.116 C 
BRANCH   3   4
ATOM      4  N   UNL A   1      37.129  23.689  24.360  1.00  0.00    -0.352 N 
ATOM      5  C   UNL A   1      36.100  23.094  23.646  1.00  0.00     0.252 C 
ATOM      6  O   UNL A   1      36.258  23.052  22.422  1.00  0.00    -0.269 OA
ATOM      7  H   UNL A   1      37.867  23.990  23.781  1.00  0.00     0.163 HD
BRANCH   5   8
ATOM      8  C   UNL A   1      34.842  22.466  24.197  1.00  0.00     0.052 A 
ATOM      9  C   UNL A   1      33.837  20.423  25.057  1.00  0.00     0.130 A 
ATOM     10  C   UNL A   1      34.962  21.137  24.649  1.00  0.00     0.061 A 
ATOM     11  N   UNL A   1      32.648  21.039  25.189  1.00  0.00    -0.231 NA
ATOM     12  C   UNL A   1      32.493  22.282  24.731  1.00  0.00     0.074 A 
ATOM     13  C   UNL A   1      33.540  22.993  24.125  1.00  0.00     0.015 A 
ATOM     14  C   UNL A   1      31.223  22.850  24.773  1.00  0.00     0.031 A 
ATOM     15  C   UNL A   1      33.192  24.118  23.373  1.00  0.00     0.037 A 
ATOM     16  C   UNL A   1      30.921  24.034  24.090  1.00  0.00     0.028 A 
ATOM     17  C   UNL A   1      31.896  24.618  23.297  1.00  0.00     0.042 A 
BRANCH   9  18
ATOM     18  N   UNL A   1      33.874  19.055  25.212  1.00  0.00    -0.345 N 
ATOM     19  N   UNL A   1      33.146  16.493  23.919  1.00  0.00    -0.332 N 
ATOM     20  C   UNL A   1      32.153  17.396  24.571  1.00  0.00     0.284 C 
ATOM     21  C   UNL A   1      34.242  17.363  23.420  1.00  0.00     0.284 C 
ATOM     22  H   UNL A   1      32.747  15.978  23.133  1.00  0.00     0.348 HD
ATOM     23  C   UNL A   1      32.717  18.306  25.697  1.00  0.00     0.179 C 
ATOM     24  C   UNL A   1      34.888  18.282  24.479  1.00  0.00     0.179 C 
BRANCH  19  25
ATOM     25  C   UNL A   1      33.594  15.453  24.864  1.00  0.00     0.262 C 
BRANCH  25  26
ATOM     26  C   UNL A   1      32.500  14.519  25.407  1.00  0.00     0.058 C 
ATOM     27  C   UNL A   1      32.148  14.688  26.875  1.00  0.00     0.010 C 
ENDBRANCH  25  26
ENDBRANCH  19  25
ENDBRANCH   9  18
BRANCH  17  28
ATOM     28  N   UNL A   1      31.558  25.690  22.449  1.00  0.00    -0.322 N 
ATOM     29  C   UNL A   1      31.391  27.032  22.753  1.00  0.00     0.255 C 
ATOM     30  H   UNL A   1      31.420  25.451  21.504  1.00  0.00     0.170 HD
ATOM     31  O   UNL A   1      30.767  27.770  21.994  1.00  0.00    -0.269 OA
BRANCH  29  32
ATOM     32  C   UNL A   1      31.988  27.606  23.990  1.00  0.00     0.040 A 
ATOM     33  C   UNL A   1      31.200  27.666  25.144  1.00  0.00     0.017 A 
ATOM     34  C   UNL A   1      33.340  27.967  24.051  1.00  0.00     0.017 A 
ATOM     35  C   UNL A   1      31.780  27.965  26.377  1.00  0.00     0.040 A 
ATOM     36  C   UNL A   1      33.911  28.297  25.284  1.00  0.00     0.040 A 
ATOM     37  C   UNL A   1      33.133  28.270  26.437  1.00  0.00     0.123 A 
ATOM     38  F   UNL A   1      33.694  28.540  27.622  1.00  0.00    -0.207 F 
ENDBRANCH  29  32
ENDBRANCH  17  28
ENDBRANCH   5   8
ENDBRANCH   3   4
ENDBRANCH   2   3
ENDBRANCH   1   2
BRANCH   1  39
ATOM     39  C   UNL A   1      38.548  21.082  25.545  1.00  0.00     0.002 C 
BRANCH  39  40
ATOM     40  C   UNL A   1      39.210  19.715  25.376  1.00  0.00     0.021 C 
BRANCH  40  41
ATOM     41  C   UNL A   1      40.105  19.208  26.496  1.00  0.00     0.116 C 
BRANCH  41  42
ATOM     42  N   UNL A   1      41.432  18.824  26.050  1.00  0.00    -0.352 N 
ATOM     43  C   UNL A   1      42.555  19.587  25.834  1.00  0.00     0.251 C 
ATOM     44  H   UNL A   1      41.545  17.863  25.874  1.00  0.00     0.163 HD
ATOM     45  O   UNL A   1      43.535  19.061  25.308  1.00  0.00    -0.269 OA
BRANCH  43  46
ATOM     46  C   UNL A   1      42.634  21.022  26.223  1.00  0.00     0.039 A 
ATOM     47  C   UNL A   1      42.735  21.983  25.207  1.00  0.00     0.014 A 
ATOM     48  C   UNL A   1      42.722  21.436  27.556  1.00  0.00     0.014 A 
ATOM     49  C   UNL A   1      42.929  23.333  25.521  1.00  0.00     0.010 A 
ATOM     50  C   UNL A   1      42.834  22.792  27.873  1.00  0.00     0.010 A 
ATOM     51  C   UNL A   1      42.988  23.748  26.860  1.00  0.00    -0.014 A 
BRANCH  51  52
ATOM     52  C   UNL A   1      43.327  25.152  27.209  1.00  0.00     0.031 A 
ATOM     53  C   UNL A   1      44.702  25.686  26.899  1.00  0.00     0.074 A 
ATOM     54  C   UNL A   1      42.420  25.940  27.814  1.00  0.00     0.049 A 
ATOM     55  N   UNL A   1      45.203  26.877  27.119  1.00  0.00    -0.248 NA
ATOM     56  C   UNL A   1      45.654  24.745  26.284  1.00  0.00     0.031 C 
ATOM     57  C   UNL A   1      41.075  25.526  28.213  1.00  0.00     0.029 A 
ATOM     58  N   UNL A   1      42.493  27.255  28.201  1.00  0.00    -0.354 N 
ATOM     59  C   UNL A   1      46.524  26.818  26.688  1.00  0.00     0.074 A 
ATOM     60  C   UNL A   1      46.766  25.463  26.246  1.00  0.00     0.031 C 
ATOM     61  C   UNL A   1      40.440  26.573  28.766  1.00  0.00     0.029 A 
ATOM     62  C   UNL A   1      41.337  27.725  28.775  1.00  0.00     0.049 A 
ATOM     63  H   UNL A   1      43.298  27.809  28.078  1.00  0.00     0.167 HD
ATOM     64  C   UNL A   1      47.445  27.810  26.640  1.00  0.00     0.037 A 
ATOM     65  C   UNL A   1      41.035  28.952  29.242  1.00  0.00     0.037 A 
ATOM     66  C   UNL A   1      47.189  29.168  27.042  1.00  0.00     0.049 A 
ATOM     67  C   UNL A   1      42.058  30.051  29.130  1.00  0.00     0.074 A 
ATOM     68  C   UNL A   1      48.031  30.264  26.978  1.00  0.00     0.029 A 
ATOM     69  N   UNL A   1      45.991  29.614  27.578  1.00  0.00    -0.354 N 
ATOM     70  N   UNL A   1      43.280  30.000  28.659  1.00  0.00    -0.248 NA
ATOM     71  C   UNL A   1      41.649  31.384  29.596  1.00  0.00     0.031 C 
ATOM     72  C   UNL A   1      47.353  31.367  27.508  1.00  0.00     0.029 A 
ATOM     73  C   UNL A   1      46.074  30.968  27.861  1.00  0.00     0.049 A 
ATOM     74  H   UNL A   1      45.198  29.052  27.735  1.00  0.00     0.167 HD
ATOM     75  C   UNL A   1      43.779  31.292  28.750  1.00  0.00     0.074 A 
ATOM     76  C   UNL A   1      42.719  32.110  29.303  1.00  0.00     0.031 C 
ATOM     77  C   UNL A   1      45.005  31.762  28.410  1.00  0.00     0.037 A 
BRANCH  64  78
ATOM     78  C   UNL A   1      48.814  27.463  26.126  1.00  0.00     0.064 A 
ATOM     79  C   UNL A   1      49.106  27.456  24.753  1.00  0.00     0.173 A 
ATOM     80  C   UNL A   1      49.852  27.152  27.017  1.00  0.00     0.173 A 
ATOM     81  F   UNL A   1      48.146  27.733  23.858  1.00  0.00    -0.203 F 
ATOM     82  C   UNL A   1      50.376  27.121  24.291  1.00  0.00     0.198 A 
ATOM     83  C   UNL A   1      51.129  26.847  26.552  1.00  0.00     0.198 A 
ATOM     84  F   UNL A   1      49.630  27.147  28.339  1.00  0.00    -0.203 F 
ATOM     85  F   UNL A   1      50.616  27.070  22.973  1.00  0.00    -0.200 F 
ATOM     86  C   UNL A   1      51.388  26.823  25.191  1.00  0.00     0.200 A 
ATOM     87  F   UNL A   1      52.109  26.568  27.424  1.00  0.00    -0.200 F 
ATOM     88  F   UNL A   1      52.611  26.503  24.744  1.00  0.00    -0.200 F 
ENDBRANCH  64  78
BRANCH  65  89
ATOM     89  C   UNL A   1      39.687  29.215  29.808  1.00  0.00     0.064 A 
ATOM     90  C   UNL A   1      38.617  29.578  28.977  1.00  0.00     0.173 A 
ATOM     91  C   UNL A   1      39.436  29.097  31.182  1.00  0.00     0.173 A 
ATOM     92  F   UNL A   1      38.813  29.724  27.659  1.00  0.00    -0.203 F 
ATOM     93  C   UNL A   1      37.351  29.829  29.502  1.00  0.00     0.198 A 
ATOM     94  C   UNL A   1      38.163  29.324  31.703  1.00  0.00     0.198 A 
ATOM     95  F   UNL A   1      40.425  28.750  32.019  1.00  0.00    -0.203 F 
ATOM     96  F   UNL A   1      36.356  30.213  28.691  1.00  0.00    -0.200 F 
ATOM     97  C   UNL A   1      37.123  29.695  30.863  1.00  0.00     0.200 A 
ATOM     98  F   UNL A   1      37.944  29.183  33.016  1.00  0.00    -0.200 F 
ATOM     99  F   UNL A   1      35.905  29.931  31.367  1.00  0.00    -0.200 F 
ENDBRANCH  65  89
BRANCH  77 100
ATOM    100  C   UNL A   1      45.252  33.228  28.606  1.00  0.00     0.064 A 
ATOM    101  C   UNL A   1      45.852  33.721  29.774  1.00  0.00     0.173 A 
ATOM    102  C   UNL A   1      44.907  34.146  27.603  1.00  0.00     0.173 A 
ATOM    103  F   UNL A   1      46.186  32.883  30.766  1.00  0.00    -0.203 F 
ATOM    104  C   UNL A   1      46.068  35.085  29.944  1.00  0.00     0.198 A 
ATOM    105  C   UNL A   1      45.151  35.507  27.766  1.00  0.00     0.198 A 
ATOM    106  F   UNL A   1      44.340  33.723  26.464  1.00  0.00    -0.203 F 
ATOM    107  F   UNL A   1      46.594  35.540  31.090  1.00  0.00    -0.200 F 
ATOM    108  C   UNL A   1      45.722  35.976  28.938  1.00  0.00     0.200 A 
ATOM    109  F   UNL A   1      44.827  36.366  26.788  1.00  0.00    -0.200 F 
ATOM    110  F   UNL A   1      45.931  37.290  29.105  1.00  0.00    -0.200 F 
ENDBRANCH  77 100
ENDBRANCH  51  52
ENDBRANCH  43  46
ENDBRANCH  41  42
ENDBRANCH  40  41
ENDBRANCH  39  40
ENDBRANCH   1  39
TORSDOF 18
ENDMDL
MODEL 2
REMARK VINA RESULT:     -12.1      1.165      2.412
REMARK SMILES CCC[NH+]1CCN(c2cc(C(=O)NCCCCCCNC(=O)c3ccc(-c4c5nc(c(-c6c(F)c(F)c(F)c(F)c6F)c6ccc([nH]6)c(-c6c(F)c(F)c(F)c(F)c6F)c6nc(c(-c7c(F)c(F)c(F)c(F)c7F)c7ccc4[nH]7)C=C6)C=C5)cc3)c3cc(NC(=O)c4ccc(F)cc4)ccc3n2)CC1
REMARK SMILES IDX 16 1 15 2 14 3 13 4 11 5 12 6 10 8 8 9 9 10 102 11 101 12
REMARK SMILES IDX 86 13 100 14 87 15 99 16 88 17 7 18 4 19 5 20 104 21 6 23
REMARK SMILES IDX 103 24 3 25 2 26 1 27 89 28 90 29 91 31 92 32 93 33 98 34
REMARK SMILES IDX 94 35 97 36 95 37 96 38 17 39 18 40 19 41 20 42 21 43 22 45
REMARK SMILES IDX 23 46 24 47 85 48 25 49 84 50 26 51 27 52 28 53 78 54 29 55
REMARK SMILES IDX 83 56 77 57 79 58 30 59 82 60 76 61 75 62 31 64 63 65 43 66
REMARK SMILES IDX 62 67 44 68 47 69 61 70 80 71 45 72 46 73 60 75 81 76 48 77
REMARK SMILES IDX 32 78 33 79 41 80 34 81 35 82 39 83 42 84 36 85 37 86 40 87
REMARK SMILES IDX 38 88 64 89 65 90 73 91 66 92 67 93 71 94 74 95 68 96 69 97
REMARK SMILES IDX 72 98 70 99 49 100 50 101 58 102 51 103 52 104 56 105 59 106
REMARK SMILES IDX 53 107 54 108 57 109 55 110
REMARK H PARENT 13 7 4 22 89 30 20 44 79 63 47 74
REMARK Flexibility Score: inf
ROOT
ATOM      1  C   UNL A   1      40.069  22.594  26.880  1.00  0.00     0.002 C 
ENDROOT
BRANCH   1   2
ATOM      2  C   UNL A   1      38.780  22.223  26.126  1.00  0.00     0.021 C 
BRANCH   2   3
ATOM      3  C   UNL A   1      37.773  23.314  25.735  1.00  0.00     0.116 C 
BRANCH   3   4
ATOM      4  N   UNL A   1      37.386  23.368  24.331  1.00  0.00    -0.352 N 
ATOM      5  C   UNL A   1      36.239  23.043  23.622  1.00  0.00     0.252 C 
ATOM      6  O   UNL A   1      36.289  23.253  22.406  1.00  0.00    -0.269 OA
ATOM      7  H   UNL A   1      38.103  23.714  23.752  1.00  0.00     0.163 HD
BRANCH   5   8
ATOM      8  C   UNL A   1      34.966  22.435  24.160  1.00  0.00     0.052 A 
ATOM      9  C   UNL A   1      33.926  20.411  25.025  1.00  0.00     0.130 A 
ATOM     10  C   UNL A   1      35.065  21.109  24.626  1.00  0.00     0.061 A 
ATOM     11  N   UNL A   1      32.742  21.041  25.134  1.00  0.00    -0.231 NA
ATOM     12  C   UNL A   1      32.608  22.281  24.662  1.00  0.00     0.074 A 
ATOM     13  C   UNL A   1      33.672  22.975  24.065  1.00  0.00     0.015 A 
ATOM     14  C   UNL A   1      31.344  22.864  24.681  1.00  0.00     0.031 A 
ATOM     15  C   UNL A   1      33.346  24.097  23.298  1.00  0.00     0.037 A 
ATOM     16  C   UNL A   1      31.064  24.044  23.984  1.00  0.00     0.028 A 
ATOM     17  C   UNL A   1      32.057  24.610  23.199  1.00  0.00     0.042 A 
BRANCH   9  18
ATOM     18  N   UNL A   1      33.946  19.043  25.193  1.00  0.00    -0.345 N 
ATOM     19  N   UNL A   1      32.839  16.502  24.154  1.00  0.00    -0.332 N 
ATOM     20  C   UNL A   1      32.061  17.452  25.002  1.00  0.00     0.284 C 
ATOM     21  C   UNL A   1      33.821  17.321  23.397  1.00  0.00     0.284 C 
ATOM     22  H   UNL A   1      32.248  15.996  23.493  1.00  0.00     0.348 HD
ATOM     23  C   UNL A   1      32.906  18.349  25.948  1.00  0.00     0.179 C 
ATOM     24  C   UNL A   1      34.731  18.222  24.259  1.00  0.00     0.179 C 
BRANCH  19  25
ATOM     25  C   UNL A   1      33.454  15.453  24.988  1.00  0.00     0.262 C 
BRANCH  25  26
ATOM     26  C   UNL A   1      34.951  15.194  24.751  1.00  0.00     0.058 C 
ATOM     27  C   UNL A   1      35.903  15.828  25.751  1.00  0.00     0.010 C 
ENDBRANCH  25  26
ENDBRANCH  19  25
ENDBRANCH   9  18
BRANCH  17  28
ATOM     28  N   UNL A   1      31.743  25.677  22.337  1.00  0.00    -0.322 N 
ATOM     29  C   UNL A   1      31.539  27.016  22.633  1.00  0.00     0.255 C 
ATOM     30  H   UNL A   1      31.657  25.439  21.386  1.00  0.00     0.170 HD
ATOM     31  O   UNL A   1      30.940  27.745  21.845  1.00  0.00    -0.269 OA
BRANCH  29  32
ATOM     32  C   UNL A   1      32.064  27.598  23.898  1.00  0.00     0.040 A 
ATOM     33  C   UNL A   1      31.244  27.575  25.033  1.00  0.00     0.017 A 
ATOM     34  C   UNL A   1      33.386  28.048  24.005  1.00  0.00     0.017 A 
ATOM     35  C   UNL A   1      31.771  27.882  26.287  1.00  0.00     0.040 A 
ATOM     36  C   UNL A   1      33.902  28.385  25.259  1.00  0.00     0.040 A 
ATOM     37  C   UNL A   1      33.099  28.276  26.391  1.00  0.00     0.123 A 
ATOM     38  F   UNL A   1      33.610  28.553  27.596  1.00  0.00    -0.207 F 
ENDBRANCH  29  32
ENDBRANCH  17  28
ENDBRANCH   5   8
ENDBRANCH   3   4
ENDBRANCH   2   3
ENDBRANCH   1   2
BRANCH   1  39
ATOM     39  C   UNL A   1      41.333  21.726  26.792  1.00  0.00     0.002 C 
BRANCH  39  40
ATOM     40  C   UNL A   1      41.267  20.352  26.127  1.00  0.00     0.021 C 
BRANCH  40  41
ATOM     41  C   UNL A   1      42.314  19.318  26.509  1.00  0.00     0.116 C 
BRANCH  41  42
ATOM     42  N   UNL A   1      43.154  18.905  25.401  1.00  0.00    -0.352 N 
ATOM     43  C   UNL A   1      44.033  19.629  24.630  1.00  0.00     0.251 C 
ATOM     44  H   UNL A   1      43.084  17.953  25.164  1.00  0.00     0.163 HD
ATOM     45  O   UNL A   1      44.530  19.095  23.640  1.00  0.00    -0.269 OA
BRANCH  43  46
ATOM     46  C   UNL A   1      44.414  21.031  24.956  1.00  0.00     0.039 A 
ATOM     47  C   UNL A   1      45.151  21.267  26.125  1.00  0.00     0.014 A 
ATOM     48  C   UNL A   1      43.971  22.124  24.204  1.00  0.00     0.014 A 
ATOM     49  C   UNL A   1      45.432  22.575  26.536  1.00  0.00     0.010 A 
ATOM     50  C   UNL A   1      44.320  23.426  24.568  1.00  0.00     0.010 A 
ATOM     51  C   UNL A   1      45.011  23.667  25.764  1.00  0.00    -0.014 A 
BRANCH  51  52
ATOM     52  C   UNL A   1      45.184  25.060  26.253  1.00  0.00     0.031 A 
ATOM     53  C   UNL A   1      46.537  25.719  26.163  1.00  0.00     0.074 A 
ATOM     54  C   UNL A   1      44.146  25.725  26.791  1.00  0.00     0.049 A 
ATOM     55  N   UNL A   1      46.905  26.921  26.530  1.00  0.00    -0.248 NA
ATOM     56  C   UNL A   1      47.633  24.904  25.611  1.00  0.00     0.031 C 
ATOM     57  C   UNL A   1      42.802  25.181  26.982  1.00  0.00     0.029 A 
ATOM     58  N   UNL A   1      44.060  27.007  27.277  1.00  0.00    -0.354 N 
ATOM     59  C   UNL A   1      48.269  26.997  26.271  1.00  0.00     0.074 A 
ATOM     60  C   UNL A   1      48.677  25.704  25.768  1.00  0.00     0.031 C 
ATOM     61  C   UNL A   1      42.018  26.129  27.522  1.00  0.00     0.029 A 
ATOM     62  C   UNL A   1      42.807  27.340  27.729  1.00  0.00     0.049 A 
ATOM     63  H   UNL A   1      44.824  27.627  27.299  1.00  0.00     0.167 HD
ATOM     64  C   UNL A   1      49.102  28.055  26.413  1.00  0.00     0.037 A 
ATOM     65  C   UNL A   1      42.347  28.499  28.239  1.00  0.00     0.037 A 
ATOM     66  C   UNL A   1      48.685  29.353  26.875  1.00  0.00     0.049 A 
ATOM     67  C   UNL A   1      43.279  29.677  28.339  1.00  0.00     0.074 A 
ATOM     68  C   UNL A   1      49.433  30.510  27.000  1.00  0.00     0.029 A 
ATOM     69  N   UNL A   1      47.396  29.663  27.283  1.00  0.00    -0.354 N 
ATOM     70  N   UNL A   1      44.550  29.756  28.029  1.00  0.00    -0.248 NA
ATOM     71  C   UNL A   1      42.706  30.933  28.844  1.00  0.00     0.031 C 
ATOM     72  C   UNL A   1      48.604  31.513  27.515  1.00  0.00     0.029 A 
ATOM     73  C   UNL A   1      47.330  30.991  27.670  1.00  0.00     0.049 A 
ATOM     74  H   UNL A   1      46.640  29.032  27.295  1.00  0.00     0.167 HD
ATOM     75  C   UNL A   1      44.923  31.070  28.275  1.00  0.00     0.074 A 
ATOM     76  C   UNL A   1      43.738  31.758  28.744  1.00  0.00     0.031 C 
ATOM     77  C   UNL A   1      46.138  31.656  28.131  1.00  0.00     0.037 A 
BRANCH  64  78
ATOM     78  C   UNL A   1      50.548  27.854  26.058  1.00  0.00     0.064 A 
ATOM     79  C   UNL A   1      51.513  27.564  27.036  1.00  0.00     0.173 A 
ATOM     80  C   UNL A   1      50.972  27.931  24.723  1.00  0.00     0.173 A 
ATOM     81  F   UNL A   1      51.163  27.491  28.328  1.00  0.00    -0.203 F 
ATOM     82  C   UNL A   1      52.852  27.391  26.694  1.00  0.00     0.198 A 
ATOM     83  C   UNL A   1      52.307  27.729  24.381  1.00  0.00     0.198 A 
ATOM     84  F   UNL A   1      50.092  28.202  23.748  1.00  0.00    -0.203 F 
ATOM     85  F   UNL A   1      53.763  27.168  27.651  1.00  0.00    -0.200 F 
ATOM     86  C   UNL A   1      53.247  27.468  25.366  1.00  0.00     0.200 A 
ATOM     87  F   UNL A   1      52.686  27.793  23.096  1.00  0.00    -0.200 F 
ATOM     88  F   UNL A   1      54.536  27.299  25.039  1.00  0.00    -0.200 F 
ENDBRANCH  64  78
BRANCH  65  89
ATOM     89  C   UNL A   1      40.922  28.613  28.644  1.00  0.00     0.064 A 
ATOM     90  C   UNL A   1      40.521  28.317  29.954  1.00  0.00     0.173 A 
ATOM     91  C   UNL A   1      39.937  29.031  27.738  1.00  0.00     0.173 A 
ATOM     92  F   UNL A   1      41.423  27.894  30.851  1.00  0.00    -0.203 F 
ATOM     93  C   UNL A   1      39.185  28.420  30.339  1.00  0.00     0.198 A 
ATOM     94  C   UNL A   1      38.606  29.157  28.130  1.00  0.00     0.198 A 
ATOM     95  F   UNL A   1      40.270  29.328  26.473  1.00  0.00    -0.203 F 
ATOM     96  F   UNL A   1      38.823  28.093  31.586  1.00  0.00    -0.200 F 
ATOM     97  C   UNL A   1      38.230  28.846  29.429  1.00  0.00     0.200 A 
ATOM     98  F   UNL A   1      37.688  29.580  27.251  1.00  0.00    -0.200 F 
ATOM     99  F   UNL A   1      36.947  28.950  29.800  1.00  0.00    -0.200 F 
ENDBRANCH  65  89
BRANCH  77 100
ATOM    100  C   UNL A   1      46.234  33.115  28.462  1.00  0.00     0.064 A 
ATOM    101  C   UNL A   1      46.005  34.104  27.493  1.00  0.00     0.173 A 
ATOM    102  C   UNL A   1      46.534  33.529  29.768  1.00  0.00     0.173 A 
ATOM    103  F   UNL A   1      45.728  33.756  26.228  1.00  0.00    -0.203 F 
ATOM    104  C   UNL A   1      46.105  35.454  27.814  1.00  0.00     0.198 A 
ATOM    105  C   UNL A   1      46.606  34.881  30.091  1.00  0.00     0.198 A 
ATOM    106  F   UNL A   1      46.752  32.623  30.732  1.00  0.00    -0.203 F 
ATOM    107  F   UNL A   1      45.934  36.381  26.861  1.00  0.00    -0.200 F 
ATOM    108  C   UNL A   1      46.400  35.842  29.113  1.00  0.00     0.200 A 
ATOM    109  F   UNL A   1      46.879  35.255  31.349  1.00  0.00    -0.200 F 
ATOM    110  F   UNL A   1      46.496  37.143  29.419  1.00  0.00    -0.200 F 
ENDBRANCH  77 100
ENDBRANCH  51  52
ENDBRANCH  43  46
ENDBRANCH  41  42
ENDBRANCH  40  41
ENDBRANCH  39  40
ENDBRANCH   1  39
TORSDOF 18
ENDMDL
MODEL 3
REMARK VINA RESULT:     -12.0      4.925     11.156
REMARK SMILES CCC[NH+]1CCN(c2cc(C(=O)NCCCCCCNC(=O)c3ccc(-c4c5nc(c(-c6c(F)c(F)c(F)c(F)c6F)c6ccc([nH]6)c(-c6c(F)c(F)c(F)c(F)c6F)c6nc(c(-c7c(F)c(F)c(F)c(F)c7F)c7ccc4[nH]7)C=C6)C=C5)cc3)c3cc(NC(=O)c4ccc(F)cc4)ccc3n2)CC1
REMARK SMILES IDX 16 1 15 2 14 3 13 4 11 5 12 6 10 8 8 9 9 10 102 11 101 12
REMARK SMILES IDX 86 13 100 14 87 15 99 16 88 17 7 18 4 19 5 20 104 21 6 23
REMARK SMILES IDX 103 24 3 25 2 26 1 27 89 28 90 29 91 31 92 32 93 33 98 34
REMARK SMILES IDX 94 35 97 36 95 37 96 38 17 39 18 40 19 41 20 42 21 43 22 45
REMARK SMILES IDX 23 46 24 47 85 48 25 49 84 50 26 51 27 52 28 53 78 54 29 55
REMARK SMILES IDX 83 56 77 57 79 58 30 59 82 60 76 61 75 62 31 64 63 65 43 66
REMARK SMILES IDX 62 67 44 68 47 69 61 70 80 71 45 72 46 73 60 75 81 76 48 77
REMARK SMILES IDX 32 78 33 79 41 80 34 81 35 82 39 83 42 84 36 85 37 86 40 87
REMARK SMILES IDX 38 88 64 89 65 90 73 91 66 92 67 93 71 94 74 95 68 96 69 97
REMARK SMILES IDX 72 98 70 99 49 100 50 101 58 102 51 103 52 104 56 105 59 106
REMARK SMILES IDX 53 107 54 108 57 109 55 110
REMARK H PARENT 13 7 4 22 89 30 20 44 79 63 47 74
REMARK Flexibility Score: inf
ROOT
ATOM      1  C   UNL A   1      32.185  30.104  26.010  1.00  0.00     0.002 C 
ENDROOT
BRANCH   1   2
ATOM      2  C   UNL A   1      32.449  29.353  27.327  1.00  0.00     0.021 C 
BRANCH   2   3
ATOM      3  C   UNL A   1      32.794  27.857  27.306  1.00  0.00     0.116 C 
BRANCH   3   4
ATOM      4  N   UNL A   1      31.668  26.931  27.306  1.00  0.00    -0.352 N 
ATOM      5  C   UNL A   1      30.931  26.291  26.320  1.00  0.00     0.252 C 
ATOM      6  O   UNL A   1      30.036  25.543  26.728  1.00  0.00    -0.269 OA
ATOM      7  H   UNL A   1      31.359  26.708  28.213  1.00  0.00     0.163 HD
BRANCH   5   8
ATOM      8  C   UNL A   1      31.078  26.433  24.824  1.00  0.00     0.052 A 
ATOM      9  C   UNL A   1      30.447  27.738  22.868  1.00  0.00     0.130 A 
ATOM     10  C   UNL A   1      30.481  27.574  24.252  1.00  0.00     0.061 A 
ATOM     11  N   UNL A   1      31.128  26.901  22.065  1.00  0.00    -0.231 NA
ATOM     12  C   UNL A   1      31.667  25.791  22.571  1.00  0.00     0.074 A 
ATOM     13  C   UNL A   1      31.568  25.463  23.932  1.00  0.00     0.015 A 
ATOM     14  C   UNL A   1      32.263  24.885  21.698  1.00  0.00     0.031 A 
ATOM     15  C   UNL A   1      31.842  24.140  24.288  1.00  0.00     0.037 A 
ATOM     16  C   UNL A   1      32.619  23.594  22.103  1.00  0.00     0.028 A 
ATOM     17  C   UNL A   1      32.309  23.185  23.390  1.00  0.00     0.042 A 
BRANCH   9  18
ATOM     18  N   UNL A   1      29.622  28.669  22.277  1.00  0.00    -0.345 N 
ATOM     19  N   UNL A   1      28.058  31.130  22.792  1.00  0.00    -0.332 N 
ATOM     20  C   UNL A   1      27.627  29.772  23.238  1.00  0.00     0.284 C 
ATOM     21  C   UNL A   1      29.543  31.111  22.766  1.00  0.00     0.284 C 
ATOM     22  H   UNL A   1      27.746  31.865  23.427  1.00  0.00     0.348 HD
ATOM     23  C   UNL A   1      28.168  28.588  22.392  1.00  0.00     0.179 C 
ATOM     24  C   UNL A   1      30.174  29.985  21.919  1.00  0.00     0.179 C 
BRANCH  19  25
ATOM     25  C   UNL A   1      27.442  31.464  21.495  1.00  0.00     0.262 C 
BRANCH  25  26
ATOM     26  C   UNL A   1      27.896  32.786  20.854  1.00  0.00     0.058 C 
ATOM     27  C   UNL A   1      28.158  32.745  19.358  1.00  0.00     0.010 C 
ENDBRANCH  25  26
ENDBRANCH  19  25
ENDBRANCH   9  18
BRANCH  17  28
ATOM     28  N   UNL A   1      32.477  21.836  23.755  1.00  0.00    -0.322 N 
ATOM     29  C   UNL A   1      33.617  21.177  24.184  1.00  0.00     0.255 C 
ATOM     30  H   UNL A   1      31.666  21.281  23.698  1.00  0.00     0.170 HD
ATOM     31  O   UNL A   1      33.687  19.951  24.129  1.00  0.00    -0.269 OA
BRANCH  29  32
ATOM     32  C   UNL A   1      34.766  21.941  24.743  1.00  0.00     0.040 A 
ATOM     33  C   UNL A   1      35.781  22.350  23.870  1.00  0.00     0.017 A 
ATOM     34  C   UNL A   1      34.789  22.357  26.080  1.00  0.00     0.017 A 
ATOM     35  C   UNL A   1      36.744  23.266  24.293  1.00  0.00     0.040 A 
ATOM     36  C   UNL A   1      35.775  23.251  26.509  1.00  0.00     0.040 A 
ATOM     37  C   UNL A   1      36.728  23.715  25.607  1.00  0.00     0.123 A 
ATOM     38  F   UNL A   1      37.641  24.607  26.009  1.00  0.00    -0.207 F 
ENDBRANCH  29  32
ENDBRANCH  17  28
ENDBRANCH   5   8
ENDBRANCH   3   4
ENDBRANCH   2   3
ENDBRANCH   1   2
BRANCH   1  39
ATOM     39  C   UNL A   1      31.055  31.135  25.882  1.00  0.00     0.002 C 
BRANCH  39  40
ATOM     40  C   UNL A   1      31.203  32.510  26.532  1.00  0.00     0.021 C 
BRANCH  40  41
ATOM     41  C   UNL A   1      32.597  32.974  26.920  1.00  0.00     0.116 C 
BRANCH  41  42
ATOM     42  N   UNL A   1      32.605  34.175  27.734  1.00  0.00    -0.352 N 
ATOM     43  C   UNL A   1      33.414  34.534  28.786  1.00  0.00     0.251 C 
ATOM     44  H   UNL A   1      31.919  34.839  27.494  1.00  0.00     0.163 HD
ATOM     45  O   UNL A   1      33.136  35.547  29.428  1.00  0.00    -0.269 OA
BRANCH  43  46
ATOM     46  C   UNL A   1      34.620  33.750  29.171  1.00  0.00     0.039 A 
ATOM     47  C   UNL A   1      34.438  32.556  29.884  1.00  0.00     0.014 A 
ATOM     48  C   UNL A   1      35.920  34.212  28.948  1.00  0.00     0.014 A 
ATOM     49  C   UNL A   1      35.539  31.843  30.371  1.00  0.00     0.010 A 
ATOM     50  C   UNL A   1      37.022  33.461  29.361  1.00  0.00     0.010 A 
ATOM     51  C   UNL A   1      36.844  32.296  30.120  1.00  0.00    -0.014 A 
BRANCH  51  52
ATOM     52  C   UNL A   1      38.016  31.626  30.741  1.00  0.00     0.031 A 
ATOM     53  C   UNL A   1      38.406  31.969  32.156  1.00  0.00     0.074 A 
ATOM     54  C   UNL A   1      38.738  30.733  30.042  1.00  0.00     0.049 A 
ATOM     55  N   UNL A   1      39.390  31.504  32.886  1.00  0.00    -0.248 NA
ATOM     56  C   UNL A   1      37.597  32.996  32.835  1.00  0.00     0.031 C 
ATOM     57  C   UNL A   1      38.495  30.355  28.650  1.00  0.00     0.029 A 
ATOM     58  N   UNL A   1      39.827  29.979  30.407  1.00  0.00    -0.354 N 
ATOM     59  C   UNL A   1      39.327  32.193  34.092  1.00  0.00     0.074 A 
ATOM     60  C   UNL A   1      38.245  33.145  33.980  1.00  0.00     0.031 C 
ATOM     61  C   UNL A   1      39.391  29.423  28.286  1.00  0.00     0.029 A 
ATOM     62  C   UNL A   1      40.281  29.150  29.411  1.00  0.00     0.049 A 
ATOM     63  H   UNL A   1      40.242  30.029  31.298  1.00  0.00     0.167 HD
ATOM     64  C   UNL A   1      40.083  32.027  35.203  1.00  0.00     0.037 A 
ATOM     65  C   UNL A   1      41.293  28.261  29.415  1.00  0.00     0.037 A 
ATOM     66  C   UNL A   1      41.133  31.050  35.327  1.00  0.00     0.049 A 
ATOM     67  C   UNL A   1      42.086  28.058  30.678  1.00  0.00     0.074 A 
ATOM     68  C   UNL A   1      41.920  30.758  36.426  1.00  0.00     0.029 A 
ATOM     69  N   UNL A   1      41.534  30.198  34.308  1.00  0.00    -0.354 N 
ATOM     70  N   UNL A   1      41.974  28.667  31.833  1.00  0.00    -0.248 NA
ATOM     71  C   UNL A   1      43.136  27.030  30.642  1.00  0.00     0.031 C 
ATOM     72  C   UNL A   1      42.821  29.751  36.063  1.00  0.00     0.029 A 
ATOM     73  C   UNL A   1      42.566  29.387  34.751  1.00  0.00     0.049 A 
ATOM     74  H   UNL A   1      41.143  30.174  33.405  1.00  0.00     0.167 HD
ATOM     75  C   UNL A   1      42.916  28.083  32.667  1.00  0.00     0.074 A 
ATOM     76  C   UNL A   1      43.580  27.057  31.890  1.00  0.00     0.031 C 
ATOM     77  C   UNL A   1      43.211  28.370  33.959  1.00  0.00     0.037 A 
BRANCH  64  78
ATOM     78  C   UNL A   1      39.797  32.921  36.377  1.00  0.00     0.064 A 
ATOM     79  C   UNL A   1      38.850  32.572  37.354  1.00  0.00     0.173 A 
ATOM     80  C   UNL A   1      40.491  34.129  36.540  1.00  0.00     0.173 A 
ATOM     81  F   UNL A   1      38.150  31.435  37.240  1.00  0.00    -0.203 F 
ATOM     82  C   UNL A   1      38.587  33.415  38.431  1.00  0.00     0.198 A 
ATOM     83  C   UNL A   1      40.246  34.955  37.634  1.00  0.00     0.198 A 
ATOM     84  F   UNL A   1      41.409  34.509  35.639  1.00  0.00    -0.203 F 
ATOM     85  F   UNL A   1      37.642  33.086  39.322  1.00  0.00    -0.200 F 
ATOM     86  C   UNL A   1      39.289  34.603  38.574  1.00  0.00     0.200 A 
ATOM     87  F   UNL A   1      40.933  36.098  37.777  1.00  0.00    -0.200 F 
ATOM     88  F   UNL A   1      39.037  35.412  39.612  1.00  0.00    -0.200 F 
ENDBRANCH  64  78
BRANCH  65  89
ATOM     89  C   UNL A   1      41.575  27.459  28.196  1.00  0.00     0.064 A 
ATOM     90  C   UNL A   1      42.538  27.879  27.267  1.00  0.00     0.173 A 
ATOM     91  C   UNL A   1      40.901  26.257  27.941  1.00  0.00     0.173 A 
ATOM     92  F   UNL A   1      43.194  29.032  27.457  1.00  0.00    -0.203 F 
ATOM     93  C   UNL A   1      42.805  27.132  26.121  1.00  0.00     0.198 A 
ATOM     94  C   UNL A   1      41.187  25.499  26.806  1.00  0.00     0.198 A 
ATOM     95  F   UNL A   1      39.972  25.811  28.800  1.00  0.00    -0.203 F 
ATOM     96  F   UNL A   1      43.702  27.576  25.230  1.00  0.00    -0.200 F 
ATOM     97  C   UNL A   1      42.135  25.941  25.895  1.00  0.00     0.200 A 
ATOM     98  F   UNL A   1      40.545  24.342  26.597  1.00  0.00    -0.200 F 
ATOM     99  F   UNL A   1      42.395  25.220  24.796  1.00  0.00    -0.200 F 
ENDBRANCH  65  89
BRANCH  77 100
ATOM    100  C   UNL A   1      44.279  27.547  34.615  1.00  0.00     0.064 A 
ATOM    101  C   UNL A   1      45.620  27.959  34.622  1.00  0.00     0.173 A 
ATOM    102  C   UNL A   1      43.953  26.347  35.263  1.00  0.00     0.173 A 
ATOM    103  F   UNL A   1      45.982  29.092  34.005  1.00  0.00    -0.203 F 
ATOM    104  C   UNL A   1      46.602  27.180  35.229  1.00  0.00     0.198 A 
ATOM    105  C   UNL A   1      44.934  25.585  35.892  1.00  0.00     0.198 A 
ATOM    106  F   UNL A   1      42.684  25.915  35.291  1.00  0.00    -0.203 F 
ATOM    107  F   UNL A   1      47.884  27.565  35.179  1.00  0.00    -0.200 F 
ATOM    108  C   UNL A   1      46.258  25.997  35.867  1.00  0.00     0.200 A 
ATOM    109  F   UNL A   1      44.598  24.448  36.518  1.00  0.00    -0.200 F 
ATOM    110  F   UNL A   1      47.205  25.249  36.449  1.00  0.00    -0.200 F 
ENDBRANCH  77 100
ENDBRANCH  51  52
ENDBRANCH  43  46
ENDBRANCH  41  42
ENDBRANCH  40  41
ENDBRANCH  39  40
ENDBRANCH   1  39
TORSDOF 18
ENDMDL
