MODEL 1
REMARK VINA RESULT:     -13.1      0.000      0.000
REMARK SMILES Cc1cc2cc(-c3ccc([C@@H](C)C(=O)NCCCCCCNC(=O)c4ccc(-c5c6nc(c(-c7c(F)c(F)c(F)c(F)c7F)c7ccc([nH]7)c(-c7c(F)c(F)c(F)c(F)c7F)c7nc(c(-c8c(F)c(F)c(F)c(F)c8F)c8ccc5[nH]8)C=C7)C=C6)cc4)cc3)ccc2[nH]1
REMARK SMILES IDX 18 1 17 2 16 3 15 4 13 5 14 6 11 8 12 9 10 10 7 11 8 12
REMARK SMILES IDX 89 13 9 14 88 15 6 16 1 17 2 18 3 19 93 20 4 21 92 22 5 24
REMARK SMILES IDX 91 25 90 26 19 27 20 28 21 29 22 30 23 31 24 33 25 34 26 35
REMARK SMILES IDX 87 36 27 37 86 38 28 39 29 40 30 41 80 42 31 43 85 44 79 45
REMARK SMILES IDX 81 46 32 47 84 48 78 49 77 50 33 52 65 53 45 54 64 55 46 56
REMARK SMILES IDX 49 57 63 58 82 59 47 60 48 61 62 63 83 64 50 65 34 66 35 67
REMARK SMILES IDX 43 68 36 69 37 70 41 71 44 72 38 73 39 74 42 75 40 76 66 77
REMARK SMILES IDX 67 78 75 79 68 80 69 81 73 82 76 83 70 84 71 85 74 86 72 87
REMARK SMILES IDX 51 88 52 89 60 90 53 91 54 92 58 93 61 94 55 95 56 96 59 97
REMARK SMILES IDX 57 98
REMARK H PARENT 15 7 93 23 22 32 81 51 49 62
REMARK Flexibility Score: inf
ROOT
ATOM      1  C   UNL A   1      33.840  25.782  24.963  1.00  0.00     0.002 C 
ENDROOT
BRANCH   1   2
ATOM      2  C   UNL A   1      35.029  24.884  25.326  1.00  0.00     0.021 C 
BRANCH   2   3
ATOM      3  C   UNL A   1      34.684  23.395  25.392  1.00  0.00     0.116 C 
BRANCH   3   4
ATOM      4  N   UNL A   1      34.152  23.021  26.686  1.00  0.00    -0.356 N 
ATOM      5  C   UNL A   1      32.928  22.564  27.065  1.00  0.00     0.227 C 
ATOM      6  O   UNL A   1      32.752  22.410  28.281  1.00  0.00    -0.274 OA
ATOM      7  H   UNL A   1      34.794  23.115  27.426  1.00  0.00     0.163 HD
BRANCH   5   8
ATOM      8  C   UNL A   1      31.798  22.225  26.081  1.00  0.00     0.105 C 
ATOM      9  C   UNL A   1      32.149  21.113  25.091  1.00  0.00     0.023 C 
BRANCH   8  10
ATOM     10  C   UNL A   1      31.120  23.451  25.490  1.00  0.00    -0.036 A 
ATOM     11  C   UNL A   1      29.768  25.676  24.310  1.00  0.00    -0.018 A 
ATOM     12  C   UNL A   1      29.871  25.524  25.702  1.00  0.00     0.009 A 
ATOM     13  C   UNL A   1      30.373  24.691  23.517  1.00  0.00     0.009 A 
ATOM     14  C   UNL A   1      30.563  24.457  26.279  1.00  0.00     0.005 A 
ATOM     15  C   UNL A   1      31.022  23.590  24.096  1.00  0.00     0.005 A 
BRANCH  11  16
ATOM     16  C   UNL A   1      29.049  26.838  23.738  1.00  0.00    -0.018 A 
ATOM     17  C   UNL A   1      28.385  32.323  21.078  1.00  0.00     0.064 C 
ATOM     18  C   UNL A   1      28.480  30.986  21.711  1.00  0.00     0.013 A 
ATOM     19  C   UNL A   1      29.571  30.168  21.912  1.00  0.00     0.031 A 
ATOM     20  N   UNL A   1      27.382  30.336  22.220  1.00  0.00    -0.359 N 
ATOM     21  C   UNL A   1      29.121  28.998  22.577  1.00  0.00     0.000 A 
ATOM     22  C   UNL A   1      27.749  29.126  22.766  1.00  0.00     0.046 A 
ATOM     23  H   UNL A   1      26.461  30.684  22.198  1.00  0.00     0.166 HD
ATOM     24  C   UNL A   1      29.763  27.838  23.046  1.00  0.00     0.019 A 
ATOM     25  C   UNL A   1      26.989  28.143  23.407  1.00  0.00     0.027 A 
ATOM     26  C   UNL A   1      27.664  27.012  23.895  1.00  0.00     0.011 A 
ENDBRANCH  11  16
ENDBRANCH   8  10
ENDBRANCH   5   8
ENDBRANCH   3   4
ENDBRANCH   2   3
ENDBRANCH   1   2
BRANCH   1  27
ATOM     27  C   UNL A   1      33.413  26.775  26.052  1.00  0.00     0.002 C 
BRANCH  27  28
ATOM     28  C   UNL A   1      32.600  27.980  25.568  1.00  0.00     0.021 C 
BRANCH  28  29
ATOM     29  C   UNL A   1      33.431  29.198  25.172  1.00  0.00     0.116 C 
BRANCH  29  30
ATOM     30  N   UNL A   1      32.864  30.433  25.686  1.00  0.00    -0.352 N 
ATOM     31  C   UNL A   1      33.194  31.154  26.806  1.00  0.00     0.251 C 
ATOM     32  H   UNL A   1      32.132  30.812  25.147  1.00  0.00     0.163 HD
ATOM     33  O   UNL A   1      32.461  32.057  27.196  1.00  0.00    -0.269 OA
BRANCH  31  34
ATOM     34  C   UNL A   1      34.430  30.843  27.558  1.00  0.00     0.039 A 
ATOM     35  C   UNL A   1      35.442  31.804  27.622  1.00  0.00     0.014 A 
ATOM     36  C   UNL A   1      34.610  29.594  28.159  1.00  0.00     0.014 A 
ATOM     37  C   UNL A   1      36.614  31.534  28.332  1.00  0.00     0.010 A 
ATOM     38  C   UNL A   1      35.751  29.347  28.919  1.00  0.00     0.010 A 
ATOM     39  C   UNL A   1      36.767  30.312  29.007  1.00  0.00    -0.014 A 
BRANCH  39  40
ATOM     40  C   UNL A   1      37.987  30.019  29.802  1.00  0.00     0.031 A 
ATOM     41  C   UNL A   1      39.034  29.088  29.259  1.00  0.00     0.074 A 
ATOM     42  C   UNL A   1      38.123  30.545  31.034  1.00  0.00     0.049 A 
ATOM     43  N   UNL A   1      40.127  28.647  29.829  1.00  0.00    -0.248 NA
ATOM     44  C   UNL A   1      38.811  28.564  27.902  1.00  0.00     0.031 C 
ATOM     45  C   UNL A   1      37.158  31.433  31.684  1.00  0.00     0.029 A 
ATOM     46  N   UNL A   1      39.121  30.398  31.963  1.00  0.00    -0.354 N 
ATOM     47  C   UNL A   1      40.711  27.785  28.909  1.00  0.00     0.074 A 
ATOM     48  C   UNL A   1      39.830  27.727  27.764  1.00  0.00     0.031 C 
ATOM     49  C   UNL A   1      37.621  31.766  32.901  1.00  0.00     0.029 A 
ATOM     50  C   UNL A   1      38.894  31.089  33.128  1.00  0.00     0.049 A 
ATOM     51  H   UNL A   1      39.924  29.850  31.810  1.00  0.00     0.167 HD
ATOM     52  C   UNL A   1      41.888  27.121  29.003  1.00  0.00     0.037 A 
ATOM     53  C   UNL A   1      39.627  31.162  34.255  1.00  0.00     0.037 A 
ATOM     54  C   UNL A   1      42.776  27.200  30.134  1.00  0.00     0.049 A 
ATOM     55  C   UNL A   1      40.926  30.407  34.336  1.00  0.00     0.074 A 
ATOM     56  C   UNL A   1      44.012  26.601  30.306  1.00  0.00     0.029 A 
ATOM     57  N   UNL A   1      42.519  27.925  31.288  1.00  0.00    -0.354 N 
ATOM     58  N   UNL A   1      41.495  29.639  33.440  1.00  0.00    -0.248 NA
ATOM     59  C   UNL A   1      41.689  30.535  35.587  1.00  0.00     0.031 C 
ATOM     60  C   UNL A   1      44.488  26.935  31.579  1.00  0.00     0.029 A 
ATOM     61  C   UNL A   1      43.568  27.777  32.182  1.00  0.00     0.049 A 
ATOM     62  H   UNL A   1      41.712  28.466  31.448  1.00  0.00     0.167 HD
ATOM     63  C   UNL A   1      42.692  29.218  34.002  1.00  0.00     0.074 A 
ATOM     64  C   UNL A   1      42.774  29.825  35.314  1.00  0.00     0.031 C 
ATOM     65  C   UNL A   1      43.638  28.401  33.479  1.00  0.00     0.037 A 
BRANCH  52  66
ATOM     66  C   UNL A   1      42.289  26.255  27.845  1.00  0.00     0.064 A 
ATOM     67  C   UNL A   1      41.775  24.958  27.689  1.00  0.00     0.173 A 
ATOM     68  C   UNL A   1      43.167  26.735  26.863  1.00  0.00     0.173 A 
ATOM     69  F   UNL A   1      40.940  24.447  28.606  1.00  0.00    -0.203 F 
ATOM     70  C   UNL A   1      42.149  24.165  26.607  1.00  0.00     0.198 A 
ATOM     71  C   UNL A   1      43.516  25.949  25.768  1.00  0.00     0.198 A 
ATOM     72  F   UNL A   1      43.683  27.970  26.961  1.00  0.00    -0.203 F 
ATOM     73  F   UNL A   1      41.683  22.913  26.503  1.00  0.00    -0.200 F 
ATOM     74  C   UNL A   1      43.013  24.663  25.644  1.00  0.00     0.200 A 
ATOM     75  F   UNL A   1      44.343  26.436  24.831  1.00  0.00    -0.200 F 
ATOM     76  F   UNL A   1      43.368  23.901  24.600  1.00  0.00    -0.200 F 
ENDBRANCH  52  66
BRANCH  53  77
ATOM     77  C   UNL A   1      39.164  32.001  35.390  1.00  0.00     0.064 A 
ATOM     78  C   UNL A   1      39.488  33.364  35.453  1.00  0.00     0.173 A 
ATOM     79  C   UNL A   1      38.399  31.463  36.435  1.00  0.00     0.173 A 
ATOM     80  F   UNL A   1      40.238  33.918  34.488  1.00  0.00    -0.203 F 
ATOM     81  C   UNL A   1      39.083  34.151  36.528  1.00  0.00     0.198 A 
ATOM     82  C   UNL A   1      37.971  32.258  37.496  1.00  0.00     0.198 A 
ATOM     83  F   UNL A   1      38.058  30.167  36.419  1.00  0.00    -0.203 F 
ATOM     84  F   UNL A   1      39.446  35.440  36.585  1.00  0.00    -0.200 F 
ATOM     85  C   UNL A   1      38.320  33.600  37.546  1.00  0.00     0.200 A 
ATOM     86  F   UNL A   1      37.222  31.725  38.471  1.00  0.00    -0.200 F 
ATOM     87  F   UNL A   1      37.928  34.358  38.579  1.00  0.00    -0.200 F 
ENDBRANCH  53  77
BRANCH  65  88
ATOM     88  C   UNL A   1      44.862  28.148  34.309  1.00  0.00     0.064 A 
ATOM     89  C   UNL A   1      44.942  27.059  35.188  1.00  0.00     0.173 A 
ATOM     90  C   UNL A   1      45.982  28.985  34.193  1.00  0.00     0.173 A 
ATOM     91  F   UNL A   1      43.891  26.240  35.347  1.00  0.00    -0.203 F 
ATOM     92  C   UNL A   1      46.091  26.830  35.941  1.00  0.00     0.198 A 
ATOM     93  C   UNL A   1      47.139  28.737  34.925  1.00  0.00     0.198 A 
ATOM     94  F   UNL A   1      45.958  30.036  33.361  1.00  0.00    -0.203 F 
ATOM     95  F   UNL A   1      46.130  25.810  36.809  1.00  0.00    -0.200 F 
ATOM     96  C   UNL A   1      47.190  27.664  35.804  1.00  0.00     0.200 A 
ATOM     97  F   UNL A   1      48.205  29.537  34.783  1.00  0.00    -0.200 F 
ATOM     98  F   UNL A   1      48.298  27.439  36.524  1.00  0.00    -0.200 F 
ENDBRANCH  65  88
ENDBRANCH  39  40
ENDBRANCH  31  34
ENDBRANCH  29  30
ENDBRANCH  28  29
ENDBRANCH  27  28
ENDBRANCH   1  27
TORSDOF 15
ENDMDL
MODEL 2
REMARK VINA RESULT:     -12.9      0.394      1.688
REMARK SMILES Cc1cc2cc(-c3ccc([C@@H](C)C(=O)NCCCCCCNC(=O)c4ccc(-c5c6nc(c(-c7c(F)c(F)c(F)c(F)c7F)c7ccc([nH]7)c(-c7c(F)c(F)c(F)c(F)c7F)c7nc(c(-c8c(F)c(F)c(F)c(F)c8F)c8ccc5[nH]8)C=C7)C=C6)cc4)cc3)ccc2[nH]1
REMARK SMILES IDX 18 1 17 2 16 3 15 4 13 5 14 6 11 8 12 9 10 10 7 11 8 12
REMARK SMILES IDX 89 13 9 14 88 15 6 16 1 17 2 18 3 19 93 20 4 21 92 22 5 24
REMARK SMILES IDX 91 25 90 26 19 27 20 28 21 29 22 30 23 31 24 33 25 34 26 35
REMARK SMILES IDX 87 36 27 37 86 38 28 39 29 40 30 41 80 42 31 43 85 44 79 45
REMARK SMILES IDX 81 46 32 47 84 48 78 49 77 50 33 52 65 53 45 54 64 55 46 56
REMARK SMILES IDX 49 57 63 58 82 59 47 60 48 61 62 63 83 64 50 65 34 66 35 67
REMARK SMILES IDX 43 68 36 69 37 70 41 71 44 72 38 73 39 74 42 75 40 76 66 77
REMARK SMILES IDX 67 78 75 79 68 80 69 81 73 82 76 83 70 84 71 85 74 86 72 87
REMARK SMILES IDX 51 88 52 89 60 90 53 91 54 92 58 93 61 94 55 95 56 96 59 97
REMARK SMILES IDX 57 98
REMARK H PARENT 15 7 93 23 22 32 81 51 49 62
REMARK Flexibility Score: inf
ROOT
ATOM      1  C   UNL A   1      34.040  25.539  23.913  1.00  0.00     0.002 C 
ENDROOT
BRANCH   1   2
ATOM      2  C   UNL A   1      34.373  25.328  25.395  1.00  0.00     0.021 C 
BRANCH   2   3
ATOM      3  C   UNL A   1      34.825  23.905  25.732  1.00  0.00     0.116 C 
BRANCH   3   4
ATOM      4  N   UNL A   1      34.121  23.373  26.881  1.00  0.00    -0.356 N 
ATOM      5  C   UNL A   1      32.917  22.750  26.998  1.00  0.00     0.227 C 
ATOM      6  O   UNL A   1      32.548  22.483  28.148  1.00  0.00    -0.274 OA
ATOM      7  H   UNL A   1      34.603  23.483  27.732  1.00  0.00     0.163 HD
BRANCH   5   8
ATOM      8  C   UNL A   1      32.035  22.360  25.802  1.00  0.00     0.105 C 
ATOM      9  C   UNL A   1      32.745  21.486  24.766  1.00  0.00     0.023 C 
BRANCH   8  10
ATOM     10  C   UNL A   1      31.218  23.516  25.249  1.00  0.00    -0.036 A 
ATOM     11  C   UNL A   1      29.763  25.772  24.268  1.00  0.00    -0.018 A 
ATOM     12  C   UNL A   1      30.274  24.788  23.408  1.00  0.00     0.009 A 
ATOM     13  C   UNL A   1      29.986  25.593  25.640  1.00  0.00     0.009 A 
ATOM     14  C   UNL A   1      30.953  23.667  23.887  1.00  0.00     0.005 A 
ATOM     15  C   UNL A   1      30.715  24.495  26.121  1.00  0.00     0.005 A 
BRANCH  11  16
ATOM     16  C   UNL A   1      29.023  26.932  23.720  1.00  0.00    -0.018 A 
ATOM     17  C   UNL A   1      28.263  32.460  21.176  1.00  0.00     0.064 C 
ATOM     18  C   UNL A   1      28.382  31.112  21.780  1.00  0.00     0.013 A 
ATOM     19  C   UNL A   1      29.488  30.310  21.966  1.00  0.00     0.031 A 
ATOM     20  N   UNL A   1      27.295  30.431  22.273  1.00  0.00    -0.359 N 
ATOM     21  C   UNL A   1      29.058  29.118  22.605  1.00  0.00     0.000 A 
ATOM     22  C   UNL A   1      27.683  29.217  22.794  1.00  0.00     0.046 A 
ATOM     23  H   UNL A   1      26.368  30.763  22.256  1.00  0.00     0.166 HD
ATOM     24  C   UNL A   1      29.720  27.960  23.050  1.00  0.00     0.019 A 
ATOM     25  C   UNL A   1      26.940  28.207  23.413  1.00  0.00     0.027 A 
ATOM     26  C   UNL A   1      27.635  27.078  23.877  1.00  0.00     0.011 A 
ENDBRANCH  11  16
ENDBRANCH   8  10
ENDBRANCH   5   8
ENDBRANCH   3   4
ENDBRANCH   2   3
ENDBRANCH   1   2
BRANCH   1  27
ATOM     27  C   UNL A   1      33.258  26.820  23.594  1.00  0.00     0.002 C 
BRANCH  27  28
ATOM     28  C   UNL A   1      32.992  27.749  24.783  1.00  0.00     0.021 C 
BRANCH  28  29
ATOM     29  C   UNL A   1      33.717  29.091  24.724  1.00  0.00     0.116 C 
BRANCH  29  30
ATOM     30  N   UNL A   1      32.971  30.142  25.396  1.00  0.00    -0.352 N 
ATOM     31  C   UNL A   1      33.172  30.715  26.626  1.00  0.00     0.251 C 
ATOM     32  H   UNL A   1      32.205  30.497  24.891  1.00  0.00     0.163 HD
ATOM     33  O   UNL A   1      32.310  31.438  27.117  1.00  0.00    -0.269 OA
BRANCH  31  34
ATOM     34  C   UNL A   1      34.423  30.460  27.375  1.00  0.00     0.039 A 
ATOM     35  C   UNL A   1      35.290  31.527  27.625  1.00  0.00     0.014 A 
ATOM     36  C   UNL A   1      34.762  29.169  27.788  1.00  0.00     0.014 A 
ATOM     37  C   UNL A   1      36.472  31.310  28.336  1.00  0.00     0.010 A 
ATOM     38  C   UNL A   1      35.911  28.963  28.550  1.00  0.00     0.010 A 
ATOM     39  C   UNL A   1      36.779  30.030  28.825  1.00  0.00    -0.014 A 
BRANCH  39  40
ATOM     40  C   UNL A   1      38.011  29.785  29.617  1.00  0.00     0.031 A 
ATOM     41  C   UNL A   1      39.073  28.859  29.092  1.00  0.00     0.074 A 
ATOM     42  C   UNL A   1      38.146  30.348  30.833  1.00  0.00     0.049 A 
ATOM     43  N   UNL A   1      40.179  28.457  29.666  1.00  0.00    -0.248 NA
ATOM     44  C   UNL A   1      38.851  28.294  27.753  1.00  0.00     0.031 C 
ATOM     45  C   UNL A   1      37.169  31.234  31.466  1.00  0.00     0.029 A 
ATOM     46  N   UNL A   1      39.154  30.247  31.758  1.00  0.00    -0.354 N 
ATOM     47  C   UNL A   1      40.774  27.582  28.766  1.00  0.00     0.074 A 
ATOM     48  C   UNL A   1      39.885  27.474  27.630  1.00  0.00     0.031 C 
ATOM     49  C   UNL A   1      37.633  31.611  32.669  1.00  0.00     0.029 A 
ATOM     50  C   UNL A   1      38.921  30.966  32.905  1.00  0.00     0.049 A 
ATOM     51  H   UNL A   1      39.967  29.711  31.614  1.00  0.00     0.167 HD
ATOM     52  C   UNL A   1      41.965  26.945  28.868  1.00  0.00     0.037 A 
ATOM     53  C   UNL A   1      39.662  31.085  34.024  1.00  0.00     0.037 A 
ATOM     54  C   UNL A   1      42.859  27.073  29.989  1.00  0.00     0.049 A 
ATOM     55  C   UNL A   1      40.977  30.360  34.115  1.00  0.00     0.074 A 
ATOM     56  C   UNL A   1      44.109  26.505  30.168  1.00  0.00     0.029 A 
ATOM     57  N   UNL A   1      42.596  27.825  31.125  1.00  0.00    -0.354 N 
ATOM     58  N   UNL A   1      41.554  29.578  33.236  1.00  0.00    -0.248 NA
ATOM     59  C   UNL A   1      41.746  30.538  35.355  1.00  0.00     0.031 C 
ATOM     60  C   UNL A   1      44.587  26.884  31.427  1.00  0.00     0.029 A 
ATOM     61  C   UNL A   1      43.655  27.724  32.014  1.00  0.00     0.049 A 
ATOM     62  H   UNL A   1      41.780  28.354  31.276  1.00  0.00     0.167 HD
ATOM     63  C   UNL A   1      42.764  29.197  33.800  1.00  0.00     0.074 A 
ATOM     64  C   UNL A   1      42.843  29.843  35.094  1.00  0.00     0.031 C 
ATOM     65  C   UNL A   1      43.723  28.385  33.293  1.00  0.00     0.037 A 
BRANCH  52  66
ATOM     66  C   UNL A   1      42.374  26.054  27.732  1.00  0.00     0.064 A 
ATOM     67  C   UNL A   1      43.249  26.501  26.729  1.00  0.00     0.173 A 
ATOM     68  C   UNL A   1      41.916  24.730  27.660  1.00  0.00     0.173 A 
ATOM     69  F   UNL A   1      43.706  27.761  26.745  1.00  0.00    -0.203 F 
ATOM     70  C   UNL A   1      43.626  25.664  25.683  1.00  0.00     0.198 A 
ATOM     71  C   UNL A   1      42.318  23.888  26.628  1.00  0.00     0.198 A 
ATOM     72  F   UNL A   1      41.082  24.251  28.596  1.00  0.00    -0.203 F 
ATOM     73  F   UNL A   1      44.425  26.127  24.711  1.00  0.00    -0.200 F 
ATOM     74  C   UNL A   1      43.166  24.356  25.636  1.00  0.00     0.200 A 
ATOM     75  F   UNL A   1      41.882  22.620  26.590  1.00  0.00    -0.200 F 
ATOM     76  F   UNL A   1      43.535  23.550  24.631  1.00  0.00    -0.200 F 
ENDBRANCH  52  66
BRANCH  53  77
ATOM     77  C   UNL A   1      39.191  31.947  35.138  1.00  0.00     0.064 A 
ATOM     78  C   UNL A   1      38.503  31.397  36.229  1.00  0.00     0.173 A 
ATOM     79  C   UNL A   1      39.409  33.332  35.135  1.00  0.00     0.173 A 
ATOM     80  F   UNL A   1      38.251  30.080  36.264  1.00  0.00    -0.203 F 
ATOM     81  C   UNL A   1      38.033  32.202  37.264  1.00  0.00     0.198 A 
ATOM     82  C   UNL A   1      38.962  34.133  36.184  1.00  0.00     0.198 A 
ATOM     83  F   UNL A   1      40.066  33.906  34.118  1.00  0.00    -0.203 F 
ATOM     84  F   UNL A   1      37.338  31.655  38.272  1.00  0.00    -0.200 F 
ATOM     85  C   UNL A   1      38.268  33.568  37.244  1.00  0.00     0.200 A 
ATOM     86  F   UNL A   1      39.202  35.451  36.168  1.00  0.00    -0.200 F 
ATOM     87  F   UNL A   1      37.817  34.342  38.241  1.00  0.00    -0.200 F 
ENDBRANCH  53  77
BRANCH  65  88
ATOM     88  C   UNL A   1      44.958  28.180  34.119  1.00  0.00     0.064 A 
ATOM     89  C   UNL A   1      45.062  27.125  35.036  1.00  0.00     0.173 A 
ATOM     90  C   UNL A   1      46.064  29.029  33.962  1.00  0.00     0.173 A 
ATOM     91  F   UNL A   1      44.025  26.297  35.234  1.00  0.00    -0.203 F 
ATOM     92  C   UNL A   1      46.221  26.941  35.785  1.00  0.00     0.198 A 
ATOM     93  C   UNL A   1      47.231  28.824  34.692  1.00  0.00     0.198 A 
ATOM     94  F   UNL A   1      46.016  30.049  33.093  1.00  0.00    -0.203 F 
ATOM     95  F   UNL A   1      46.283  25.954  36.689  1.00  0.00    -0.200 F 
ATOM     96  C   UNL A   1      47.306  27.786  35.607  1.00  0.00     0.200 A 
ATOM     97  F   UNL A   1      48.283  29.635  34.510  1.00  0.00    -0.200 F 
ATOM     98  F   UNL A   1      48.424  27.603  36.325  1.00  0.00    -0.200 F 
ENDBRANCH  65  88
ENDBRANCH  39  40
ENDBRANCH  31  34
ENDBRANCH  29  30
ENDBRANCH  28  29
ENDBRANCH  27  28
ENDBRANCH   1  27
TORSDOF 15
ENDMDL
MODEL 3
REMARK VINA RESULT:     -12.7      0.361      7.176
REMARK SMILES Cc1cc2cc(-c3ccc([C@@H](C)C(=O)NCCCCCCNC(=O)c4ccc(-c5c6nc(c(-c7c(F)c(F)c(F)c(F)c7F)c7ccc([nH]7)c(-c7c(F)c(F)c(F)c(F)c7F)c7nc(c(-c8c(F)c(F)c(F)c(F)c8F)c8ccc5[nH]8)C=C7)C=C6)cc4)cc3)ccc2[nH]1
REMARK SMILES IDX 18 1 17 2 16 3 15 4 13 5 14 6 11 8 12 9 10 10 7 11 8 12
REMARK SMILES IDX 89 13 9 14 88 15 6 16 1 17 2 18 3 19 93 20 4 21 92 22 5 24
REMARK SMILES IDX 91 25 90 26 19 27 20 28 21 29 22 30 23 31 24 33 25 34 26 35
REMARK SMILES IDX 87 36 27 37 86 38 28 39 29 40 30 41 80 42 31 43 85 44 79 45
REMARK SMILES IDX 81 46 32 47 84 48 78 49 77 50 33 52 65 53 45 54 64 55 46 56
REMARK SMILES IDX 49 57 63 58 82 59 47 60 48 61 62 63 83 64 50 65 34 66 35 67
REMARK SMILES IDX 43 68 36 69 37 70 41 71 44 72 38 73 39 74 42 75 40 76 66 77
REMARK SMILES IDX 67 78 75 79 68 80 69 81 73 82 76 83 70 84 71 85 74 86 72 87
REMARK SMILES IDX 51 88 52 89 60 90 53 91 54 92 58 93 61 94 55 95 56 96 59 97
REMARK SMILES IDX 57 98
REMARK H PARENT 15 7 93 23 22 32 81 51 49 62
REMARK Flexibility Score: inf
ROOT
ATOM      1  C   UNL A   1      33.863  25.742  24.993  1.00  0.00     0.002 C 
ENDROOT
BRANCH   1   2
ATOM      2  C   UNL A   1      35.070  24.838  25.266  1.00  0.00     0.021 C 
BRANCH   2   3
ATOM      3  C   UNL A   1      34.720  23.352  25.378  1.00  0.00     0.116 C 
BRANCH   3   4
ATOM      4  N   UNL A   1      34.156  23.027  26.671  1.00  0.00    -0.356 N 
ATOM      5  C   UNL A   1      32.913  22.613  27.040  1.00  0.00     0.227 C 
ATOM      6  O   UNL A   1      32.713  22.495  28.256  1.00  0.00    -0.274 OA
ATOM      7  H   UNL A   1      34.788  23.121  27.420  1.00  0.00     0.163 HD
BRANCH   5   8
ATOM      8  C   UNL A   1      31.791  22.281  26.045  1.00  0.00     0.105 C 
ATOM      9  C   UNL A   1      32.153  21.181  25.046  1.00  0.00     0.023 C 
BRANCH   8  10
ATOM     10  C   UNL A   1      31.113  23.511  25.463  1.00  0.00    -0.036 A 
ATOM     11  C   UNL A   1      29.759  25.744  24.300  1.00  0.00    -0.018 A 
ATOM     12  C   UNL A   1      29.862  25.581  25.691  1.00  0.00     0.009 A 
ATOM     13  C   UNL A   1      30.364  24.765  23.500  1.00  0.00     0.009 A 
ATOM     14  C   UNL A   1      30.554  24.510  26.260  1.00  0.00     0.005 A 
ATOM     15  C   UNL A   1      31.014  23.659  24.070  1.00  0.00     0.005 A 
BRANCH  11  16
ATOM     16  C   UNL A   1      29.039  26.909  23.737  1.00  0.00    -0.018 A 
ATOM     17  C   UNL A   1      28.369  32.432  21.158  1.00  0.00     0.064 C 
ATOM     18  C   UNL A   1      28.466  31.085  21.770  1.00  0.00     0.013 A 
ATOM     19  C   UNL A   1      29.561  30.273  21.974  1.00  0.00     0.031 A 
ATOM     20  N   UNL A   1      27.365  30.418  22.252  1.00  0.00    -0.359 N 
ATOM     21  C   UNL A   1      29.110  29.088  22.613  1.00  0.00     0.000 A 
ATOM     22  C   UNL A   1      27.735  29.202  22.783  1.00  0.00     0.046 A 
ATOM     23  H   UNL A   1      26.443  30.760  22.222  1.00  0.00     0.166 HD
ATOM     24  C   UNL A   1      29.755  27.926  23.072  1.00  0.00     0.019 A 
ATOM     25  C   UNL A   1      26.973  28.203  23.397  1.00  0.00     0.027 A 
ATOM     26  C   UNL A   1      27.650  27.069  23.876  1.00  0.00     0.011 A 
ENDBRANCH  11  16
ENDBRANCH   8  10
ENDBRANCH   5   8
ENDBRANCH   3   4
ENDBRANCH   2   3
ENDBRANCH   1   2
BRANCH   1  27
ATOM     27  C   UNL A   1      33.549  26.766  26.092  1.00  0.00     0.002 C 
BRANCH  27  28
ATOM     28  C   UNL A   1      32.761  28.001  25.643  1.00  0.00     0.021 C 
BRANCH  28  29
ATOM     29  C   UNL A   1      33.618  29.197  25.237  1.00  0.00     0.116 C 
BRANCH  29  30
ATOM     30  N   UNL A   1      33.080  30.448  25.743  1.00  0.00    -0.352 N 
ATOM     31  C   UNL A   1      33.400  31.150  26.878  1.00  0.00     0.251 C 
ATOM     32  H   UNL A   1      32.378  30.856  25.186  1.00  0.00     0.163 HD
ATOM     33  O   UNL A   1      32.687  32.075  27.253  1.00  0.00    -0.269 OA
BRANCH  31  34
ATOM     34  C   UNL A   1      34.601  30.790  27.665  1.00  0.00     0.039 A 
ATOM     35  C   UNL A   1      34.608  29.584  28.371  1.00  0.00     0.014 A 
ATOM     36  C   UNL A   1      35.695  31.656  27.744  1.00  0.00     0.014 A 
ATOM     37  C   UNL A   1      35.734  29.222  29.115  1.00  0.00     0.010 A 
ATOM     38  C   UNL A   1      36.840  31.267  28.435  1.00  0.00     0.010 A 
ATOM     39  C   UNL A   1      36.868  30.049  29.132  1.00  0.00    -0.014 A 
BRANCH  39  40
ATOM     40  C   UNL A   1      38.090  29.664  29.883  1.00  0.00     0.031 A 
ATOM     41  C   UNL A   1      38.343  30.233  31.252  1.00  0.00     0.074 A 
ATOM     42  C   UNL A   1      38.997  28.852  29.310  1.00  0.00     0.049 A 
ATOM     43  N   UNL A   1      39.384  30.081  32.032  1.00  0.00    -0.248 NA
ATOM     44  C   UNL A   1      37.298  31.105  31.807  1.00  0.00     0.031 C 
ATOM     45  C   UNL A   1      38.882  28.266  27.974  1.00  0.00     0.029 A 
ATOM     46  N   UNL A   1      40.202  28.388  29.774  1.00  0.00    -0.354 N 
ATOM     47  C   UNL A   1      39.124  30.850  33.160  1.00  0.00     0.074 A 
ATOM     48  C   UNL A   1      37.853  31.504  32.943  1.00  0.00     0.031 C 
ATOM     49  C   UNL A   1      39.963  27.506  27.733  1.00  0.00     0.029 A 
ATOM     50  C   UNL A   1      40.862  27.579  28.881  1.00  0.00     0.049 A 
ATOM     51  H   UNL A   1      40.560  28.612  30.664  1.00  0.00     0.167 HD
ATOM     52  C   UNL A   1      39.869  30.979  34.284  1.00  0.00     0.037 A 
ATOM     53  C   UNL A   1      42.060  26.973  28.976  1.00  0.00     0.037 A 
ATOM     54  C   UNL A   1      41.123  30.308  34.507  1.00  0.00     0.049 A 
ATOM     55  C   UNL A   1      42.871  27.140  30.232  1.00  0.00     0.074 A 
ATOM     56  C   UNL A   1      41.931  30.337  35.631  1.00  0.00     0.029 A 
ATOM     57  N   UNL A   1      41.750  29.483  33.585  1.00  0.00    -0.354 N 
ATOM     58  N   UNL A   1      42.591  27.825  31.314  1.00  0.00    -0.248 NA
ATOM     59  C   UNL A   1      44.165  26.443  30.282  1.00  0.00     0.031 C 
ATOM     60  C   UNL A   1      43.066  29.559  35.375  1.00  0.00     0.029 A 
ATOM     61  C   UNL A   1      42.943  29.009  34.110  1.00  0.00     0.049 A 
ATOM     62  H   UNL A   1      41.400  29.264  32.692  1.00  0.00     0.167 HD
ATOM     63  C   UNL A   1      43.654  27.619  32.182  1.00  0.00     0.074 A 
ATOM     64  C   UNL A   1      44.580  26.734  31.506  1.00  0.00     0.031 C 
ATOM     65  C   UNL A   1      43.846  28.118  33.427  1.00  0.00     0.037 A 
BRANCH  52  66
ATOM     66  C   UNL A   1      39.343  31.878  35.364  1.00  0.00     0.064 A 
ATOM     67  C   UNL A   1      39.656  33.245  35.397  1.00  0.00     0.173 A 
ATOM     68  C   UNL A   1      38.489  31.377  36.358  1.00  0.00     0.173 A 
ATOM     69  F   UNL A   1      40.477  33.772  34.476  1.00  0.00    -0.203 F 
ATOM     70  C   UNL A   1      39.157  34.071  36.401  1.00  0.00     0.198 A 
ATOM     71  C   UNL A   1      37.969  32.211  37.343  1.00  0.00     0.198 A 
ATOM     72  F   UNL A   1      38.153  30.078  36.369  1.00  0.00    -0.203 F 
ATOM     73  F   UNL A   1      39.508  35.364  36.439  1.00  0.00    -0.200 F 
ATOM     74  C   UNL A   1      38.308  33.556  37.369  1.00  0.00     0.200 A 
ATOM     75  F   UNL A   1      37.139  31.714  38.272  1.00  0.00    -0.200 F 
ATOM     76  F   UNL A   1      37.824  34.353  38.331  1.00  0.00    -0.200 F 
ENDBRANCH  52  66
BRANCH  53  77
ATOM     77  C   UNL A   1      42.555  26.127  27.859  1.00  0.00     0.064 A 
ATOM     78  C   UNL A   1      43.458  26.639  26.917  1.00  0.00     0.173 A 
ATOM     79  C   UNL A   1      42.133  24.799  27.704  1.00  0.00     0.173 A 
ATOM     80  F   UNL A   1      43.872  27.912  27.012  1.00  0.00    -0.203 F 
ATOM     81  C   UNL A   1      43.905  25.862  25.852  1.00  0.00     0.198 A 
ATOM     82  C   UNL A   1      42.602  24.014  26.653  1.00  0.00     0.198 A 
ATOM     83  F   UNL A   1      41.274  24.260  28.581  1.00  0.00    -0.203 F 
ATOM     84  F   UNL A   1      44.733  26.392  24.940  1.00  0.00    -0.200 F 
ATOM     85  C   UNL A   1      43.481  24.548  25.723  1.00  0.00     0.200 A 
ATOM     86  F   UNL A   1      42.200  22.740  26.539  1.00  0.00    -0.200 F 
ATOM     87  F   UNL A   1      43.913  23.800  24.698  1.00  0.00    -0.200 F 
ENDBRANCH  53  77
BRANCH  65  88
ATOM     88  C   UNL A   1      45.085  27.688  34.156  1.00  0.00     0.064 A 
ATOM     89  C   UNL A   1      45.105  26.535  34.954  1.00  0.00     0.173 A 
ATOM     90  C   UNL A   1      46.275  28.418  34.023  1.00  0.00     0.173 A 
ATOM     91  F   UNL A   1      43.988  25.813  35.126  1.00  0.00    -0.203 F 
ATOM     92  C   UNL A   1      46.267  26.142  35.612  1.00  0.00     0.198 A 
ATOM     93  C   UNL A   1      47.442  28.007  34.659  1.00  0.00     0.198 A 
ATOM     94  F   UNL A   1      46.308  29.525  33.266  1.00  0.00    -0.203 F 
ATOM     95  F   UNL A   1      46.253  25.063  36.406  1.00  0.00    -0.200 F 
ATOM     96  C   UNL A   1      47.436  26.874  35.459  1.00  0.00     0.200 A 
ATOM     97  F   UNL A   1      48.573  28.709  34.501  1.00  0.00    -0.200 F 
ATOM     98  F   UNL A   1      48.556  26.490  36.089  1.00  0.00    -0.200 F 
ENDBRANCH  65  88
ENDBRANCH  39  40
ENDBRANCH  31  34
ENDBRANCH  29  30
ENDBRANCH  28  29
ENDBRANCH  27  28
ENDBRANCH   1  27
TORSDOF 15
ENDMDL
