MODEL 1
REMARK VINA RESULT:     -11.8      0.000      0.000
REMARK SMILES CCCc1cc(OC(F)(F)F)cc2c1O[C@H](C(F)(F)F)C(C(=O)NCCCCCCNC(=O)c1ccc(-c3c4nc(c(-c5c(F)c(F)c(F)c(F)c5F)c5ccc([nH]5)c(-c5c(F)c(F)c(F)c(F)c5F)c5nc(c(-c6c(F)c(F)c(F)c(F)c6F)c6ccc3[nH]6)C=C5)C=C4)cc1)=C2
REMARK SMILES IDX 27 1 26 2 25 3 24 4 22 5 23 6 21 8 4 9 5 10 14 11 6 12 13 13
REMARK SMILES IDX 15 14 12 15 97 16 16 17 3 18 2 19 1 20 7 21 8 22 9 23 10 24
REMARK SMILES IDX 11 25 17 26 18 27 19 28 20 29 28 30 29 31 30 32 31 33 32 34
REMARK SMILES IDX 33 36 34 37 35 38 96 39 36 40 95 41 37 42 38 43 39 44 89 45
REMARK SMILES IDX 40 46 94 47 88 48 90 49 41 50 93 51 87 52 86 53 42 55 74 56
REMARK SMILES IDX 54 57 73 58 55 59 58 60 72 61 91 62 56 63 57 64 71 66 92 67
REMARK SMILES IDX 59 68 43 69 44 70 52 71 45 72 46 73 50 74 53 75 47 76 48 77
REMARK SMILES IDX 51 78 49 79 75 80 76 81 84 82 77 83 78 84 82 85 85 86 79 87
REMARK SMILES IDX 80 88 83 89 81 90 60 91 61 92 69 93 62 94 63 95 67 96 70 97
REMARK SMILES IDX 64 98 65 99 68 100 66 101
REMARK H PARENT 24 7 31 35 90 54 58 65
REMARK Flexibility Score: inf
ROOT
ATOM      1  C   UNL A   1      35.114  29.903  27.141  1.00  0.00     0.002 C 
ENDROOT
BRANCH   1   2
ATOM      2  C   UNL A   1      34.351  28.573  27.067  1.00  0.00     0.021 C 
BRANCH   2   3
ATOM      3  C   UNL A   1      33.307  28.560  25.949  1.00  0.00     0.116 C 
BRANCH   3   4
ATOM      4  N   UNL A   1      32.095  27.932  26.429  1.00  0.00    -0.352 N 
ATOM      5  C   UNL A   1      31.569  26.695  26.261  1.00  0.00     0.251 C 
ATOM      6  O   UNL A   1      30.455  26.494  26.745  1.00  0.00    -0.270 OA
ATOM      7  H   UNL A   1      31.541  28.522  26.989  1.00  0.00     0.163 HD
BRANCH   5   8
ATOM      8  C   UNL A   1      32.320  25.551  25.664  1.00  0.00     0.067 C 
ATOM      9  C   UNL A   1      33.350  21.694  24.377  1.00  0.00    -0.002 A 
ATOM     10  C   UNL A   1      34.568  21.136  24.815  1.00  0.00     0.054 A 
ATOM     11  C   UNL A   1      33.046  23.016  24.737  1.00  0.00     0.131 A 
ATOM     12  C   UNL A   1      35.463  21.882  25.587  1.00  0.00     0.130 A 
ATOM     13  C   UNL A   1      33.923  23.762  25.529  1.00  0.00     0.021 A 
ATOM     14  O   UNL A   1      31.849  23.510  24.314  1.00  0.00    -0.475 OA
ATOM     15  C   UNL A   1      35.128  23.190  25.946  1.00  0.00     0.058 A 
ATOM     16  C   UNL A   1      33.517  25.073  26.030  1.00  0.00     0.025 C 
ATOM     17  C   UNL A   1      31.562  24.911  24.515  1.00  0.00     0.314 C 
BRANCH   9  18
ATOM     18  C   UNL A   1      32.432  20.884  23.482  1.00  0.00     0.039 C 
BRANCH  18  19
ATOM     19  C   UNL A   1      32.245  19.400  23.836  1.00  0.00     0.001 C 
ATOM     20  C   UNL A   1      32.489  18.421  22.695  1.00  0.00     0.004 C 
ENDBRANCH  18  19
ENDBRANCH   9  18
BRANCH  12  21
ATOM     21  O   UNL A   1      36.670  21.463  26.070  1.00  0.00    -0.406 OA
BRANCH  21  22
ATOM     22  C   UNL A   1      37.825  21.713  25.288  1.00  0.00     0.573 C 
ATOM     23  F   UNL A   1      37.497  21.945  24.000  1.00  0.00    -0.132 F 
ATOM     24  F   UNL A   1      38.527  22.758  25.773  1.00  0.00    -0.132 F 
ATOM     25  F   UNL A   1      38.618  20.619  25.329  1.00  0.00    -0.132 F 
ENDBRANCH  21  22
ENDBRANCH  12  21
BRANCH  17  26
ATOM     26  C   UNL A   1      31.764  25.662  23.184  1.00  0.00     0.429 C 
ATOM     27  F   UNL A   1      32.098  24.812  22.179  1.00  0.00    -0.167 F 
ATOM     28  F   UNL A   1      30.621  26.288  22.808  1.00  0.00    -0.167 F 
ATOM     29  F   UNL A   1      32.735  26.599  23.227  1.00  0.00    -0.167 F 
ENDBRANCH  17  26
ENDBRANCH   5   8
ENDBRANCH   3   4
ENDBRANCH   2   3
ENDBRANCH   1   2
BRANCH   1  30
ATOM     30  C   UNL A   1      34.473  30.953  28.058  1.00  0.00     0.002 C 
BRANCH  30  31
ATOM     31  C   UNL A   1      33.976  32.209  27.339  1.00  0.00     0.021 C 
BRANCH  31  32
ATOM     32  C   UNL A   1      32.566  32.632  27.738  1.00  0.00     0.116 C 
BRANCH  32  33
ATOM     33  N   UNL A   1      32.445  34.082  27.803  1.00  0.00    -0.352 N 
ATOM     34  C   UNL A   1      33.084  34.965  28.632  1.00  0.00     0.251 C 
ATOM     35  H   UNL A   1      31.816  34.483  27.160  1.00  0.00     0.163 HD
ATOM     36  O   UNL A   1      32.683  36.123  28.742  1.00  0.00    -0.269 OA
BRANCH  34  37
ATOM     37  C   UNL A   1      34.252  34.513  29.411  1.00  0.00     0.039 A 
ATOM     38  C   UNL A   1      34.052  33.914  30.656  1.00  0.00     0.014 A 
ATOM     39  C   UNL A   1      35.543  34.669  28.897  1.00  0.00     0.014 A 
ATOM     40  C   UNL A   1      35.144  33.395  31.353  1.00  0.00     0.010 A 
ATOM     41  C   UNL A   1      36.622  34.093  29.561  1.00  0.00     0.010 A 
ATOM     42  C   UNL A   1      36.430  33.441  30.789  1.00  0.00    -0.014 A 
BRANCH  42  43
ATOM     43  C   UNL A   1      37.580  32.766  31.439  1.00  0.00     0.031 A 
ATOM     44  C   UNL A   1      38.226  31.575  30.793  1.00  0.00     0.074 A 
ATOM     45  C   UNL A   1      37.982  33.182  32.655  1.00  0.00     0.049 A 
ATOM     46  N   UNL A   1      39.177  30.800  31.252  1.00  0.00    -0.248 NA
ATOM     47  C   UNL A   1      37.723  31.188  29.466  1.00  0.00     0.031 C 
ATOM     48  C   UNL A   1      37.400  34.299  33.401  1.00  0.00     0.029 A 
ATOM     49  N   UNL A   1      38.962  32.701  33.489  1.00  0.00    -0.354 N 
ATOM     50  C   UNL A   1      39.379  29.833  30.277  1.00  0.00     0.074 A 
ATOM     51  C   UNL A   1      38.418  30.086  29.224  1.00  0.00     0.031 C 
ATOM     52  C   UNL A   1      38.042  34.428  34.572  1.00  0.00     0.029 A 
ATOM     53  C   UNL A   1      39.049  33.378  34.681  1.00  0.00     0.049 A 
ATOM     54  H   UNL A   1      39.546  31.946  33.254  1.00  0.00     0.167 HD
ATOM     55  C   UNL A   1      40.295  28.836  30.258  1.00  0.00     0.037 A 
ATOM     56  C   UNL A   1      39.837  33.161  35.751  1.00  0.00     0.037 A 
ATOM     57  C   UNL A   1      41.256  28.599  31.304  1.00  0.00     0.049 A 
ATOM     58  C   UNL A   1      40.822  32.025  35.716  1.00  0.00     0.074 A 
ATOM     59  C   UNL A   1      42.272  27.661  31.345  1.00  0.00     0.029 A 
ATOM     60  N   UNL A   1      41.312  29.302  32.499  1.00  0.00    -0.354 N 
ATOM     61  N   UNL A   1      41.058  31.164  34.756  1.00  0.00    -0.248 NA
ATOM     62  C   UNL A   1      41.649  31.829  36.915  1.00  0.00     0.031 C 
ATOM     63  C   UNL A   1      42.907  27.759  32.588  1.00  0.00     0.029 A 
ATOM     64  C   UNL A   1      42.321  28.792  33.300  1.00  0.00     0.049 A 
ATOM     65  H   UNL A   1      40.722  30.052  32.742  1.00  0.00     0.167 HD
ATOM     66  C   UNL A   1      42.068  30.336  35.226  1.00  0.00     0.074 A 
ATOM     67  C   UNL A   1      42.417  30.813  36.548  1.00  0.00     0.031 C 
ATOM     68  C   UNL A   1      42.650  29.273  34.618  1.00  0.00     0.037 A 
BRANCH  55  69
ATOM     69  C   UNL A   1      40.306  27.922  29.066  1.00  0.00     0.064 A 
ATOM     70  C   UNL A   1      41.075  28.206  27.928  1.00  0.00     0.173 A 
ATOM     71  C   UNL A   1      39.577  26.724  29.082  1.00  0.00     0.173 A 
ATOM     72  F   UNL A   1      41.783  29.344  27.859  1.00  0.00    -0.203 F 
ATOM     73  C   UNL A   1      41.094  27.338  26.839  1.00  0.00     0.198 A 
ATOM     74  C   UNL A   1      39.622  25.843  28.005  1.00  0.00     0.198 A 
ATOM     75  F   UNL A   1      38.830  26.400  30.149  1.00  0.00    -0.203 F 
ATOM     76  F   UNL A   1      41.800  27.652  25.745  1.00  0.00    -0.200 F 
ATOM     77  C   UNL A   1      40.374  26.154  26.882  1.00  0.00     0.200 A 
ATOM     78  F   UNL A   1      38.937  24.692  28.053  1.00  0.00    -0.200 F 
ATOM     79  F   UNL A   1      40.401  25.314  25.838  1.00  0.00    -0.200 F 
ENDBRANCH  55  69
BRANCH  56  80
ATOM     80  C   UNL A   1      39.729  34.042  36.944  1.00  0.00     0.064 A 
ATOM     81  C   UNL A   1      40.448  35.243  37.019  1.00  0.00     0.173 A 
ATOM     82  C   UNL A   1      38.910  33.702  38.030  1.00  0.00     0.173 A 
ATOM     83  F   UNL A   1      41.261  35.600  36.015  1.00  0.00    -0.203 F 
ATOM     84  C   UNL A   1      40.367  36.060  38.145  1.00  0.00     0.198 A 
ATOM     85  C   UNL A   1      38.806  34.535  39.142  1.00  0.00     0.198 A 
ATOM     86  F   UNL A   1      38.196  32.566  38.005  1.00  0.00    -0.203 F 
ATOM     87  F   UNL A   1      41.100  37.179  38.211  1.00  0.00    -0.200 F 
ATOM     88  C   UNL A   1      39.541  35.709  39.202  1.00  0.00     0.200 A 
ATOM     89  F   UNL A   1      37.995  34.200  40.154  1.00  0.00    -0.200 F 
ATOM     90  F   UNL A   1      39.459  36.498  40.282  1.00  0.00    -0.200 F 
ENDBRANCH  56  80
BRANCH  68  91
ATOM     91  C   UNL A   1      43.732  28.558  35.374  1.00  0.00     0.064 A 
ATOM     92  C   UNL A   1      45.083  28.902  35.219  1.00  0.00     0.173 A 
ATOM     93  C   UNL A   1      43.412  27.548  36.294  1.00  0.00     0.173 A 
ATOM     94  F   UNL A   1      45.441  29.849  34.339  1.00  0.00    -0.203 F 
ATOM     95  C   UNL A   1      46.075  28.248  35.944  1.00  0.00     0.198 A 
ATOM     96  C   UNL A   1      44.404  26.917  37.039  1.00  0.00     0.198 A 
ATOM     97  F   UNL A   1      42.135  27.183  36.483  1.00  0.00    -0.203 F 
ATOM     98  F   UNL A   1      47.363  28.563  35.747  1.00  0.00    -0.200 F 
ATOM     99  C   UNL A   1      45.735  27.263  36.858  1.00  0.00     0.200 A 
ATOM    100  F   UNL A   1      44.073  25.975  37.933  1.00  0.00    -0.200 F 
ATOM    101  F   UNL A   1      46.692  26.642  37.563  1.00  0.00    -0.200 F 
ENDBRANCH  68  91
ENDBRANCH  42  43
ENDBRANCH  34  37
ENDBRANCH  32  33
ENDBRANCH  31  32
ENDBRANCH  30  31
ENDBRANCH   1  30
TORSDOF 18
ENDMDL
MODEL 2
REMARK VINA RESULT:     -11.5      3.725      8.684
REMARK SMILES CCCc1cc(OC(F)(F)F)cc2c1O[C@H](C(F)(F)F)C(C(=O)NCCCCCCNC(=O)c1ccc(-c3c4nc(c(-c5c(F)c(F)c(F)c(F)c5F)c5ccc([nH]5)c(-c5c(F)c(F)c(F)c(F)c5F)c5nc(c(-c6c(F)c(F)c(F)c(F)c6F)c6ccc3[nH]6)C=C5)C=C4)cc1)=C2
REMARK SMILES IDX 27 1 26 2 25 3 24 4 22 5 23 6 21 8 4 9 5 10 14 11 6 12 13 13
REMARK SMILES IDX 15 14 12 15 97 16 16 17 3 18 2 19 1 20 7 21 8 22 9 23 10 24
REMARK SMILES IDX 11 25 17 26 18 27 19 28 20 29 28 30 29 31 30 32 31 33 32 34
REMARK SMILES IDX 33 36 34 37 35 38 96 39 36 40 95 41 37 42 38 43 39 44 89 45
REMARK SMILES IDX 40 46 94 47 88 48 90 49 41 50 93 51 87 52 86 53 42 55 74 56
REMARK SMILES IDX 54 57 73 58 55 59 58 60 72 61 91 62 56 63 57 64 71 66 92 67
REMARK SMILES IDX 59 68 43 69 44 70 52 71 45 72 46 73 50 74 53 75 47 76 48 77
REMARK SMILES IDX 51 78 49 79 75 80 76 81 84 82 77 83 78 84 82 85 85 86 79 87
REMARK SMILES IDX 80 88 83 89 81 90 60 91 61 92 69 93 62 94 63 95 67 96 70 97
REMARK SMILES IDX 64 98 65 99 68 100 66 101
REMARK H PARENT 24 7 31 35 90 54 58 65
REMARK Flexibility Score: inf
ROOT
ATOM      1  C   UNL A   1      33.525  28.538  22.782  1.00  0.00     0.002 C 
ENDROOT
BRANCH   1   2
ATOM      2  C   UNL A   1      33.690  27.021  22.947  1.00  0.00     0.021 C 
BRANCH   2   3
ATOM      3  C   UNL A   1      32.763  26.229  22.025  1.00  0.00     0.116 C 
BRANCH   3   4
ATOM      4  N   UNL A   1      31.445  26.149  22.618  1.00  0.00    -0.352 N 
ATOM      5  C   UNL A   1      30.834  25.215  23.385  1.00  0.00     0.251 C 
ATOM      6  O   UNL A   1      29.652  25.413  23.668  1.00  0.00    -0.270 OA
ATOM      7  H   UNL A   1      30.879  26.931  22.425  1.00  0.00     0.163 HD
BRANCH   5   8
ATOM      8  C   UNL A   1      31.550  24.064  24.013  1.00  0.00     0.067 C 
ATOM      9  C   UNL A   1      34.599  21.539  25.396  1.00  0.00    -0.002 A 
ATOM     10  C   UNL A   1      34.607  20.192  24.977  1.00  0.00     0.054 A 
ATOM     11  C   UNL A   1      33.532  22.361  25.003  1.00  0.00     0.131 A 
ATOM     12  C   UNL A   1      33.570  19.679  24.193  1.00  0.00     0.130 A 
ATOM     13  C   UNL A   1      32.503  21.864  24.198  1.00  0.00     0.021 A 
ATOM     14  O   UNL A   1      33.575  23.661  25.408  1.00  0.00    -0.475 OA
ATOM     15  C   UNL A   1      32.528  20.524  23.801  1.00  0.00     0.058 A 
ATOM     16  C   UNL A   1      31.491  22.772  23.664  1.00  0.00     0.025 C 
ATOM     17  C   UNL A   1      32.425  24.503  25.172  1.00  0.00     0.314 C 
BRANCH   9  18
ATOM     18  C   UNL A   1      35.702  22.049  26.304  1.00  0.00     0.039 C 
BRANCH  18  19
ATOM     19  C   UNL A   1      37.066  22.332  25.654  1.00  0.00     0.001 C 
ATOM     20  C   UNL A   1      37.617  23.734  25.879  1.00  0.00     0.004 C 
ENDBRANCH  18  19
ENDBRANCH   9  18
BRANCH  12  21
ATOM     21  O   UNL A   1      33.457  18.401  23.726  1.00  0.00    -0.406 OA
BRANCH  21  22
ATOM     22  C   UNL A   1      33.337  17.353  24.673  1.00  0.00     0.573 C 
ATOM     23  F   UNL A   1      32.782  17.798  25.820  1.00  0.00    -0.132 F 
ATOM     24  F   UNL A   1      32.605  16.331  24.182  1.00  0.00    -0.132 F 
ATOM     25  F   UNL A   1      34.573  16.886  24.958  1.00  0.00    -0.132 F 
ENDBRANCH  21  22
ENDBRANCH  12  21
BRANCH  17  26
ATOM     26  C   UNL A   1      31.634  24.653  26.486  1.00  0.00     0.429 C 
ATOM     27  F   UNL A   1      31.466  25.957  26.822  1.00  0.00    -0.167 F 
ATOM     28  F   UNL A   1      30.395  24.114  26.365  1.00  0.00    -0.167 F 
ATOM     29  F   UNL A   1      32.222  24.061  27.548  1.00  0.00    -0.167 F 
ENDBRANCH  17  26
ENDBRANCH   5   8
ENDBRANCH   3   4
ENDBRANCH   2   3
ENDBRANCH   1   2
BRANCH   1  30
ATOM     30  C   UNL A   1      33.251  29.294  24.089  1.00  0.00     0.002 C 
BRANCH  30  31
ATOM     31  C   UNL A   1      32.918  28.398  25.285  1.00  0.00     0.021 C 
BRANCH  31  32
ATOM     32  C   UNL A   1      33.838  28.604  26.484  1.00  0.00     0.116 C 
BRANCH  32  33
ATOM     33  N   UNL A   1      33.749  29.965  26.995  1.00  0.00    -0.352 N 
ATOM     34  C   UNL A   1      34.584  30.617  27.863  1.00  0.00     0.251 C 
ATOM     35  H   UNL A   1      32.982  30.489  26.671  1.00  0.00     0.163 HD
ATOM     36  O   UNL A   1      34.233  31.667  28.400  1.00  0.00    -0.269 OA
BRANCH  34  37
ATOM     37  C   UNL A   1      35.907  30.041  28.168  1.00  0.00     0.039 A 
ATOM     38  C   UNL A   1      36.926  30.131  27.217  1.00  0.00     0.014 A 
ATOM     39  C   UNL A   1      36.141  29.427  29.402  1.00  0.00     0.014 A 
ATOM     40  C   UNL A   1      38.206  29.677  27.536  1.00  0.00     0.010 A 
ATOM     41  C   UNL A   1      37.431  29.036  29.743  1.00  0.00     0.010 A 
ATOM     42  C   UNL A   1      38.478  29.169  28.817  1.00  0.00    -0.014 A 
BRANCH  42  43
ATOM     43  C   UNL A   1      39.859  28.820  29.230  1.00  0.00     0.031 A 
ATOM     44  C   UNL A   1      40.675  29.781  30.046  1.00  0.00     0.074 A 
ATOM     45  C   UNL A   1      40.404  27.668  28.792  1.00  0.00     0.049 A 
ATOM     46  N   UNL A   1      41.926  29.692  30.421  1.00  0.00    -0.248 NA
ATOM     47  C   UNL A   1      40.002  31.016  30.479  1.00  0.00     0.031 C 
ATOM     48  C   UNL A   1      39.724  26.678  27.955  1.00  0.00     0.029 A 
ATOM     49  N   UNL A   1      41.659  27.144  28.971  1.00  0.00    -0.354 N 
ATOM     50  C   UNL A   1      42.192  30.859  31.124  1.00  0.00     0.074 A 
ATOM     51  C   UNL A   1      40.989  31.663  31.082  1.00  0.00     0.031 C 
ATOM     52  C   UNL A   1      40.563  25.661  27.708  1.00  0.00     0.029 A 
ATOM     53  C   UNL A   1      41.852  25.946  28.327  1.00  0.00     0.049 A 
ATOM     54  H   UNL A   1      42.355  27.584  29.511  1.00  0.00     0.167 HD
ATOM     55  C   UNL A   1      43.333  31.216  31.761  1.00  0.00     0.037 A 
ATOM     56  C   UNL A   1      42.952  25.176  28.230  1.00  0.00     0.037 A 
ATOM     57  C   UNL A   1      44.521  30.404  31.809  1.00  0.00     0.049 A 
ATOM     58  C   UNL A   1      44.216  25.614  28.919  1.00  0.00     0.074 A 
ATOM     59  C   UNL A   1      45.703  30.643  32.488  1.00  0.00     0.029 A 
ATOM     60  N   UNL A   1      44.681  29.198  31.142  1.00  0.00    -0.354 N 
ATOM     61  N   UNL A   1      44.433  26.681  29.647  1.00  0.00    -0.248 NA
ATOM     62  C   UNL A   1      45.387  24.740  28.770  1.00  0.00     0.031 C 
ATOM     63  C   UNL A   1      46.597  29.611  32.187  1.00  0.00     0.029 A 
ATOM     64  C   UNL A   1      45.957  28.701  31.362  1.00  0.00     0.049 A 
ATOM     65  H   UNL A   1      43.992  28.759  30.593  1.00  0.00     0.167 HD
ATOM     66  C   UNL A   1      45.757  26.601  30.056  1.00  0.00     0.074 A 
ATOM     67  C   UNL A   1      46.287  25.367  29.514  1.00  0.00     0.031 C 
ATOM     68  C   UNL A   1      46.471  27.474  30.809  1.00  0.00     0.037 A 
BRANCH  55  69
ATOM     69  C   UNL A   1      43.354  32.544  32.461  1.00  0.00     0.064 A 
ATOM     70  C   UNL A   1      43.782  33.712  31.812  1.00  0.00     0.173 A 
ATOM     71  C   UNL A   1      42.893  32.659  33.781  1.00  0.00     0.173 A 
ATOM     72  F   UNL A   1      44.241  33.654  30.552  1.00  0.00    -0.203 F 
ATOM     73  C   UNL A   1      43.774  34.941  32.466  1.00  0.00     0.198 A 
ATOM     74  C   UNL A   1      42.857  33.895  34.423  1.00  0.00     0.198 A 
ATOM     75  F   UNL A   1      42.466  31.576  34.446  1.00  0.00    -0.203 F 
ATOM     76  F   UNL A   1      44.230  36.034  31.841  1.00  0.00    -0.200 F 
ATOM     77  C   UNL A   1      43.304  35.032  33.767  1.00  0.00     0.200 A 
ATOM     78  F   UNL A   1      42.390  33.984  35.675  1.00  0.00    -0.200 F 
ATOM     79  F   UNL A   1      43.287  36.218  34.393  1.00  0.00    -0.200 F 
ENDBRANCH  55  69
BRANCH  56  80
ATOM     80  C   UNL A   1      42.906  23.910  27.452  1.00  0.00     0.064 A 
ATOM     81  C   UNL A   1      42.461  22.719  28.041  1.00  0.00     0.173 A 
ATOM     82  C   UNL A   1      43.306  23.864  26.109  1.00  0.00     0.173 A 
ATOM     83  F   UNL A   1      42.088  22.709  29.329  1.00  0.00    -0.203 F 
ATOM     84  C   UNL A   1      42.437  21.525  27.322  1.00  0.00     0.198 A 
ATOM     85  C   UNL A   1      43.253  22.676  25.382  1.00  0.00     0.198 A 
ATOM     86  F   UNL A   1      43.734  24.977  25.496  1.00  0.00    -0.203 F 
ATOM     87  F   UNL A   1      42.051  20.392  27.924  1.00  0.00    -0.200 F 
ATOM     88  C   UNL A   1      42.826  21.506  25.992  1.00  0.00     0.200 A 
ATOM     89  F   UNL A   1      43.615  22.666  24.092  1.00  0.00    -0.200 F 
ATOM     90  F   UNL A   1      42.798  20.360  25.299  1.00  0.00    -0.200 F 
ENDBRANCH  56  80
BRANCH  68  91
ATOM     91  C   UNL A   1      47.901  27.122  31.098  1.00  0.00     0.064 A 
ATOM     92  C   UNL A   1      48.246  26.289  32.173  1.00  0.00     0.173 A 
ATOM     93  C   UNL A   1      48.933  27.585  30.268  1.00  0.00     0.173 A 
ATOM     94  F   UNL A   1      47.297  25.834  33.006  1.00  0.00    -0.203 F 
ATOM     95  C   UNL A   1      49.573  25.949  32.417  1.00  0.00     0.198 A 
ATOM     96  C   UNL A   1      50.256  27.219  30.497  1.00  0.00     0.198 A 
ATOM     97  F   UNL A   1      48.657  28.381  29.224  1.00  0.00    -0.203 F 
ATOM     98  F   UNL A   1      49.884  25.189  33.476  1.00  0.00    -0.200 F 
ATOM     99  C   UNL A   1      50.576  26.407  31.575  1.00  0.00     0.200 A 
ATOM    100  F   UNL A   1      51.222  27.650  29.675  1.00  0.00    -0.200 F 
ATOM    101  F   UNL A   1      51.853  26.070  31.806  1.00  0.00    -0.200 F 
ENDBRANCH  68  91
ENDBRANCH  42  43
ENDBRANCH  34  37
ENDBRANCH  32  33
ENDBRANCH  31  32
ENDBRANCH  30  31
ENDBRANCH   1  30
TORSDOF 18
ENDMDL
MODEL 3
REMARK VINA RESULT:     -11.4      2.136      3.352
REMARK SMILES CCCc1cc(OC(F)(F)F)cc2c1O[C@H](C(F)(F)F)C(C(=O)NCCCCCCNC(=O)c1ccc(-c3c4nc(c(-c5c(F)c(F)c(F)c(F)c5F)c5ccc([nH]5)c(-c5c(F)c(F)c(F)c(F)c5F)c5nc(c(-c6c(F)c(F)c(F)c(F)c6F)c6ccc3[nH]6)C=C5)C=C4)cc1)=C2
REMARK SMILES IDX 27 1 26 2 25 3 24 4 22 5 23 6 21 8 4 9 5 10 14 11 6 12 13 13
REMARK SMILES IDX 15 14 12 15 97 16 16 17 3 18 2 19 1 20 7 21 8 22 9 23 10 24
REMARK SMILES IDX 11 25 17 26 18 27 19 28 20 29 28 30 29 31 30 32 31 33 32 34
REMARK SMILES IDX 33 36 34 37 35 38 96 39 36 40 95 41 37 42 38 43 39 44 89 45
REMARK SMILES IDX 40 46 94 47 88 48 90 49 41 50 93 51 87 52 86 53 42 55 74 56
REMARK SMILES IDX 54 57 73 58 55 59 58 60 72 61 91 62 56 63 57 64 71 66 92 67
REMARK SMILES IDX 59 68 43 69 44 70 52 71 45 72 46 73 50 74 53 75 47 76 48 77
REMARK SMILES IDX 51 78 49 79 75 80 76 81 84 82 77 83 78 84 82 85 85 86 79 87
REMARK SMILES IDX 80 88 83 89 81 90 60 91 61 92 69 93 62 94 63 95 67 96 70 97
REMARK SMILES IDX 64 98 65 99 68 100 66 101
REMARK H PARENT 24 7 31 35 90 54 58 65
REMARK Flexibility Score: inf
ROOT
ATOM      1  C   UNL A   1      32.699  28.588  23.450  1.00  0.00     0.002 C 
ENDROOT
BRANCH   1   2
ATOM      2  C   UNL A   1      33.671  27.457  23.081  1.00  0.00     0.021 C 
BRANCH   2   3
ATOM      3  C   UNL A   1      33.012  26.378  22.221  1.00  0.00     0.116 C 
BRANCH   3   4
ATOM      4  N   UNL A   1      31.702  26.071  22.753  1.00  0.00    -0.352 N 
ATOM      5  C   UNL A   1      31.209  25.010  23.436  1.00  0.00     0.251 C 
ATOM      6  O   UNL A   1      30.002  25.016  23.680  1.00  0.00    -0.270 OA
ATOM      7  H   UNL A   1      31.034  26.775  22.585  1.00  0.00     0.163 HD
BRANCH   5   8
ATOM      8  C   UNL A   1      32.064  23.934  24.021  1.00  0.00     0.067 C 
ATOM      9  C   UNL A   1      35.245  21.278  24.671  1.00  0.00    -0.002 A 
ATOM     10  C   UNL A   1      34.972  19.897  24.738  1.00  0.00     0.054 A 
ATOM     11  C   UNL A   1      34.171  22.172  24.540  1.00  0.00     0.131 A 
ATOM     12  C   UNL A   1      33.659  19.421  24.684  1.00  0.00     0.130 A 
ATOM     13  C   UNL A   1      32.856  21.705  24.459  1.00  0.00     0.021 A 
ATOM     14  O   UNL A   1      34.479  23.497  24.454  1.00  0.00    -0.475 OA
ATOM     15  C   UNL A   1      32.609  20.331  24.535  1.00  0.00     0.058 A 
ATOM     16  C   UNL A   1      31.770  22.634  24.158  1.00  0.00     0.025 C 
ATOM     17  C   UNL A   1      33.408  24.465  24.485  1.00  0.00     0.314 C 
BRANCH   9  18
ATOM     18  C   UNL A   1      36.674  21.769  24.803  1.00  0.00     0.039 C 
BRANCH  18  19
ATOM     19  C   UNL A   1      37.754  20.707  25.070  1.00  0.00     0.001 C 
ATOM     20  C   UNL A   1      38.983  21.201  25.822  1.00  0.00     0.004 C 
ENDBRANCH  18  19
ENDBRANCH   9  18
BRANCH  12  21
ATOM     21  O   UNL A   1      33.261  18.116  24.740  1.00  0.00    -0.406 OA
BRANCH  21  22
ATOM     22  C   UNL A   1      33.508  17.295  23.612  1.00  0.00     0.573 C 
ATOM     23  F   UNL A   1      34.796  17.382  23.221  1.00  0.00    -0.132 F 
ATOM     24  F   UNL A   1      33.198  16.006  23.867  1.00  0.00    -0.132 F 
ATOM     25  F   UNL A   1      32.729  17.719  22.591  1.00  0.00    -0.132 F 
ENDBRANCH  21  22
ENDBRANCH  12  21
BRANCH  17  26
ATOM     26  C   UNL A   1      33.340  25.095  25.890  1.00  0.00     0.429 C 
ATOM     27  F   UNL A   1      33.657  24.194  26.856  1.00  0.00    -0.167 F 
ATOM     28  F   UNL A   1      34.223  26.119  26.001  1.00  0.00    -0.167 F 
ATOM     29  F   UNL A   1      32.123  25.583  26.212  1.00  0.00    -0.167 F 
ENDBRANCH  17  26
ENDBRANCH   5   8
ENDBRANCH   3   4
ENDBRANCH   2   3
ENDBRANCH   1   2
BRANCH   1  30
ATOM     30  C   UNL A   1      32.203  28.551  24.901  1.00  0.00     0.002 C 
BRANCH  30  31
ATOM     31  C   UNL A   1      31.761  29.907  25.458  1.00  0.00     0.021 C 
BRANCH  31  32
ATOM     32  C   UNL A   1      32.577  30.377  26.657  1.00  0.00     0.116 C 
BRANCH  32  33
ATOM     33  N   UNL A   1      32.542  31.828  26.787  1.00  0.00    -0.352 N 
ATOM     34  C   UNL A   1      33.361  32.648  27.516  1.00  0.00     0.251 C 
ATOM     35  H   UNL A   1      31.831  32.281  26.279  1.00  0.00     0.163 HD
ATOM     36  O   UNL A   1      33.044  33.818  27.732  1.00  0.00    -0.269 OA
BRANCH  34  37
ATOM     37  C   UNL A   1      34.624  32.115  28.061  1.00  0.00     0.039 A 
ATOM     38  C   UNL A   1      35.753  32.935  28.094  1.00  0.00     0.014 A 
ATOM     39  C   UNL A   1      34.681  30.808  28.555  1.00  0.00     0.014 A 
ATOM     40  C   UNL A   1      36.923  32.471  28.698  1.00  0.00     0.010 A 
ATOM     41  C   UNL A   1      35.825  30.371  29.214  1.00  0.00     0.010 A 
ATOM     42  C   UNL A   1      36.951  31.203  29.302  1.00  0.00    -0.014 A 
BRANCH  42  43
ATOM     43  C   UNL A   1      38.131  30.747  30.079  1.00  0.00     0.031 A 
ATOM     44  C   UNL A   1      39.100  29.768  29.483  1.00  0.00     0.074 A 
ATOM     45  C   UNL A   1      38.273  31.154  31.355  1.00  0.00     0.049 A 
ATOM     46  N   UNL A   1      40.132  29.185  30.038  1.00  0.00    -0.248 NA
ATOM     47  C   UNL A   1      38.867  29.375  28.084  1.00  0.00     0.031 C 
ATOM     48  C   UNL A   1      37.369  32.067  32.056  1.00  0.00     0.029 A 
ATOM     49  N   UNL A   1      39.220  30.838  32.296  1.00  0.00    -0.354 N 
ATOM     50  C   UNL A   1      40.665  28.352  29.064  1.00  0.00     0.074 A 
ATOM     51  C   UNL A   1      39.814  28.466  27.898  1.00  0.00     0.031 C 
ATOM     52  C   UNL A   1      37.813  32.250  33.308  1.00  0.00     0.029 A 
ATOM     53  C   UNL A   1      39.004  31.434  33.515  1.00  0.00     0.049 A 
ATOM     54  H   UNL A   1      39.983  30.242  32.115  1.00  0.00     0.167 HD
ATOM     55  C   UNL A   1      41.773  27.577  29.132  1.00  0.00     0.037 A 
ATOM     56  C   UNL A   1      39.679  31.317  34.674  1.00  0.00     0.037 A 
ATOM     57  C   UNL A   1      42.622  27.480  30.292  1.00  0.00     0.049 A 
ATOM     58  C   UNL A   1      40.886  30.423  34.732  1.00  0.00     0.074 A 
ATOM     59  C   UNL A   1      43.807  26.780  30.437  1.00  0.00     0.029 A 
ATOM     60  N   UNL A   1      42.370  28.095  31.509  1.00  0.00    -0.354 N 
ATOM     61  N   UNL A   1      41.427  29.700  33.781  1.00  0.00    -0.248 NA
ATOM     62  C   UNL A   1      41.577  30.326  36.026  1.00  0.00     0.031 C 
ATOM     63  C   UNL A   1      44.241  26.925  31.758  1.00  0.00     0.029 A 
ATOM     64  C   UNL A   1      43.356  27.758  32.423  1.00  0.00     0.049 A 
ATOM     65  H   UNL A   1      41.603  28.683  31.698  1.00  0.00     0.167 HD
ATOM     66  C   UNL A   1      42.526  29.077  34.354  1.00  0.00     0.074 A 
ATOM     67  C   UNL A   1      42.591  29.525  35.729  1.00  0.00     0.031 C 
ATOM     68  C   UNL A   1      43.401  28.207  33.791  1.00  0.00     0.037 A 
BRANCH  55  69
ATOM     69  C   UNL A   1      42.136  26.771  27.919  1.00  0.00     0.064 A 
ATOM     70  C   UNL A   1      41.608  25.490  27.701  1.00  0.00     0.173 A 
ATOM     71  C   UNL A   1      42.984  27.306  26.937  1.00  0.00     0.173 A 
ATOM     72  F   UNL A   1      40.801  24.929  28.614  1.00  0.00    -0.203 F 
ATOM     73  C   UNL A   1      41.936  24.763  26.559  1.00  0.00     0.198 A 
ATOM     74  C   UNL A   1      43.285  26.590  25.781  1.00  0.00     0.198 A 
ATOM     75  F   UNL A   1      43.510  28.530  27.091  1.00  0.00    -0.203 F 
ATOM     76  F   UNL A   1      41.455  23.523  26.395  1.00  0.00    -0.200 F 
ATOM     77  C   UNL A   1      42.766  25.317  25.597  1.00  0.00     0.200 A 
ATOM     78  F   UNL A   1      44.076  27.132  24.846  1.00  0.00    -0.200 F 
ATOM     79  F   UNL A   1      43.073  24.621  24.493  1.00  0.00    -0.200 F 
ENDBRANCH  55  69
BRANCH  56  80
ATOM     80  C   UNL A   1      39.228  32.070  35.875  1.00  0.00     0.064 A 
ATOM     81  C   UNL A   1      39.684  33.373  36.120  1.00  0.00     0.173 A 
ATOM     82  C   UNL A   1      38.338  31.505  36.799  1.00  0.00     0.173 A 
ATOM     83  F   UNL A   1      40.552  33.948  35.275  1.00  0.00    -0.203 F 
ATOM     84  C   UNL A   1      39.282  34.074  37.255  1.00  0.00     0.198 A 
ATOM     85  C   UNL A   1      37.914  32.219  37.918  1.00  0.00     0.198 A 
ATOM     86  F   UNL A   1      37.868  30.264  36.608  1.00  0.00    -0.203 F 
ATOM     87  F   UNL A   1      39.768  35.300  37.489  1.00  0.00    -0.200 F 
ATOM     88  C   UNL A   1      38.392  33.500  38.149  1.00  0.00     0.200 A 
ATOM     89  F   UNL A   1      37.041  31.666  38.771  1.00  0.00    -0.200 F 
ATOM     90  F   UNL A   1      38.002  34.176  39.238  1.00  0.00    -0.200 F 
ENDBRANCH  56  80
BRANCH  68  91
ATOM     91  C   UNL A   1      44.509  27.689  34.662  1.00  0.00     0.064 A 
ATOM     92  C   UNL A   1      45.720  28.385  34.796  1.00  0.00     0.173 A 
ATOM     93  C   UNL A   1      44.344  26.508  35.401  1.00  0.00     0.173 A 
ATOM     94  F   UNL A   1      45.933  29.509  34.096  1.00  0.00    -0.203 F 
ATOM     95  C   UNL A   1      46.731  27.907  35.625  1.00  0.00     0.198 A 
ATOM     96  C   UNL A   1      45.345  26.049  36.252  1.00  0.00     0.198 A 
ATOM     97  F   UNL A   1      43.204  25.806  35.311  1.00  0.00    -0.203 F 
ATOM     98  F   UNL A   1      47.896  28.564  35.704  1.00  0.00    -0.200 F 
ATOM     99  C   UNL A   1      46.540  26.745  36.358  1.00  0.00     0.200 A 
ATOM    100  F   UNL A   1      45.154  24.934  36.970  1.00  0.00    -0.200 F 
ATOM    101  F   UNL A   1      47.511  26.293  37.163  1.00  0.00    -0.200 F 
ENDBRANCH  68  91
ENDBRANCH  42  43
ENDBRANCH  34  37
ENDBRANCH  32  33
ENDBRANCH  31  32
ENDBRANCH  30  31
ENDBRANCH   1  30
TORSDOF 18
ENDMDL
