MODEL 1
REMARK VINA RESULT:     -12.8      0.000      0.000
REMARK SMILES CC(=O)Nc1cccc(-c2ccc(F)c(C(=O)NCCCCCCNC(=O)c3ccc(-c4c5nc(c(-c6c(F)c(F)c(F)c(F)c6F)c6ccc([nH]6)c(-c6c(F)c(F)c(F)c(F)c6F)c6nc(c(-c7c(F)c(F)c(F)c(F)c7F)c7ccc4[nH]7)C=C6)C=C5)cc3)c2)c1
REMARK SMILES IDX 21 1 20 2 19 3 18 4 16 5 17 6 15 8 10 9 11 10 91 11 12 12
REMARK SMILES IDX 13 13 14 14 9 15 5 16 6 17 92 18 7 19 8 20 4 21 1 22 2 23
REMARK SMILES IDX 3 24 22 26 23 27 24 28 25 29 26 30 27 32 28 33 29 34 90 35
REMARK SMILES IDX 30 36 89 37 31 38 32 39 33 40 83 41 34 42 88 43 82 44 84 45
REMARK SMILES IDX 35 46 87 47 81 48 80 49 36 51 68 52 48 53 67 54 49 55 52 56
REMARK SMILES IDX 66 57 85 58 50 59 51 60 65 62 86 63 53 64 37 65 38 66 46 67
REMARK SMILES IDX 39 68 40 69 44 70 47 71 41 72 42 73 45 74 43 75 69 76 70 77
REMARK SMILES IDX 78 78 71 79 72 80 76 81 79 82 73 83 74 84 77 85 75 86 54 87
REMARK SMILES IDX 55 88 63 89 56 90 57 91 61 92 64 93 58 94 59 95 62 96 60 97
REMARK H PARENT 18 7 4 25 25 31 84 50 52 61
REMARK Flexibility Score: inf
ROOT
ATOM      1  C   UNL A   1      31.848  29.636  26.883  1.00  0.00     0.002 C 
ENDROOT
BRANCH   1   2
ATOM      2  C   UNL A   1      33.312  29.392  27.244  1.00  0.00     0.021 C 
BRANCH   2   3
ATOM      3  C   UNL A   1      34.016  28.249  26.524  1.00  0.00     0.116 C 
BRANCH   3   4
ATOM      4  N   UNL A   1      34.574  28.595  25.227  1.00  0.00    -0.352 N 
ATOM      5  C   UNL A   1      34.137  28.354  23.938  1.00  0.00     0.254 C 
ATOM      6  O   UNL A   1      34.800  28.818  23.013  1.00  0.00    -0.269 OA
ATOM      7  H   UNL A   1      35.421  29.096  25.275  1.00  0.00     0.163 HD
BRANCH   5   8
ATOM      8  C   UNL A   1      32.925  27.541  23.645  1.00  0.00     0.076 A 
ATOM      9  C   UNL A   1      30.517  27.416  23.198  1.00  0.00    -0.017 A 
ATOM     10  C   UNL A   1      30.566  26.032  23.401  1.00  0.00     0.012 A 
ATOM     11  C   UNL A   1      31.733  28.125  23.212  1.00  0.00     0.025 A 
ATOM     12  C   UNL A   1      31.782  25.402  23.681  1.00  0.00     0.041 A 
ATOM     13  C   UNL A   1      32.944  26.160  23.837  1.00  0.00     0.135 A 
ATOM     14  F   UNL A   1      34.061  25.518  24.211  1.00  0.00    -0.206 F 
BRANCH   9  15
ATOM     15  C   UNL A   1      29.250  28.173  23.129  1.00  0.00    -0.016 A 
ATOM     16  C   UNL A   1      28.082  30.326  23.205  1.00  0.00     0.041 A 
ATOM     17  C   UNL A   1      26.884  29.656  23.470  1.00  0.00     0.026 A 
ATOM     18  C   UNL A   1      29.249  29.578  23.039  1.00  0.00     0.034 A 
ATOM     19  C   UNL A   1      26.848  28.263  23.512  1.00  0.00     0.003 A 
ATOM     20  C   UNL A   1      28.021  27.528  23.341  1.00  0.00     0.009 A 
BRANCH  16  21
ATOM     21  N   UNL A   1      28.054  31.730  23.224  1.00  0.00    -0.326 N 
ATOM     22  C   UNL A   1      28.074  32.265  20.787  1.00  0.00     0.114 C 
ATOM     23  C   UNL A   1      28.196  32.659  22.234  1.00  0.00     0.221 C 
ATOM     24  O   UNL A   1      28.376  33.837  22.548  1.00  0.00    -0.275 OA
ATOM     25  H   UNL A   1      27.904  32.116  24.117  1.00  0.00     0.169 HD
ENDBRANCH  16  21
ENDBRANCH   9  15
ENDBRANCH   5   8
ENDBRANCH   3   4
ENDBRANCH   2   3
ENDBRANCH   1   2
BRANCH   1  26
ATOM     26  C   UNL A   1      31.560  30.813  25.947  1.00  0.00     0.002 C 
BRANCH  26  27
ATOM     27  C   UNL A   1      31.343  32.175  26.611  1.00  0.00     0.021 C 
BRANCH  27  28
ATOM     28  C   UNL A   1      32.585  32.836  27.198  1.00  0.00     0.116 C 
BRANCH  28  29
ATOM     29  N   UNL A   1      32.356  34.214  27.597  1.00  0.00    -0.352 N 
ATOM     30  C   UNL A   1      32.969  34.960  28.575  1.00  0.00     0.251 C 
ATOM     31  H   UNL A   1      31.657  34.686  27.090  1.00  0.00     0.163 HD
ATOM     32  O   UNL A   1      32.533  36.068  28.866  1.00  0.00    -0.269 OA
BRANCH  30  33
ATOM     33  C   UNL A   1      34.142  34.423  29.300  1.00  0.00     0.039 A 
ATOM     34  C   UNL A   1      33.941  33.798  30.534  1.00  0.00     0.014 A 
ATOM     35  C   UNL A   1      35.435  34.548  28.783  1.00  0.00     0.014 A 
ATOM     36  C   UNL A   1      35.026  33.249  31.219  1.00  0.00     0.010 A 
ATOM     37  C   UNL A   1      36.504  33.935  29.430  1.00  0.00     0.010 A 
ATOM     38  C   UNL A   1      36.313  33.283  30.657  1.00  0.00    -0.014 A 
BRANCH  38  39
ATOM     39  C   UNL A   1      37.463  32.636  31.339  1.00  0.00     0.031 A 
ATOM     40  C   UNL A   1      38.180  31.482  30.696  1.00  0.00     0.074 A 
ATOM     41  C   UNL A   1      37.820  33.044  32.571  1.00  0.00     0.049 A 
ATOM     42  N   UNL A   1      39.168  30.756  31.158  1.00  0.00    -0.248 NA
ATOM     43  C   UNL A   1      37.699  31.066  29.370  1.00  0.00     0.031 C 
ATOM     44  C   UNL A   1      37.165  34.112  33.326  1.00  0.00     0.029 A 
ATOM     45  N   UNL A   1      38.811  32.600  33.411  1.00  0.00    -0.354 N 
ATOM     46  C   UNL A   1      39.414  29.792  30.189  1.00  0.00     0.074 A 
ATOM     47  C   UNL A   1      38.434  29.988  29.143  1.00  0.00     0.031 C 
ATOM     48  C   UNL A   1      37.781  34.253  34.511  1.00  0.00     0.029 A 
ATOM     49  C   UNL A   1      38.849  33.262  34.613  1.00  0.00     0.049 A 
ATOM     50  H   UNL A   1      39.434  31.875  33.175  1.00  0.00     0.167 HD
ATOM     51  C   UNL A   1      40.382  28.844  30.166  1.00  0.00     0.037 A 
ATOM     52  C   UNL A   1      39.646  33.085  35.684  1.00  0.00     0.037 A 
ATOM     53  C   UNL A   1      41.364  28.666  31.205  1.00  0.00     0.049 A 
ATOM     54  C   UNL A   1      40.718  32.032  35.636  1.00  0.00     0.074 A 
ATOM     55  C   UNL A   1      42.433  27.789  31.242  1.00  0.00     0.029 A 
ATOM     56  N   UNL A   1      41.386  29.372  32.401  1.00  0.00    -0.354 N 
ATOM     57  N   UNL A   1      40.999  31.183  34.678  1.00  0.00    -0.248 NA
ATOM     58  C   UNL A   1      41.590  31.921  36.813  1.00  0.00     0.031 C 
ATOM     59  C   UNL A   1      43.063  27.919  32.484  1.00  0.00     0.029 A 
ATOM     60  C   UNL A   1      42.429  28.924  33.197  1.00  0.00     0.049 A 
ATOM     61  H   UNL A   1      40.754  30.086  32.646  1.00  0.00     0.167 HD
ATOM     62  C   UNL A   1      42.090  30.449  35.126  1.00  0.00     0.074 A 
ATOM     63  C   UNL A   1      42.429  30.967  36.436  1.00  0.00     0.031 C 
ATOM     64  C   UNL A   1      42.750  29.440  34.505  1.00  0.00     0.037 A 
BRANCH  51  65
ATOM     65  C   UNL A   1      40.410  27.916  28.983  1.00  0.00     0.064 A 
ATOM     66  C   UNL A   1      41.171  28.196  27.836  1.00  0.00     0.173 A 
ATOM     67  C   UNL A   1      39.665  26.727  28.996  1.00  0.00     0.173 A 
ATOM     68  F   UNL A   1      41.896  29.322  27.766  1.00  0.00    -0.203 F 
ATOM     69  C   UNL A   1      41.144  27.349  26.731  1.00  0.00     0.198 A 
ATOM     70  C   UNL A   1      39.670  25.862  27.904  1.00  0.00     0.198 A 
ATOM     71  F   UNL A   1      38.926  26.402  30.067  1.00  0.00    -0.203 F 
ATOM     72  F   UNL A   1      41.821  27.676  25.621  1.00  0.00    -0.200 F 
ATOM     73  C   UNL A   1      40.397  26.181  26.768  1.00  0.00     0.200 A 
ATOM     74  F   UNL A   1      38.960  24.726  27.947  1.00  0.00    -0.200 F 
ATOM     75  F   UNL A   1      40.370  25.369  25.702  1.00  0.00    -0.200 F 
ENDBRANCH  51  65
BRANCH  52  76
ATOM     76  C   UNL A   1      39.465  33.951  36.878  1.00  0.00     0.064 A 
ATOM     77  C   UNL A   1      38.730  33.510  37.985  1.00  0.00     0.173 A 
ATOM     78  C   UNL A   1      40.060  35.220  36.949  1.00  0.00     0.173 A 
ATOM     79  F   UNL A   1      38.126  32.314  37.954  1.00  0.00    -0.203 F 
ATOM     80  C   UNL A   1      38.590  34.308  39.119  1.00  0.00     0.198 A 
ATOM     81  C   UNL A   1      39.943  36.005  38.094  1.00  0.00     0.198 A 
ATOM     82  F   UNL A   1      40.776  35.684  35.916  1.00  0.00    -0.203 F 
ATOM     83  F   UNL A   1      37.856  33.876  40.153  1.00  0.00    -0.200 F 
ATOM     84  C   UNL A   1      39.205  35.550  39.177  1.00  0.00     0.200 A 
ATOM     85  F   UNL A   1      40.548  37.199  38.150  1.00  0.00    -0.200 F 
ATOM     86  F   UNL A   1      39.083  36.310  40.274  1.00  0.00    -0.200 F 
ENDBRANCH  52  76
BRANCH  64  87
ATOM     87  C   UNL A   1      43.923  28.837  35.228  1.00  0.00     0.064 A 
ATOM     88  C   UNL A   1      43.770  27.767  36.122  1.00  0.00     0.173 A 
ATOM     89  C   UNL A   1      45.223  29.313  34.991  1.00  0.00     0.173 A 
ATOM     90  F   UNL A   1      42.548  27.284  36.393  1.00  0.00    -0.203 F 
ATOM     91  C   UNL A   1      44.871  27.213  36.771  1.00  0.00     0.198 A 
ATOM     92  C   UNL A   1      46.324  28.735  35.617  1.00  0.00     0.198 A 
ATOM     93  F   UNL A   1      45.426  30.331  34.141  1.00  0.00    -0.203 F 
ATOM     94  F   UNL A   1      44.694  26.224  37.659  1.00  0.00    -0.200 F 
ATOM     95  C   UNL A   1      46.146  27.691  36.513  1.00  0.00     0.200 A 
ATOM     96  F   UNL A   1      47.557  29.189  35.353  1.00  0.00    -0.200 F 
ATOM     97  F   UNL A   1      47.204  27.152  37.132  1.00  0.00    -0.200 F 
ENDBRANCH  64  87
ENDBRANCH  38  39
ENDBRANCH  30  33
ENDBRANCH  28  29
ENDBRANCH  27  28
ENDBRANCH  26  27
ENDBRANCH   1  26
TORSDOF 15
ENDMDL
MODEL 2
REMARK VINA RESULT:     -12.7      1.544      7.502
REMARK SMILES CC(=O)Nc1cccc(-c2ccc(F)c(C(=O)NCCCCCCNC(=O)c3ccc(-c4c5nc(c(-c6c(F)c(F)c(F)c(F)c6F)c6ccc([nH]6)c(-c6c(F)c(F)c(F)c(F)c6F)c6nc(c(-c7c(F)c(F)c(F)c(F)c7F)c7ccc4[nH]7)C=C6)C=C5)cc3)c2)c1
REMARK SMILES IDX 21 1 20 2 19 3 18 4 16 5 17 6 15 8 10 9 11 10 91 11 12 12
REMARK SMILES IDX 13 13 14 14 9 15 5 16 6 17 92 18 7 19 8 20 4 21 1 22 2 23
REMARK SMILES IDX 3 24 22 26 23 27 24 28 25 29 26 30 27 32 28 33 29 34 90 35
REMARK SMILES IDX 30 36 89 37 31 38 32 39 33 40 83 41 34 42 88 43 82 44 84 45
REMARK SMILES IDX 35 46 87 47 81 48 80 49 36 51 68 52 48 53 67 54 49 55 52 56
REMARK SMILES IDX 66 57 85 58 50 59 51 60 65 62 86 63 53 64 37 65 38 66 46 67
REMARK SMILES IDX 39 68 40 69 44 70 47 71 41 72 42 73 45 74 43 75 69 76 70 77
REMARK SMILES IDX 78 78 71 79 72 80 76 81 79 82 73 83 74 84 77 85 75 86 54 87
REMARK SMILES IDX 55 88 63 89 56 90 57 91 61 92 64 93 58 94 59 95 62 96 60 97
REMARK H PARENT 18 7 4 25 25 31 84 50 52 61
REMARK Flexibility Score: inf
ROOT
ATOM      1  C   UNL A   1      34.184  32.193  28.716  1.00  0.00     0.002 C 
ENDROOT
BRANCH   1   2
ATOM      2  C   UNL A   1      35.144  31.242  28.002  1.00  0.00     0.021 C 
BRANCH   2   3
ATOM      3  C   UNL A   1      34.517  30.173  27.115  1.00  0.00     0.116 C 
BRANCH   3   4
ATOM      4  N   UNL A   1      33.479  29.380  27.754  1.00  0.00    -0.352 N 
ATOM      5  C   UNL A   1      32.571  28.467  27.251  1.00  0.00     0.254 C 
ATOM      6  O   UNL A   1      31.829  27.899  28.049  1.00  0.00    -0.269 OA
ATOM      7  H   UNL A   1      33.411  29.517  28.727  1.00  0.00     0.163 HD
BRANCH   5   8
ATOM      8  C   UNL A   1      32.452  28.179  25.796  1.00  0.00     0.076 A 
ATOM      9  C   UNL A   1      31.140  28.241  23.725  1.00  0.00    -0.017 A 
ATOM     10  C   UNL A   1      32.065  27.376  23.130  1.00  0.00     0.012 A 
ATOM     11  C   UNL A   1      31.424  28.717  25.019  1.00  0.00     0.025 A 
ATOM     12  C   UNL A   1      33.190  26.949  23.840  1.00  0.00     0.041 A 
ATOM     13  C   UNL A   1      33.360  27.322  25.175  1.00  0.00     0.135 A 
ATOM     14  F   UNL A   1      34.399  26.798  25.841  1.00  0.00    -0.206 F 
BRANCH   9  15
ATOM     15  C   UNL A   1      29.824  28.546  23.126  1.00  0.00    -0.016 A 
ATOM     16  C   UNL A   1      28.370  30.120  21.936  1.00  0.00     0.041 A 
ATOM     17  C   UNL A   1      27.253  29.401  22.369  1.00  0.00     0.026 A 
ATOM     18  C   UNL A   1      29.641  29.686  22.320  1.00  0.00     0.034 A 
ATOM     19  C   UNL A   1      27.409  28.239  23.124  1.00  0.00     0.003 A 
ATOM     20  C   UNL A   1      28.685  27.815  23.497  1.00  0.00     0.009 A 
BRANCH  16  21
ATOM     21  N   UNL A   1      28.137  31.305  21.219  1.00  0.00    -0.326 N 
ATOM     22  C   UNL A   1      28.746  33.039  22.907  1.00  0.00     0.114 C 
ATOM     23  C   UNL A   1      28.130  32.616  21.601  1.00  0.00     0.221 C 
ATOM     24  O   UNL A   1      27.653  33.454  20.833  1.00  0.00    -0.275 OA
ATOM     25  H   UNL A   1      27.941  31.165  20.264  1.00  0.00     0.169 HD
ENDBRANCH  16  21
ENDBRANCH   9  15
ENDBRANCH   5   8
ENDBRANCH   3   4
ENDBRANCH   2   3
ENDBRANCH   1   2
BRANCH   1  26
ATOM     26  C   UNL A   1      34.367  33.687  28.438  1.00  0.00     0.002 C 
BRANCH  26  27
ATOM     27  C   UNL A   1      33.113  34.559  28.534  1.00  0.00     0.021 C 
BRANCH  27  28
ATOM     28  C   UNL A   1      33.298  35.923  29.189  1.00  0.00     0.116 C 
BRANCH  28  29
ATOM     29  N   UNL A   1      32.517  36.076  30.405  1.00  0.00    -0.352 N 
ATOM     30  C   UNL A   1      32.699  35.509  31.643  1.00  0.00     0.251 C 
ATOM     31  H   UNL A   1      31.741  36.677  30.331  1.00  0.00     0.163 HD
ATOM     32  O   UNL A   1      31.843  35.642  32.511  1.00  0.00    -0.269 OA
BRANCH  30  33
ATOM     33  C   UNL A   1      33.914  34.715  31.931  1.00  0.00     0.039 A 
ATOM     34  C   UNL A   1      35.165  35.310  31.743  1.00  0.00     0.014 A 
ATOM     35  C   UNL A   1      33.830  33.389  32.364  1.00  0.00     0.014 A 
ATOM     36  C   UNL A   1      36.326  34.597  32.044  1.00  0.00     0.010 A 
ATOM     37  C   UNL A   1      34.984  32.705  32.735  1.00  0.00     0.010 A 
ATOM     38  C   UNL A   1      36.245  33.299  32.575  1.00  0.00    -0.014 A 
BRANCH  38  39
ATOM     39  C   UNL A   1      37.468  32.555  32.971  1.00  0.00     0.031 A 
ATOM     40  C   UNL A   1      38.174  32.880  34.258  1.00  0.00     0.074 A 
ATOM     41  C   UNL A   1      37.985  31.634  32.137  1.00  0.00     0.049 A 
ATOM     42  N   UNL A   1      39.281  32.379  34.747  1.00  0.00    -0.248 NA
ATOM     43  C   UNL A   1      37.572  33.931  35.091  1.00  0.00     0.031 C 
ATOM     44  C   UNL A   1      37.429  31.273  30.833  1.00  0.00     0.029 A 
ATOM     45  N   UNL A   1      39.103  30.844  32.254  1.00  0.00    -0.354 N 
ATOM     46  C   UNL A   1      39.516  33.064  35.932  1.00  0.00     0.074 A 
ATOM     47  C   UNL A   1      38.469  34.056  36.058  1.00  0.00     0.031 C 
ATOM     48  C   UNL A   1      38.195  30.322  30.277  1.00  0.00     0.029 A 
ATOM     49  C   UNL A   1      39.316  30.032  31.168  1.00  0.00     0.049 A 
ATOM     50  H   UNL A   1      39.694  30.859  33.041  1.00  0.00     0.167 HD
ATOM     51  C   UNL A   1      40.502  32.870  36.841  1.00  0.00     0.037 A 
ATOM     52  C   UNL A   1      40.309  29.160  30.910  1.00  0.00     0.037 A 
ATOM     53  C   UNL A   1      41.531  31.870  36.716  1.00  0.00     0.049 A 
ATOM     54  C   UNL A   1      41.390  28.954  31.935  1.00  0.00     0.074 A 
ATOM     55  C   UNL A   1      42.527  31.539  37.616  1.00  0.00     0.029 A 
ATOM     56  N   UNL A   1      41.703  31.047  35.610  1.00  0.00    -0.354 N 
ATOM     57  N   UNL A   1      41.554  29.545  33.093  1.00  0.00    -0.248 NA
ATOM     58  C   UNL A   1      42.418  27.952  31.621  1.00  0.00     0.031 C 
ATOM     59  C   UNL A   1      43.340  30.563  37.030  1.00  0.00     0.029 A 
ATOM     60  C   UNL A   1      42.812  30.235  35.791  1.00  0.00     0.049 A 
ATOM     61  H   UNL A   1      41.123  31.042  34.815  1.00  0.00     0.167 HD
ATOM     62  C   UNL A   1      42.689  28.977  33.656  1.00  0.00     0.074 A 
ATOM     63  C   UNL A   1      43.163  27.980  32.716  1.00  0.00     0.031 C 
ATOM     64  C   UNL A   1      43.282  29.254  34.844  1.00  0.00     0.037 A 
BRANCH  51  65
ATOM     65  C   UNL A   1      40.519  33.774  38.044  1.00  0.00     0.064 A 
ATOM     66  C   UNL A   1      41.321  34.926  38.096  1.00  0.00     0.173 A 
ATOM     67  C   UNL A   1      39.720  33.485  39.160  1.00  0.00     0.173 A 
ATOM     68  F   UNL A   1      42.110  35.246  37.060  1.00  0.00    -0.203 F 
ATOM     69  C   UNL A   1      41.361  35.722  39.238  1.00  0.00     0.198 A 
ATOM     70  C   UNL A   1      39.734  34.305  40.286  1.00  0.00     0.198 A 
ATOM     71  F   UNL A   1      38.927  32.403  39.164  1.00  0.00    -0.203 F 
ATOM     72  F   UNL A   1      42.190  36.774  39.290  1.00  0.00    -0.200 F 
ATOM     73  C   UNL A   1      40.564  35.413  40.329  1.00  0.00     0.200 A 
ATOM     74  F   UNL A   1      38.951  34.013  41.335  1.00  0.00    -0.200 F 
ATOM     75  F   UNL A   1      40.606  36.179  41.429  1.00  0.00    -0.200 F 
ENDBRANCH  51  65
BRANCH  52  76
ATOM     76  C   UNL A   1      40.300  28.403  29.632  1.00  0.00     0.064 A 
ATOM     77  C   UNL A   1      41.025  28.852  28.521  1.00  0.00     0.173 A 
ATOM     78  C   UNL A   1      39.600  27.192  29.512  1.00  0.00     0.173 A 
ATOM     79  F   UNL A   1      41.693  30.013  28.582  1.00  0.00    -0.203 F 
ATOM     80  C   UNL A   1      41.046  28.122  27.334  1.00  0.00     0.198 A 
ATOM     81  C   UNL A   1      39.644  26.451  28.334  1.00  0.00     0.198 A 
ATOM     82  F   UNL A   1      38.894  26.720  30.549  1.00  0.00    -0.203 F 
ATOM     83  F   UNL A   1      41.722  28.590  26.276  1.00  0.00    -0.200 F 
ATOM     84  C   UNL A   1      40.364  26.918  27.244  1.00  0.00     0.200 A 
ATOM     85  F   UNL A   1      38.993  25.283  28.254  1.00  0.00    -0.200 F 
ATOM     86  F   UNL A   1      40.397  26.211  26.107  1.00  0.00    -0.200 F 
ENDBRANCH  52  76
BRANCH  64  87
ATOM     87  C   UNL A   1      44.502  28.456  35.208  1.00  0.00     0.064 A 
ATOM     88  C   UNL A   1      45.795  28.889  34.877  1.00  0.00     0.173 A 
ATOM     89  C   UNL A   1      44.378  27.260  35.932  1.00  0.00     0.173 A 
ATOM     90  F   UNL A   1      45.969  30.018  34.173  1.00  0.00    -0.203 F 
ATOM     91  C   UNL A   1      46.915  28.142  35.235  1.00  0.00     0.198 A 
ATOM     92  C   UNL A   1      45.501  26.533  36.317  1.00  0.00     0.198 A 
ATOM     93  F   UNL A   1      43.165  26.803  36.280  1.00  0.00    -0.203 F 
ATOM     94  F   UNL A   1      48.136  28.551  34.864  1.00  0.00    -0.200 F 
ATOM     95  C   UNL A   1      46.768  26.970  35.961  1.00  0.00     0.200 A 
ATOM     96  F   UNL A   1      45.357  25.409  37.033  1.00  0.00    -0.200 F 
ATOM     97  F   UNL A   1      47.846  26.258  36.312  1.00  0.00    -0.200 F 
ENDBRANCH  64  87
ENDBRANCH  38  39
ENDBRANCH  30  33
ENDBRANCH  28  29
ENDBRANCH  27  28
ENDBRANCH  26  27
ENDBRANCH   1  26
TORSDOF 15
ENDMDL
MODEL 3
REMARK VINA RESULT:     -12.6      2.628      4.765
REMARK SMILES CC(=O)Nc1cccc(-c2ccc(F)c(C(=O)NCCCCCCNC(=O)c3ccc(-c4c5nc(c(-c6c(F)c(F)c(F)c(F)c6F)c6ccc([nH]6)c(-c6c(F)c(F)c(F)c(F)c6F)c6nc(c(-c7c(F)c(F)c(F)c(F)c7F)c7ccc4[nH]7)C=C6)C=C5)cc3)c2)c1
REMARK SMILES IDX 21 1 20 2 19 3 18 4 16 5 17 6 15 8 10 9 11 10 91 11 12 12
REMARK SMILES IDX 13 13 14 14 9 15 5 16 6 17 92 18 7 19 8 20 4 21 1 22 2 23
REMARK SMILES IDX 3 24 22 26 23 27 24 28 25 29 26 30 27 32 28 33 29 34 90 35
REMARK SMILES IDX 30 36 89 37 31 38 32 39 33 40 83 41 34 42 88 43 82 44 84 45
REMARK SMILES IDX 35 46 87 47 81 48 80 49 36 51 68 52 48 53 67 54 49 55 52 56
REMARK SMILES IDX 66 57 85 58 50 59 51 60 65 62 86 63 53 64 37 65 38 66 46 67
REMARK SMILES IDX 39 68 40 69 44 70 47 71 41 72 42 73 45 74 43 75 69 76 70 77
REMARK SMILES IDX 78 78 71 79 72 80 76 81 79 82 73 83 74 84 77 85 75 86 54 87
REMARK SMILES IDX 55 88 63 89 56 90 57 91 61 92 64 93 58 94 59 95 62 96 60 97
REMARK H PARENT 18 7 4 25 25 31 84 50 52 61
REMARK Flexibility Score: inf
ROOT
ATOM      1  C   UNL A   1      32.693  30.079  25.761  1.00  0.00     0.002 C 
ENDROOT
BRANCH   1   2
ATOM      2  C   UNL A   1      32.524  28.966  24.729  1.00  0.00     0.021 C 
BRANCH   2   3
ATOM      3  C   UNL A   1      33.779  28.195  24.339  1.00  0.00     0.116 C 
BRANCH   3   4
ATOM      4  N   UNL A   1      33.843  27.795  22.942  1.00  0.00    -0.352 N 
ATOM      5  C   UNL A   1      33.401  26.664  22.283  1.00  0.00     0.254 C 
ATOM      6  O   UNL A   1      33.548  26.618  21.064  1.00  0.00    -0.269 OA
ATOM      7  H   UNL A   1      34.281  28.455  22.356  1.00  0.00     0.163 HD
BRANCH   5   8
ATOM      8  C   UNL A   1      32.789  25.512  22.999  1.00  0.00     0.076 A 
ATOM      9  C   UNL A   1      33.002  23.278  23.988  1.00  0.00    -0.017 A 
ATOM     10  C   UNL A   1      31.607  23.195  24.067  1.00  0.00     0.012 A 
ATOM     11  C   UNL A   1      33.565  24.494  23.558  1.00  0.00     0.025 A 
ATOM     12  C   UNL A   1      30.812  24.270  23.658  1.00  0.00     0.041 A 
ATOM     13  C   UNL A   1      31.402  25.403  23.095  1.00  0.00     0.135 A 
ATOM     14  F   UNL A   1      30.589  26.358  22.621  1.00  0.00    -0.206 F 
BRANCH   9  15
ATOM     15  C   UNL A   1      33.887  22.111  24.181  1.00  0.00    -0.016 A 
ATOM     16  C   UNL A   1      34.171  19.781  24.889  1.00  0.00     0.041 A 
ATOM     17  C   UNL A   1      35.546  19.996  25.013  1.00  0.00     0.026 A 
ATOM     18  C   UNL A   1      33.359  20.840  24.476  1.00  0.00     0.034 A 
ATOM     19  C   UNL A   1      36.103  21.230  24.676  1.00  0.00     0.003 A 
ATOM     20  C   UNL A   1      35.279  22.277  24.262  1.00  0.00     0.009 A 
BRANCH  16  21
ATOM     21  N   UNL A   1      33.675  18.530  25.290  1.00  0.00    -0.326 N 
ATOM     22  C   UNL A   1      33.589  17.305  23.119  1.00  0.00     0.114 C 
ATOM     23  C   UNL A   1      33.252  17.446  24.578  1.00  0.00     0.221 C 
ATOM     24  O   UNL A   1      32.629  16.557  25.165  1.00  0.00    -0.275 OA
ATOM     25  H   UNL A   1      33.621  18.415  26.267  1.00  0.00     0.169 HD
ENDBRANCH  16  21
ENDBRANCH   9  15
ENDBRANCH   5   8
ENDBRANCH   3   4
ENDBRANCH   2   3
ENDBRANCH   1   2
BRANCH   1  26
ATOM     26  C   UNL A   1      31.408  30.697  26.319  1.00  0.00     0.002 C 
BRANCH  26  27
ATOM     27  C   UNL A   1      31.401  32.217  26.495  1.00  0.00     0.021 C 
BRANCH  27  28
ATOM     28  C   UNL A   1      32.588  32.806  27.252  1.00  0.00     0.116 C 
BRANCH  28  29
ATOM     29  N   UNL A   1      32.379  34.190  27.640  1.00  0.00    -0.352 N 
ATOM     30  C   UNL A   1      33.010  34.937  28.605  1.00  0.00     0.251 C 
ATOM     31  H   UNL A   1      31.681  34.666  27.135  1.00  0.00     0.163 HD
ATOM     32  O   UNL A   1      32.590  36.053  28.890  1.00  0.00    -0.269 OA
BRANCH  30  33
ATOM     33  C   UNL A   1      34.184  34.392  29.324  1.00  0.00     0.039 A 
ATOM     34  C   UNL A   1      33.979  33.732  30.539  1.00  0.00     0.014 A 
ATOM     35  C   UNL A   1      35.478  34.546  28.821  1.00  0.00     0.014 A 
ATOM     36  C   UNL A   1      35.065  33.176  31.218  1.00  0.00     0.010 A 
ATOM     37  C   UNL A   1      36.549  33.926  29.459  1.00  0.00     0.010 A 
ATOM     38  C   UNL A   1      36.355  33.238  30.666  1.00  0.00    -0.014 A 
BRANCH  38  39
ATOM     39  C   UNL A   1      37.508  32.585  31.339  1.00  0.00     0.031 A 
ATOM     40  C   UNL A   1      38.213  31.427  30.690  1.00  0.00     0.074 A 
ATOM     41  C   UNL A   1      37.876  32.991  32.569  1.00  0.00     0.049 A 
ATOM     42  N   UNL A   1      39.201  30.696  31.144  1.00  0.00    -0.248 NA
ATOM     43  C   UNL A   1      37.720  31.014  29.368  1.00  0.00     0.031 C 
ATOM     44  C   UNL A   1      37.233  34.062  33.329  1.00  0.00     0.029 A 
ATOM     45  N   UNL A   1      38.871  32.541  33.401  1.00  0.00    -0.354 N 
ATOM     46  C   UNL A   1      39.434  29.731  30.174  1.00  0.00     0.074 A 
ATOM     47  C   UNL A   1      38.447  29.932  29.135  1.00  0.00     0.031 C 
ATOM     48  C   UNL A   1      37.858  34.199  34.509  1.00  0.00     0.029 A 
ATOM     49  C   UNL A   1      38.922  33.203  34.603  1.00  0.00     0.049 A 
ATOM     50  H   UNL A   1      39.488  31.813  33.160  1.00  0.00     0.167 HD
ATOM     51  C   UNL A   1      40.397  28.778  30.143  1.00  0.00     0.037 A 
ATOM     52  C   UNL A   1      39.726  33.021  35.667  1.00  0.00     0.037 A 
ATOM     53  C   UNL A   1      41.385  28.594  31.174  1.00  0.00     0.049 A 
ATOM     54  C   UNL A   1      40.792  31.962  35.611  1.00  0.00     0.074 A 
ATOM     55  C   UNL A   1      42.450  27.711  31.203  1.00  0.00     0.029 A 
ATOM     56  N   UNL A   1      41.421  29.300  32.370  1.00  0.00    -0.354 N 
ATOM     57  N   UNL A   1      41.061  31.111  34.651  1.00  0.00    -0.248 NA
ATOM     58  C   UNL A   1      41.672  31.846  36.782  1.00  0.00     0.031 C 
ATOM     59  C   UNL A   1      43.090  27.837  32.440  1.00  0.00     0.029 A 
ATOM     60  C   UNL A   1      42.468  28.846  33.158  1.00  0.00     0.049 A 
ATOM     61  H   UNL A   1      40.795  30.017  32.621  1.00  0.00     0.167 HD
ATOM     62  C   UNL A   1      42.151  30.372  35.090  1.00  0.00     0.074 A 
ATOM     63  C   UNL A   1      42.503  30.888  36.397  1.00  0.00     0.031 C 
ATOM     64  C   UNL A   1      42.802  29.359  34.464  1.00  0.00     0.037 A 
BRANCH  51  65
ATOM     65  C   UNL A   1      40.411  27.850  28.959  1.00  0.00     0.064 A 
ATOM     66  C   UNL A   1      41.163  28.127  27.806  1.00  0.00     0.173 A 
ATOM     67  C   UNL A   1      39.661  26.664  28.979  1.00  0.00     0.173 A 
ATOM     68  F   UNL A   1      41.892  29.251  27.730  1.00  0.00    -0.203 F 
ATOM     69  C   UNL A   1      41.122  27.280  26.701  1.00  0.00     0.198 A 
ATOM     70  C   UNL A   1      39.653  25.800  27.886  1.00  0.00     0.198 A 
ATOM     71  F   UNL A   1      38.930  26.341  30.056  1.00  0.00    -0.203 F 
ATOM     72  F   UNL A   1      41.791  27.605  25.586  1.00  0.00    -0.200 F 
ATOM     73  C   UNL A   1      40.372  26.116  26.744  1.00  0.00     0.200 A 
ATOM     74  F   UNL A   1      38.939  24.666  27.935  1.00  0.00    -0.200 F 
ATOM     75  F   UNL A   1      40.332  25.304  25.678  1.00  0.00    -0.200 F 
ENDBRANCH  51  65
BRANCH  52  76
ATOM     76  C   UNL A   1      39.559  33.887  36.863  1.00  0.00     0.064 A 
ATOM     77  C   UNL A   1      40.122  35.169  36.910  1.00  0.00     0.173 A 
ATOM     78  C   UNL A   1      38.798  33.465  37.964  1.00  0.00     0.173 A 
ATOM     79  F   UNL A   1      40.874  35.608  35.891  1.00  0.00    -0.203 F 
ATOM     80  C   UNL A   1      39.936  35.996  38.017  1.00  0.00     0.198 A 
ATOM     81  C   UNL A   1      38.591  34.302  39.057  1.00  0.00     0.198 A 
ATOM     82  F   UNL A   1      38.238  32.248  37.964  1.00  0.00    -0.203 F 
ATOM     83  F   UNL A   1      40.511  37.205  38.050  1.00  0.00    -0.200 F 
ATOM     84  C   UNL A   1      39.162  35.566  39.085  1.00  0.00     0.200 A 
ATOM     85  F   UNL A   1      37.833  33.888  40.082  1.00  0.00    -0.200 F 
ATOM     86  F   UNL A   1      38.971  36.367  40.141  1.00  0.00    -0.200 F 
ENDBRANCH  52  76
BRANCH  64  87
ATOM     87  C   UNL A   1      43.976  28.750  35.177  1.00  0.00     0.064 A 
ATOM     88  C   UNL A   1      45.288  29.196  34.955  1.00  0.00     0.173 A 
ATOM     89  C   UNL A   1      43.781  27.733  36.125  1.00  0.00     0.173 A 
ATOM     90  F   UNL A   1      45.531  30.156  34.050  1.00  0.00    -0.203 F 
ATOM     91  C   UNL A   1      46.362  28.627  35.636  1.00  0.00     0.198 A 
ATOM     92  C   UNL A   1      44.854  27.191  36.827  1.00  0.00     0.198 A 
ATOM     93  F   UNL A   1      42.547  27.274  36.380  1.00  0.00    -0.203 F 
ATOM     94  F   UNL A   1      47.612  29.035  35.371  1.00  0.00    -0.200 F 
ATOM     95  C   UNL A   1      46.144  27.632  36.577  1.00  0.00     0.200 A 
ATOM     96  F   UNL A   1      44.639  26.240  37.747  1.00  0.00    -0.200 F 
ATOM     97  F   UNL A   1      47.178  27.093  37.236  1.00  0.00    -0.200 F 
ENDBRANCH  64  87
ENDBRANCH  38  39
ENDBRANCH  30  33
ENDBRANCH  28  29
ENDBRANCH  27  28
ENDBRANCH  26  27
ENDBRANCH   1  26
TORSDOF 15
ENDMDL
