MODEL 1
REMARK VINA RESULT:     -10.3      0.000      0.000
REMARK SMILES CC[C@@](C)([NH2+]CC(=O)N[C@@H](C)C(C)C)C(=O)NCCCCCCNC(=O)c1ccc(-c2c3nc(c(-c4c(F)c(F)c(F)c(F)c4F)c4ccc([nH]4)c(-c4c(F)c(F)c(F)c(F)c4F)c4nc(c(-c5c(F)c(F)c(F)c(F)c5F)c5ccc2[nH]5)C=C4)C=C3)cc1
REMARK SMILES IDX 19 1 18 2 17 3 15 4 16 5 3 7 4 8 2 9 1 10 5 11 6 14 7 15
REMARK SMILES IDX 8 16 9 17 10 19 11 20 12 21 13 22 14 23 20 24 21 25 22 26
REMARK SMILES IDX 23 27 24 28 25 29 26 31 27 32 28 33 89 34 29 35 88 36 30 37
REMARK SMILES IDX 31 38 32 39 82 40 33 41 87 42 81 43 83 44 34 45 86 46 80 47
REMARK SMILES IDX 79 48 35 50 67 51 47 52 66 53 48 54 51 55 65 56 84 57 49 58
REMARK SMILES IDX 50 59 64 61 85 62 52 63 36 64 37 65 45 66 38 67 39 68 43 69
REMARK SMILES IDX 46 70 40 71 41 72 44 73 42 74 68 75 69 76 77 77 70 78 71 79
REMARK SMILES IDX 75 80 78 81 72 82 73 83 76 84 74 85 53 86 54 87 62 88 55 89
REMARK SMILES IDX 56 90 60 91 63 92 57 93 58 94 61 95 59 96
REMARK H PARENT 17 6 5 12 5 13 9 18 24 30 83 49 51 60
REMARK Flexibility Score: inf
ROOT
ATOM      1  C   UNL A   1      34.364  32.615  29.215  1.00  0.00     0.021 C 
ENDROOT
BRANCH   1   2
ATOM      2  C   UNL A   1      34.117  31.698  28.014  1.00  0.00     0.116 C 
BRANCH   2   3
ATOM      3  N   UNL A   1      34.305  30.279  28.283  1.00  0.00    -0.351 N 
ATOM      4  C   UNL A   1      34.764  29.355  27.359  1.00  0.00     0.281 C 
ATOM      5  O   UNL A   1      35.941  29.012  27.517  1.00  0.00    -0.268 OA
ATOM      6  H   UNL A   1      34.088  29.952  29.187  1.00  0.00     0.163 HD
BRANCH   4   7
ATOM      7  C   UNL A   1      33.777  28.595  26.324  1.00  0.00     0.172 C 
ATOM      8  C   UNL A   1      33.820  27.124  25.864  1.00  0.00     0.090 C 
BRANCH   7   9
ATOM      9  C   UNL A   1      32.421  28.591  27.154  1.00  0.00     0.075 C 
ATOM     10  C   UNL A   1      31.388  27.552  26.618  1.00  0.00     0.011 C 
ENDBRANCH   7   9
BRANCH   7  11
ATOM     11  N   UNL A   1      33.760  29.361  25.084  1.00  0.00    -0.326 N 
ATOM     12  H   UNL A   1      34.615  29.918  25.071  1.00  0.00     0.347 HD
ATOM     13  H   UNL A   1      32.874  29.862  25.131  1.00  0.00     0.347 HD
BRANCH  11  14
ATOM     14  C   UNL A   1      33.685  28.659  23.774  1.00  0.00     0.362 C 
BRANCH  14  15
ATOM     15  C   UNL A   1      32.439  28.342  22.853  1.00  0.00     0.275 C 
ATOM     16  O   UNL A   1      31.825  29.356  22.452  1.00  0.00    -0.268 OA
ATOM     17  N   UNL A   1      31.952  27.216  22.249  1.00  0.00    -0.349 N 
ATOM     18  H   UNL A   1      31.480  27.456  21.419  1.00  0.00     0.163 HD
BRANCH  17  19
ATOM     19  C   UNL A   1      31.907  25.747  22.448  1.00  0.00     0.081 C 
ATOM     20  C   UNL A   1      33.332  25.230  22.758  1.00  0.00     0.031 C 
BRANCH  19  21
ATOM     21  C   UNL A   1      30.996  25.186  23.590  1.00  0.00     0.005 C 
ATOM     22  C   UNL A   1      29.680  25.896  23.861  1.00  0.00     0.009 C 
ATOM     23  C   UNL A   1      30.712  23.686  23.357  1.00  0.00     0.009 C 
ENDBRANCH  19  21
ENDBRANCH  17  19
ENDBRANCH  14  15
ENDBRANCH  11  14
ENDBRANCH   7  11
ENDBRANCH   4   7
ENDBRANCH   2   3
ENDBRANCH   1   2
BRANCH   1  24
ATOM     24  C   UNL A   1      35.312  33.781  28.900  1.00  0.00     0.002 C 
BRANCH  24  25
ATOM     25  C   UNL A   1      34.658  35.062  28.368  1.00  0.00     0.002 C 
BRANCH  25  26
ATOM     26  C   UNL A   1      33.300  35.423  28.966  1.00  0.00     0.021 C 
BRANCH  26  27
ATOM     27  C   UNL A   1      33.342  36.612  29.916  1.00  0.00     0.116 C 
BRANCH  27  28
ATOM     28  N   UNL A   1      32.404  36.457  31.019  1.00  0.00    -0.352 N 
ATOM     29  C   UNL A   1      32.446  35.613  32.097  1.00  0.00     0.251 C 
ATOM     30  H   UNL A   1      31.619  37.049  30.982  1.00  0.00     0.163 HD
ATOM     31  O   UNL A   1      31.456  35.459  32.798  1.00  0.00    -0.269 OA
BRANCH  29  32
ATOM     32  C   UNL A   1      33.697  34.896  32.413  1.00  0.00     0.039 A 
ATOM     33  C   UNL A   1      33.629  33.548  32.775  1.00  0.00     0.014 A 
ATOM     34  C   UNL A   1      34.924  35.563  32.395  1.00  0.00     0.014 A 
ATOM     35  C   UNL A   1      34.802  32.865  33.092  1.00  0.00     0.010 A 
ATOM     36  C   UNL A   1      36.097  34.859  32.620  1.00  0.00     0.010 A 
ATOM     37  C   UNL A   1      36.045  33.512  33.001  1.00  0.00    -0.014 A 
BRANCH  37  38
ATOM     38  C   UNL A   1      37.302  32.813  33.364  1.00  0.00     0.031 A 
ATOM     39  C   UNL A   1      37.975  33.131  34.671  1.00  0.00     0.074 A 
ATOM     40  C   UNL A   1      37.848  31.934  32.504  1.00  0.00     0.049 A 
ATOM     41  N   UNL A   1      39.112  32.690  35.145  1.00  0.00    -0.248 NA
ATOM     42  C   UNL A   1      37.295  34.098  35.550  1.00  0.00     0.031 C 
ATOM     43  C   UNL A   1      37.306  31.585  31.190  1.00  0.00     0.029 A 
ATOM     44  N   UNL A   1      38.989  31.180  32.604  1.00  0.00    -0.354 N 
ATOM     45  C   UNL A   1      39.281  33.326  36.369  1.00  0.00     0.074 A 
ATOM     46  C   UNL A   1      38.173  34.241  36.531  1.00  0.00     0.031 C 
ATOM     47  C   UNL A   1      38.103  30.670  30.615  1.00  0.00     0.029 A 
ATOM     48  C   UNL A   1      39.230  30.398  31.501  1.00  0.00     0.049 A 
ATOM     49  H   UNL A   1      39.580  31.197  33.392  1.00  0.00     0.167 HD
ATOM     50  C   UNL A   1      40.251  33.135  37.293  1.00  0.00     0.037 A 
ATOM     51  C   UNL A   1      40.254  29.565  31.237  1.00  0.00     0.037 A 
ATOM     52  C   UNL A   1      41.341  32.211  37.131  1.00  0.00     0.049 A 
ATOM     53  C   UNL A   1      41.328  29.384  32.278  1.00  0.00     0.074 A 
ATOM     54  C   UNL A   1      42.374  31.930  38.008  1.00  0.00     0.029 A 
ATOM     55  N   UNL A   1      41.532  31.408  36.016  1.00  0.00    -0.354 N 
ATOM     56  N   UNL A   1      41.451  29.954  33.453  1.00  0.00    -0.248 NA
ATOM     57  C   UNL A   1      42.397  28.426  31.964  1.00  0.00     0.031 C 
ATOM     58  C   UNL A   1      43.210  30.985  37.407  1.00  0.00     0.029 A 
ATOM     59  C   UNL A   1      42.666  30.632  36.183  1.00  0.00     0.049 A 
ATOM     60  H   UNL A   1      40.947  31.393  35.224  1.00  0.00     0.167 HD
ATOM     61  C   UNL A   1      42.582  29.394  34.033  1.00  0.00     0.074 A 
ATOM     62  C   UNL A   1      43.098  28.427  33.087  1.00  0.00     0.031 C 
ATOM     63  C   UNL A   1      43.144  29.655  35.239  1.00  0.00     0.037 A 
BRANCH  50  64
ATOM     64  C   UNL A   1      40.163  33.923  38.568  1.00  0.00     0.064 A 
ATOM     65  C   UNL A   1      40.859  35.133  38.728  1.00  0.00     0.173 A 
ATOM     66  C   UNL A   1      39.346  33.494  39.623  1.00  0.00     0.173 A 
ATOM     67  F   UNL A   1      41.667  35.581  37.755  1.00  0.00    -0.203 F 
ATOM     68  C   UNL A   1      40.755  35.869  39.905  1.00  0.00     0.198 A 
ATOM     69  C   UNL A   1      39.219  34.251  40.786  1.00  0.00     0.198 A 
ATOM     70  F   UNL A   1      38.658  32.347  39.524  1.00  0.00    -0.203 F 
ATOM     71  F   UNL A   1      41.465  36.997  40.052  1.00  0.00    -0.200 F 
ATOM     72  C   UNL A   1      39.928  35.434  40.928  1.00  0.00     0.200 A 
ATOM     73  F   UNL A   1      38.408  33.836  41.769  1.00  0.00    -0.200 F 
ATOM     74  F   UNL A   1      39.819  36.151  42.054  1.00  0.00    -0.200 F 
ENDBRANCH  50  64
BRANCH  51  75
ATOM     75  C   UNL A   1      40.312  28.828  29.946  1.00  0.00     0.064 A 
ATOM     76  C   UNL A   1      41.013  29.347  28.847  1.00  0.00     0.173 A 
ATOM     77  C   UNL A   1      39.633  27.614  29.769  1.00  0.00     0.173 A 
ATOM     78  F   UNL A   1      41.668  30.512  28.960  1.00  0.00    -0.203 F 
ATOM     79  C   UNL A   1      40.995  28.705  27.612  1.00  0.00     0.198 A 
ATOM     80  C   UNL A   1      39.646  26.953  28.542  1.00  0.00     0.198 A 
ATOM     81  F   UNL A   1      38.956  27.067  30.789  1.00  0.00    -0.203 F 
ATOM     82  F   UNL A   1      41.613  29.260  26.561  1.00  0.00    -0.200 F 
ATOM     83  C   UNL A   1      40.313  27.507  27.460  1.00  0.00     0.200 A 
ATOM     84  F   UNL A   1      39.001  25.787  28.406  1.00  0.00    -0.200 F 
ATOM     85  F   UNL A   1      40.288  26.894  26.269  1.00  0.00    -0.200 F 
ENDBRANCH  51  75
BRANCH  63  86
ATOM     86  C   UNL A   1      44.335  28.830  35.634  1.00  0.00     0.064 A 
ATOM     87  C   UNL A   1      44.205  27.632  36.350  1.00  0.00     0.173 A 
ATOM     88  C   UNL A   1      45.626  29.237  35.263  1.00  0.00     0.173 A 
ATOM     89  F   UNL A   1      42.995  27.204  36.740  1.00  0.00    -0.203 F 
ATOM     90  C   UNL A   1      45.327  26.893  36.716  1.00  0.00     0.198 A 
ATOM     91  C   UNL A   1      46.742  28.477  35.597  1.00  0.00     0.198 A 
ATOM     92  F   UNL A   1      45.805  30.370  34.566  1.00  0.00    -0.203 F 
ATOM     93  F   UNL A   1      45.185  25.785  37.456  1.00  0.00    -0.200 F 
ATOM     94  C   UNL A   1      46.593  27.312  36.333  1.00  0.00     0.200 A 
ATOM     95  F   UNL A   1      47.962  28.874  35.209  1.00  0.00    -0.200 F 
ATOM     96  F   UNL A   1      47.671  26.597  36.682  1.00  0.00    -0.200 F 
ENDBRANCH  63  86
ENDBRANCH  37  38
ENDBRANCH  29  32
ENDBRANCH  27  28
ENDBRANCH  26  27
ENDBRANCH  25  26
ENDBRANCH  24  25
ENDBRANCH   1  24
TORSDOF 19
ENDMDL
MODEL 2
REMARK VINA RESULT:     -10.2      6.641     11.264
REMARK SMILES CC[C@@](C)([NH2+]CC(=O)N[C@@H](C)C(C)C)C(=O)NCCCCCCNC(=O)c1ccc(-c2c3nc(c(-c4c(F)c(F)c(F)c(F)c4F)c4ccc([nH]4)c(-c4c(F)c(F)c(F)c(F)c4F)c4nc(c(-c5c(F)c(F)c(F)c(F)c5F)c5ccc2[nH]5)C=C4)C=C3)cc1
REMARK SMILES IDX 19 1 18 2 17 3 15 4 16 5 3 7 4 8 2 9 1 10 5 11 6 14 7 15
REMARK SMILES IDX 8 16 9 17 10 19 11 20 12 21 13 22 14 23 20 24 21 25 22 26
REMARK SMILES IDX 23 27 24 28 25 29 26 31 27 32 28 33 89 34 29 35 88 36 30 37
REMARK SMILES IDX 31 38 32 39 82 40 33 41 87 42 81 43 83 44 34 45 86 46 80 47
REMARK SMILES IDX 79 48 35 50 67 51 47 52 66 53 48 54 51 55 65 56 84 57 49 58
REMARK SMILES IDX 50 59 64 61 85 62 52 63 36 64 37 65 45 66 38 67 39 68 43 69
REMARK SMILES IDX 46 70 40 71 41 72 44 73 42 74 68 75 69 76 77 77 70 78 71 79
REMARK SMILES IDX 75 80 78 81 72 82 73 83 76 84 74 85 53 86 54 87 62 88 55 89
REMARK SMILES IDX 56 90 60 91 63 92 57 93 58 94 61 95 59 96
REMARK H PARENT 17 6 5 12 5 13 9 18 24 30 83 49 51 60
REMARK Flexibility Score: inf
ROOT
ATOM      1  C   UNL A   1      36.778  22.845  25.464  1.00  0.00     0.021 C 
ENDROOT
BRANCH   1   2
ATOM      2  C   UNL A   1      35.720  23.846  24.990  1.00  0.00     0.116 C 
BRANCH   2   3
ATOM      3  N   UNL A   1      34.823  23.341  23.959  1.00  0.00    -0.351 N 
ATOM      4  C   UNL A   1      33.714  24.017  23.479  1.00  0.00     0.281 C 
ATOM      5  O   UNL A   1      33.867  24.532  22.367  1.00  0.00    -0.268 OA
ATOM      6  H   UNL A   1      35.020  22.455  23.576  1.00  0.00     0.163 HD
BRANCH   4   7
ATOM      7  C   UNL A   1      32.262  23.923  24.192  1.00  0.00     0.172 C 
ATOM      8  C   UNL A   1      31.879  24.291  25.638  1.00  0.00     0.090 C 
BRANCH   7   9
ATOM      9  C   UNL A   1      31.465  25.045  23.395  1.00  0.00     0.075 C 
ATOM     10  C   UNL A   1      30.409  25.778  24.278  1.00  0.00     0.011 C 
ENDBRANCH   7   9
BRANCH   7  11
ATOM     11  N   UNL A   1      31.775  22.559  24.025  1.00  0.00    -0.326 N 
ATOM     12  H   UNL A   1      32.345  22.130  23.295  1.00  0.00     0.347 HD
ATOM     13  H   UNL A   1      30.783  22.687  23.832  1.00  0.00     0.347 HD
BRANCH  11  14
ATOM     14  C   UNL A   1      31.779  21.619  25.179  1.00  0.00     0.362 C 
BRANCH  14  15
ATOM     15  C   UNL A   1      32.907  20.639  25.696  1.00  0.00     0.275 C 
ATOM     16  O   UNL A   1      33.820  21.200  26.342  1.00  0.00    -0.268 OA
ATOM     17  N   UNL A   1      33.051  19.279  25.745  1.00  0.00    -0.349 N 
ATOM     18  H   UNL A   1      33.610  19.027  26.515  1.00  0.00     0.163 HD
BRANCH  17  19
ATOM     19  C   UNL A   1      32.633  18.063  25.005  1.00  0.00     0.081 C 
ATOM     20  C   UNL A   1      32.520  18.395  23.499  1.00  0.00     0.031 C 
BRANCH  19  21
ATOM     21  C   UNL A   1      33.552  16.798  25.092  1.00  0.00     0.005 C 
ATOM     22  C   UNL A   1      32.891  15.460  25.376  1.00  0.00     0.009 C 
ATOM     23  C   UNL A   1      34.403  16.670  23.809  1.00  0.00     0.009 C 
ENDBRANCH  19  21
ENDBRANCH  17  19
ENDBRANCH  14  15
ENDBRANCH  11  14
ENDBRANCH   7  11
ENDBRANCH   4   7
ENDBRANCH   2   3
ENDBRANCH   1   2
BRANCH   1  24
ATOM     24  C   UNL A   1      37.026  21.709  24.462  1.00  0.00     0.002 C 
BRANCH  24  25
ATOM     25  C   UNL A   1      36.847  20.283  24.997  1.00  0.00     0.002 C 
BRANCH  25  26
ATOM     26  C   UNL A   1      38.095  19.402  25.001  1.00  0.00     0.021 C 
BRANCH  26  27
ATOM     27  C   UNL A   1      39.271  20.004  25.757  1.00  0.00     0.116 C 
BRANCH  27  28
ATOM     28  N   UNL A   1      40.334  19.032  25.967  1.00  0.00    -0.352 N 
ATOM     29  C   UNL A   1      41.681  19.222  26.126  1.00  0.00     0.251 C 
ATOM     30  H   UNL A   1      40.038  18.093  25.998  1.00  0.00     0.163 HD
ATOM     31  O   UNL A   1      42.449  18.274  26.059  1.00  0.00    -0.269 OA
BRANCH  29  32
ATOM     32  C   UNL A   1      42.199  20.579  26.387  1.00  0.00     0.039 A 
ATOM     33  C   UNL A   1      42.306  21.019  27.709  1.00  0.00     0.014 A 
ATOM     34  C   UNL A   1      42.535  21.428  25.330  1.00  0.00     0.014 A 
ATOM     35  C   UNL A   1      42.778  22.305  27.966  1.00  0.00     0.010 A 
ATOM     36  C   UNL A   1      43.091  22.671  25.590  1.00  0.00     0.010 A 
ATOM     37  C   UNL A   1      43.189  23.134  26.910  1.00  0.00    -0.014 A 
BRANCH  37  38
ATOM     38  C   UNL A   1      43.664  24.515  27.159  1.00  0.00     0.031 A 
ATOM     39  C   UNL A   1      42.703  25.546  27.688  1.00  0.00     0.074 A 
ATOM     40  C   UNL A   1      44.937  24.845  26.871  1.00  0.00     0.049 A 
ATOM     41  N   UNL A   1      42.895  26.822  27.905  1.00  0.00    -0.248 NA
ATOM     42  C   UNL A   1      41.335  25.088  27.983  1.00  0.00     0.031 C 
ATOM     43  C   UNL A   1      45.941  23.939  26.312  1.00  0.00     0.029 A 
ATOM     44  N   UNL A   1      45.601  26.038  27.003  1.00  0.00    -0.354 N 
ATOM     45  C   UNL A   1      41.676  27.313  28.357  1.00  0.00     0.074 A 
ATOM     46  C   UNL A   1      40.731  26.220  28.308  1.00  0.00     0.031 C 
ATOM     47  C   UNL A   1      47.099  24.603  26.167  1.00  0.00     0.029 A 
ATOM     48  C   UNL A   1      46.909  25.988  26.586  1.00  0.00     0.049 A 
ATOM     49  H   UNL A   1      45.181  26.852  27.362  1.00  0.00     0.167 HD
ATOM     50  C   UNL A   1      41.381  28.554  28.808  1.00  0.00     0.037 A 
ATOM     51  C   UNL A   1      47.841  26.958  26.540  1.00  0.00     0.037 A 
ATOM     52  C   UNL A   1      42.332  29.632  28.869  1.00  0.00     0.049 A 
ATOM     53  C   UNL A   1      47.480  28.333  27.036  1.00  0.00     0.074 A 
ATOM     54  C   UNL A   1      42.144  30.926  29.318  1.00  0.00     0.029 A 
ATOM     55  N   UNL A   1      43.658  29.533  28.472  1.00  0.00    -0.354 N 
ATOM     56  N   UNL A   1      46.337  28.774  27.506  1.00  0.00    -0.248 NA
ATOM     57  C   UNL A   1      48.545  29.344  27.013  1.00  0.00     0.031 C 
ATOM     58  C   UNL A   1      43.346  31.622  29.160  1.00  0.00     0.029 A 
ATOM     59  C   UNL A   1      44.298  30.745  28.667  1.00  0.00     0.049 A 
ATOM     60  H   UNL A   1      44.080  28.722  28.107  1.00  0.00     0.167 HD
ATOM     61  C   UNL A   1      46.559  30.095  27.874  1.00  0.00     0.074 A 
ATOM     62  C   UNL A   1      47.950  30.378  27.587  1.00  0.00     0.031 C 
ATOM     63  C   UNL A   1      45.692  30.993  28.401  1.00  0.00     0.037 A 
BRANCH  50  64
ATOM     64  C   UNL A   1      39.983  28.804  29.295  1.00  0.00     0.064 A 
ATOM     65  C   UNL A   1      38.973  29.239  28.420  1.00  0.00     0.173 A 
ATOM     66  C   UNL A   1      39.633  28.567  30.631  1.00  0.00     0.173 A 
ATOM     67  F   UNL A   1      39.257  29.497  27.135  1.00  0.00    -0.203 F 
ATOM     68  C   UNL A   1      37.673  29.448  28.874  1.00  0.00     0.198 A 
ATOM     69  C   UNL A   1      38.324  28.744  31.073  1.00  0.00     0.198 A 
ATOM     70  F   UNL A   1      40.557  28.148  31.510  1.00  0.00    -0.203 F 
ATOM     71  F   UNL A   1      36.738  29.909  28.030  1.00  0.00    -0.200 F 
ATOM     72  C   UNL A   1      37.347  29.191  30.196  1.00  0.00     0.200 A 
ATOM     73  F   UNL A   1      38.007  28.482  32.349  1.00  0.00    -0.200 F 
ATOM     74  F   UNL A   1      36.093  29.379  30.626  1.00  0.00    -0.200 F 
ENDBRANCH  50  64
BRANCH  51  75
ATOM     75  C   UNL A   1      49.205  26.668  26.022  1.00  0.00     0.064 A 
ATOM     76  C   UNL A   1      50.208  26.164  26.863  1.00  0.00     0.173 A 
ATOM     77  C   UNL A   1      49.547  26.927  24.687  1.00  0.00     0.173 A 
ATOM     78  F   UNL A   1      49.936  25.912  28.152  1.00  0.00    -0.203 F 
ATOM     79  C   UNL A   1      51.508  25.976  26.403  1.00  0.00     0.198 A 
ATOM     80  C   UNL A   1      50.840  26.704  24.217  1.00  0.00     0.198 A 
ATOM     81  F   UNL A   1      48.624  27.398  23.835  1.00  0.00    -0.203 F 
ATOM     82  F   UNL A   1      52.463  25.564  27.248  1.00  0.00    -0.200 F 
ATOM     83  C   UNL A   1      51.823  26.244  25.079  1.00  0.00     0.200 A 
ATOM     84  F   UNL A   1      51.135  26.947  22.933  1.00  0.00    -0.200 F 
ATOM     85  F   UNL A   1      53.077  26.072  24.639  1.00  0.00    -0.200 F 
ENDBRANCH  51  75
BRANCH  63  86
ATOM     86  C   UNL A   1      46.241  32.341  28.771  1.00  0.00     0.064 A 
ATOM     87  C   UNL A   1      46.224  33.422  27.878  1.00  0.00     0.173 A 
ATOM     88  C   UNL A   1      46.767  32.558  30.055  1.00  0.00     0.173 A 
ATOM     89  F   UNL A   1      45.743  33.265  26.635  1.00  0.00    -0.203 F 
ATOM     90  C   UNL A   1      46.752  34.658  28.241  1.00  0.00     0.198 A 
ATOM     91  C   UNL A   1      47.258  33.806  30.427  1.00  0.00     0.198 A 
ATOM     92  F   UNL A   1      46.795  31.562  30.952  1.00  0.00    -0.203 F 
ATOM     93  F   UNL A   1      46.784  35.658  27.350  1.00  0.00    -0.200 F 
ATOM     94  C   UNL A   1      47.261  34.851  29.517  1.00  0.00     0.200 A 
ATOM     95  F   UNL A   1      47.733  33.994  31.667  1.00  0.00    -0.200 F 
ATOM     96  F   UNL A   1      47.764  36.043  29.866  1.00  0.00    -0.200 F 
ENDBRANCH  63  86
ENDBRANCH  37  38
ENDBRANCH  29  32
ENDBRANCH  27  28
ENDBRANCH  26  27
ENDBRANCH  25  26
ENDBRANCH  24  25
ENDBRANCH   1  24
TORSDOF 19
ENDMDL
MODEL 3
REMARK VINA RESULT:     -10.1      6.383     11.998
REMARK SMILES CC[C@@](C)([NH2+]CC(=O)N[C@@H](C)C(C)C)C(=O)NCCCCCCNC(=O)c1ccc(-c2c3nc(c(-c4c(F)c(F)c(F)c(F)c4F)c4ccc([nH]4)c(-c4c(F)c(F)c(F)c(F)c4F)c4nc(c(-c5c(F)c(F)c(F)c(F)c5F)c5ccc2[nH]5)C=C4)C=C3)cc1
REMARK SMILES IDX 19 1 18 2 17 3 15 4 16 5 3 7 4 8 2 9 1 10 5 11 6 14 7 15
REMARK SMILES IDX 8 16 9 17 10 19 11 20 12 21 13 22 14 23 20 24 21 25 22 26
REMARK SMILES IDX 23 27 24 28 25 29 26 31 27 32 28 33 89 34 29 35 88 36 30 37
REMARK SMILES IDX 31 38 32 39 82 40 33 41 87 42 81 43 83 44 34 45 86 46 80 47
REMARK SMILES IDX 79 48 35 50 67 51 47 52 66 53 48 54 51 55 65 56 84 57 49 58
REMARK SMILES IDX 50 59 64 61 85 62 52 63 36 64 37 65 45 66 38 67 39 68 43 69
REMARK SMILES IDX 46 70 40 71 41 72 44 73 42 74 68 75 69 76 77 77 70 78 71 79
REMARK SMILES IDX 75 80 78 81 72 82 73 83 76 84 74 85 53 86 54 87 62 88 55 89
REMARK SMILES IDX 56 90 60 91 63 92 57 93 58 94 61 95 59 96
REMARK H PARENT 17 6 5 12 5 13 9 18 24 30 83 49 51 60
REMARK Flexibility Score: inf
ROOT
ATOM      1  C   UNL A   1      37.049  23.020  25.660  1.00  0.00     0.021 C 
ENDROOT
BRANCH   1   2
ATOM      2  C   UNL A   1      35.902  23.954  25.267  1.00  0.00     0.116 C 
BRANCH   2   3
ATOM      3  N   UNL A   1      35.002  23.421  24.253  1.00  0.00    -0.351 N 
ATOM      4  C   UNL A   1      33.897  24.088  23.751  1.00  0.00     0.281 C 
ATOM      5  O   UNL A   1      34.054  24.565  22.622  1.00  0.00    -0.268 OA
ATOM      6  H   UNL A   1      35.193  22.522  23.900  1.00  0.00     0.163 HD
BRANCH   4   7
ATOM      7  C   UNL A   1      32.444  24.025  24.465  1.00  0.00     0.172 C 
ATOM      8  C   UNL A   1      32.095  24.266  25.947  1.00  0.00     0.090 C 
BRANCH   7   9
ATOM      9  C   UNL A   1      31.731  25.281  23.800  1.00  0.00     0.075 C 
ATOM     10  C   UNL A   1      30.341  25.593  24.436  1.00  0.00     0.011 C 
ENDBRANCH   7   9
BRANCH   7  11
ATOM     11  N   UNL A   1      31.857  22.726  24.161  1.00  0.00    -0.326 N 
ATOM     12  H   UNL A   1      32.366  22.354  23.359  1.00  0.00     0.347 HD
ATOM     13  H   UNL A   1      30.869  22.941  24.032  1.00  0.00     0.347 HD
BRANCH  11  14
ATOM     14  C   UNL A   1      31.840  21.655  25.194  1.00  0.00     0.362 C 
BRANCH  14  15
ATOM     15  C   UNL A   1      32.998  20.703  25.699  1.00  0.00     0.275 C 
ATOM     16  O   UNL A   1      33.941  21.298  26.268  1.00  0.00    -0.268 OA
ATOM     17  N   UNL A   1      33.150  19.348  25.808  1.00  0.00    -0.349 N 
ATOM     18  H   UNL A   1      33.749  19.136  26.559  1.00  0.00     0.163 HD
BRANCH  17  19
ATOM     19  C   UNL A   1      32.699  18.097  25.152  1.00  0.00     0.081 C 
ATOM     20  C   UNL A   1      33.035  18.161  23.644  1.00  0.00     0.031 C 
BRANCH  19  21
ATOM     21  C   UNL A   1      33.298  16.743  25.662  1.00  0.00     0.005 C 
ATOM     22  C   UNL A   1      32.415  15.508  25.597  1.00  0.00     0.009 C 
ATOM     23  C   UNL A   1      34.627  16.442  24.935  1.00  0.00     0.009 C 
ENDBRANCH  19  21
ENDBRANCH  17  19
ENDBRANCH  14  15
ENDBRANCH  11  14
ENDBRANCH   7  11
ENDBRANCH   4   7
ENDBRANCH   2   3
ENDBRANCH   1   2
BRANCH   1  24
ATOM     24  C   UNL A   1      37.400  22.001  24.566  1.00  0.00     0.002 C 
BRANCH  24  25
ATOM     25  C   UNL A   1      37.095  20.532  24.886  1.00  0.00     0.002 C 
BRANCH  25  26
ATOM     26  C   UNL A   1      38.301  19.599  24.979  1.00  0.00     0.021 C 
BRANCH  26  27
ATOM     27  C   UNL A   1      39.307  19.996  26.050  1.00  0.00     0.116 C 
BRANCH  27  28
ATOM     28  N   UNL A   1      40.477  19.131  26.040  1.00  0.00    -0.352 N 
ATOM     29  C   UNL A   1      41.809  19.453  26.049  1.00  0.00     0.251 C 
ATOM     30  H   UNL A   1      40.281  18.167  26.024  1.00  0.00     0.163 HD
ATOM     31  O   UNL A   1      42.651  18.601  25.804  1.00  0.00    -0.269 OA
BRANCH  29  32
ATOM     32  C   UNL A   1      42.222  20.835  26.364  1.00  0.00     0.039 A 
ATOM     33  C   UNL A   1      42.476  21.178  27.694  1.00  0.00     0.014 A 
ATOM     34  C   UNL A   1      42.315  21.797  25.355  1.00  0.00     0.014 A 
ATOM     35  C   UNL A   1      42.851  22.484  28.005  1.00  0.00     0.010 A 
ATOM     36  C   UNL A   1      42.777  23.070  25.654  1.00  0.00     0.010 A 
ATOM     37  C   UNL A   1      43.019  23.434  26.985  1.00  0.00    -0.014 A 
BRANCH  37  38
ATOM     38  C   UNL A   1      43.386  24.836  27.296  1.00  0.00     0.031 A 
ATOM     39  C   UNL A   1      44.797  25.303  27.056  1.00  0.00     0.074 A 
ATOM     40  C   UNL A   1      42.468  25.664  27.827  1.00  0.00     0.049 A 
ATOM     41  N   UNL A   1      45.342  26.462  27.326  1.00  0.00    -0.248 NA
ATOM     42  C   UNL A   1      45.727  24.328  26.461  1.00  0.00     0.031 C 
ATOM     43  C   UNL A   1      41.085  25.305  28.144  1.00  0.00     0.029 A 
ATOM     44  N   UNL A   1      42.564  26.980  28.202  1.00  0.00    -0.354 N 
ATOM     45  C   UNL A   1      46.671  26.350  26.938  1.00  0.00     0.074 A 
ATOM     46  C   UNL A   1      46.872  24.991  26.488  1.00  0.00     0.031 C 
ATOM     47  C   UNL A   1      40.457  26.379  28.647  1.00  0.00     0.029 A 
ATOM     48  C   UNL A   1      41.400  27.489  28.724  1.00  0.00     0.049 A 
ATOM     49  H   UNL A   1      43.389  27.509  28.106  1.00  0.00     0.167 HD
ATOM     50  C   UNL A   1      47.629  27.307  26.921  1.00  0.00     0.037 A 
ATOM     51  C   UNL A   1      41.135  28.714  29.216  1.00  0.00     0.037 A 
ATOM     52  C   UNL A   1      47.416  28.661  27.355  1.00  0.00     0.049 A 
ATOM     53  C   UNL A   1      42.225  29.754  29.198  1.00  0.00     0.074 A 
ATOM     54  C   UNL A   1      48.313  29.715  27.372  1.00  0.00     0.029 A 
ATOM     55  N   UNL A   1      46.213  29.151  27.843  1.00  0.00    -0.354 N 
ATOM     56  N   UNL A   1      43.465  29.651  28.784  1.00  0.00    -0.248 NA
ATOM     57  C   UNL A   1      41.872  31.089  29.700  1.00  0.00     0.031 C 
ATOM     58  C   UNL A   1      47.663  30.832  27.904  1.00  0.00     0.029 A 
ATOM     59  C   UNL A   1      46.346  30.491  28.163  1.00  0.00     0.049 A 
ATOM     60  H   UNL A   1      45.388  28.623  27.946  1.00  0.00     0.167 HD
ATOM     61  C   UNL A   1      44.024  30.914  28.933  1.00  0.00     0.074 A 
ATOM     62  C   UNL A   1      42.982  31.769  29.462  1.00  0.00     0.031 C 
ATOM     63  C   UNL A   1      45.285  31.329  28.660  1.00  0.00     0.037 A 
BRANCH  50  64
ATOM     64  C   UNL A   1      48.983  26.927  26.395  1.00  0.00     0.064 A 
ATOM     65  C   UNL A   1      49.955  26.352  27.230  1.00  0.00     0.173 A 
ATOM     66  C   UNL A   1      49.301  27.096  25.040  1.00  0.00     0.173 A 
ATOM     67  F   UNL A   1      49.708  26.182  28.538  1.00  0.00    -0.203 F 
ATOM     68  C   UNL A   1      51.201  25.982  26.731  1.00  0.00     0.198 A 
ATOM     69  C   UNL A   1      50.537  26.694  24.537  1.00  0.00     0.198 A 
ATOM     70  F   UNL A   1      48.410  27.639  24.197  1.00  0.00    -0.203 F 
ATOM     71  F   UNL A   1      52.129  25.478  27.557  1.00  0.00    -0.200 F 
ATOM     72  C   UNL A   1      51.488  26.143  25.384  1.00  0.00     0.200 A 
ATOM     73  F   UNL A   1      50.808  26.837  23.233  1.00  0.00    -0.200 F 
ATOM     74  F   UNL A   1      52.682  25.773  24.903  1.00  0.00    -0.200 F 
ENDBRANCH  50  64
BRANCH  51  75
ATOM     75  C   UNL A   1      39.785  29.033  29.754  1.00  0.00     0.064 A 
ATOM     76  C   UNL A   1      39.479  28.832  31.108  1.00  0.00     0.173 A 
ATOM     77  C   UNL A   1      38.762  29.504  28.919  1.00  0.00     0.173 A 
ATOM     78  F   UNL A   1      40.419  28.370  31.946  1.00  0.00    -0.203 F 
ATOM     79  C   UNL A   1      38.192  29.045  31.595  1.00  0.00     0.198 A 
ATOM     80  C   UNL A   1      37.483  29.752  29.416  1.00  0.00     0.198 A 
ATOM     81  F   UNL A   1      39.002  29.725  27.619  1.00  0.00    -0.203 F 
ATOM     82  F   UNL A   1      37.910  28.775  32.877  1.00  0.00    -0.200 F 
ATOM     83  C   UNL A   1      37.195  29.507  30.749  1.00  0.00     0.200 A 
ATOM     84  F   UNL A   1      36.528  30.215  28.598  1.00  0.00    -0.200 F 
ATOM     85  F   UNL A   1      35.954  29.703  31.216  1.00  0.00    -0.200 F 
ENDBRANCH  51  75
BRANCH  63  86
ATOM     86  C   UNL A   1      45.584  32.788  28.855  1.00  0.00     0.064 A 
ATOM     87  C   UNL A   1      46.098  33.287  30.060  1.00  0.00     0.173 A 
ATOM     88  C   UNL A   1      45.377  33.695  27.803  1.00  0.00     0.173 A 
ATOM     89  F   UNL A   1      46.303  32.464  31.100  1.00  0.00    -0.203 F 
ATOM     90  C   UNL A   1      46.355  34.646  30.219  1.00  0.00     0.198 A 
ATOM     91  C   UNL A   1      45.671  35.047  27.954  1.00  0.00     0.198 A 
ATOM     92  F   UNL A   1      44.899  33.268  26.625  1.00  0.00    -0.203 F 
ATOM     93  F   UNL A   1      46.785  35.110  31.401  1.00  0.00    -0.200 F 
ATOM     94  C   UNL A   1      46.149  35.523  29.165  1.00  0.00     0.200 A 
ATOM     95  F   UNL A   1      45.488  35.888  26.927  1.00  0.00    -0.200 F 
ATOM     96  F   UNL A   1      46.401  36.830  29.319  1.00  0.00    -0.200 F 
ENDBRANCH  63  86
ENDBRANCH  37  38
ENDBRANCH  29  32
ENDBRANCH  27  28
ENDBRANCH  26  27
ENDBRANCH  25  26
ENDBRANCH  24  25
ENDBRANCH   1  24
TORSDOF 19
ENDMDL
