MODEL 1
REMARK VINA RESULT:     -12.7      0.000      0.000
REMARK SMILES C[C@]12CCC(=O)N1[C@@H](C(=O)N1C[C@H](O)C[C@@H]1C(=O)NCCCCCCNC(=O)c1ccc(-c3c4nc(c(-c5c(F)c(F)c(F)c(F)c5F)c5ccc([nH]5)c(-c5c(F)c(F)c(F)c(F)c5F)c5nc(c(-c6c(F)c(F)c(F)c(F)c6F)c6ccc3[nH]6)C=C5)C=C4)cc1)CS2
REMARK SMILES IDX 22 1 21 2 20 3 19 4 17 5 18 6 16 8 11 9 12 10 13 11 15 12
REMARK SMILES IDX 9 13 10 14 8 15 1 16 2 17 3 18 7 19 93 20 4 21 5 22 92 23
REMARK SMILES IDX 6 24 14 25 23 27 24 28 25 29 26 30 27 31 28 33 29 34 30 35
REMARK SMILES IDX 91 36 31 37 90 38 32 39 33 40 34 41 84 42 35 43 89 44 83 45
REMARK SMILES IDX 85 46 36 47 88 48 82 49 81 50 37 52 69 53 49 54 68 55 50 56
REMARK SMILES IDX 53 57 67 58 86 59 51 60 52 61 66 63 87 64 54 65 38 66 39 67
REMARK SMILES IDX 47 68 40 69 41 70 45 71 48 72 42 73 43 74 46 75 44 76 70 77
REMARK SMILES IDX 71 78 79 79 72 80 73 81 77 82 80 83 74 84 75 85 78 86 76 87
REMARK SMILES IDX 55 88 56 89 64 90 57 91 58 92 62 93 65 94 59 95 60 96 63 97
REMARK SMILES IDX 61 98
REMARK H PARENT 19 7 14 26 26 32 85 51 53 62
REMARK Flexibility Score: inf
ROOT
ATOM      1  C   UNL A   1      32.149  29.704  27.152  1.00  0.00     0.002 C 
ENDROOT
BRANCH   1   2
ATOM      2  C   UNL A   1      33.668  29.533  27.177  1.00  0.00     0.021 C 
BRANCH   2   3
ATOM      3  C   UNL A   1      34.259  28.497  26.227  1.00  0.00     0.116 C 
BRANCH   3   4
ATOM      4  N   UNL A   1      34.225  28.876  24.833  1.00  0.00    -0.354 N 
ATOM      5  C   UNL A   1      33.445  28.405  23.818  1.00  0.00     0.242 C 
ATOM      6  O   UNL A   1      33.643  28.890  22.697  1.00  0.00    -0.273 OA
ATOM      7  H   UNL A   1      34.860  29.584  24.577  1.00  0.00     0.163 HD
BRANCH   5   8
ATOM      8  C   UNL A   1      32.341  27.319  23.999  1.00  0.00     0.177 C 
ATOM      9  N   UNL A   1      32.228  26.253  23.006  1.00  0.00    -0.326 N 
ATOM     10  C   UNL A   1      31.030  26.450  22.186  1.00  0.00     0.152 C 
ATOM     11  C   UNL A   1      30.479  27.821  22.572  1.00  0.00     0.136 C 
ATOM     12  C   UNL A   1      30.964  28.003  24.000  1.00  0.00     0.069 C 
BRANCH   9  13
ATOM     13  C   UNL A   1      32.923  25.070  22.880  1.00  0.00     0.247 C 
ATOM     14  O   UNL A   1      33.897  25.010  22.115  1.00  0.00    -0.272 OA
BRANCH  13  15
ATOM     15  C   UNL A   1      32.454  23.760  23.563  1.00  0.00     0.186 C 
ATOM     16  C   UNL A   1      30.841  22.434  25.996  1.00  0.00     0.047 C 
ATOM     17  C   UNL A   1      32.318  22.422  25.600  1.00  0.00     0.087 C 
ATOM     18  C   UNL A   1      33.217  22.229  26.818  1.00  0.00     0.049 C 
ATOM     19  N   UNL A   1      32.755  23.652  24.994  1.00  0.00    -0.315 N 
ATOM     20  S   UNL A   1      32.554  21.172  24.282  1.00  0.00    -0.131 SA
ATOM     21  C   UNL A   1      34.387  23.172  26.616  1.00  0.00     0.103 C 
ATOM     22  C   UNL A   1      33.927  24.133  25.559  1.00  0.00     0.224 C 
ATOM     23  C   UNL A   1      32.726  22.400  22.929  1.00  0.00     0.107 C 
ATOM     24  O   UNL A   1      34.566  25.107  25.217  1.00  0.00    -0.275 OA
ENDBRANCH  13  15
ENDBRANCH   9  13
BRANCH  11  25
ATOM     25  O   UNL A   1      31.033  28.837  21.739  1.00  0.00    -0.391 OA
ATOM     26  H   UNL A   1      30.505  28.914  20.929  1.00  0.00     0.211 HD
ENDBRANCH  11  25
ENDBRANCH   5   8
ENDBRANCH   3   4
ENDBRANCH   2   3
ENDBRANCH   1   2
BRANCH   1  27
ATOM     27  C   UNL A   1      31.573  30.773  26.222  1.00  0.00     0.002 C 
BRANCH  27  28
ATOM     28  C   UNL A   1      31.366  32.177  26.794  1.00  0.00     0.021 C 
BRANCH  28  29
ATOM     29  C   UNL A   1      32.610  32.965  27.185  1.00  0.00     0.116 C 
BRANCH  29  30
ATOM     30  N   UNL A   1      32.335  34.305  27.668  1.00  0.00    -0.352 N 
ATOM     31  C   UNL A   1      32.990  35.051  28.616  1.00  0.00     0.251 C 
ATOM     32  H   UNL A   1      31.559  34.747  27.252  1.00  0.00     0.163 HD
ATOM     33  O   UNL A   1      32.566  36.165  28.911  1.00  0.00    -0.269 OA
BRANCH  31  34
ATOM     34  C   UNL A   1      34.177  34.516  29.325  1.00  0.00     0.039 A 
ATOM     35  C   UNL A   1      33.977  33.883  30.558  1.00  0.00     0.014 A 
ATOM     36  C   UNL A   1      35.472  34.641  28.815  1.00  0.00     0.014 A 
ATOM     37  C   UNL A   1      35.059  33.321  31.241  1.00  0.00     0.010 A 
ATOM     38  C   UNL A   1      36.543  34.028  29.468  1.00  0.00     0.010 A 
ATOM     39  C   UNL A   1      36.346  33.358  30.685  1.00  0.00    -0.014 A 
BRANCH  39  40
ATOM     40  C   UNL A   1      37.491  32.697  31.362  1.00  0.00     0.031 A 
ATOM     41  C   UNL A   1      38.208  31.554  30.700  1.00  0.00     0.074 A 
ATOM     42  C   UNL A   1      37.851  33.089  32.599  1.00  0.00     0.049 A 
ATOM     43  N   UNL A   1      39.184  30.811  31.160  1.00  0.00    -0.248 NA
ATOM     44  C   UNL A   1      37.756  31.184  29.350  1.00  0.00     0.031 C 
ATOM     45  C   UNL A   1      37.210  34.159  33.366  1.00  0.00     0.029 A 
ATOM     46  N   UNL A   1      38.837  32.625  33.435  1.00  0.00    -0.354 N 
ATOM     47  C   UNL A   1      39.449  29.878  30.167  1.00  0.00     0.074 A 
ATOM     48  C   UNL A   1      38.509  30.123  29.094  1.00  0.00     0.031 C 
ATOM     49  C   UNL A   1      37.826  34.277  34.554  1.00  0.00     0.029 A 
ATOM     50  C   UNL A   1      38.884  33.275  34.644  1.00  0.00     0.049 A 
ATOM     51  H   UNL A   1      39.451  31.897  33.191  1.00  0.00     0.167 HD
ATOM     52  C   UNL A   1      40.402  28.915  30.144  1.00  0.00     0.037 A 
ATOM     53  C   UNL A   1      39.685  33.079  35.709  1.00  0.00     0.037 A 
ATOM     54  C   UNL A   1      41.358  28.689  31.197  1.00  0.00     0.049 A 
ATOM     55  C   UNL A   1      40.740  32.010  35.654  1.00  0.00     0.074 A 
ATOM     56  C   UNL A   1      42.399  27.778  31.237  1.00  0.00     0.029 A 
ATOM     57  N   UNL A   1      41.389  29.384  32.397  1.00  0.00    -0.354 N 
ATOM     58  N   UNL A   1      41.019  31.173  34.685  1.00  0.00    -0.248 NA
ATOM     59  C   UNL A   1      41.596  31.860  36.840  1.00  0.00     0.031 C 
ATOM     60  C   UNL A   1      43.040  27.898  32.475  1.00  0.00     0.029 A 
ATOM     61  C   UNL A   1      42.422  28.910  33.189  1.00  0.00     0.049 A 
ATOM     62  H   UNL A   1      40.769  30.106  32.647  1.00  0.00     0.167 HD
ATOM     63  C   UNL A   1      42.094  30.416  35.131  1.00  0.00     0.074 A 
ATOM     64  C   UNL A   1      42.426  30.901  36.455  1.00  0.00     0.031 C 
ATOM     65  C   UNL A   1      42.745  29.409  34.501  1.00  0.00     0.037 A 
BRANCH  52  66
ATOM     66  C   UNL A   1      40.463  28.031  28.935  1.00  0.00     0.064 A 
ATOM     67  C   UNL A   1      39.722  26.843  28.858  1.00  0.00     0.173 A 
ATOM     68  C   UNL A   1      41.237  28.396  27.824  1.00  0.00     0.173 A 
ATOM     69  F   UNL A   1      38.974  26.446  29.898  1.00  0.00    -0.203 F 
ATOM     70  C   UNL A   1      39.772  26.040  27.722  1.00  0.00     0.198 A 
ATOM     71  C   UNL A   1      41.266  27.603  26.680  1.00  0.00     0.198 A 
ATOM     72  F   UNL A   1      41.960  29.527  27.844  1.00  0.00    -0.203 F 
ATOM     73  F   UNL A   1      39.088  24.888  27.686  1.00  0.00    -0.200 F 
ATOM     74  C   UNL A   1      40.539  26.424  26.631  1.00  0.00     0.200 A 
ATOM     75  F   UNL A   1      42.000  27.981  25.622  1.00  0.00    -0.200 F 
ATOM     76  F   UNL A   1      40.582  25.652  25.536  1.00  0.00    -0.200 F 
ENDBRANCH  52  66
BRANCH  53  77
ATOM     77  C   UNL A   1      39.536  33.934  36.914  1.00  0.00     0.064 A 
ATOM     78  C   UNL A   1      38.768  33.506  38.006  1.00  0.00     0.173 A 
ATOM     79  C   UNL A   1      40.150  35.191  36.998  1.00  0.00     0.173 A 
ATOM     80  F   UNL A   1      38.144  32.320  37.961  1.00  0.00    -0.203 F 
ATOM     81  C   UNL A   1      38.609  34.310  39.132  1.00  0.00     0.198 A 
ATOM     82  C   UNL A   1      40.008  35.985  38.134  1.00  0.00     0.198 A 
ATOM     83  F   UNL A   1      40.897  35.643  35.980  1.00  0.00    -0.203 F 
ATOM     84  F   UNL A   1      37.837  33.895  40.145  1.00  0.00    -0.200 F 
ATOM     85  C   UNL A   1      39.232  35.547  39.197  1.00  0.00     0.200 A 
ATOM     86  F   UNL A   1      40.621  37.175  38.198  1.00  0.00    -0.200 F 
ATOM     87  F   UNL A   1      39.081  36.320  40.281  1.00  0.00    -0.200 F 
ENDBRANCH  53  77
BRANCH  65  88
ATOM     88  C   UNL A   1      43.901  28.783  35.222  1.00  0.00     0.064 A 
ATOM     89  C   UNL A   1      45.214  29.236  35.031  1.00  0.00     0.173 A 
ATOM     90  C   UNL A   1      43.689  27.745  36.141  1.00  0.00     0.173 A 
ATOM     91  F   UNL A   1      45.469  30.216  34.149  1.00  0.00    -0.203 F 
ATOM     92  C   UNL A   1      46.277  28.658  35.720  1.00  0.00     0.198 A 
ATOM     93  C   UNL A   1      44.750  27.185  36.845  1.00  0.00     0.198 A 
ATOM     94  F   UNL A   1      42.449  27.281  36.361  1.00  0.00    -0.203 F 
ATOM     95  F   UNL A   1      47.528  29.079  35.494  1.00  0.00    -0.200 F 
ATOM     96  C   UNL A   1      46.043  27.638  36.630  1.00  0.00     0.200 A 
ATOM     97  F   UNL A   1      44.521  26.206  37.731  1.00  0.00    -0.200 F 
ATOM     98  F   UNL A   1      47.066  27.086  37.297  1.00  0.00    -0.200 F 
ENDBRANCH  65  88
ENDBRANCH  39  40
ENDBRANCH  31  34
ENDBRANCH  29  30
ENDBRANCH  28  29
ENDBRANCH  27  28
ENDBRANCH   1  27
TORSDOF 16
ENDMDL
MODEL 2
REMARK VINA RESULT:     -12.7      0.077      1.559
REMARK SMILES C[C@]12CCC(=O)N1[C@@H](C(=O)N1C[C@H](O)C[C@@H]1C(=O)NCCCCCCNC(=O)c1ccc(-c3c4nc(c(-c5c(F)c(F)c(F)c(F)c5F)c5ccc([nH]5)c(-c5c(F)c(F)c(F)c(F)c5F)c5nc(c(-c6c(F)c(F)c(F)c(F)c6F)c6ccc3[nH]6)C=C5)C=C4)cc1)CS2
REMARK SMILES IDX 22 1 21 2 20 3 19 4 17 5 18 6 16 8 11 9 12 10 13 11 15 12
REMARK SMILES IDX 9 13 10 14 8 15 1 16 2 17 3 18 7 19 93 20 4 21 5 22 92 23
REMARK SMILES IDX 6 24 14 25 23 27 24 28 25 29 26 30 27 31 28 33 29 34 30 35
REMARK SMILES IDX 91 36 31 37 90 38 32 39 33 40 34 41 84 42 35 43 89 44 83 45
REMARK SMILES IDX 85 46 36 47 88 48 82 49 81 50 37 52 69 53 49 54 68 55 50 56
REMARK SMILES IDX 53 57 67 58 86 59 51 60 52 61 66 63 87 64 54 65 38 66 39 67
REMARK SMILES IDX 47 68 40 69 41 70 45 71 48 72 42 73 43 74 46 75 44 76 70 77
REMARK SMILES IDX 71 78 79 79 72 80 73 81 77 82 80 83 74 84 75 85 78 86 76 87
REMARK SMILES IDX 55 88 56 89 64 90 57 91 58 92 62 93 65 94 59 95 60 96 63 97
REMARK SMILES IDX 61 98
REMARK H PARENT 19 7 14 26 26 32 85 51 53 62
REMARK Flexibility Score: inf
ROOT
ATOM      1  C   UNL A   1      32.078  29.830  27.210  1.00  0.00     0.002 C 
ENDROOT
BRANCH   1   2
ATOM      2  C   UNL A   1      33.585  29.578  27.240  1.00  0.00     0.021 C 
BRANCH   2   3
ATOM      3  C   UNL A   1      34.124  28.517  26.287  1.00  0.00     0.116 C 
BRANCH   3   4
ATOM      4  N   UNL A   1      34.136  28.914  24.897  1.00  0.00    -0.354 N 
ATOM      5  C   UNL A   1      33.400  28.446  23.849  1.00  0.00     0.242 C 
ATOM      6  O   UNL A   1      33.634  28.947  22.741  1.00  0.00    -0.273 OA
ATOM      7  H   UNL A   1      34.773  29.630  24.673  1.00  0.00     0.163 HD
BRANCH   5   8
ATOM      8  C   UNL A   1      32.302  27.347  23.975  1.00  0.00     0.177 C 
ATOM      9  N   UNL A   1      32.219  26.308  22.951  1.00  0.00    -0.326 N 
ATOM     10  C   UNL A   1      31.038  26.517  22.112  1.00  0.00     0.152 C 
ATOM     11  C   UNL A   1      30.466  27.873  22.524  1.00  0.00     0.136 C 
ATOM     12  C   UNL A   1      30.919  28.019  23.966  1.00  0.00     0.069 C 
BRANCH   9  13
ATOM     13  C   UNL A   1      32.928  25.135  22.808  1.00  0.00     0.247 C 
ATOM     14  O   UNL A   1      33.892  25.093  22.029  1.00  0.00    -0.272 OA
BRANCH  13  15
ATOM     15  C   UNL A   1      32.484  23.814  23.487  1.00  0.00     0.186 C 
ATOM     16  C   UNL A   1      30.908  22.450  25.924  1.00  0.00     0.047 C 
ATOM     17  C   UNL A   1      32.382  22.464  25.518  1.00  0.00     0.087 C 
ATOM     18  C   UNL A   1      33.292  22.279  26.729  1.00  0.00     0.049 C 
ATOM     19  N   UNL A   1      32.796  23.704  24.915  1.00  0.00    -0.315 N 
ATOM     20  S   UNL A   1      32.629  21.224  24.191  1.00  0.00    -0.131 SA
ATOM     21  C   UNL A   1      34.447  23.241  26.524  1.00  0.00     0.103 C 
ATOM     22  C   UNL A   1      33.964  24.200  25.475  1.00  0.00     0.224 C 
ATOM     23  C   UNL A   1      32.773  22.462  22.844  1.00  0.00     0.107 C 
ATOM     24  O   UNL A   1      34.586  25.186  25.134  1.00  0.00    -0.275 OA
ENDBRANCH  13  15
ENDBRANCH   9  13
BRANCH  11  25
ATOM     25  O   UNL A   1      31.028  28.917  21.731  1.00  0.00    -0.391 OA
ATOM     26  H   UNL A   1      30.885  29.769  22.170  1.00  0.00     0.211 HD
ENDBRANCH  11  25
ENDBRANCH   5   8
ENDBRANCH   3   4
ENDBRANCH   2   3
ENDBRANCH   1   2
BRANCH   1  27
ATOM     27  C   UNL A   1      31.546  30.818  26.170  1.00  0.00     0.002 C 
BRANCH  27  28
ATOM     28  C   UNL A   1      31.380  32.279  26.594  1.00  0.00     0.021 C 
BRANCH  28  29
ATOM     29  C   UNL A   1      32.583  32.965  27.233  1.00  0.00     0.116 C 
BRANCH  29  30
ATOM     30  N   UNL A   1      32.317  34.312  27.699  1.00  0.00    -0.352 N 
ATOM     31  C   UNL A   1      32.979  35.067  28.636  1.00  0.00     0.251 C 
ATOM     32  H   UNL A   1      31.543  34.753  27.279  1.00  0.00     0.163 HD
ATOM     33  O   UNL A   1      32.563  36.187  28.917  1.00  0.00    -0.269 OA
BRANCH  31  34
ATOM     34  C   UNL A   1      34.165  34.533  29.349  1.00  0.00     0.039 A 
ATOM     35  C   UNL A   1      33.958  33.868  30.563  1.00  0.00     0.014 A 
ATOM     36  C   UNL A   1      35.465  34.689  28.859  1.00  0.00     0.014 A 
ATOM     37  C   UNL A   1      35.039  33.306  31.248  1.00  0.00     0.010 A 
ATOM     38  C   UNL A   1      36.536  34.078  29.513  1.00  0.00     0.010 A 
ATOM     39  C   UNL A   1      36.333  33.377  30.711  1.00  0.00    -0.014 A 
BRANCH  39  40
ATOM     40  C   UNL A   1      37.479  32.717  31.388  1.00  0.00     0.031 A 
ATOM     41  C   UNL A   1      38.197  31.575  30.728  1.00  0.00     0.074 A 
ATOM     42  C   UNL A   1      37.838  33.111  32.625  1.00  0.00     0.049 A 
ATOM     43  N   UNL A   1      39.174  30.834  31.188  1.00  0.00    -0.248 NA
ATOM     44  C   UNL A   1      37.745  31.204  29.378  1.00  0.00     0.031 C 
ATOM     45  C   UNL A   1      37.196  34.180  33.392  1.00  0.00     0.029 A 
ATOM     46  N   UNL A   1      38.825  32.649  33.462  1.00  0.00    -0.354 N 
ATOM     47  C   UNL A   1      39.440  29.900  30.196  1.00  0.00     0.074 A 
ATOM     48  C   UNL A   1      38.499  30.144  29.122  1.00  0.00     0.031 C 
ATOM     49  C   UNL A   1      37.812  34.300  34.579  1.00  0.00     0.029 A 
ATOM     50  C   UNL A   1      38.871  33.299  34.670  1.00  0.00     0.049 A 
ATOM     51  H   UNL A   1      39.440  31.921  33.218  1.00  0.00     0.167 HD
ATOM     52  C   UNL A   1      40.394  28.939  30.173  1.00  0.00     0.037 A 
ATOM     53  C   UNL A   1      39.673  33.105  35.735  1.00  0.00     0.037 A 
ATOM     54  C   UNL A   1      41.350  28.714  31.226  1.00  0.00     0.049 A 
ATOM     55  C   UNL A   1      40.729  32.037  35.681  1.00  0.00     0.074 A 
ATOM     56  C   UNL A   1      42.392  27.804  31.266  1.00  0.00     0.029 A 
ATOM     57  N   UNL A   1      41.381  29.410  32.425  1.00  0.00    -0.354 N 
ATOM     58  N   UNL A   1      41.009  31.200  34.712  1.00  0.00    -0.248 NA
ATOM     59  C   UNL A   1      41.585  31.890  36.867  1.00  0.00     0.031 C 
ATOM     60  C   UNL A   1      43.034  27.927  32.504  1.00  0.00     0.029 A 
ATOM     61  C   UNL A   1      42.414  28.938  33.218  1.00  0.00     0.049 A 
ATOM     62  H   UNL A   1      40.760  30.132  32.675  1.00  0.00     0.167 HD
ATOM     63  C   UNL A   1      42.084  30.445  35.159  1.00  0.00     0.074 A 
ATOM     64  C   UNL A   1      42.416  30.931  36.482  1.00  0.00     0.031 C 
ATOM     65  C   UNL A   1      42.737  29.438  34.530  1.00  0.00     0.037 A 
BRANCH  52  66
ATOM     66  C   UNL A   1      40.456  28.054  28.964  1.00  0.00     0.064 A 
ATOM     67  C   UNL A   1      39.730  26.855  28.896  1.00  0.00     0.173 A 
ATOM     68  C   UNL A   1      41.215  28.427  27.846  1.00  0.00     0.173 A 
ATOM     69  F   UNL A   1      38.998  26.450  29.944  1.00  0.00    -0.203 F 
ATOM     70  C   UNL A   1      39.781  26.051  27.760  1.00  0.00     0.198 A 
ATOM     71  C   UNL A   1      41.245  27.633  26.703  1.00  0.00     0.198 A 
ATOM     72  F   UNL A   1      41.923  29.568  27.858  1.00  0.00    -0.203 F 
ATOM     73  F   UNL A   1      39.112  24.890  27.733  1.00  0.00    -0.200 F 
ATOM     74  C   UNL A   1      40.534  26.444  26.662  1.00  0.00     0.200 A 
ATOM     75  F   UNL A   1      41.963  28.019  25.638  1.00  0.00    -0.200 F 
ATOM     76  F   UNL A   1      40.577  25.671  25.568  1.00  0.00    -0.200 F 
ENDBRANCH  52  66
BRANCH  53  77
ATOM     77  C   UNL A   1      39.522  33.960  36.939  1.00  0.00     0.064 A 
ATOM     78  C   UNL A   1      40.151  35.211  37.015  1.00  0.00     0.173 A 
ATOM     79  C   UNL A   1      38.752  33.548  38.036  1.00  0.00     0.173 A 
ATOM     80  F   UNL A   1      40.915  35.637  35.999  1.00  0.00    -0.203 F 
ATOM     81  C   UNL A   1      40.029  36.010  38.149  1.00  0.00     0.198 A 
ATOM     82  C   UNL A   1      38.612  34.358  39.161  1.00  0.00     0.198 A 
ATOM     83  F   UNL A   1      38.128  32.361  38.010  1.00  0.00    -0.203 F 
ATOM     84  F   UNL A   1      40.674  37.182  38.212  1.00  0.00    -0.200 F 
ATOM     85  C   UNL A   1      39.256  35.585  39.219  1.00  0.00     0.200 A 
ATOM     86  F   UNL A   1      37.855  33.949  40.188  1.00  0.00    -0.200 F 
ATOM     87  F   UNL A   1      39.136  36.354  40.310  1.00  0.00    -0.200 F 
ENDBRANCH  53  77
BRANCH  65  88
ATOM     88  C   UNL A   1      43.894  28.814  35.251  1.00  0.00     0.064 A 
ATOM     89  C   UNL A   1      43.717  27.722  36.111  1.00  0.00     0.173 A 
ATOM     90  C   UNL A   1      45.198  29.292  35.049  1.00  0.00     0.173 A 
ATOM     91  F   UNL A   1      42.487  27.241  36.349  1.00  0.00    -0.203 F 
ATOM     92  C   UNL A   1      44.804  27.141  36.760  1.00  0.00     0.198 A 
ATOM     93  C   UNL A   1      46.283  28.694  35.681  1.00  0.00     0.198 A 
ATOM     94  F   UNL A   1      45.417  30.333  34.231  1.00  0.00    -0.203 F 
ATOM     95  F   UNL A   1      44.609  26.122  37.608  1.00  0.00    -0.200 F 
ATOM     96  C   UNL A   1      46.085  27.623  36.540  1.00  0.00     0.200 A 
ATOM     97  F   UNL A   1      47.522  29.155  35.460  1.00  0.00    -0.200 F 
ATOM     98  F   UNL A   1      47.130  27.059  37.161  1.00  0.00    -0.200 F 
ENDBRANCH  65  88
ENDBRANCH  39  40
ENDBRANCH  31  34
ENDBRANCH  29  30
ENDBRANCH  28  29
ENDBRANCH  27  28
ENDBRANCH   1  27
TORSDOF 16
ENDMDL
MODEL 3
REMARK VINA RESULT:     -12.5      0.529      7.074
REMARK SMILES C[C@]12CCC(=O)N1[C@@H](C(=O)N1C[C@H](O)C[C@@H]1C(=O)NCCCCCCNC(=O)c1ccc(-c3c4nc(c(-c5c(F)c(F)c(F)c(F)c5F)c5ccc([nH]5)c(-c5c(F)c(F)c(F)c(F)c5F)c5nc(c(-c6c(F)c(F)c(F)c(F)c6F)c6ccc3[nH]6)C=C5)C=C4)cc1)CS2
REMARK SMILES IDX 22 1 21 2 20 3 19 4 17 5 18 6 16 8 11 9 12 10 13 11 15 12
REMARK SMILES IDX 9 13 10 14 8 15 1 16 2 17 3 18 7 19 93 20 4 21 5 22 92 23
REMARK SMILES IDX 6 24 14 25 23 27 24 28 25 29 26 30 27 31 28 33 29 34 30 35
REMARK SMILES IDX 91 36 31 37 90 38 32 39 33 40 34 41 84 42 35 43 89 44 83 45
REMARK SMILES IDX 85 46 36 47 88 48 82 49 81 50 37 52 69 53 49 54 68 55 50 56
REMARK SMILES IDX 53 57 67 58 86 59 51 60 52 61 66 63 87 64 54 65 38 66 39 67
REMARK SMILES IDX 47 68 40 69 41 70 45 71 48 72 42 73 43 74 46 75 44 76 70 77
REMARK SMILES IDX 71 78 79 79 72 80 73 81 77 82 80 83 74 84 75 85 78 86 76 87
REMARK SMILES IDX 55 88 56 89 64 90 57 91 58 92 62 93 65 94 59 95 60 96 63 97
REMARK SMILES IDX 61 98
REMARK H PARENT 19 7 14 26 26 32 85 51 53 62
REMARK Flexibility Score: inf
ROOT
ATOM      1  C   UNL A   1      31.892  29.716  27.040  1.00  0.00     0.002 C 
ENDROOT
BRANCH   1   2
ATOM      2  C   UNL A   1      33.378  29.451  27.277  1.00  0.00     0.021 C 
BRANCH   2   3
ATOM      3  C   UNL A   1      34.070  28.498  26.309  1.00  0.00     0.116 C 
BRANCH   3   4
ATOM      4  N   UNL A   1      34.075  28.944  24.934  1.00  0.00    -0.354 N 
ATOM      5  C   UNL A   1      33.333  28.516  23.873  1.00  0.00     0.242 C 
ATOM      6  O   UNL A   1      33.561  29.056  22.783  1.00  0.00    -0.273 OA
ATOM      7  H   UNL A   1      34.711  29.668  24.732  1.00  0.00     0.163 HD
BRANCH   5   8
ATOM      8  C   UNL A   1      32.234  27.414  23.966  1.00  0.00     0.177 C 
ATOM      9  N   UNL A   1      32.174  26.385  22.929  1.00  0.00    -0.326 N 
ATOM     10  C   UNL A   1      31.009  26.602  22.068  1.00  0.00     0.152 C 
ATOM     11  C   UNL A   1      30.427  27.952  22.483  1.00  0.00     0.136 C 
ATOM     12  C   UNL A   1      30.851  28.083  23.936  1.00  0.00     0.069 C 
BRANCH   9  13
ATOM     13  C   UNL A   1      32.887  25.215  22.787  1.00  0.00     0.247 C 
ATOM     14  O   UNL A   1      33.856  25.178  22.014  1.00  0.00    -0.272 OA
BRANCH  13  15
ATOM     15  C   UNL A   1      32.444  23.892  23.461  1.00  0.00     0.186 C 
ATOM     16  C   UNL A   1      30.904  22.517  25.915  1.00  0.00     0.047 C 
ATOM     17  C   UNL A   1      32.370  22.521  25.479  1.00  0.00     0.087 C 
ATOM     18  C   UNL A   1      33.302  22.314  26.670  1.00  0.00     0.049 C 
ATOM     19  N   UNL A   1      32.784  23.763  24.882  1.00  0.00    -0.315 N 
ATOM     20  S   UNL A   1      32.578  21.293  24.136  1.00  0.00    -0.131 SA
ATOM     21  C   UNL A   1      34.461  23.267  26.452  1.00  0.00     0.103 C 
ATOM     22  C   UNL A   1      33.968  24.242  25.423  1.00  0.00     0.224 C 
ATOM     23  C   UNL A   1      32.707  22.543  22.799  1.00  0.00     0.107 C 
ATOM     24  O   UNL A   1      34.592  25.226  25.080  1.00  0.00    -0.275 OA
ENDBRANCH  13  15
ENDBRANCH   9  13
BRANCH  11  25
ATOM     25  O   UNL A   1      31.003  29.005  21.713  1.00  0.00    -0.391 OA
ATOM     26  H   UNL A   1      31.928  28.792  21.513  1.00  0.00     0.211 HD
ENDBRANCH  11  25
ENDBRANCH   5   8
ENDBRANCH   3   4
ENDBRANCH   2   3
ENDBRANCH   1   2
BRANCH   1  27
ATOM     27  C   UNL A   1      31.518  30.914  26.165  1.00  0.00     0.002 C 
BRANCH  27  28
ATOM     28  C   UNL A   1      31.350  32.272  26.851  1.00  0.00     0.021 C 
BRANCH  28  29
ATOM     29  C   UNL A   1      32.611  33.089  27.109  1.00  0.00     0.116 C 
BRANCH  29  30
ATOM     30  N   UNL A   1      32.364  34.384  27.711  1.00  0.00    -0.352 N 
ATOM     31  C   UNL A   1      33.037  35.029  28.721  1.00  0.00     0.251 C 
ATOM     32  H   UNL A   1      31.597  34.878  27.340  1.00  0.00     0.163 HD
ATOM     33  O   UNL A   1      32.636  36.120  29.117  1.00  0.00    -0.269 OA
BRANCH  31  34
ATOM     34  C   UNL A   1      34.214  34.407  29.374  1.00  0.00     0.039 A 
ATOM     35  C   UNL A   1      33.991  33.587  30.488  1.00  0.00     0.014 A 
ATOM     36  C   UNL A   1      35.520  34.628  28.929  1.00  0.00     0.014 A 
ATOM     37  C   UNL A   1      35.064  32.941  31.108  1.00  0.00     0.010 A 
ATOM     38  C   UNL A   1      36.583  33.937  29.512  1.00  0.00     0.010 A 
ATOM     39  C   UNL A   1      36.366  33.084  30.604  1.00  0.00    -0.014 A 
BRANCH  39  40
ATOM     40  C   UNL A   1      37.504  32.342  31.204  1.00  0.00     0.031 A 
ATOM     41  C   UNL A   1      38.012  32.704  32.571  1.00  0.00     0.074 A 
ATOM     42  C   UNL A   1      38.118  31.376  30.494  1.00  0.00     0.049 A 
ATOM     43  N   UNL A   1      39.032  32.216  33.232  1.00  0.00    -0.248 NA
ATOM     44  C   UNL A   1      37.288  33.770  33.283  1.00  0.00     0.031 C 
ATOM     45  C   UNL A   1      37.748  30.957  29.141  1.00  0.00     0.029 A 
ATOM     46  N   UNL A   1      39.193  30.580  30.806  1.00  0.00    -0.354 N 
ATOM     47  C   UNL A   1      39.085  32.925  34.424  1.00  0.00     0.074 A 
ATOM     48  C   UNL A   1      38.016  33.902  34.383  1.00  0.00     0.031 C 
ATOM     49  C   UNL A   1      38.573  29.974  28.745  1.00  0.00     0.029 A 
ATOM     50  C   UNL A   1      39.546  29.714  29.802  1.00  0.00     0.049 A 
ATOM     51  H   UNL A   1      39.664  30.626  31.669  1.00  0.00     0.167 HD
ATOM     52  C   UNL A   1      39.934  32.765  35.467  1.00  0.00     0.037 A 
ATOM     53  C   UNL A   1      40.548  28.815  29.737  1.00  0.00     0.037 A 
ATOM     54  C   UNL A   1      40.978  31.775  35.523  1.00  0.00     0.049 A 
ATOM     55  C   UNL A   1      41.471  28.651  30.911  1.00  0.00     0.074 A 
ATOM     56  C   UNL A   1      41.849  31.496  36.562  1.00  0.00     0.029 A 
ATOM     57  N   UNL A   1      41.289  30.898  34.494  1.00  0.00    -0.354 N 
ATOM     58  N   UNL A   1      41.473  29.287  32.056  1.00  0.00    -0.248 NA
ATOM     59  C   UNL A   1      42.531  27.640  30.785  1.00  0.00     0.031 C 
ATOM     60  C   UNL A   1      42.710  30.473  36.150  1.00  0.00     0.029 A 
ATOM     61  C   UNL A   1      42.350  30.089  34.869  1.00  0.00     0.049 A 
ATOM     62  H   UNL A   1      40.826  30.857  33.627  1.00  0.00     0.167 HD
ATOM     63  C   UNL A   1      42.512  28.740  32.796  1.00  0.00     0.074 A 
ATOM     64  C   UNL A   1      43.113  27.710  31.974  1.00  0.00     0.031 C 
ATOM     65  C   UNL A   1      42.932  29.063  34.043  1.00  0.00     0.037 A 
BRANCH  52  66
ATOM     66  C   UNL A   1      39.769  33.682  36.642  1.00  0.00     0.064 A 
ATOM     67  C   UNL A   1      38.908  33.364  37.703  1.00  0.00     0.173 A 
ATOM     68  C   UNL A   1      40.508  34.870  36.728  1.00  0.00     0.173 A 
ATOM     69  F   UNL A   1      38.172  32.244  37.662  1.00  0.00    -0.203 F 
ATOM     70  C   UNL A   1      38.777  34.214  38.798  1.00  0.00     0.198 A 
ATOM     71  C   UNL A   1      40.393  35.707  37.835  1.00  0.00     0.198 A 
ATOM     72  F   UNL A   1      41.350  35.217  35.742  1.00  0.00    -0.203 F 
ATOM     73  F   UNL A   1      37.919  33.911  39.781  1.00  0.00    -0.200 F 
ATOM     74  C   UNL A   1      39.524  35.382  38.866  1.00  0.00     0.200 A 
ATOM     75  F   UNL A   1      41.123  36.829  37.905  1.00  0.00    -0.200 F 
ATOM     76  F   UNL A   1      39.400  36.196  39.923  1.00  0.00    -0.200 F 
ENDBRANCH  52  66
BRANCH  53  77
ATOM     77  C   UNL A   1      40.715  27.982  28.519  1.00  0.00     0.064 A 
ATOM     78  C   UNL A   1      40.103  26.725  28.419  1.00  0.00     0.173 A 
ATOM     79  C   UNL A   1      41.489  28.421  27.435  1.00  0.00     0.173 A 
ATOM     80  F   UNL A   1      39.371  26.256  29.441  1.00  0.00    -0.203 F 
ATOM     81  C   UNL A   1      40.271  25.931  27.288  1.00  0.00     0.198 A 
ATOM     82  C   UNL A   1      41.638  27.635  26.294  1.00  0.00     0.198 A 
ATOM     83  F   UNL A   1      42.093  29.617  27.481  1.00  0.00    -0.203 F 
ATOM     84  F   UNL A   1      39.708  24.717  27.236  1.00  0.00    -0.200 F 
ATOM     85  C   UNL A   1      41.035  26.388  26.225  1.00  0.00     0.200 A 
ATOM     86  F   UNL A   1      42.368  28.084  25.264  1.00  0.00    -0.200 F 
ATOM     87  F   UNL A   1      41.195  25.624  25.135  1.00  0.00    -0.200 F 
ENDBRANCH  53  77
BRANCH  65  88
ATOM     88  C   UNL A   1      44.076  28.276  34.607  1.00  0.00     0.064 A 
ATOM     89  C   UNL A   1      45.400  28.716  34.481  1.00  0.00     0.173 A 
ATOM     90  C   UNL A   1      43.840  27.087  35.314  1.00  0.00     0.173 A 
ATOM     91  F   UNL A   1      45.677  29.839  33.799  1.00  0.00    -0.203 F 
ATOM     92  C   UNL A   1      46.452  27.984  35.027  1.00  0.00     0.198 A 
ATOM     93  C   UNL A   1      44.891  26.371  35.878  1.00  0.00     0.198 A 
ATOM     94  F   UNL A   1      42.588  26.627  35.465  1.00  0.00    -0.203 F 
ATOM     95  F   UNL A   1      47.714  28.403  34.861  1.00  0.00    -0.200 F 
ATOM     96  C   UNL A   1      46.196  26.816  35.729  1.00  0.00     0.200 A 
ATOM     97  F   UNL A   1      44.641  25.247  36.564  1.00  0.00    -0.200 F 
ATOM     98  F   UNL A   1      47.208  26.115  36.257  1.00  0.00    -0.200 F 
ENDBRANCH  65  88
ENDBRANCH  39  40
ENDBRANCH  31  34
ENDBRANCH  29  30
ENDBRANCH  28  29
ENDBRANCH  27  28
ENDBRANCH   1  27
TORSDOF 16
ENDMDL
