MODEL 1
REMARK VINA RESULT:     -10.6      0.000      0.000
REMARK SMILES CCN(C(=O)c1ccccc1C(=O)NCCCCCCNC(=O)c1ccc(-c2c3nc(c(-c4c(F)c(F)c(F)c(F)c4F)c4ccc([nH]4)c(-c4c(F)c(F)c(F)c(F)c4F)c4nc(c(-c5c(F)c(F)c(F)c(F)c5F)c5ccc2[nH]5)C=C4)C=C3)cc1)[C@H](CCO)c1ccccc1
REMARK SMILES IDX 15 1 14 2 12 3 13 4 11 6 6 7 7 8 8 9 10 10 9 11 4 12 5 13
REMARK SMILES IDX 3 14 2 15 1 16 87 17 91 18 92 19 96 20 93 21 95 22 94 23
REMARK SMILES IDX 88 24 89 25 90 26 16 28 17 29 18 30 19 31 20 32 21 33 22 34
REMARK SMILES IDX 23 36 24 37 25 38 86 39 26 40 85 41 27 42 28 43 29 44 79 45
REMARK SMILES IDX 30 46 84 47 78 48 80 49 31 50 83 51 77 52 76 53 32 55 64 56
REMARK SMILES IDX 44 57 63 58 45 59 48 60 62 61 81 62 46 63 47 64 61 66 82 67
REMARK SMILES IDX 49 68 33 69 34 70 42 71 35 72 36 73 40 74 43 75 37 76 38 77
REMARK SMILES IDX 41 78 39 79 65 80 66 81 74 82 67 83 68 84 72 85 75 86 69 87
REMARK SMILES IDX 70 88 73 89 71 90 50 91 51 92 59 93 52 94 53 95 57 96 60 97
REMARK SMILES IDX 54 98 55 99 58 100 56 101
REMARK H PARENT 14 5 90 27 21 35 80 54 48 65
REMARK Flexibility Score: inf
ROOT
ATOM      1  C   UNL A   1      33.653  23.122  21.865  1.00  0.00     0.116 C 
ENDROOT
BRANCH   1   2
ATOM      2  N   UNL A   1      32.251  23.270  22.179  1.00  0.00    -0.352 N 
ATOM      3  C   UNL A   1      31.564  23.057  23.346  1.00  0.00     0.252 C 
ATOM      4  O   UNL A   1      30.359  23.320  23.347  1.00  0.00    -0.269 OA
ATOM      5  H   UNL A   1      31.694  23.577  21.427  1.00  0.00     0.163 HD
BRANCH   3   6
ATOM      6  C   UNL A   1      32.145  22.501  24.600  1.00  0.00     0.052 A 
ATOM      7  C   UNL A   1      32.182  23.105  25.865  1.00  0.00     0.052 A 
ATOM      8  C   UNL A   1      32.737  22.412  26.962  1.00  0.00     0.014 A 
ATOM      9  C   UNL A   1      33.194  21.103  26.831  1.00  0.00     0.001 A 
ATOM     10  C   UNL A   1      32.581  21.161  24.500  1.00  0.00     0.014 A 
ATOM     11  C   UNL A   1      33.101  20.470  25.600  1.00  0.00     0.001 A 
BRANCH   7  12
ATOM     12  C   UNL A   1      31.807  24.493  26.173  1.00  0.00     0.255 C 
ATOM     13  O   UNL A   1      31.215  24.582  27.251  1.00  0.00    -0.269 OA
BRANCH  12  14
ATOM     14  N   UNL A   1      32.075  25.584  25.305  1.00  0.00    -0.332 N 
BRANCH  14  15
ATOM     15  C   UNL A   1      33.493  25.873  24.981  1.00  0.00     0.117 C 
ATOM     16  C   UNL A   1      34.554  25.825  26.064  1.00  0.00     0.027 C 
ENDBRANCH  14  15
BRANCH  14  17
ATOM     17  C   UNL A   1      31.026  26.679  25.255  1.00  0.00     0.118 C 
BRANCH  17  18
ATOM     18  C   UNL A   1      31.455  28.044  25.767  1.00  0.00    -0.025 A 
ATOM     19  C   UNL A   1      31.325  29.206  24.992  1.00  0.00     0.006 A 
ATOM     20  C   UNL A   1      31.923  28.169  27.089  1.00  0.00     0.006 A 
ATOM     21  C   UNL A   1      31.665  30.451  25.525  1.00  0.00     0.000 A 
ATOM     22  C   UNL A   1      32.239  29.414  27.627  1.00  0.00     0.000 A 
ATOM     23  C   UNL A   1      32.114  30.556  26.842  1.00  0.00     0.000 A 
ENDBRANCH  17  18
BRANCH  17  24
ATOM     24  C   UNL A   1      30.279  26.830  23.885  1.00  0.00     0.058 C 
BRANCH  24  25
ATOM     25  C   UNL A   1      31.110  26.743  22.602  1.00  0.00     0.158 C 
BRANCH  25  26
ATOM     26  O   UNL A   1      30.653  27.672  21.628  1.00  0.00    -0.396 OA
ATOM     27  H   UNL A   1      31.346  28.326  21.454  1.00  0.00     0.210 HD
ENDBRANCH  25  26
ENDBRANCH  24  25
ENDBRANCH  17  24
ENDBRANCH  14  17
ENDBRANCH  12  14
ENDBRANCH   7  12
ENDBRANCH   3   6
ENDBRANCH   1   2
BRANCH   1  28
ATOM     28  C   UNL A   1      34.611  23.758  22.870  1.00  0.00     0.021 C 
BRANCH  28  29
ATOM     29  C   UNL A   1      35.717  22.858  23.446  1.00  0.00     0.002 C 
BRANCH  29  30
ATOM     30  C   UNL A   1      35.932  22.866  24.966  1.00  0.00     0.002 C 
BRANCH  30  31
ATOM     31  C   UNL A   1      36.668  21.669  25.571  1.00  0.00     0.021 C 
BRANCH  31  32
ATOM     32  C   UNL A   1      38.046  21.362  25.002  1.00  0.00     0.116 C 
BRANCH  32  33
ATOM     33  N   UNL A   1      38.815  20.469  25.852  1.00  0.00    -0.352 N 
ATOM     34  C   UNL A   1      39.893  20.676  26.679  1.00  0.00     0.251 C 
ATOM     35  H   UNL A   1      38.503  19.535  25.832  1.00  0.00     0.163 HD
ATOM     36  O   UNL A   1      40.453  19.690  27.155  1.00  0.00    -0.269 OA
BRANCH  34  37
ATOM     37  C   UNL A   1      40.414  22.029  27.021  1.00  0.00     0.039 A 
ATOM     38  C   UNL A   1      39.934  23.126  26.289  1.00  0.00     0.014 A 
ATOM     39  C   UNL A   1      41.429  22.244  27.954  1.00  0.00     0.014 A 
ATOM     40  C   UNL A   1      40.454  24.411  26.498  1.00  0.00     0.010 A 
ATOM     41  C   UNL A   1      41.873  23.538  28.238  1.00  0.00     0.010 A 
ATOM     42  C   UNL A   1      41.424  24.632  27.484  1.00  0.00    -0.014 A 
BRANCH  42  43
ATOM     43  C   UNL A   1      42.053  25.969  27.678  1.00  0.00     0.031 A 
ATOM     44  C   UNL A   1      41.314  27.043  28.436  1.00  0.00     0.074 A 
ATOM     45  C   UNL A   1      43.258  26.244  27.145  1.00  0.00     0.049 A 
ATOM     46  N   UNL A   1      41.636  28.298  28.636  1.00  0.00    -0.248 NA
ATOM     47  C   UNL A   1      40.016  26.664  29.019  1.00  0.00     0.031 C 
ATOM     48  C   UNL A   1      44.069  25.316  26.359  1.00  0.00     0.029 A 
ATOM     49  N   UNL A   1      44.007  27.396  27.178  1.00  0.00    -0.354 N 
ATOM     50  C   UNL A   1      40.567  28.861  29.324  1.00  0.00     0.074 A 
ATOM     51  C   UNL A   1      39.566  27.826  29.465  1.00  0.00     0.031 C 
ATOM     52  C   UNL A   1      45.214  25.923  26.007  1.00  0.00     0.029 A 
ATOM     53  C   UNL A   1      45.204  27.294  26.511  1.00  0.00     0.049 A 
ATOM     54  H   UNL A   1      43.714  28.217  27.636  1.00  0.00     0.167 HD
ATOM     55  C   UNL A   1      40.437  30.117  29.817  1.00  0.00     0.037 A 
ATOM     56  C   UNL A   1      46.180  28.202  26.328  1.00  0.00     0.037 A 
ATOM     57  C   UNL A   1      41.455  31.129  29.731  1.00  0.00     0.049 A 
ATOM     58  C   UNL A   1      46.032  29.581  26.913  1.00  0.00     0.074 A 
ATOM     59  C   UNL A   1      41.449  32.409  30.261  1.00  0.00     0.029 A 
ATOM     60  N   UNL A   1      42.669  30.973  29.078  1.00  0.00    -0.354 N 
ATOM     61  N   UNL A   1      45.038  30.085  27.604  1.00  0.00    -0.248 NA
ATOM     62  C   UNL A   1      47.148  30.513  26.699  1.00  0.00     0.031 C 
ATOM     63  C   UNL A   1      42.647  33.037  29.899  1.00  0.00     0.029 A 
ATOM     64  C   UNL A   1      43.416  32.135  29.183  1.00  0.00     0.049 A 
ATOM     65  H   UNL A   1      42.957  30.156  28.610  1.00  0.00     0.167 HD
ATOM     66  C   UNL A   1      45.419  31.379  27.931  1.00  0.00     0.074 A 
ATOM     67  C   UNL A   1      46.740  31.581  27.373  1.00  0.00     0.031 C 
ATOM     68  C   UNL A   1      44.735  32.316  28.634  1.00  0.00     0.037 A 
BRANCH  55  69
ATOM     69  C   UNL A   1      39.141  30.462  30.495  1.00  0.00     0.064 A 
ATOM     70  C   UNL A   1      38.979  30.340  31.884  1.00  0.00     0.173 A 
ATOM     71  C   UNL A   1      38.049  30.928  29.748  1.00  0.00     0.173 A 
ATOM     72  F   UNL A   1      39.987  29.888  32.644  1.00  0.00    -0.203 F 
ATOM     73  C   UNL A   1      37.759  30.629  32.492  1.00  0.00     0.198 A 
ATOM     74  C   UNL A   1      36.842  31.249  30.363  1.00  0.00     0.198 A 
ATOM     75  F   UNL A   1      38.151  31.073  28.418  1.00  0.00    -0.203 F 
ATOM     76  F   UNL A   1      37.609  30.442  33.811  1.00  0.00    -0.200 F 
ATOM     77  C   UNL A   1      36.694  31.089  31.732  1.00  0.00     0.200 A 
ATOM     78  F   UNL A   1      35.817  31.705  29.629  1.00  0.00    -0.200 F 
ATOM     79  F   UNL A   1      35.521  31.364  32.319  1.00  0.00    -0.200 F 
ENDBRANCH  55  69
BRANCH  56  80
ATOM     80  C   UNL A   1      47.414  27.819  25.593  1.00  0.00     0.064 A 
ATOM     81  C   UNL A   1      48.563  27.419  26.290  1.00  0.00     0.173 A 
ATOM     82  C   UNL A   1      47.468  27.830  24.193  1.00  0.00     0.173 A 
ATOM     83  F   UNL A   1      48.565  27.418  27.632  1.00  0.00    -0.203 F 
ATOM     84  C   UNL A   1      49.724  27.056  25.613  1.00  0.00     0.198 A 
ATOM     85  C   UNL A   1      48.623  27.442  23.516  1.00  0.00     0.198 A 
ATOM     86  F   UNL A   1      46.395  28.205  23.482  1.00  0.00    -0.203 F 
ATOM     87  F   UNL A   1      50.821  26.713  26.304  1.00  0.00    -0.200 F 
ATOM     88  C   UNL A   1      49.752  27.060  24.227  1.00  0.00     0.200 A 
ATOM     89  F   UNL A   1      48.644  27.438  22.176  1.00  0.00    -0.200 F 
ATOM     90  F   UNL A   1      50.867  26.703  23.576  1.00  0.00    -0.200 F 
ENDBRANCH  56  80
BRANCH  68  91
ATOM     91  C   UNL A   1      45.419  33.629  28.877  1.00  0.00     0.064 A 
ATOM     92  C   UNL A   1      46.260  33.828  29.980  1.00  0.00     0.173 A 
ATOM     93  C   UNL A   1      45.258  34.690  27.971  1.00  0.00     0.173 A 
ATOM     94  F   UNL A   1      46.435  32.851  30.882  1.00  0.00    -0.203 F 
ATOM     95  C   UNL A   1      46.896  35.051  30.183  1.00  0.00     0.198 A 
ATOM     96  C   UNL A   1      45.917  35.901  28.162  1.00  0.00     0.198 A 
ATOM     97  F   UNL A   1      44.470  34.546  26.896  1.00  0.00    -0.203 F 
ATOM     98  F   UNL A   1      47.660  35.236  31.268  1.00  0.00    -0.200 F 
ATOM     99  C   UNL A   1      46.729  36.083  29.272  1.00  0.00     0.200 A 
ATOM    100  F   UNL A   1      45.764  36.893  27.274  1.00  0.00    -0.200 F 
ATOM    101  F   UNL A   1      47.346  37.257  29.466  1.00  0.00    -0.200 F 
ENDBRANCH  68  91
ENDBRANCH  42  43
ENDBRANCH  34  37
ENDBRANCH  32  33
ENDBRANCH  31  32
ENDBRANCH  30  31
ENDBRANCH  29  30
ENDBRANCH  28  29
ENDBRANCH   1  28
TORSDOF 21
ENDMDL
MODEL 2
REMARK VINA RESULT:     -10.5      2.003      7.337
REMARK SMILES CCN(C(=O)c1ccccc1C(=O)NCCCCCCNC(=O)c1ccc(-c2c3nc(c(-c4c(F)c(F)c(F)c(F)c4F)c4ccc([nH]4)c(-c4c(F)c(F)c(F)c(F)c4F)c4nc(c(-c5c(F)c(F)c(F)c(F)c5F)c5ccc2[nH]5)C=C4)C=C3)cc1)[C@H](CCO)c1ccccc1
REMARK SMILES IDX 15 1 14 2 12 3 13 4 11 6 6 7 7 8 8 9 10 10 9 11 4 12 5 13
REMARK SMILES IDX 3 14 2 15 1 16 87 17 91 18 92 19 96 20 93 21 95 22 94 23
REMARK SMILES IDX 88 24 89 25 90 26 16 28 17 29 18 30 19 31 20 32 21 33 22 34
REMARK SMILES IDX 23 36 24 37 25 38 86 39 26 40 85 41 27 42 28 43 29 44 79 45
REMARK SMILES IDX 30 46 84 47 78 48 80 49 31 50 83 51 77 52 76 53 32 55 64 56
REMARK SMILES IDX 44 57 63 58 45 59 48 60 62 61 81 62 46 63 47 64 61 66 82 67
REMARK SMILES IDX 49 68 33 69 34 70 42 71 35 72 36 73 40 74 43 75 37 76 38 77
REMARK SMILES IDX 41 78 39 79 65 80 66 81 74 82 67 83 68 84 72 85 75 86 69 87
REMARK SMILES IDX 70 88 73 89 71 90 50 91 51 92 59 93 52 94 53 95 57 96 60 97
REMARK SMILES IDX 54 98 55 99 58 100 56 101
REMARK H PARENT 14 5 90 27 21 35 80 54 48 65
REMARK Flexibility Score: inf
ROOT
ATOM      1  C   UNL A   1      35.582  24.067  25.441  1.00  0.00     0.116 C 
ENDROOT
BRANCH   1   2
ATOM      2  N   UNL A   1      34.818  23.546  26.550  1.00  0.00    -0.352 N 
ATOM      3  C   UNL A   1      33.777  22.655  26.585  1.00  0.00     0.252 C 
ATOM      4  O   UNL A   1      33.340  22.341  27.695  1.00  0.00    -0.269 OA
ATOM      5  H   UNL A   1      35.093  23.889  27.432  1.00  0.00     0.163 HD
BRANCH   3   6
ATOM      6  C   UNL A   1      33.107  22.065  25.393  1.00  0.00     0.052 A 
ATOM      7  C   UNL A   1      32.162  22.674  24.555  1.00  0.00     0.052 A 
ATOM      8  C   UNL A   1      31.658  21.979  23.435  1.00  0.00     0.014 A 
ATOM      9  C   UNL A   1      32.132  20.713  23.100  1.00  0.00     0.001 A 
ATOM     10  C   UNL A   1      33.599  20.797  25.012  1.00  0.00     0.014 A 
ATOM     11  C   UNL A   1      33.117  20.127  23.882  1.00  0.00     0.001 A 
BRANCH   7  12
ATOM     12  C   UNL A   1      31.504  23.969  24.789  1.00  0.00     0.255 C 
ATOM     13  O   UNL A   1      30.680  23.908  25.704  1.00  0.00    -0.269 OA
BRANCH  12  14
ATOM     14  N   UNL A   1      31.775  25.132  24.020  1.00  0.00    -0.332 N 
BRANCH  14  15
ATOM     15  C   UNL A   1      32.989  25.125  23.169  1.00  0.00     0.117 C 
ATOM     16  C   UNL A   1      32.869  25.043  21.659  1.00  0.00     0.027 C 
ENDBRANCH  14  15
BRANCH  14  17
ATOM     17  C   UNL A   1      31.193  26.433  24.538  1.00  0.00     0.118 C 
BRANCH  17  18
ATOM     18  C   UNL A   1      32.065  27.222  25.502  1.00  0.00    -0.025 A 
ATOM     19  C   UNL A   1      33.380  27.592  25.185  1.00  0.00     0.006 A 
ATOM     20  C   UNL A   1      31.516  27.668  26.719  1.00  0.00     0.006 A 
ATOM     21  C   UNL A   1      34.123  28.378  26.069  1.00  0.00     0.000 A 
ATOM     22  C   UNL A   1      32.251  28.471  27.588  1.00  0.00     0.000 A 
ATOM     23  C   UNL A   1      33.558  28.822  27.265  1.00  0.00     0.000 A 
ENDBRANCH  17  18
BRANCH  17  24
ATOM     24  C   UNL A   1      30.604  27.388  23.443  1.00  0.00     0.058 C 
BRANCH  24  25
ATOM     25  C   UNL A   1      29.080  27.498  23.333  1.00  0.00     0.158 C 
BRANCH  25  26
ATOM     26  O   UNL A   1      28.699  28.657  22.604  1.00  0.00    -0.396 OA
ATOM     27  H   UNL A   1      28.622  29.410  23.210  1.00  0.00     0.210 HD
ENDBRANCH  25  26
ENDBRANCH  24  25
ENDBRANCH  17  24
ENDBRANCH  14  17
ENDBRANCH  12  14
ENDBRANCH   7  12
ENDBRANCH   3   6
ENDBRANCH   1   2
BRANCH   1  28
ATOM     28  C   UNL A   1      37.065  23.703  25.448  1.00  0.00     0.021 C 
BRANCH  28  29
ATOM     29  C   UNL A   1      37.418  22.210  25.344  1.00  0.00     0.002 C 
BRANCH  29  30
ATOM     30  C   UNL A   1      38.839  21.778  25.731  1.00  0.00     0.002 C 
BRANCH  30  31
ATOM     31  C   UNL A   1      39.261  20.358  25.350  1.00  0.00     0.021 C 
BRANCH  31  32
ATOM     32  C   UNL A   1      39.929  19.532  26.440  1.00  0.00     0.116 C 
BRANCH  32  33
ATOM     33  N   UNL A   1      41.158  18.901  25.991  1.00  0.00    -0.352 N 
ATOM     34  C   UNL A   1      42.427  19.385  25.783  1.00  0.00     0.251 C 
ATOM     35  H   UNL A   1      41.063  17.940  25.798  1.00  0.00     0.163 HD
ATOM     36  O   UNL A   1      43.243  18.649  25.231  1.00  0.00    -0.269 OA
BRANCH  34  37
ATOM     37  C   UNL A   1      42.858  20.752  26.190  1.00  0.00     0.039 A 
ATOM     38  C   UNL A   1      42.786  21.090  27.550  1.00  0.00     0.014 A 
ATOM     39  C   UNL A   1      43.224  21.742  25.276  1.00  0.00     0.014 A 
ATOM     40  C   UNL A   1      43.086  22.388  27.983  1.00  0.00     0.010 A 
ATOM     41  C   UNL A   1      43.626  23.005  25.718  1.00  0.00     0.010 A 
ATOM     42  C   UNL A   1      43.520  23.359  27.071  1.00  0.00    -0.014 A 
BRANCH  42  43
ATOM     43  C   UNL A   1      43.772  24.767  27.486  1.00  0.00     0.031 A 
ATOM     44  C   UNL A   1      45.188  25.281  27.579  1.00  0.00     0.074 A 
ATOM     45  C   UNL A   1      42.750  25.577  27.822  1.00  0.00     0.049 A 
ATOM     46  N   UNL A   1      45.631  26.437  28.010  1.00  0.00    -0.248 NA
ATOM     47  C   UNL A   1      46.253  24.353  27.167  1.00  0.00     0.031 C 
ATOM     48  C   UNL A   1      41.336  25.206  27.814  1.00  0.00     0.029 A 
ATOM     49  N   UNL A   1      42.749  26.884  28.248  1.00  0.00    -0.354 N 
ATOM     50  C   UNL A   1      47.018  26.355  27.959  1.00  0.00     0.074 A 
ATOM     51  C   UNL A   1      47.344  25.021  27.504  1.00  0.00     0.031 C 
ATOM     52  C   UNL A   1      40.602  26.266  28.188  1.00  0.00     0.029 A 
ATOM     53  C   UNL A   1      41.493  27.381  28.497  1.00  0.00     0.049 A 
ATOM     54  H   UNL A   1      43.570  27.414  28.363  1.00  0.00     0.167 HD
ATOM     55  C   UNL A   1      47.939  27.308  28.242  1.00  0.00     0.037 A 
ATOM     56  C   UNL A   1      41.105  28.597  28.926  1.00  0.00     0.037 A 
ATOM     57  C   UNL A   1      47.616  28.653  28.637  1.00  0.00     0.049 A 
ATOM     58  C   UNL A   1      42.142  29.653  29.201  1.00  0.00     0.074 A 
ATOM     59  C   UNL A   1      48.474  29.714  28.876  1.00  0.00     0.029 A 
ATOM     60  N   UNL A   1      46.328  29.127  28.842  1.00  0.00    -0.354 N 
ATOM     61  N   UNL A   1      43.447  29.578  29.102  1.00  0.00    -0.248 NA
ATOM     62  C   UNL A   1      41.647  30.966  29.639  1.00  0.00     0.031 C 
ATOM     63  C   UNL A   1      47.705  30.820  29.258  1.00  0.00     0.029 A 
ATOM     64  C   UNL A   1      46.368  30.461  29.215  1.00  0.00     0.049 A 
ATOM     65  H   UNL A   1      45.507  28.593  28.738  1.00  0.00     0.167 HD
ATOM     66  C   UNL A   1      43.927  30.837  29.435  1.00  0.00     0.074 A 
ATOM     67  C   UNL A   1      42.774  31.661  29.730  1.00  0.00     0.031 C 
ATOM     68  C   UNL A   1      45.211  31.271  29.491  1.00  0.00     0.037 A 
BRANCH  55  69
ATOM     69  C   UNL A   1      49.387  26.924  28.132  1.00  0.00     0.064 A 
ATOM     70  C   UNL A   1      50.065  26.941  26.902  1.00  0.00     0.173 A 
ATOM     71  C   UNL A   1      50.111  26.541  29.271  1.00  0.00     0.173 A 
ATOM     72  F   UNL A   1      49.418  27.288  25.780  1.00  0.00    -0.203 F 
ATOM     73  C   UNL A   1      51.398  26.547  26.812  1.00  0.00     0.198 A 
ATOM     74  C   UNL A   1      51.452  26.179  29.183  1.00  0.00     0.198 A 
ATOM     75  F   UNL A   1      49.516  26.516  30.473  1.00  0.00    -0.203 F 
ATOM     76  F   UNL A   1      52.004  26.508  25.617  1.00  0.00    -0.200 F 
ATOM     77  C   UNL A   1      52.091  26.172  27.952  1.00  0.00     0.200 A 
ATOM     78  F   UNL A   1      52.125  25.830  30.288  1.00  0.00    -0.200 F 
ATOM     79  F   UNL A   1      53.374  25.790  27.863  1.00  0.00    -0.200 F 
ENDBRANCH  55  69
BRANCH  56  80
ATOM     80  C   UNL A   1      39.657  28.897  29.076  1.00  0.00     0.064 A 
ATOM     81  C   UNL A   1      39.023  28.747  30.317  1.00  0.00     0.173 A 
ATOM     82  C   UNL A   1      38.886  29.348  27.997  1.00  0.00     0.173 A 
ATOM     83  F   UNL A   1      39.716  28.293  31.372  1.00  0.00    -0.203 F 
ATOM     84  C   UNL A   1      37.668  29.027  30.470  1.00  0.00     0.198 A 
ATOM     85  C   UNL A   1      37.535  29.652  28.157  1.00  0.00     0.198 A 
ATOM     86  F   UNL A   1      39.447  29.507  26.790  1.00  0.00    -0.203 F 
ATOM     87  F   UNL A   1      37.077  28.840  31.659  1.00  0.00    -0.200 F 
ATOM     88  C   UNL A   1      36.926  29.486  29.393  1.00  0.00     0.200 A 
ATOM     89  F   UNL A   1      36.823  30.104  27.117  1.00  0.00    -0.200 F 
ATOM     90  F   UNL A   1      35.624  29.763  29.543  1.00  0.00    -0.200 F 
ENDBRANCH  56  80
BRANCH  68  91
ATOM     91  C   UNL A   1      45.435  32.713  29.842  1.00  0.00     0.064 A 
ATOM     92  C   UNL A   1      45.447  33.716  28.863  1.00  0.00     0.173 A 
ATOM     93  C   UNL A   1      45.603  33.098  31.181  1.00  0.00     0.173 A 
ATOM     94  F   UNL A   1      45.305  33.398  27.568  1.00  0.00    -0.203 F 
ATOM     95  C   UNL A   1      45.645  35.051  29.209  1.00  0.00     0.198 A 
ATOM     96  C   UNL A   1      45.772  34.436  31.526  1.00  0.00     0.198 A 
ATOM     97  F   UNL A   1      45.591  32.177  32.156  1.00  0.00    -0.203 F 
ATOM     98  F   UNL A   1      45.697  35.989  28.253  1.00  0.00    -0.200 F 
ATOM     99  C   UNL A   1      45.801  35.410  30.540  1.00  0.00     0.200 A 
ATOM    100  F   UNL A   1      45.911  34.782  32.813  1.00  0.00    -0.200 F 
ATOM    101  F   UNL A   1      45.985  36.695  30.871  1.00  0.00    -0.200 F 
ENDBRANCH  68  91
ENDBRANCH  42  43
ENDBRANCH  34  37
ENDBRANCH  32  33
ENDBRANCH  31  32
ENDBRANCH  30  31
ENDBRANCH  29  30
ENDBRANCH  28  29
ENDBRANCH   1  28
TORSDOF 21
ENDMDL
MODEL 3
REMARK VINA RESULT:     -10.2      1.906      3.299
REMARK SMILES CCN(C(=O)c1ccccc1C(=O)NCCCCCCNC(=O)c1ccc(-c2c3nc(c(-c4c(F)c(F)c(F)c(F)c4F)c4ccc([nH]4)c(-c4c(F)c(F)c(F)c(F)c4F)c4nc(c(-c5c(F)c(F)c(F)c(F)c5F)c5ccc2[nH]5)C=C4)C=C3)cc1)[C@H](CCO)c1ccccc1
REMARK SMILES IDX 15 1 14 2 12 3 13 4 11 6 6 7 7 8 8 9 10 10 9 11 4 12 5 13
REMARK SMILES IDX 3 14 2 15 1 16 87 17 91 18 92 19 96 20 93 21 95 22 94 23
REMARK SMILES IDX 88 24 89 25 90 26 16 28 17 29 18 30 19 31 20 32 21 33 22 34
REMARK SMILES IDX 23 36 24 37 25 38 86 39 26 40 85 41 27 42 28 43 29 44 79 45
REMARK SMILES IDX 30 46 84 47 78 48 80 49 31 50 83 51 77 52 76 53 32 55 64 56
REMARK SMILES IDX 44 57 63 58 45 59 48 60 62 61 81 62 46 63 47 64 61 66 82 67
REMARK SMILES IDX 49 68 33 69 34 70 42 71 35 72 36 73 40 74 43 75 37 76 38 77
REMARK SMILES IDX 41 78 39 79 65 80 66 81 74 82 67 83 68 84 72 85 75 86 69 87
REMARK SMILES IDX 70 88 73 89 71 90 50 91 51 92 59 93 52 94 53 95 57 96 60 97
REMARK SMILES IDX 54 98 55 99 58 100 56 101
REMARK H PARENT 14 5 90 27 21 35 80 54 48 65
REMARK Flexibility Score: inf
ROOT
ATOM      1  C   UNL A   1      35.936  23.888  25.632  1.00  0.00     0.116 C 
ENDROOT
BRANCH   1   2
ATOM      2  N   UNL A   1      35.177  23.512  26.802  1.00  0.00    -0.352 N 
ATOM      3  C   UNL A   1      34.142  22.626  26.955  1.00  0.00     0.252 C 
ATOM      4  O   UNL A   1      33.708  22.457  28.097  1.00  0.00    -0.269 OA
ATOM      5  H   UNL A   1      35.449  23.969  27.631  1.00  0.00     0.163 HD
BRANCH   3   6
ATOM      6  C   UNL A   1      33.476  21.879  25.851  1.00  0.00     0.052 A 
ATOM      7  C   UNL A   1      32.390  22.299  25.070  1.00  0.00     0.052 A 
ATOM      8  C   UNL A   1      31.908  21.476  24.029  1.00  0.00     0.014 A 
ATOM      9  C   UNL A   1      32.535  20.274  23.713  1.00  0.00     0.001 A 
ATOM     10  C   UNL A   1      34.118  20.674  25.488  1.00  0.00     0.014 A 
ATOM     11  C   UNL A   1      33.653  19.879  24.435  1.00  0.00     0.001 A 
BRANCH   7  12
ATOM     12  C   UNL A   1      31.570  23.498  25.300  1.00  0.00     0.255 C 
ATOM     13  O   UNL A   1      30.486  23.222  25.820  1.00  0.00    -0.269 OA
BRANCH  12  14
ATOM     14  N   UNL A   1      31.980  24.806  24.929  1.00  0.00    -0.332 N 
BRANCH  14  15
ATOM     15  C   UNL A   1      32.134  25.810  26.010  1.00  0.00     0.117 C 
ATOM     16  C   UNL A   1      33.409  26.623  26.127  1.00  0.00     0.027 C 
ENDBRANCH  14  15
BRANCH  14  17
ATOM     17  C   UNL A   1      31.667  25.234  23.508  1.00  0.00     0.118 C 
BRANCH  17  18
ATOM     18  C   UNL A   1      31.033  26.605  23.343  1.00  0.00    -0.025 A 
ATOM     19  C   UNL A   1      31.782  27.734  22.979  1.00  0.00     0.006 A 
ATOM     20  C   UNL A   1      29.638  26.740  23.478  1.00  0.00     0.006 A 
ATOM     21  C   UNL A   1      31.150  28.961  22.768  1.00  0.00     0.000 A 
ATOM     22  C   UNL A   1      29.007  27.961  23.245  1.00  0.00     0.000 A 
ATOM     23  C   UNL A   1      29.765  29.073  22.894  1.00  0.00     0.000 A 
ENDBRANCH  17  18
BRANCH  17  24
ATOM     24  C   UNL A   1      32.838  25.056  22.481  1.00  0.00     0.058 C 
BRANCH  24  25
ATOM     25  C   UNL A   1      32.523  25.251  20.995  1.00  0.00     0.158 C 
BRANCH  25  26
ATOM     26  O   UNL A   1      33.273  26.326  20.446  1.00  0.00    -0.396 OA
ATOM     27  H   UNL A   1      34.133  25.998  20.141  1.00  0.00     0.210 HD
ENDBRANCH  25  26
ENDBRANCH  24  25
ENDBRANCH  17  24
ENDBRANCH  14  17
ENDBRANCH  12  14
ENDBRANCH   7  12
ENDBRANCH   3   6
ENDBRANCH   1   2
BRANCH   1  28
ATOM     28  C   UNL A   1      37.432  23.593  25.710  1.00  0.00     0.021 C 
BRANCH  28  29
ATOM     29  C   UNL A   1      37.852  22.115  25.733  1.00  0.00     0.002 C 
BRANCH  29  30
ATOM     30  C   UNL A   1      39.256  21.773  26.254  1.00  0.00     0.002 C 
BRANCH  30  31
ATOM     31  C   UNL A   1      39.930  20.530  25.671  1.00  0.00     0.021 C 
BRANCH  31  32
ATOM     32  C   UNL A   1      40.774  19.703  26.630  1.00  0.00     0.116 C 
BRANCH  32  33
ATOM     33  N   UNL A   1      41.896  19.056  25.973  1.00  0.00    -0.352 N 
ATOM     34  C   UNL A   1      43.094  19.535  25.498  1.00  0.00     0.251 C 
ATOM     35  H   UNL A   1      41.775  18.088  25.842  1.00  0.00     0.163 HD
ATOM     36  O   UNL A   1      43.792  18.778  24.826  1.00  0.00    -0.269 OA
BRANCH  34  37
ATOM     37  C   UNL A   1      43.581  20.918  25.755  1.00  0.00     0.039 A 
ATOM     38  C   UNL A   1      43.914  21.268  27.073  1.00  0.00     0.014 A 
ATOM     39  C   UNL A   1      43.619  21.911  24.774  1.00  0.00     0.014 A 
ATOM     40  C   UNL A   1      44.288  22.579  27.395  1.00  0.00     0.010 A 
ATOM     41  C   UNL A   1      44.092  23.191  25.073  1.00  0.00     0.010 A 
ATOM     42  C   UNL A   1      44.391  23.554  26.395  1.00  0.00    -0.014 A 
BRANCH  42  43
ATOM     43  C   UNL A   1      44.709  24.974  26.714  1.00  0.00     0.031 A 
ATOM     44  C   UNL A   1      43.636  25.876  27.274  1.00  0.00     0.074 A 
ATOM     45  C   UNL A   1      45.933  25.477  26.466  1.00  0.00     0.049 A 
ATOM     46  N   UNL A   1      43.673  27.161  27.529  1.00  0.00    -0.248 NA
ATOM     47  C   UNL A   1      42.331  25.254  27.550  1.00  0.00     0.031 C 
ATOM     48  C   UNL A   1      47.054  24.732  25.894  1.00  0.00     0.029 A 
ATOM     49  N   UNL A   1      46.435  26.741  26.657  1.00  0.00    -0.354 N 
ATOM     50  C   UNL A   1      42.394  27.502  27.951  1.00  0.00     0.074 A 
ATOM     51  C   UNL A   1      41.590  26.302  27.870  1.00  0.00     0.031 C 
ATOM     52  C   UNL A   1      48.120  25.545  25.806  1.00  0.00     0.029 A 
ATOM     53  C   UNL A   1      47.750  26.875  26.281  1.00  0.00     0.049 A 
ATOM     54  H   UNL A   1      45.903  27.482  27.028  1.00  0.00     0.167 HD
ATOM     55  C   UNL A   1      41.931  28.699  28.388  1.00  0.00     0.037 A 
ATOM     56  C   UNL A   1      48.562  27.948  26.315  1.00  0.00     0.037 A 
ATOM     57  C   UNL A   1      42.743  29.879  28.526  1.00  0.00     0.049 A 
ATOM     58  C   UNL A   1      48.040  29.259  26.838  1.00  0.00     0.074 A 
ATOM     59  C   UNL A   1      42.388  31.120  29.028  1.00  0.00     0.029 A 
ATOM     60  N   UNL A   1      44.081  29.961  28.168  1.00  0.00    -0.354 N 
ATOM     61  N   UNL A   1      46.841  29.556  27.280  1.00  0.00    -0.248 NA
ATOM     62  C   UNL A   1      48.988  30.381  26.874  1.00  0.00     0.031 C 
ATOM     63  C   UNL A   1      43.502  31.962  28.942  1.00  0.00     0.029 A 
ATOM     64  C   UNL A   1      44.563  31.234  28.428  1.00  0.00     0.049 A 
ATOM     65  H   UNL A   1      44.609  29.224  27.786  1.00  0.00     0.167 HD
ATOM     66  C   UNL A   1      46.899  30.886  27.673  1.00  0.00     0.074 A 
ATOM     67  C   UNL A   1      48.253  31.337  27.427  1.00  0.00     0.031 C 
ATOM     68  C   UNL A   1      45.917  31.664  28.192  1.00  0.00     0.037 A 
BRANCH  55  69
ATOM     69  C   UNL A   1      40.476  28.787  28.750  1.00  0.00     0.064 A 
ATOM     70  C   UNL A   1      39.498  29.137  27.805  1.00  0.00     0.173 A 
ATOM     71  C   UNL A   1      40.050  28.509  30.059  1.00  0.00     0.173 A 
ATOM     72  F   UNL A   1      39.852  29.423  26.544  1.00  0.00    -0.203 F 
ATOM     73  C   UNL A   1      38.158  29.249  28.167  1.00  0.00     0.198 A 
ATOM     74  C   UNL A   1      38.705  28.590  30.408  1.00  0.00     0.198 A 
ATOM     75  F   UNL A   1      40.940  28.161  31.000  1.00  0.00    -0.203 F 
ATOM     76  F   UNL A   1      37.253  29.649  27.263  1.00  0.00    -0.200 F 
ATOM     77  C   UNL A   1      37.762  28.970  29.466  1.00  0.00     0.200 A 
ATOM     78  F   UNL A   1      38.322  28.307  31.662  1.00  0.00    -0.200 F 
ATOM     79  F   UNL A   1      36.472  29.081  29.813  1.00  0.00    -0.200 F 
ENDBRANCH  55  69
BRANCH  56  80
ATOM     80  C   UNL A   1      49.978  27.813  25.884  1.00  0.00     0.064 A 
ATOM     81  C   UNL A   1      50.308  27.783  24.521  1.00  0.00     0.173 A 
ATOM     82  C   UNL A   1      51.023  27.724  26.812  1.00  0.00     0.173 A 
ATOM     83  F   UNL A   1      49.337  27.840  23.596  1.00  0.00    -0.203 F 
ATOM     84  C   UNL A   1      51.631  27.660  24.105  1.00  0.00     0.198 A 
ATOM     85  C   UNL A   1      52.349  27.625  26.394  1.00  0.00     0.198 A 
ATOM     86  F   UNL A   1      50.758  27.747  28.126  1.00  0.00    -0.203 F 
ATOM     87  F   UNL A   1      51.916  27.597  22.796  1.00  0.00    -0.200 F 
ATOM     88  C   UNL A   1      52.651  27.587  25.040  1.00  0.00     0.200 A 
ATOM     89  F   UNL A   1      53.334  27.564  27.300  1.00  0.00    -0.200 F 
ATOM     90  F   UNL A   1      53.924  27.476  24.639  1.00  0.00    -0.200 F 
ENDBRANCH  56  80
BRANCH  68  91
ATOM     91  C   UNL A   1      46.280  33.069  28.571  1.00  0.00     0.064 A 
ATOM     92  C   UNL A   1      46.773  33.385  29.845  1.00  0.00     0.173 A 
ATOM     93  C   UNL A   1      46.168  34.107  27.633  1.00  0.00     0.173 A 
ATOM     94  F   UNL A   1      46.885  32.431  30.781  1.00  0.00    -0.203 F 
ATOM     95  C   UNL A   1      47.116  34.694  30.175  1.00  0.00     0.198 A 
ATOM     96  C   UNL A   1      46.538  35.410  27.957  1.00  0.00     0.198 A 
ATOM     97  F   UNL A   1      45.709  33.856  26.398  1.00  0.00    -0.203 F 
ATOM     98  F   UNL A   1      47.542  34.982  31.413  1.00  0.00    -0.200 F 
ATOM     99  C   UNL A   1      47.004  35.703  29.230  1.00  0.00     0.200 A 
ATOM    100  F   UNL A   1      46.441  36.381  27.040  1.00  0.00    -0.200 F 
ATOM    101  F   UNL A   1      47.340  36.961  29.548  1.00  0.00    -0.200 F 
ENDBRANCH  68  91
ENDBRANCH  42  43
ENDBRANCH  34  37
ENDBRANCH  32  33
ENDBRANCH  31  32
ENDBRANCH  30  31
ENDBRANCH  29  30
ENDBRANCH  28  29
ENDBRANCH   1  28
TORSDOF 21
ENDMDL
