MODEL 1
REMARK VINA RESULT:     -12.3      0.000      0.000
REMARK SMILES CC[C@@H](NC(=O)N1C[C@H]2CCCC[N@@H+]2C[C@@H]1C)C(=O)NCCCCCCNC(=O)c1ccc(-c2c3nc(c(-c4c(F)c(F)c(F)c(F)c4F)c4ccc([nH]4)c(-c4c(F)c(F)c(F)c(F)c4F)c4nc(c(-c5c(F)c(F)c(F)c(F)c5F)c5ccc2[nH]5)C=C4)C=C3)cc1
REMARK SMILES IDX 23 1 22 2 21 3 20 4 18 5 19 6 3 8 2 9 1 10 4 11 5 12 6 14
REMARK SMILES IDX 7 15 8 16 16 17 9 18 15 19 17 20 10 21 14 22 11 23 13 24
REMARK SMILES IDX 12 26 24 27 25 28 26 29 27 30 28 31 29 33 30 34 31 35 92 36
REMARK SMILES IDX 32 37 91 38 33 39 34 40 35 41 85 42 36 43 90 44 84 45 86 46
REMARK SMILES IDX 37 47 89 48 83 49 82 50 38 52 70 53 50 54 69 55 51 56 54 57
REMARK SMILES IDX 68 58 87 59 52 60 53 61 67 63 88 64 55 65 39 66 40 67 48 68
REMARK SMILES IDX 41 69 42 70 46 71 49 72 43 73 44 74 47 75 45 76 71 77 72 78
REMARK SMILES IDX 80 79 73 80 74 81 78 82 81 83 75 84 76 85 79 86 77 87 56 88
REMARK SMILES IDX 57 89 65 90 58 91 59 92 63 93 66 94 60 95 61 96 64 97 62 98
REMARK H PARENT 20 7 4 13 14 25 27 32 86 51 54 62
REMARK Flexibility Score: inf
ROOT
ATOM      1  C   UNL A   1      33.318  30.018  27.277  1.00  0.00     0.002 C 
ENDROOT
BRANCH   1   2
ATOM      2  C   UNL A   1      34.159  29.123  26.360  1.00  0.00     0.021 C 
BRANCH   2   3
ATOM      3  C   UNL A   1      33.858  27.637  26.532  1.00  0.00     0.116 C 
BRANCH   3   4
ATOM      4  N   UNL A   1      33.804  26.973  25.246  1.00  0.00    -0.354 N 
ATOM      5  C   UNL A   1      32.730  26.757  24.438  1.00  0.00     0.242 C 
ATOM      6  O   UNL A   1      32.936  26.204  23.352  1.00  0.00    -0.273 OA
ATOM      7  H   UNL A   1      34.663  26.632  24.909  1.00  0.00     0.163 HD
BRANCH   5   8
ATOM      8  C   UNL A   1      31.296  27.009  24.924  1.00  0.00     0.172 C 
BRANCH   8   9
ATOM      9  C   UNL A   1      30.533  27.392  23.624  1.00  0.00     0.032 C 
ATOM     10  C   UNL A   1      29.047  27.092  23.581  1.00  0.00     0.006 C 
ENDBRANCH   8   9
BRANCH   8  11
ATOM     11  N   UNL A   1      30.640  25.927  25.670  1.00  0.00    -0.326 N 
ATOM     12  C   UNL A   1      31.040  24.737  26.184  1.00  0.00     0.318 C 
ATOM     13  H   UNL A   1      29.687  26.108  25.836  1.00  0.00     0.166 HD
ATOM     14  O   UNL A   1      30.322  24.275  27.073  1.00  0.00    -0.249 OA
BRANCH  12  15
ATOM     15  N   UNL A   1      32.048  24.018  25.599  1.00  0.00    -0.310 N 
ATOM     16  C   UNL A   1      33.232  23.584  26.344  1.00  0.00     0.186 C 
ATOM     17  C   UNL A   1      31.761  23.111  24.459  1.00  0.00     0.139 C 
ATOM     18  C   UNL A   1      34.463  23.644  25.428  1.00  0.00     0.203 C 
ATOM     19  C   UNL A   1      33.040  22.821  23.593  1.00  0.00     0.287 C 
ATOM     20  C   UNL A   1      30.659  23.608  23.503  1.00  0.00     0.037 C 
ATOM     21  C   UNL A   1      35.759  23.283  26.156  1.00  0.00     0.067 C 
ATOM     22  N   UNL A   1      34.368  22.782  24.232  1.00  0.00    -0.329 N 
ATOM     23  C   UNL A   1      36.947  23.670  25.276  1.00  0.00     0.012 C 
ATOM     24  C   UNL A   1      35.418  23.203  23.277  1.00  0.00     0.262 C 
ATOM     25  H   UNL A   1      34.507  21.813  24.523  1.00  0.00     0.348 HD
ATOM     26  C   UNL A   1      36.825  23.074  23.873  1.00  0.00     0.062 C 
ENDBRANCH  12  15
ENDBRANCH   8  11
ENDBRANCH   5   8
ENDBRANCH   3   4
ENDBRANCH   2   3
ENDBRANCH   1   2
BRANCH   1  27
ATOM     27  C   UNL A   1      32.019  30.509  26.641  1.00  0.00     0.002 C 
BRANCH  27  28
ATOM     28  C   UNL A   1      31.693  31.985  26.831  1.00  0.00     0.021 C 
BRANCH  28  29
ATOM     29  C   UNL A   1      32.838  32.790  27.406  1.00  0.00     0.116 C 
BRANCH  29  30
ATOM     30  N   UNL A   1      32.470  34.178  27.660  1.00  0.00    -0.352 N 
ATOM     31  C   UNL A   1      32.976  35.023  28.614  1.00  0.00     0.251 C 
ATOM     32  H   UNL A   1      31.774  34.554  27.074  1.00  0.00     0.163 HD
ATOM     33  O   UNL A   1      32.475  36.113  28.830  1.00  0.00    -0.269 OA
BRANCH  31  34
ATOM     34  C   UNL A   1      34.135  34.557  29.404  1.00  0.00     0.039 A 
ATOM     35  C   UNL A   1      33.922  34.014  30.671  1.00  0.00     0.014 A 
ATOM     36  C   UNL A   1      35.414  34.580  28.840  1.00  0.00     0.014 A 
ATOM     37  C   UNL A   1      34.992  33.435  31.352  1.00  0.00     0.010 A 
ATOM     38  C   UNL A   1      36.450  33.912  29.473  1.00  0.00     0.010 A 
ATOM     39  C   UNL A   1      36.255  33.348  30.742  1.00  0.00    -0.014 A 
BRANCH  39  40
ATOM     40  C   UNL A   1      37.402  32.701  31.423  1.00  0.00     0.031 A 
ATOM     41  C   UNL A   1      38.091  31.538  30.765  1.00  0.00     0.074 A 
ATOM     42  C   UNL A   1      37.767  33.102  32.655  1.00  0.00     0.049 A 
ATOM     43  N   UNL A   1      39.047  30.772  31.224  1.00  0.00    -0.248 NA
ATOM     44  C   UNL A   1      37.610  31.157  29.426  1.00  0.00     0.031 C 
ATOM     45  C   UNL A   1      37.128  34.173  33.422  1.00  0.00     0.029 A 
ATOM     46  N   UNL A   1      38.755  32.642  33.488  1.00  0.00    -0.354 N 
ATOM     47  C   UNL A   1      39.259  29.810  30.245  1.00  0.00     0.074 A 
ATOM     48  C   UNL A   1      38.289  30.045  29.199  1.00  0.00     0.031 C 
ATOM     49  C   UNL A   1      37.755  34.304  34.601  1.00  0.00     0.029 A 
ATOM     50  C   UNL A   1      38.814  33.303  34.691  1.00  0.00     0.049 A 
ATOM     51  H   UNL A   1      39.366  31.909  33.246  1.00  0.00     0.167 HD
ATOM     52  C   UNL A   1      40.199  28.837  30.206  1.00  0.00     0.037 A 
ATOM     53  C   UNL A   1      39.627  33.114  35.747  1.00  0.00     0.037 A 
ATOM     54  C   UNL A   1      41.187  28.639  31.233  1.00  0.00     0.049 A 
ATOM     55  C   UNL A   1      40.682  32.044  35.672  1.00  0.00     0.074 A 
ATOM     56  C   UNL A   1      42.236  27.738  31.259  1.00  0.00     0.029 A 
ATOM     57  N   UNL A   1      41.242  29.357  32.420  1.00  0.00    -0.354 N 
ATOM     58  N   UNL A   1      40.931  31.193  34.705  1.00  0.00    -0.248 NA
ATOM     59  C   UNL A   1      41.576  31.912  36.831  1.00  0.00     0.031 C 
ATOM     60  C   UNL A   1      42.897  27.878  32.484  1.00  0.00     0.029 A 
ATOM     61  C   UNL A   1      42.295  28.901  33.197  1.00  0.00     0.049 A 
ATOM     62  H   UNL A   1      40.626  30.081  32.672  1.00  0.00     0.167 HD
ATOM     63  C   UNL A   1      42.020  30.444  35.125  1.00  0.00     0.074 A 
ATOM     64  C   UNL A   1      42.397  30.952  36.427  1.00  0.00     0.031 C 
ATOM     65  C   UNL A   1      42.654  29.426  34.490  1.00  0.00     0.037 A 
BRANCH  52  66
ATOM     66  C   UNL A   1      40.205  27.924  29.014  1.00  0.00     0.064 A 
ATOM     67  C   UNL A   1      39.500  26.710  29.009  1.00  0.00     0.173 A 
ATOM     68  C   UNL A   1      40.918  28.270  27.857  1.00  0.00     0.173 A 
ATOM     69  F   UNL A   1      38.812  26.323  30.095  1.00  0.00    -0.203 F 
ATOM     70  C   UNL A   1      39.540  25.860  27.908  1.00  0.00     0.198 A 
ATOM     71  C   UNL A   1      40.927  27.434  26.743  1.00  0.00     0.198 A 
ATOM     72  F   UNL A   1      41.608  29.419  27.805  1.00  0.00    -0.203 F 
ATOM     73  F   UNL A   1      38.911  24.677  27.952  1.00  0.00    -0.200 F 
ATOM     74  C   UNL A   1      40.248  26.225  26.773  1.00  0.00     0.200 A 
ATOM     75  F   UNL A   1      41.601  27.794  25.642  1.00  0.00    -0.200 F 
ATOM     76  F   UNL A   1      40.284  25.408  25.712  1.00  0.00    -0.200 F 
ENDBRANCH  52  66
BRANCH  53  77
ATOM     77  C   UNL A   1      39.490  33.977  36.951  1.00  0.00     0.064 A 
ATOM     78  C   UNL A   1      40.088  35.244  37.001  1.00  0.00     0.173 A 
ATOM     79  C   UNL A   1      38.755  33.558  38.069  1.00  0.00     0.173 A 
ATOM     80  F   UNL A   1      40.817  35.683  35.965  1.00  0.00    -0.203 F 
ATOM     81  C   UNL A   1      39.971  36.050  38.132  1.00  0.00     0.198 A 
ATOM     82  C   UNL A   1      38.614  34.376  39.187  1.00  0.00     0.198 A 
ATOM     83  F   UNL A   1      38.156  32.357  38.068  1.00  0.00    -0.203 F 
ATOM     84  F   UNL A   1      40.588  37.239  38.171  1.00  0.00    -0.200 F 
ATOM     85  C   UNL A   1      39.229  35.619  39.221  1.00  0.00     0.200 A 
ATOM     86  F   UNL A   1      37.883  33.963  40.230  1.00  0.00    -0.200 F 
ATOM     87  F   UNL A   1      39.111  36.398  40.305  1.00  0.00    -0.200 F 
ENDBRANCH  53  77
BRANCH  65  88
ATOM     88  C   UNL A   1      43.837  28.815  35.181  1.00  0.00     0.064 A 
ATOM     89  C   UNL A   1      43.700  27.716  36.042  1.00  0.00     0.173 A 
ATOM     90  C   UNL A   1      45.130  29.304  34.940  1.00  0.00     0.173 A 
ATOM     91  F   UNL A   1      42.483  27.221  36.316  1.00  0.00    -0.203 F 
ATOM     92  C   UNL A   1      44.812  27.144  36.653  1.00  0.00     0.198 A 
ATOM     93  C   UNL A   1      46.242  28.709  35.527  1.00  0.00     0.198 A 
ATOM     94  F   UNL A   1      45.315  30.348  34.117  1.00  0.00    -0.203 F 
ATOM     95  F   UNL A   1      44.654  26.124  37.508  1.00  0.00    -0.200 F 
ATOM     96  C   UNL A   1      46.083  27.635  36.388  1.00  0.00     0.200 A 
ATOM     97  F   UNL A   1      47.470  29.176  35.256  1.00  0.00    -0.200 F 
ATOM     98  F   UNL A   1      47.153  27.076  36.969  1.00  0.00    -0.200 F 
ENDBRANCH  65  88
ENDBRANCH  39  40
ENDBRANCH  31  34
ENDBRANCH  29  30
ENDBRANCH  28  29
ENDBRANCH  27  28
ENDBRANCH   1  27
TORSDOF 16
ENDMDL
MODEL 2
REMARK VINA RESULT:     -12.3      1.292      7.347
REMARK SMILES CC[C@@H](NC(=O)N1C[C@H]2CCCC[N@@H+]2C[C@@H]1C)C(=O)NCCCCCCNC(=O)c1ccc(-c2c3nc(c(-c4c(F)c(F)c(F)c(F)c4F)c4ccc([nH]4)c(-c4c(F)c(F)c(F)c(F)c4F)c4nc(c(-c5c(F)c(F)c(F)c(F)c5F)c5ccc2[nH]5)C=C4)C=C3)cc1
REMARK SMILES IDX 23 1 22 2 21 3 20 4 18 5 19 6 3 8 2 9 1 10 4 11 5 12 6 14
REMARK SMILES IDX 7 15 8 16 16 17 9 18 15 19 17 20 10 21 14 22 11 23 13 24
REMARK SMILES IDX 12 26 24 27 25 28 26 29 27 30 28 31 29 33 30 34 31 35 92 36
REMARK SMILES IDX 32 37 91 38 33 39 34 40 35 41 85 42 36 43 90 44 84 45 86 46
REMARK SMILES IDX 37 47 89 48 83 49 82 50 38 52 70 53 50 54 69 55 51 56 54 57
REMARK SMILES IDX 68 58 87 59 52 60 53 61 67 63 88 64 55 65 39 66 40 67 48 68
REMARK SMILES IDX 41 69 42 70 46 71 49 72 43 73 44 74 47 75 45 76 71 77 72 78
REMARK SMILES IDX 80 79 73 80 74 81 78 82 81 83 75 84 76 85 79 86 77 87 56 88
REMARK SMILES IDX 57 89 65 90 58 91 59 92 63 93 66 94 60 95 61 96 64 97 62 98
REMARK H PARENT 20 7 4 13 14 25 27 32 86 51 54 62
REMARK Flexibility Score: inf
ROOT
ATOM      1  C   UNL A   1      31.811  29.472  26.960  1.00  0.00     0.002 C 
ENDROOT
BRANCH   1   2
ATOM      2  C   UNL A   1      33.220  28.931  27.229  1.00  0.00     0.021 C 
BRANCH   2   3
ATOM      3  C   UNL A   1      33.684  27.919  26.186  1.00  0.00     0.116 C 
BRANCH   3   4
ATOM      4  N   UNL A   1      34.121  28.589  24.979  1.00  0.00    -0.354 N 
ATOM      5  C   UNL A   1      33.626  28.486  23.715  1.00  0.00     0.242 C 
ATOM      6  O   UNL A   1      34.135  29.199  22.844  1.00  0.00    -0.273 OA
ATOM      7  H   UNL A   1      34.880  29.205  25.089  1.00  0.00     0.163 HD
BRANCH   5   8
ATOM      8  C   UNL A   1      32.613  27.397  23.337  1.00  0.00     0.172 C 
BRANCH   8   9
ATOM      9  C   UNL A   1      31.282  28.184  23.164  1.00  0.00     0.032 C 
ATOM     10  C   UNL A   1      30.003  27.476  23.569  1.00  0.00     0.006 C 
ENDBRANCH   8   9
BRANCH   8  11
ATOM     11  N   UNL A   1      32.931  26.558  22.174  1.00  0.00    -0.326 N 
ATOM     12  C   UNL A   1      33.041  25.223  21.956  1.00  0.00     0.318 C 
ATOM     13  H   UNL A   1      33.107  27.088  21.364  1.00  0.00     0.166 HD
ATOM     14  O   UNL A   1      32.943  24.868  20.780  1.00  0.00    -0.249 OA
BRANCH  12  15
ATOM     15  N   UNL A   1      33.443  24.375  22.954  1.00  0.00    -0.310 N 
ATOM     16  C   UNL A   1      34.796  24.414  23.513  1.00  0.00     0.186 C 
ATOM     17  C   UNL A   1      32.462  23.856  23.940  1.00  0.00     0.139 C 
ATOM     18  C   UNL A   1      35.248  22.988  23.856  1.00  0.00     0.203 C 
ATOM     19  C   UNL A   1      32.952  22.528  24.623  1.00  0.00     0.287 C 
ATOM     20  C   UNL A   1      31.055  23.589  23.369  1.00  0.00     0.037 C 
ATOM     21  C   UNL A   1      36.688  22.931  24.371  1.00  0.00     0.067 C 
ATOM     22  N   UNL A   1      34.393  22.305  24.849  1.00  0.00    -0.329 N 
ATOM     23  C   UNL A   1      37.155  21.476  24.384  1.00  0.00     0.012 C 
ATOM     24  C   UNL A   1      34.708  20.859  24.810  1.00  0.00     0.262 C 
ATOM     25  H   UNL A   1      34.593  22.697  25.769  1.00  0.00     0.348 HD
ATOM     26  C   UNL A   1      36.178  20.579  25.145  1.00  0.00     0.062 C 
ENDBRANCH  12  15
ENDBRANCH   8  11
ENDBRANCH   5   8
ENDBRANCH   3   4
ENDBRANCH   2   3
ENDBRANCH   1   2
BRANCH   1  27
ATOM     27  C   UNL A   1      31.787  30.746  26.118  1.00  0.00     0.002 C 
BRANCH  27  28
ATOM     28  C   UNL A   1      31.494  32.040  26.867  1.00  0.00     0.021 C 
BRANCH  28  29
ATOM     29  C   UNL A   1      32.738  32.788  27.297  1.00  0.00     0.116 C 
BRANCH  29  30
ATOM     30  N   UNL A   1      32.461  34.177  27.640  1.00  0.00    -0.352 N 
ATOM     31  C   UNL A   1      33.037  34.933  28.629  1.00  0.00     0.251 C 
ATOM     32  H   UNL A   1      31.777  34.629  27.094  1.00  0.00     0.163 HD
ATOM     33  O   UNL A   1      32.608  36.036  28.920  1.00  0.00    -0.269 OA
BRANCH  31  34
ATOM     34  C   UNL A   1      34.181  34.352  29.363  1.00  0.00     0.039 A 
ATOM     35  C   UNL A   1      33.939  33.558  30.484  1.00  0.00     0.014 A 
ATOM     36  C   UNL A   1      35.479  34.527  28.876  1.00  0.00     0.014 A 
ATOM     37  C   UNL A   1      35.002  32.886  31.084  1.00  0.00     0.010 A 
ATOM     38  C   UNL A   1      36.514  33.776  29.410  1.00  0.00     0.010 A 
ATOM     39  C   UNL A   1      36.291  32.962  30.530  1.00  0.00    -0.014 A 
BRANCH  39  40
ATOM     40  C   UNL A   1      37.434  32.225  31.120  1.00  0.00     0.031 A 
ATOM     41  C   UNL A   1      37.930  32.602  32.488  1.00  0.00     0.074 A 
ATOM     42  C   UNL A   1      38.072  31.284  30.398  1.00  0.00     0.049 A 
ATOM     43  N   UNL A   1      38.967  32.154  33.147  1.00  0.00    -0.248 NA
ATOM     44  C   UNL A   1      37.183  33.657  33.193  1.00  0.00     0.031 C 
ATOM     45  C   UNL A   1      37.725  30.882  29.034  1.00  0.00     0.029 A 
ATOM     46  N   UNL A   1      39.157  30.505  30.707  1.00  0.00    -0.354 N 
ATOM     47  C   UNL A   1      39.009  32.888  34.325  1.00  0.00     0.074 A 
ATOM     48  C   UNL A   1      37.937  33.857  34.261  1.00  0.00     0.031 C 
ATOM     49  C   UNL A   1      38.565  29.916  28.632  1.00  0.00     0.029 A 
ATOM     50  C   UNL A   1      39.533  29.656  29.694  1.00  0.00     0.049 A 
ATOM     51  H   UNL A   1      39.623  30.548  31.573  1.00  0.00     0.167 HD
ATOM     52  C   UNL A   1      39.846  32.747  35.379  1.00  0.00     0.037 A 
ATOM     53  C   UNL A   1      40.549  28.775  29.630  1.00  0.00     0.037 A 
ATOM     54  C   UNL A   1      40.881  31.752  35.450  1.00  0.00     0.049 A 
ATOM     55  C   UNL A   1      41.451  28.616  30.823  1.00  0.00     0.074 A 
ATOM     56  C   UNL A   1      41.733  31.466  36.501  1.00  0.00     0.029 A 
ATOM     57  N   UNL A   1      41.205  30.879  34.420  1.00  0.00    -0.354 N 
ATOM     58  N   UNL A   1      41.431  29.257  31.968  1.00  0.00    -0.248 NA
ATOM     59  C   UNL A   1      42.513  27.607  30.722  1.00  0.00     0.031 C 
ATOM     60  C   UNL A   1      42.606  30.453  36.089  1.00  0.00     0.029 A 
ATOM     61  C   UNL A   1      42.263  30.070  34.802  1.00  0.00     0.049 A 
ATOM     62  H   UNL A   1      40.752  30.841  33.547  1.00  0.00     0.167 HD
ATOM     63  C   UNL A   1      42.455  28.714  32.730  1.00  0.00     0.074 A 
ATOM     64  C   UNL A   1      43.067  27.678  31.925  1.00  0.00     0.031 C 
ATOM     65  C   UNL A   1      42.854  29.042  33.984  1.00  0.00     0.037 A 
BRANCH  52  66
ATOM     66  C   UNL A   1      39.667  33.685  36.538  1.00  0.00     0.064 A 
ATOM     67  C   UNL A   1      38.870  33.351  37.644  1.00  0.00     0.173 A 
ATOM     68  C   UNL A   1      40.307  34.933  36.546  1.00  0.00     0.173 A 
ATOM     69  F   UNL A   1      38.224  32.176  37.681  1.00  0.00    -0.203 F 
ATOM     70  C   UNL A   1      38.690  34.245  38.696  1.00  0.00     0.198 A 
ATOM     71  C   UNL A   1      40.154  35.810  37.617  1.00  0.00     0.198 A 
ATOM     72  F   UNL A   1      41.082  35.304  35.516  1.00  0.00    -0.203 F 
ATOM     73  F   UNL A   1      37.873  33.928  39.711  1.00  0.00    -0.200 F 
ATOM     74  C   UNL A   1      39.337  35.471  38.685  1.00  0.00     0.200 A 
ATOM     75  F   UNL A   1      40.790  36.990  37.611  1.00  0.00    -0.200 F 
ATOM     76  F   UNL A   1      39.166  36.330  39.699  1.00  0.00    -0.200 F 
ENDBRANCH  52  66
BRANCH  53  77
ATOM     77  C   UNL A   1      40.746  27.959  28.403  1.00  0.00     0.064 A 
ATOM     78  C   UNL A   1      41.534  28.430  27.343  1.00  0.00     0.173 A 
ATOM     79  C   UNL A   1      40.160  26.693  28.267  1.00  0.00     0.173 A 
ATOM     80  F   UNL A   1      42.101  29.642  27.416  1.00  0.00    -0.203 F 
ATOM     81  C   UNL A   1      41.712  27.672  26.187  1.00  0.00     0.198 A 
ATOM     82  C   UNL A   1      40.362  25.924  27.123  1.00  0.00     0.198 A 
ATOM     83  F   UNL A   1      39.403  26.193  29.255  1.00  0.00    -0.203 F 
ATOM     84  F   UNL A   1      42.435  28.164  25.171  1.00  0.00    -0.200 F 
ATOM     85  C   UNL A   1      41.132  26.417  26.080  1.00  0.00     0.200 A 
ATOM     86  F   UNL A   1      39.813  24.706  27.031  1.00  0.00    -0.200 F 
ATOM     87  F   UNL A   1      41.309  25.687  24.971  1.00  0.00    -0.200 F 
ENDBRANCH  53  77
BRANCH  65  88
ATOM     88  C   UNL A   1      43.987  28.253  34.574  1.00  0.00     0.064 A 
ATOM     89  C   UNL A   1      45.316  28.688  34.473  1.00  0.00     0.173 A 
ATOM     90  C   UNL A   1      43.732  27.075  35.291  1.00  0.00     0.173 A 
ATOM     91  F   UNL A   1      45.613  29.801  33.785  1.00  0.00    -0.203 F 
ATOM     92  C   UNL A   1      46.351  27.958  35.050  1.00  0.00     0.198 A 
ATOM     93  C   UNL A   1      44.766  26.366  35.894  1.00  0.00     0.198 A 
ATOM     94  F   UNL A   1      42.475  26.622  35.424  1.00  0.00    -0.203 F 
ATOM     95  F   UNL A   1      47.620  28.367  34.902  1.00  0.00    -0.200 F 
ATOM     96  C   UNL A   1      46.075  26.803  35.768  1.00  0.00     0.200 A 
ATOM     97  F   UNL A   1      44.494  25.259  36.600  1.00  0.00    -0.200 F 
ATOM     98  F   UNL A   1      47.072  26.109  36.331  1.00  0.00    -0.200 F 
ENDBRANCH  65  88
ENDBRANCH  39  40
ENDBRANCH  31  34
ENDBRANCH  29  30
ENDBRANCH  28  29
ENDBRANCH  27  28
ENDBRANCH   1  27
TORSDOF 16
ENDMDL
MODEL 3
REMARK VINA RESULT:     -12.3      1.148      2.087
REMARK SMILES CC[C@@H](NC(=O)N1C[C@H]2CCCC[N@@H+]2C[C@@H]1C)C(=O)NCCCCCCNC(=O)c1ccc(-c2c3nc(c(-c4c(F)c(F)c(F)c(F)c4F)c4ccc([nH]4)c(-c4c(F)c(F)c(F)c(F)c4F)c4nc(c(-c5c(F)c(F)c(F)c(F)c5F)c5ccc2[nH]5)C=C4)C=C3)cc1
REMARK SMILES IDX 23 1 22 2 21 3 20 4 18 5 19 6 3 8 2 9 1 10 4 11 5 12 6 14
REMARK SMILES IDX 7 15 8 16 16 17 9 18 15 19 17 20 10 21 14 22 11 23 13 24
REMARK SMILES IDX 12 26 24 27 25 28 26 29 27 30 28 31 29 33 30 34 31 35 92 36
REMARK SMILES IDX 32 37 91 38 33 39 34 40 35 41 85 42 36 43 90 44 84 45 86 46
REMARK SMILES IDX 37 47 89 48 83 49 82 50 38 52 70 53 50 54 69 55 51 56 54 57
REMARK SMILES IDX 68 58 87 59 52 60 53 61 67 63 88 64 55 65 39 66 40 67 48 68
REMARK SMILES IDX 41 69 42 70 46 71 49 72 43 73 44 74 47 75 45 76 71 77 72 78
REMARK SMILES IDX 80 79 73 80 74 81 78 82 81 83 75 84 76 85 79 86 77 87 56 88
REMARK SMILES IDX 57 89 65 90 58 91 59 92 63 93 66 94 60 95 61 96 64 97 62 98
REMARK H PARENT 20 7 4 13 14 25 27 32 86 51 54 62
REMARK Flexibility Score: inf
ROOT
ATOM      1  C   UNL A   1      32.639  29.602  27.205  1.00  0.00     0.002 C 
ENDROOT
BRANCH   1   2
ATOM      2  C   UNL A   1      31.936  28.241  27.164  1.00  0.00     0.021 C 
BRANCH   2   3
ATOM      3  C   UNL A   1      32.646  27.225  26.276  1.00  0.00     0.116 C 
BRANCH   3   4
ATOM      4  N   UNL A   1      33.591  27.883  25.397  1.00  0.00    -0.354 N 
ATOM      5  C   UNL A   1      33.479  28.154  24.068  1.00  0.00     0.242 C 
ATOM      6  O   UNL A   1      34.404  28.775  23.533  1.00  0.00    -0.273 OA
ATOM      7  H   UNL A   1      34.429  28.176  25.821  1.00  0.00     0.163 HD
BRANCH   5   8
ATOM      8  C   UNL A   1      32.351  27.552  23.218  1.00  0.00     0.172 C 
BRANCH   8   9
ATOM      9  C   UNL A   1      31.503  28.789  22.811  1.00  0.00     0.032 C 
ATOM     10  C   UNL A   1      30.159  28.962  23.493  1.00  0.00     0.006 C 
ENDBRANCH   8   9
BRANCH   8  11
ATOM     11  N   UNL A   1      32.744  26.728  22.068  1.00  0.00    -0.326 N 
ATOM     12  C   UNL A   1      32.909  25.398  21.851  1.00  0.00     0.318 C 
ATOM     13  H   UNL A   1      32.931  27.266  21.265  1.00  0.00     0.166 HD
ATOM     14  O   UNL A   1      32.868  25.044  20.671  1.00  0.00    -0.249 OA
BRANCH  12  15
ATOM     15  N   UNL A   1      33.302  24.562  22.862  1.00  0.00    -0.310 N 
ATOM     16  C   UNL A   1      34.657  24.591  23.416  1.00  0.00     0.186 C 
ATOM     17  C   UNL A   1      32.317  24.074  23.860  1.00  0.00     0.139 C 
ATOM     18  C   UNL A   1      35.090  23.164  23.782  1.00  0.00     0.203 C 
ATOM     19  C   UNL A   1      32.790  22.751  24.564  1.00  0.00     0.287 C 
ATOM     20  C   UNL A   1      30.905  23.817  23.298  1.00  0.00     0.037 C 
ATOM     21  C   UNL A   1      36.530  23.095  24.294  1.00  0.00     0.067 C 
ATOM     22  N   UNL A   1      34.228  22.510  24.789  1.00  0.00    -0.329 N 
ATOM     23  C   UNL A   1      36.976  21.634  24.330  1.00  0.00     0.012 C 
ATOM     24  C   UNL A   1      34.522  21.059  24.774  1.00  0.00     0.262 C 
ATOM     25  H   UNL A   1      34.438  22.916  25.702  1.00  0.00     0.348 HD
ATOM     26  C   UNL A   1      35.989  20.764  25.109  1.00  0.00     0.062 C 
ENDBRANCH  12  15
ENDBRANCH   8  11
ENDBRANCH   5   8
ENDBRANCH   3   4
ENDBRANCH   2   3
ENDBRANCH   1   2
BRANCH   1  27
ATOM     27  C   UNL A   1      32.015  30.649  26.284  1.00  0.00     0.002 C 
BRANCH  27  28
ATOM     28  C   UNL A   1      31.611  31.964  26.939  1.00  0.00     0.021 C 
BRANCH  28  29
ATOM     29  C   UNL A   1      32.783  32.765  27.465  1.00  0.00     0.116 C 
BRANCH  29  30
ATOM     30  N   UNL A   1      32.449  34.168  27.675  1.00  0.00    -0.352 N 
ATOM     31  C   UNL A   1      32.983  35.034  28.595  1.00  0.00     0.251 C 
ATOM     32  H   UNL A   1      31.755  34.540  27.083  1.00  0.00     0.163 HD
ATOM     33  O   UNL A   1      32.508  36.141  28.778  1.00  0.00    -0.269 OA
BRANCH  31  34
ATOM     34  C   UNL A   1      34.139  34.569  29.389  1.00  0.00     0.039 A 
ATOM     35  C   UNL A   1      33.923  34.032  30.658  1.00  0.00     0.014 A 
ATOM     36  C   UNL A   1      35.419  34.586  28.828  1.00  0.00     0.014 A 
ATOM     37  C   UNL A   1      34.990  33.454  31.344  1.00  0.00     0.010 A 
ATOM     38  C   UNL A   1      36.453  33.919  29.466  1.00  0.00     0.010 A 
ATOM     39  C   UNL A   1      36.254  33.362  30.737  1.00  0.00    -0.014 A 
BRANCH  39  40
ATOM     40  C   UNL A   1      37.398  32.715  31.423  1.00  0.00     0.031 A 
ATOM     41  C   UNL A   1      38.089  31.550  30.770  1.00  0.00     0.074 A 
ATOM     42  C   UNL A   1      37.758  33.118  32.656  1.00  0.00     0.049 A 
ATOM     43  N   UNL A   1      39.042  30.784  31.233  1.00  0.00    -0.248 NA
ATOM     44  C   UNL A   1      37.612  31.168  29.430  1.00  0.00     0.031 C 
ATOM     45  C   UNL A   1      37.118  34.190  33.418  1.00  0.00     0.029 A 
ATOM     46  N   UNL A   1      38.743  32.660  33.493  1.00  0.00    -0.354 N 
ATOM     47  C   UNL A   1      39.258  29.821  30.257  1.00  0.00     0.074 A 
ATOM     48  C   UNL A   1      38.291  30.054  29.207  1.00  0.00     0.031 C 
ATOM     49  C   UNL A   1      37.741  34.323  34.600  1.00  0.00     0.029 A 
ATOM     50  C   UNL A   1      38.798  33.323  34.695  1.00  0.00     0.049 A 
ATOM     51  H   UNL A   1      39.355  31.925  33.255  1.00  0.00     0.167 HD
ATOM     52  C   UNL A   1      40.197  28.848  30.224  1.00  0.00     0.037 A 
ATOM     53  C   UNL A   1      39.607  33.135  35.754  1.00  0.00     0.037 A 
ATOM     54  C   UNL A   1      41.181  28.651  31.254  1.00  0.00     0.049 A 
ATOM     55  C   UNL A   1      40.662  32.064  35.686  1.00  0.00     0.074 A 
ATOM     56  C   UNL A   1      42.230  27.749  31.285  1.00  0.00     0.029 A 
ATOM     57  N   UNL A   1      41.233  29.371  32.440  1.00  0.00    -0.354 N 
ATOM     58  N   UNL A   1      40.914  31.211  34.721  1.00  0.00    -0.248 NA
ATOM     59  C   UNL A   1      41.552  31.933  36.847  1.00  0.00     0.031 C 
ATOM     60  C   UNL A   1      42.887  27.891  32.512  1.00  0.00     0.029 A 
ATOM     61  C   UNL A   1      42.282  28.916  33.222  1.00  0.00     0.049 A 
ATOM     62  H   UNL A   1      40.616  30.096  32.688  1.00  0.00     0.167 HD
ATOM     63  C   UNL A   1      42.002  30.463  35.146  1.00  0.00     0.074 A 
ATOM     64  C   UNL A   1      42.374  30.973  36.449  1.00  0.00     0.031 C 
ATOM     65  C   UNL A   1      42.637  29.443  34.515  1.00  0.00     0.037 A 
BRANCH  52  66
ATOM     66  C   UNL A   1      40.207  27.932  29.033  1.00  0.00     0.064 A 
ATOM     67  C   UNL A   1      39.502  26.718  29.028  1.00  0.00     0.173 A 
ATOM     68  C   UNL A   1      40.923  28.276  27.878  1.00  0.00     0.173 A 
ATOM     69  F   UNL A   1      38.812  26.333  30.113  1.00  0.00    -0.203 F 
ATOM     70  C   UNL A   1      39.546  25.866  27.929  1.00  0.00     0.198 A 
ATOM     71  C   UNL A   1      40.935  27.439  26.765  1.00  0.00     0.198 A 
ATOM     72  F   UNL A   1      41.613  29.426  27.826  1.00  0.00    -0.203 F 
ATOM     73  F   UNL A   1      38.917  24.683  27.973  1.00  0.00    -0.200 F 
ATOM     74  C   UNL A   1      40.257  26.230  26.795  1.00  0.00     0.200 A 
ATOM     75  F   UNL A   1      41.613  27.797  25.666  1.00  0.00    -0.200 F 
ATOM     76  F   UNL A   1      40.297  25.410  25.736  1.00  0.00    -0.200 F 
ENDBRANCH  52  66
BRANCH  53  77
ATOM     77  C   UNL A   1      39.467  33.999  36.956  1.00  0.00     0.064 A 
ATOM     78  C   UNL A   1      38.727  33.573  38.068  1.00  0.00     0.173 A 
ATOM     79  C   UNL A   1      40.074  35.262  37.022  1.00  0.00     0.173 A 
ATOM     80  F   UNL A   1      38.111  32.382  38.047  1.00  0.00    -0.203 F 
ATOM     81  C   UNL A   1      38.584  34.386  39.192  1.00  0.00     0.198 A 
ATOM     82  C   UNL A   1      39.955  36.060  38.157  1.00  0.00     0.198 A 
ATOM     83  F   UNL A   1      40.800  35.712  35.988  1.00  0.00    -0.203 F 
ATOM     84  F   UNL A   1      37.835  33.972  40.224  1.00  0.00    -0.200 F 
ATOM     85  C   UNL A   1      39.203  35.626  39.238  1.00  0.00     0.200 A 
ATOM     86  F   UNL A   1      40.568  37.250  38.204  1.00  0.00    -0.200 F 
ATOM     87  F   UNL A   1      39.071  36.403  40.321  1.00  0.00    -0.200 F 
ENDBRANCH  53  77
BRANCH  65  88
ATOM     88  C   UNL A   1      43.818  28.832  35.212  1.00  0.00     0.064 A 
ATOM     89  C   UNL A   1      45.112  29.351  35.059  1.00  0.00     0.173 A 
ATOM     90  C   UNL A   1      43.643  27.746  36.082  1.00  0.00     0.173 A 
ATOM     91  F   UNL A   1      45.333  30.380  34.227  1.00  0.00    -0.203 F 
ATOM     92  C   UNL A   1      46.191  28.788  35.734  1.00  0.00     0.198 A 
ATOM     93  C   UNL A   1      44.718  27.207  36.780  1.00  0.00     0.198 A 
ATOM     94  F   UNL A   1      42.422  27.219  36.270  1.00  0.00    -0.203 F 
ATOM     95  F   UNL A   1      47.426  29.270  35.537  1.00  0.00    -0.200 F 
ATOM     96  C   UNL A   1      45.993  27.723  36.601  1.00  0.00     0.200 A 
ATOM     97  F   UNL A   1      44.521  26.189  37.630  1.00  0.00    -0.200 F 
ATOM     98  F   UNL A   1      47.031  27.191  37.259  1.00  0.00    -0.200 F 
ENDBRANCH  65  88
ENDBRANCH  39  40
ENDBRANCH  31  34
ENDBRANCH  29  30
ENDBRANCH  28  29
ENDBRANCH  27  28
ENDBRANCH   1  27
TORSDOF 16
ENDMDL
