MODEL 1
REMARK VINA RESULT:     -13.0      0.000      0.000
REMARK SMILES COc1cc(/C=C2/S/C(=[NH+]\C(C)=O)NC2=O)cc(Br)c1OCC(=O)NCCCCCCNC(=O)c1ccc(-c2c3nc(c(-c4c(F)c(F)c(F)c(F)c4F)c4ccc([nH]4)c(-c4c(F)c(F)c(F)c(F)c4F)c4nc(c(-c5c(F)c(F)c(F)c(F)c5F)c5ccc2[nH]5)C=C4)C=C3)cc1
REMARK SMILES IDX 28 1 27 2 26 3 25 4 23 5 24 6 22 8 21 9 20 10 3 11 4 12 5 13
REMARK SMILES IDX 18 14 17 15 19 16 2 17 1 18 6 19 7 20 8 21 15 22 9 23 14 24
REMARK SMILES IDX 16 25 10 26 11 28 12 30 13 31 29 32 30 33 31 34 32 35 33 36
REMARK SMILES IDX 34 38 35 39 36 40 97 41 37 42 96 43 38 44 39 45 40 46 90 47
REMARK SMILES IDX 41 48 95 49 89 50 91 51 42 52 94 53 88 54 87 55 43 57 75 58
REMARK SMILES IDX 55 59 74 60 56 61 59 62 73 63 92 64 57 65 58 66 72 68 93 69
REMARK SMILES IDX 60 70 44 71 45 72 53 73 46 74 47 75 51 76 54 77 48 78 49 79
REMARK SMILES IDX 52 80 50 81 76 82 77 83 85 84 78 85 79 86 83 87 86 88 80 89
REMARK SMILES IDX 81 90 84 91 82 92 61 93 62 94 70 95 63 96 64 97 68 98 71 99
REMARK SMILES IDX 65 100 66 101 69 102 67 103
REMARK H PARENT 25 7 14 27 10 29 32 37 91 56 59 67
REMARK Flexibility Score: inf
ROOT
ATOM      1  C   UNL A   1      37.048  22.457  25.498  1.00  0.00     0.002 C 
ENDROOT
BRANCH   1   2
ATOM      2  C   UNL A   1      35.547  22.676  25.731  1.00  0.00     0.021 C 
BRANCH   2   3
ATOM      3  C   UNL A   1      34.856  21.588  26.551  1.00  0.00     0.116 C 
BRANCH   3   4
ATOM      4  N   UNL A   1      34.602  20.404  25.758  1.00  0.00    -0.353 N 
ATOM      5  C   UNL A   1      33.433  19.982  25.201  1.00  0.00     0.257 C 
ATOM      6  O   UNL A   1      33.463  18.971  24.497  1.00  0.00    -0.271 OA
ATOM      7  H   UNL A   1      35.382  19.825  25.599  1.00  0.00     0.163 HD
BRANCH   5   8
ATOM      8  C   UNL A   1      32.154  20.815  25.381  1.00  0.00     0.329 C 
BRANCH   8   9
ATOM      9  O   UNL A   1      32.179  22.149  25.848  1.00  0.00    -0.479 OA
BRANCH   9  10
ATOM     10  C   UNL A   1      31.616  23.170  25.130  1.00  0.00     0.176 A 
ATOM     11  C   UNL A   1      30.654  23.919  25.858  1.00  0.00     0.162 A 
ATOM     12  C   UNL A   1      30.001  25.010  25.266  1.00  0.00     0.058 A 
ATOM     13  C   UNL A   1      30.283  25.370  23.950  1.00  0.00    -0.019 A 
ATOM     14  C   UNL A   1      31.948  23.592  23.835  1.00  0.00     0.064 A 
ATOM     15  C   UNL A   1      31.264  24.668  23.247  1.00  0.00     0.028 A 
ATOM     16  Br  UNL A   1      33.405  22.939  22.804  1.00  0.00    -0.047 Br
BRANCH  11  17
ATOM     17  O   UNL A   1      30.427  23.515  27.155  1.00  0.00    -0.493 OA
ATOM     18  C   UNL A   1      29.268  22.731  27.411  1.00  0.00     0.278 C 
ENDBRANCH  11  17
BRANCH  13  19
ATOM     19  C   UNL A   1      29.574  26.496  23.332  1.00  0.00     0.032 C 
ATOM     20  C   UNL A   1      29.970  27.774  23.409  1.00  0.00     0.110 C 
ATOM     21  S   UNL A   1      29.056  29.111  22.788  1.00  0.00     0.007 SA
ATOM     22  C   UNL A   1      31.185  28.298  24.095  1.00  0.00     0.346 C 
ATOM     23  C   UNL A   1      29.973  30.268  23.706  1.00  0.00     0.324 C 
ATOM     24  N   UNL A   1      31.052  29.648  24.251  1.00  0.00    -0.199 N 
ATOM     25  O   UNL A   1      32.151  27.653  24.455  1.00  0.00    -0.240 OA
ATOM     26  N   UNL A   1      29.829  31.517  23.943  1.00  0.00    -0.204 N 
ATOM     27  H   UNL A   1      31.727  30.164  24.750  1.00  0.00     0.316 HD
ATOM     28  C   UNL A   1      28.878  32.381  23.470  1.00  0.00     0.304 C 
ATOM     29  H   UNL A   1      30.496  31.913  24.550  1.00  0.00     0.316 HD
ATOM     30  C   UNL A   1      27.475  31.954  23.139  1.00  0.00     0.144 C 
ATOM     31  O   UNL A   1      29.143  33.580  23.375  1.00  0.00    -0.247 OA
ENDBRANCH  13  19
ENDBRANCH   9  10
ENDBRANCH   8   9
ENDBRANCH   5   8
ENDBRANCH   3   4
ENDBRANCH   2   3
ENDBRANCH   1   2
BRANCH   1  32
ATOM     32  C   UNL A   1      37.415  21.403  24.448  1.00  0.00     0.002 C 
BRANCH  32  33
ATOM     33  C   UNL A   1      38.052  20.129  24.999  1.00  0.00     0.021 C 
BRANCH  33  34
ATOM     34  C   UNL A   1      39.256  20.360  25.901  1.00  0.00     0.116 C 
BRANCH  34  35
ATOM     35  N   UNL A   1      40.154  19.215  25.941  1.00  0.00    -0.352 N 
ATOM     36  C   UNL A   1      41.519  19.202  26.097  1.00  0.00     0.251 C 
ATOM     37  H   UNL A   1      39.726  18.333  25.845  1.00  0.00     0.163 HD
ATOM     38  O   UNL A   1      42.163  18.170  25.955  1.00  0.00    -0.269 OA
BRANCH  36  39
ATOM     39  C   UNL A   1      42.211  20.469  26.413  1.00  0.00     0.039 A 
ATOM     40  C   UNL A   1      42.741  21.238  25.374  1.00  0.00     0.014 A 
ATOM     41  C   UNL A   1      42.282  20.914  27.735  1.00  0.00     0.014 A 
ATOM     42  C   UNL A   1      43.272  22.499  25.654  1.00  0.00     0.010 A 
ATOM     43  C   UNL A   1      42.740  22.199  28.000  1.00  0.00     0.010 A 
ATOM     44  C   UNL A   1      43.235  23.006  26.963  1.00  0.00    -0.014 A 
BRANCH  44  45
ATOM     45  C   UNL A   1      43.706  24.375  27.295  1.00  0.00     0.031 A 
ATOM     46  C   UNL A   1      42.721  25.397  27.784  1.00  0.00     0.074 A 
ATOM     47  C   UNL A   1      44.985  24.726  27.056  1.00  0.00     0.049 A 
ATOM     48  N   UNL A   1      42.875  26.686  27.955  1.00  0.00    -0.248 NA
ATOM     49  C   UNL A   1      41.366  24.907  28.089  1.00  0.00     0.031 C 
ATOM     50  C   UNL A   1      46.032  23.832  26.563  1.00  0.00     0.029 A 
ATOM     51  N   UNL A   1      45.614  25.941  27.172  1.00  0.00    -0.354 N 
ATOM     52  C   UNL A   1      41.636  27.161  28.365  1.00  0.00     0.074 A 
ATOM     53  C   UNL A   1      40.728  26.034  28.364  1.00  0.00     0.031 C 
ATOM     54  C   UNL A   1      47.174  24.524  26.428  1.00  0.00     0.029 A 
ATOM     55  C   UNL A   1      46.928  25.921  26.771  1.00  0.00     0.049 A 
ATOM     56  H   UNL A   1      45.165  26.750  27.510  1.00  0.00     0.167 HD
ATOM     57  C   UNL A   1      41.293  28.419  28.727  1.00  0.00     0.037 A 
ATOM     58  C   UNL A   1      47.824  26.922  26.669  1.00  0.00     0.037 A 
ATOM     59  C   UNL A   1      42.206  29.531  28.741  1.00  0.00     0.049 A 
ATOM     60  C   UNL A   1      47.406  28.322  27.036  1.00  0.00     0.074 A 
ATOM     61  C   UNL A   1      41.970  30.837  29.131  1.00  0.00     0.029 A 
ATOM     62  N   UNL A   1      43.535  29.467  28.345  1.00  0.00    -0.354 N 
ATOM     63  N   UNL A   1      46.245  28.755  27.462  1.00  0.00    -0.248 NA
ATOM     64  C   UNL A   1      48.425  29.375  26.907  1.00  0.00     0.031 C 
ATOM     65  C   UNL A   1      43.137  31.575  28.917  1.00  0.00     0.029 A 
ATOM     66  C   UNL A   1      44.123  30.715  28.460  1.00  0.00     0.049 A 
ATOM     67  H   UNL A   1      43.992  28.653  28.030  1.00  0.00     0.167 HD
ATOM     68  C   UNL A   1      46.405  30.115  27.695  1.00  0.00     0.074 A 
ATOM     69  C   UNL A   1      47.777  30.437  27.362  1.00  0.00     0.031 C 
ATOM     70  C   UNL A   1      45.499  31.014  28.150  1.00  0.00     0.037 A 
BRANCH  57  71
ATOM     71  C   UNL A   1      39.866  28.662  29.128  1.00  0.00     0.064 A 
ATOM     72  C   UNL A   1      39.427  28.467  30.447  1.00  0.00     0.173 A 
ATOM     73  C   UNL A   1      38.930  29.119  28.189  1.00  0.00     0.173 A 
ATOM     74  F   UNL A   1      40.278  28.020  31.384  1.00  0.00    -0.203 F 
ATOM     75  C   UNL A   1      38.098  28.686  30.801  1.00  0.00     0.198 A 
ATOM     76  C   UNL A   1      37.610  29.372  28.554  1.00  0.00     0.198 A 
ATOM     77  F   UNL A   1      39.295  29.327  26.915  1.00  0.00    -0.203 F 
ATOM     78  F   UNL A   1      37.690  28.435  32.053  1.00  0.00    -0.200 F 
ATOM     79  C   UNL A   1      37.193  29.144  29.858  1.00  0.00     0.200 A 
ATOM     80  F   UNL A   1      36.740  29.830  27.644  1.00  0.00    -0.200 F 
ATOM     81  F   UNL A   1      35.916  29.360  30.200  1.00  0.00    -0.200 F 
ENDBRANCH  57  71
BRANCH  58  82
ATOM     82  C   UNL A   1      49.210  26.638  26.209  1.00  0.00     0.064 A 
ATOM     83  C   UNL A   1      50.186  26.190  27.110  1.00  0.00     0.173 A 
ATOM     84  C   UNL A   1      49.592  26.817  24.871  1.00  0.00     0.173 A 
ATOM     85  F   UNL A   1      49.876  26.024  28.404  1.00  0.00    -0.203 F 
ATOM     86  C   UNL A   1      51.497  25.955  26.696  1.00  0.00     0.198 A 
ATOM     87  C   UNL A   1      50.894  26.552  24.452  1.00  0.00     0.198 A 
ATOM     88  F   UNL A   1      48.696  27.240  23.967  1.00  0.00    -0.203 F 
ATOM     89  F   UNL A   1      52.421  25.576  27.589  1.00  0.00    -0.200 F 
ATOM     90  C   UNL A   1      51.848  26.130  25.366  1.00  0.00     0.200 A 
ATOM     91  F   UNL A   1      51.225  26.706  23.162  1.00  0.00    -0.200 F 
ATOM     92  F   UNL A   1      53.106  25.900  24.968  1.00  0.00    -0.200 F 
ENDBRANCH  58  82
BRANCH  70  93
ATOM     93  C   UNL A   1      45.967  32.422  28.383  1.00  0.00     0.064 A 
ATOM     94  C   UNL A   1      46.449  32.848  29.629  1.00  0.00     0.173 A 
ATOM     95  C   UNL A   1      45.998  33.336  27.318  1.00  0.00     0.173 A 
ATOM     96  F   UNL A   1      46.427  32.018  30.681  1.00  0.00    -0.203 F 
ATOM     97  C   UNL A   1      46.929  34.144  29.803  1.00  0.00     0.198 A 
ATOM     98  C   UNL A   1      46.509  34.619  27.488  1.00  0.00     0.198 A 
ATOM     99  F   UNL A   1      45.554  32.976  26.104  1.00  0.00    -0.203 F 
ATOM    100  F   UNL A   1      47.350  34.542  31.012  1.00  0.00    -0.200 F 
ATOM    101  C   UNL A   1      46.970  35.023  28.731  1.00  0.00     0.200 A 
ATOM    102  F   UNL A   1      46.564  35.461  26.446  1.00  0.00    -0.200 F 
ATOM    103  F   UNL A   1      47.452  36.263  28.898  1.00  0.00    -0.200 F 
ENDBRANCH  70  93
ENDBRANCH  44  45
ENDBRANCH  36  39
ENDBRANCH  34  35
ENDBRANCH  33  34
ENDBRANCH  32  33
ENDBRANCH   1  32
TORSDOF 17
ENDMDL
MODEL 2
REMARK VINA RESULT:     -12.9      2.179      2.670
REMARK SMILES COc1cc(/C=C2/S/C(=[NH+]\C(C)=O)NC2=O)cc(Br)c1OCC(=O)NCCCCCCNC(=O)c1ccc(-c2c3nc(c(-c4c(F)c(F)c(F)c(F)c4F)c4ccc([nH]4)c(-c4c(F)c(F)c(F)c(F)c4F)c4nc(c(-c5c(F)c(F)c(F)c(F)c5F)c5ccc2[nH]5)C=C4)C=C3)cc1
REMARK SMILES IDX 28 1 27 2 26 3 25 4 23 5 24 6 22 8 21 9 20 10 3 11 4 12 5 13
REMARK SMILES IDX 18 14 17 15 19 16 2 17 1 18 6 19 7 20 8 21 15 22 9 23 14 24
REMARK SMILES IDX 16 25 10 26 11 28 12 30 13 31 29 32 30 33 31 34 32 35 33 36
REMARK SMILES IDX 34 38 35 39 36 40 97 41 37 42 96 43 38 44 39 45 40 46 90 47
REMARK SMILES IDX 41 48 95 49 89 50 91 51 42 52 94 53 88 54 87 55 43 57 75 58
REMARK SMILES IDX 55 59 74 60 56 61 59 62 73 63 92 64 57 65 58 66 72 68 93 69
REMARK SMILES IDX 60 70 44 71 45 72 53 73 46 74 47 75 51 76 54 77 48 78 49 79
REMARK SMILES IDX 52 80 50 81 76 82 77 83 85 84 78 85 79 86 83 87 86 88 80 89
REMARK SMILES IDX 81 90 84 91 82 92 61 93 62 94 70 95 63 96 64 97 68 98 71 99
REMARK SMILES IDX 65 100 66 101 69 102 67 103
REMARK H PARENT 25 7 14 27 10 29 32 37 91 56 59 67
REMARK Flexibility Score: inf
ROOT
ATOM      1  C   UNL A   1      36.857  22.219  24.209  1.00  0.00     0.002 C 
ENDROOT
BRANCH   1   2
ATOM      2  C   UNL A   1      36.480  23.588  24.792  1.00  0.00     0.021 C 
BRANCH   2   3
ATOM      3  C   UNL A   1      35.052  24.045  24.495  1.00  0.00     0.116 C 
BRANCH   3   4
ATOM      4  N   UNL A   1      34.689  23.796  23.117  1.00  0.00    -0.353 N 
ATOM      5  C   UNL A   1      33.450  23.763  22.551  1.00  0.00     0.257 C 
ATOM      6  O   UNL A   1      33.378  23.602  21.331  1.00  0.00    -0.271 OA
ATOM      7  H   UNL A   1      35.441  23.627  22.504  1.00  0.00     0.163 HD
BRANCH   5   8
ATOM      8  C   UNL A   1      32.206  24.021  23.416  1.00  0.00     0.329 C 
BRANCH   8   9
ATOM      9  O   UNL A   1      31.625  25.304  23.541  1.00  0.00    -0.479 OA
BRANCH   9  10
ATOM     10  C   UNL A   1      32.227  26.295  24.270  1.00  0.00     0.176 A 
ATOM     11  C   UNL A   1      32.012  26.187  25.669  1.00  0.00     0.162 A 
ATOM     12  C   UNL A   1      32.579  27.117  26.553  1.00  0.00     0.058 A 
ATOM     13  C   UNL A   1      33.358  28.165  26.067  1.00  0.00    -0.019 A 
ATOM     14  C   UNL A   1      33.078  27.306  23.802  1.00  0.00     0.064 A 
ATOM     15  C   UNL A   1      33.614  28.246  24.697  1.00  0.00     0.028 A 
ATOM     16  Br  UNL A   1      33.746  27.450  22.029  1.00  0.00    -0.047 Br
BRANCH  11  17
ATOM     17  O   UNL A   1      31.238  25.125  26.083  1.00  0.00    -0.493 OA
ATOM     18  C   UNL A   1      31.853  24.137  26.900  1.00  0.00     0.278 C 
ENDBRANCH  11  17
BRANCH  13  19
ATOM     19  C   UNL A   1      33.923  29.148  26.998  1.00  0.00     0.032 C 
ATOM     20  C   UNL A   1      33.380  30.346  27.255  1.00  0.00     0.110 C 
ATOM     21  S   UNL A   1      34.124  31.554  28.254  1.00  0.00     0.007 SA
ATOM     22  C   UNL A   1      32.119  30.902  26.686  1.00  0.00     0.346 C 
ATOM     23  C   UNL A   1      33.087  32.810  27.647  1.00  0.00     0.324 C 
ATOM     24  N   UNL A   1      32.094  32.249  26.909  1.00  0.00    -0.199 N 
ATOM     25  O   UNL A   1      31.240  30.279  26.123  1.00  0.00    -0.240 OA
ATOM     26  N   UNL A   1      33.086  34.084  27.766  1.00  0.00    -0.204 N 
ATOM     27  H   UNL A   1      31.369  32.804  26.541  1.00  0.00     0.316 HD
ATOM     28  C   UNL A   1      33.923  34.883  28.496  1.00  0.00     0.304 C 
ATOM     29  H   UNL A   1      32.383  34.555  27.261  1.00  0.00     0.316 HD
ATOM     30  C   UNL A   1      35.363  34.539  28.757  1.00  0.00     0.144 C 
ATOM     31  O   UNL A   1      33.518  35.974  28.901  1.00  0.00    -0.247 OA
ENDBRANCH  13  19
ENDBRANCH   9  10
ENDBRANCH   8   9
ENDBRANCH   5   8
ENDBRANCH   3   4
ENDBRANCH   2   3
ENDBRANCH   1   2
BRANCH   1  32
ATOM     32  C   UNL A   1      37.001  21.079  25.221  1.00  0.00     0.002 C 
BRANCH  32  33
ATOM     33  C   UNL A   1      38.168  20.125  24.966  1.00  0.00     0.021 C 
BRANCH  33  34
ATOM     34  C   UNL A   1      39.393  20.375  25.834  1.00  0.00     0.116 C 
BRANCH  34  35
ATOM     35  N   UNL A   1      40.285  19.227  25.888  1.00  0.00    -0.352 N 
ATOM     36  C   UNL A   1      41.646  19.208  26.074  1.00  0.00     0.251 C 
ATOM     37  H   UNL A   1      39.856  18.347  25.778  1.00  0.00     0.163 HD
ATOM     38  O   UNL A   1      42.290  18.174  25.940  1.00  0.00    -0.269 OA
BRANCH  36  39
ATOM     39  C   UNL A   1      42.337  20.470  26.410  1.00  0.00     0.039 A 
ATOM     40  C   UNL A   1      42.903  21.236  25.389  1.00  0.00     0.014 A 
ATOM     41  C   UNL A   1      42.369  20.916  27.734  1.00  0.00     0.014 A 
ATOM     42  C   UNL A   1      43.434  22.494  25.686  1.00  0.00     0.010 A 
ATOM     43  C   UNL A   1      42.826  22.198  28.014  1.00  0.00     0.010 A 
ATOM     44  C   UNL A   1      43.358  23.001  26.992  1.00  0.00    -0.014 A 
BRANCH  44  45
ATOM     45  C   UNL A   1      43.828  24.367  27.339  1.00  0.00     0.031 A 
ATOM     46  C   UNL A   1      42.836  25.393  27.807  1.00  0.00     0.074 A 
ATOM     47  C   UNL A   1      45.113  24.713  27.131  1.00  0.00     0.049 A 
ATOM     48  N   UNL A   1      42.991  26.681  27.984  1.00  0.00    -0.248 NA
ATOM     49  C   UNL A   1      41.472  24.908  28.078  1.00  0.00     0.031 C 
ATOM     50  C   UNL A   1      46.168  23.815  26.661  1.00  0.00     0.029 A 
ATOM     51  N   UNL A   1      45.744  25.926  27.265  1.00  0.00    -0.354 N 
ATOM     52  C   UNL A   1      41.745  27.160  28.366  1.00  0.00     0.074 A 
ATOM     53  C   UNL A   1      40.832  26.038  28.340  1.00  0.00     0.031 C 
ATOM     54  C   UNL A   1      47.316  24.504  26.555  1.00  0.00     0.029 A 
ATOM     55  C   UNL A   1      47.068  25.901  26.895  1.00  0.00     0.049 A 
ATOM     56  H   UNL A   1      45.292  26.735  27.594  1.00  0.00     0.167 HD
ATOM     57  C   UNL A   1      41.399  28.419  28.723  1.00  0.00     0.037 A 
ATOM     58  C   UNL A   1      47.971  26.898  26.817  1.00  0.00     0.037 A 
ATOM     59  C   UNL A   1      42.316  29.527  28.761  1.00  0.00     0.049 A 
ATOM     60  C   UNL A   1      47.550  28.299  27.177  1.00  0.00     0.074 A 
ATOM     61  C   UNL A   1      42.076  30.833  29.148  1.00  0.00     0.029 A 
ATOM     62  N   UNL A   1      43.654  29.457  28.397  1.00  0.00    -0.354 N 
ATOM     63  N   UNL A   1      46.381  28.736  27.577  1.00  0.00    -0.248 NA
ATOM     64  C   UNL A   1      48.577  29.347  27.076  1.00  0.00     0.031 C 
ATOM     65  C   UNL A   1      43.252  31.567  28.964  1.00  0.00     0.029 A 
ATOM     66  C   UNL A   1      44.244  30.703  28.528  1.00  0.00     0.049 A 
ATOM     67  H   UNL A   1      44.114  28.642  28.090  1.00  0.00     0.167 HD
ATOM     68  C   UNL A   1      46.541  30.095  27.817  1.00  0.00     0.074 A 
ATOM     69  C   UNL A   1      47.922  30.412  27.517  1.00  0.00     0.031 C 
ATOM     70  C   UNL A   1      45.628  30.996  28.252  1.00  0.00     0.037 A 
BRANCH  57  71
ATOM     71  C   UNL A   1      39.963  28.667  29.090  1.00  0.00     0.064 A 
ATOM     72  C   UNL A   1      39.487  28.447  30.392  1.00  0.00     0.173 A 
ATOM     73  C   UNL A   1      39.058  29.156  28.137  1.00  0.00     0.173 A 
ATOM     74  F   UNL A   1      40.307  27.969  31.341  1.00  0.00    -0.203 F 
ATOM     75  C   UNL A   1      38.151  28.671  30.714  1.00  0.00     0.198 A 
ATOM     76  C   UNL A   1      37.731  29.413  28.472  1.00  0.00     0.198 A 
ATOM     77  F   UNL A   1      39.460  29.389  26.878  1.00  0.00    -0.203 F 
ATOM     78  F   UNL A   1      37.706  28.396  31.949  1.00  0.00    -0.200 F 
ATOM     79  C   UNL A   1      37.277  29.160  29.757  1.00  0.00     0.200 A 
ATOM     80  F   UNL A   1      36.891  29.901  27.549  1.00  0.00    -0.200 F 
ATOM     81  F   UNL A   1      35.992  29.381  30.070  1.00  0.00    -0.200 F 
ENDBRANCH  57  71
BRANCH  58  82
ATOM     82  C   UNL A   1      49.365  26.609  26.390  1.00  0.00     0.064 A 
ATOM     83  C   UNL A   1      50.320  26.159  27.314  1.00  0.00     0.173 A 
ATOM     84  C   UNL A   1      49.779  26.785  25.061  1.00  0.00     0.173 A 
ATOM     85  F   UNL A   1      49.979  25.995  28.600  1.00  0.00    -0.203 F 
ATOM     86  C   UNL A   1      51.638  25.918  26.930  1.00  0.00     0.198 A 
ATOM     87  C   UNL A   1      51.090  26.515  24.672  1.00  0.00     0.198 A 
ATOM     88  F   UNL A   1      48.906  27.210  24.135  1.00  0.00    -0.203 F 
ATOM     89  F   UNL A   1      52.540  25.538  27.845  1.00  0.00    -0.200 F 
ATOM     90  C   UNL A   1      52.020  26.091  25.609  1.00  0.00     0.200 A 
ATOM     91  F   UNL A   1      51.451  26.666  23.391  1.00  0.00    -0.200 F 
ATOM     92  F   UNL A   1      53.287  25.857  25.240  1.00  0.00    -0.200 F 
ENDBRANCH  58  82
BRANCH  70  93
ATOM     93  C   UNL A   1      46.097  32.402  28.500  1.00  0.00     0.064 A 
ATOM     94  C   UNL A   1      46.657  32.794  29.724  1.00  0.00     0.173 A 
ATOM     95  C   UNL A   1      46.047  33.350  27.466  1.00  0.00     0.173 A 
ATOM     96  F   UNL A   1      46.715  31.929  30.748  1.00  0.00    -0.203 F 
ATOM     97  C   UNL A   1      47.136  34.088  29.909  1.00  0.00     0.198 A 
ATOM     98  C   UNL A   1      46.556  34.633  27.644  1.00  0.00     0.198 A 
ATOM     99  F   UNL A   1      45.526  33.025  26.273  1.00  0.00    -0.203 F 
ATOM    100  F   UNL A   1      47.632  34.453  31.099  1.00  0.00    -0.200 F 
ATOM    101  C   UNL A   1      47.095  35.003  28.866  1.00  0.00     0.200 A 
ATOM    102  F   UNL A   1      46.532  35.509  26.629  1.00  0.00    -0.200 F 
ATOM    103  F   UNL A   1      47.575  36.242  29.041  1.00  0.00    -0.200 F 
ENDBRANCH  70  93
ENDBRANCH  44  45
ENDBRANCH  36  39
ENDBRANCH  34  35
ENDBRANCH  33  34
ENDBRANCH  32  33
ENDBRANCH   1  32
TORSDOF 17
ENDMDL
MODEL 3
REMARK VINA RESULT:     -12.4      5.798     11.752
REMARK SMILES COc1cc(/C=C2/S/C(=[NH+]\C(C)=O)NC2=O)cc(Br)c1OCC(=O)NCCCCCCNC(=O)c1ccc(-c2c3nc(c(-c4c(F)c(F)c(F)c(F)c4F)c4ccc([nH]4)c(-c4c(F)c(F)c(F)c(F)c4F)c4nc(c(-c5c(F)c(F)c(F)c(F)c5F)c5ccc2[nH]5)C=C4)C=C3)cc1
REMARK SMILES IDX 28 1 27 2 26 3 25 4 23 5 24 6 22 8 21 9 20 10 3 11 4 12 5 13
REMARK SMILES IDX 18 14 17 15 19 16 2 17 1 18 6 19 7 20 8 21 15 22 9 23 14 24
REMARK SMILES IDX 16 25 10 26 11 28 12 30 13 31 29 32 30 33 31 34 32 35 33 36
REMARK SMILES IDX 34 38 35 39 36 40 97 41 37 42 96 43 38 44 39 45 40 46 90 47
REMARK SMILES IDX 41 48 95 49 89 50 91 51 42 52 94 53 88 54 87 55 43 57 75 58
REMARK SMILES IDX 55 59 74 60 56 61 59 62 73 63 92 64 57 65 58 66 72 68 93 69
REMARK SMILES IDX 60 70 44 71 45 72 53 73 46 74 47 75 51 76 54 77 48 78 49 79
REMARK SMILES IDX 52 80 50 81 76 82 77 83 85 84 78 85 79 86 83 87 86 88 80 89
REMARK SMILES IDX 81 90 84 91 82 92 61 93 62 94 70 95 63 96 64 97 68 98 71 99
REMARK SMILES IDX 65 100 66 101 69 102 67 103
REMARK H PARENT 25 7 14 27 10 29 32 37 91 56 59 67
REMARK Flexibility Score: inf
ROOT
ATOM      1  C   UNL A   1      37.543  32.919  31.052  1.00  0.00     0.002 C 
ENDROOT
BRANCH   1   2
ATOM      2  C   UNL A   1      38.461  34.034  31.574  1.00  0.00     0.021 C 
BRANCH   2   3
ATOM      3  C   UNL A   1      38.107  34.564  32.962  1.00  0.00     0.116 C 
BRANCH   3   4
ATOM      4  N   UNL A   1      39.268  34.617  33.824  1.00  0.00    -0.353 N 
ATOM      5  C   UNL A   1      39.649  33.746  34.799  1.00  0.00     0.257 C 
ATOM      6  O   UNL A   1      40.725  33.951  35.366  1.00  0.00    -0.271 OA
ATOM      7  H   UNL A   1      39.863  35.388  33.686  1.00  0.00     0.163 HD
BRANCH   5   8
ATOM      8  C   UNL A   1      38.796  32.502  35.094  1.00  0.00     0.329 C 
BRANCH   8   9
ATOM      9  O   UNL A   1      39.283  31.414  35.852  1.00  0.00    -0.479 OA
BRANCH   9  10
ATOM     10  C   UNL A   1      40.081  30.451  35.292  1.00  0.00     0.176 A 
ATOM     11  C   UNL A   1      41.263  30.186  36.033  1.00  0.00     0.162 A 
ATOM     12  C   UNL A   1      42.175  29.212  35.599  1.00  0.00     0.058 A 
ATOM     13  C   UNL A   1      41.935  28.495  34.429  1.00  0.00    -0.019 A 
ATOM     14  C   UNL A   1      39.813  29.667  34.162  1.00  0.00     0.064 A 
ATOM     15  C   UNL A   1      40.750  28.717  33.724  1.00  0.00     0.028 A 
ATOM     16  Br  UNL A   1      38.169  29.636  33.208  1.00  0.00    -0.047 Br
BRANCH  11  17
ATOM     17  O   UNL A   1      41.436  30.925  37.183  1.00  0.00    -0.493 OA
ATOM     18  C   UNL A   1      42.712  31.511  37.407  1.00  0.00     0.278 C 
ENDBRANCH  11  17
BRANCH  13  19
ATOM     19  C   UNL A   1      42.908  27.498  33.969  1.00  0.00     0.032 C 
ATOM     20  C   UNL A   1      42.905  26.211  34.341  1.00  0.00     0.110 C 
ATOM     21  S   UNL A   1      44.136  25.071  33.898  1.00  0.00     0.007 SA
ATOM     22  C   UNL A   1      41.932  25.540  35.249  1.00  0.00     0.346 C 
ATOM     23  C   UNL A   1      43.644  23.941  35.123  1.00  0.00     0.324 C 
ATOM     24  N   UNL A   1      42.460  24.346  35.652  1.00  0.00    -0.199 N 
ATOM     25  O   UNL A   1      40.840  25.959  35.581  1.00  0.00    -0.240 OA
ATOM     26  N   UNL A   1      44.157  22.863  35.583  1.00  0.00    -0.204 N 
ATOM     27  H   UNL A   1      41.991  23.789  36.315  1.00  0.00     0.316 HD
ATOM     28  C   UNL A   1      45.293  22.210  35.187  1.00  0.00     0.304 C 
ATOM     29  H   UNL A   1      43.666  22.445  36.327  1.00  0.00     0.316 HD
ATOM     30  C   UNL A   1      46.492  22.920  34.623  1.00  0.00     0.144 C 
ATOM     31  O   UNL A   1      45.384  20.994  35.361  1.00  0.00    -0.247 OA
ENDBRANCH  13  19
ENDBRANCH   9  10
ENDBRANCH   8   9
ENDBRANCH   5   8
ENDBRANCH   3   4
ENDBRANCH   2   3
ENDBRANCH   1   2
BRANCH   1  32
ATOM     32  C   UNL A   1      36.219  32.738  31.803  1.00  0.00     0.002 C 
BRANCH  32  33
ATOM     33  C   UNL A   1      35.000  32.478  30.920  1.00  0.00     0.021 C 
BRANCH  33  34
ATOM     34  C   UNL A   1      35.256  32.624  29.426  1.00  0.00     0.116 C 
BRANCH  34  35
ATOM     35  N   UNL A   1      34.393  31.771  28.623  1.00  0.00    -0.352 N 
ATOM     36  C   UNL A   1      34.705  30.593  27.989  1.00  0.00     0.251 C 
ATOM     37  H   UNL A   1      33.462  32.078  28.523  1.00  0.00     0.163 HD
ATOM     38  O   UNL A   1      33.915  30.061  27.216  1.00  0.00    -0.269 OA
BRANCH  36  39
ATOM     39  C   UNL A   1      36.029  29.983  28.228  1.00  0.00     0.039 A 
ATOM     40  C   UNL A   1      37.031  30.119  27.265  1.00  0.00     0.014 A 
ATOM     41  C   UNL A   1      36.287  29.328  29.435  1.00  0.00     0.014 A 
ATOM     42  C   UNL A   1      38.322  29.666  27.546  1.00  0.00     0.010 A 
ATOM     43  C   UNL A   1      37.587  28.949  29.743  1.00  0.00     0.010 A 
ATOM     44  C   UNL A   1      38.619  29.118  28.804  1.00  0.00    -0.014 A 
BRANCH  44  45
ATOM     45  C   UNL A   1      39.994  28.703  29.182  1.00  0.00     0.031 A 
ATOM     46  C   UNL A   1      40.878  29.664  29.925  1.00  0.00     0.074 A 
ATOM     47  C   UNL A   1      40.481  27.518  28.766  1.00  0.00     0.049 A 
ATOM     48  N   UNL A   1      42.157  29.583  30.190  1.00  0.00    -0.248 NA
ATOM     49  C   UNL A   1      40.240  30.902  30.404  1.00  0.00     0.031 C 
ATOM     50  C   UNL A   1      39.731  26.507  28.021  1.00  0.00     0.029 A 
ATOM     51  N   UNL A   1      41.737  26.975  28.891  1.00  0.00    -0.354 N 
ATOM     52  C   UNL A   1      42.479  30.764  30.845  1.00  0.00     0.074 A 
ATOM     53  C   UNL A   1      41.277  31.568  30.889  1.00  0.00     0.031 C 
ATOM     54  C   UNL A   1      40.536  25.463  27.763  1.00  0.00     0.029 A 
ATOM     55  C   UNL A   1      41.871  25.754  28.275  1.00  0.00     0.049 A 
ATOM     56  H   UNL A   1      42.470  27.419  29.375  1.00  0.00     0.167 HD
ATOM     57  C   UNL A   1      43.667  31.136  31.379  1.00  0.00     0.037 A 
ATOM     58  C   UNL A   1      42.956  24.970  28.120  1.00  0.00     0.037 A 
ATOM     59  C   UNL A   1      44.855  30.324  31.346  1.00  0.00     0.049 A 
ATOM     60  C   UNL A   1      44.278  25.425  28.684  1.00  0.00     0.074 A 
ATOM     61  C   UNL A   1      46.097  30.589  31.893  1.00  0.00     0.029 A 
ATOM     62  N   UNL A   1      44.946  29.084  30.728  1.00  0.00    -0.354 N 
ATOM     63  N   UNL A   1      44.564  26.524  29.339  1.00  0.00    -0.248 NA
ATOM     64  C   UNL A   1      45.427  24.529  28.488  1.00  0.00     0.031 C 
ATOM     65  C   UNL A   1      46.956  29.538  31.558  1.00  0.00     0.029 A 
ATOM     66  C   UNL A   1      46.231  28.584  30.861  1.00  0.00     0.049 A 
ATOM     67  H   UNL A   1      44.207  28.627  30.264  1.00  0.00     0.167 HD
ATOM     68  C   UNL A   1      45.910  26.432  29.671  1.00  0.00     0.074 A 
ATOM     69  C   UNL A   1      46.385  25.169  29.144  1.00  0.00     0.031 C 
ATOM     70  C   UNL A   1      46.680  27.312  30.355  1.00  0.00     0.037 A 
BRANCH  57  71
ATOM     71  C   UNL A   1      43.742  32.485  32.035  1.00  0.00     0.064 A 
ATOM     72  C   UNL A   1      43.790  32.624  33.431  1.00  0.00     0.173 A 
ATOM     73  C   UNL A   1      43.794  33.653  31.259  1.00  0.00     0.173 A 
ATOM     74  F   UNL A   1      43.732  31.542  34.221  1.00  0.00    -0.203 F 
ATOM     75  C   UNL A   1      43.848  33.883  34.024  1.00  0.00     0.198 A 
ATOM     76  C   UNL A   1      43.889  34.908  31.855  1.00  0.00     0.198 A 
ATOM     77  F   UNL A   1      43.757  33.578  29.920  1.00  0.00    -0.203 F 
ATOM     78  F   UNL A   1      43.832  33.993  35.360  1.00  0.00    -0.200 F 
ATOM     79  C   UNL A   1      43.905  35.022  33.237  1.00  0.00     0.200 A 
ATOM     80  F   UNL A   1      43.960  36.007  31.092  1.00  0.00    -0.200 F 
ATOM     81  F   UNL A   1      43.967  36.232  33.809  1.00  0.00    -0.200 F 
ENDBRANCH  57  71
BRANCH  58  82
ATOM     82  C   UNL A   1      42.841  23.669  27.410  1.00  0.00     0.064 A 
ATOM     83  C   UNL A   1      43.206  23.555  26.060  1.00  0.00     0.173 A 
ATOM     84  C   UNL A   1      42.357  22.520  28.052  1.00  0.00     0.173 A 
ATOM     85  F   UNL A   1      43.655  24.629  25.396  1.00  0.00    -0.203 F 
ATOM     86  C   UNL A   1      43.069  22.348  25.375  1.00  0.00     0.198 A 
ATOM     87  C   UNL A   1      42.250  21.307  27.375  1.00  0.00     0.198 A 
ATOM     88  F   UNL A   1      41.997  22.572  29.343  1.00  0.00    -0.203 F 
ATOM     89  F   UNL A   1      43.378  22.282  24.073  1.00  0.00    -0.200 F 
ATOM     90  C   UNL A   1      42.597  21.224  26.035  1.00  0.00     0.200 A 
ATOM     91  F   UNL A   1      41.808  20.219  28.021  1.00  0.00    -0.200 F 
ATOM     92  F   UNL A   1      42.469  20.064  25.377  1.00  0.00    -0.200 F 
ENDBRANCH  58  82
BRANCH  70  93
ATOM     93  C   UNL A   1      48.103  26.921  30.640  1.00  0.00     0.064 A 
ATOM     94  C   UNL A   1      48.445  26.102  31.726  1.00  0.00     0.173 A 
ATOM     95  C   UNL A   1      49.128  27.318  29.767  1.00  0.00     0.173 A 
ATOM     96  F   UNL A   1      47.505  25.709  32.597  1.00  0.00    -0.203 F 
ATOM     97  C   UNL A   1      49.765  25.709  31.935  1.00  0.00     0.198 A 
ATOM     98  C   UNL A   1      50.439  26.895  29.960  1.00  0.00     0.198 A 
ATOM     99  F   UNL A   1      48.852  28.096  28.709  1.00  0.00    -0.203 F 
ATOM    100  F   UNL A   1      50.076  24.958  33.001  1.00  0.00    -0.200 F 
ATOM    101  C   UNL A   1      50.758  26.096  31.046  1.00  0.00     0.200 A 
ATOM    102  F   UNL A   1      51.393  27.256  29.090  1.00  0.00    -0.200 F 
ATOM    103  F   UNL A   1      52.023  25.698  31.239  1.00  0.00    -0.200 F 
ENDBRANCH  70  93
ENDBRANCH  44  45
ENDBRANCH  36  39
ENDBRANCH  34  35
ENDBRANCH  33  34
ENDBRANCH  32  33
ENDBRANCH   1  32
TORSDOF 17
ENDMDL
