MODEL 1
REMARK VINA RESULT:     -12.0      0.000      0.000
REMARK SMILES Cc1cc(Br)cc2c1O[C@H](C(F)(F)F)C(C(=O)NCCCCCCNC(=O)c1ccc(-c3c4nc(c(-c5c(F)c(F)c(F)c(F)c5F)c5ccc([nH]5)c(-c5c(F)c(F)c(F)c(F)c5F)c5nc(c(-c6c(F)c(F)c(F)c(F)c6F)c6ccc3[nH]6)C=C5)C=C4)cc1)=C2
REMARK SMILES IDX 22 1 21 2 20 3 19 4 18 5 16 6 17 7 15 9 1 10 2 11 3 12 8 13
REMARK SMILES IDX 4 14 7 15 9 16 5 17 6 18 91 19 10 20 11 21 12 22 13 23 14 24
REMARK SMILES IDX 23 25 24 26 25 27 26 28 27 30 28 31 29 32 90 33 30 34 89 35
REMARK SMILES IDX 31 36 32 37 33 38 83 39 34 40 88 41 82 42 84 43 35 44 87 45
REMARK SMILES IDX 81 46 80 47 36 49 68 50 48 51 67 52 49 53 52 54 66 55 85 56
REMARK SMILES IDX 50 57 51 58 65 60 86 61 53 62 37 63 38 64 46 65 39 66 40 67
REMARK SMILES IDX 44 68 47 69 41 70 42 71 45 72 43 73 69 74 70 75 78 76 71 77
REMARK SMILES IDX 72 78 76 79 79 80 73 81 74 82 77 83 75 84 54 85 55 86 63 87
REMARK SMILES IDX 56 88 57 89 61 90 64 91 58 92 59 93 62 94 60 95
REMARK H PARENT 18 8 25 29 84 48 52 59
REMARK Flexibility Score: inf
ROOT
ATOM      1  C   UNL A   1      35.273  22.642  26.518  1.00  0.00     0.002 C 
ENDROOT
BRANCH   1   2
ATOM      2  C   UNL A   1      34.418  21.449  26.068  1.00  0.00     0.002 C 
BRANCH   2   3
ATOM      3  C   UNL A   1      33.808  21.583  24.670  1.00  0.00     0.021 C 
BRANCH   3   4
ATOM      4  C   UNL A   1      32.300  21.364  24.645  1.00  0.00     0.116 C 
BRANCH   4   5
ATOM      5  N   UNL A   1      31.646  21.980  25.784  1.00  0.00    -0.352 N 
ATOM      6  C   UNL A   1      31.436  23.234  26.248  1.00  0.00     0.251 C 
ATOM      7  O   UNL A   1      30.772  23.308  27.287  1.00  0.00    -0.270 OA
ATOM      8  H   UNL A   1      31.249  21.305  26.380  1.00  0.00     0.163 HD
BRANCH   6   9
ATOM      9  C   UNL A   1      31.944  24.484  25.606  1.00  0.00     0.067 C 
ATOM     10  C   UNL A   1      33.912  28.051  22.472  1.00  0.00     0.048 C 
ATOM     11  C   UNL A   1      33.659  27.953  23.951  1.00  0.00    -0.007 A 
ATOM     12  C   UNL A   1      33.917  29.048  24.782  1.00  0.00     0.023 A 
ATOM     13  C   UNL A   1      33.103  26.796  24.515  1.00  0.00     0.130 A 
ATOM     14  C   UNL A   1      33.656  28.966  26.150  1.00  0.00     0.019 A 
ATOM     15  C   UNL A   1      32.851  26.706  25.888  1.00  0.00     0.019 A 
ATOM     16  O   UNL A   1      32.870  25.757  23.664  1.00  0.00    -0.475 OA
ATOM     17  Br  UNL A   1      34.026  30.451  27.260  1.00  0.00    -0.051 Br
ATOM     18  C   UNL A   1      33.131  27.800  26.709  1.00  0.00     0.027 A 
ATOM     19  C   UNL A   1      32.341  25.458  26.445  1.00  0.00     0.025 C 
ATOM     20  C   UNL A   1      32.001  24.697  24.123  1.00  0.00     0.314 C 
BRANCH  20  21
ATOM     21  C   UNL A   1      30.609  24.883  23.492  1.00  0.00     0.429 C 
ATOM     22  F   UNL A   1      30.700  25.637  22.366  1.00  0.00    -0.167 F 
ATOM     23  F   UNL A   1      30.041  23.714  23.118  1.00  0.00    -0.167 F 
ATOM     24  F   UNL A   1      29.739  25.497  24.323  1.00  0.00    -0.167 F 
ENDBRANCH  20  21
ENDBRANCH   6   9
ENDBRANCH   4   5
ENDBRANCH   3   4
ENDBRANCH   2   3
ENDBRANCH   1   2
BRANCH   1  25
ATOM     25  C   UNL A   1      35.526  23.703  25.443  1.00  0.00     0.021 C 
BRANCH  25  26
ATOM     26  C   UNL A   1      36.944  23.703  24.887  1.00  0.00     0.116 C 
BRANCH  26  27
ATOM     27  N   UNL A   1      37.755  22.654  25.483  1.00  0.00    -0.352 N 
ATOM     28  C   UNL A   1      38.882  22.764  26.253  1.00  0.00     0.251 C 
ATOM     29  H   UNL A   1      37.452  21.734  25.307  1.00  0.00     0.163 HD
ATOM     30  O   UNL A   1      39.577  21.779  26.487  1.00  0.00    -0.269 OA
BRANCH  28  31
ATOM     31  C   UNL A   1      39.265  24.082  26.795  1.00  0.00     0.039 A 
ATOM     32  C   UNL A   1      38.905  24.406  28.104  1.00  0.00     0.014 A 
ATOM     33  C   UNL A   1      39.976  24.993  26.007  1.00  0.00     0.014 A 
ATOM     34  C   UNL A   1      39.300  25.631  28.640  1.00  0.00     0.010 A 
ATOM     35  C   UNL A   1      40.435  26.179  26.568  1.00  0.00     0.010 A 
ATOM     36  C   UNL A   1      40.090  26.514  27.885  1.00  0.00    -0.014 A 
BRANCH  36  37
ATOM     37  C   UNL A   1      40.539  27.808  28.452  1.00  0.00     0.031 A 
ATOM     38  C   UNL A   1      41.994  28.025  28.758  1.00  0.00     0.074 A 
ATOM     39  C   UNL A   1      39.635  28.769  28.718  1.00  0.00     0.049 A 
ATOM     40  N   UNL A   1      42.580  29.072  29.282  1.00  0.00    -0.248 NA
ATOM     41  C   UNL A   1      42.910  26.913  28.455  1.00  0.00     0.031 C 
ATOM     42  C   UNL A   1      38.194  28.657  28.491  1.00  0.00     0.029 A 
ATOM     43  N   UNL A   1      39.794  30.030  29.234  1.00  0.00    -0.354 N 
ATOM     44  C   UNL A   1      43.927  28.744  29.366  1.00  0.00     0.074 A 
ATOM     45  C   UNL A   1      44.065  27.381  28.906  1.00  0.00     0.031 C 
ATOM     46  C   UNL A   1      37.605  29.815  28.830  1.00  0.00     0.029 A 
ATOM     47  C   UNL A   1      38.619  30.735  29.335  1.00  0.00     0.049 A 
ATOM     48  H   UNL A   1      40.667  30.396  29.506  1.00  0.00     0.167 HD
ATOM     49  C   UNL A   1      44.959  29.526  29.759  1.00  0.00     0.037 A 
ATOM     50  C   UNL A   1      38.389  31.985  29.784  1.00  0.00     0.037 A 
ATOM     51  C   UNL A   1      44.818  30.889  30.197  1.00  0.00     0.049 A 
ATOM     52  C   UNL A   1      39.552  32.817  30.257  1.00  0.00     0.074 A 
ATOM     53  C   UNL A   1      45.806  31.776  30.584  1.00  0.00     0.029 A 
ATOM     54  N   UNL A   1      43.609  31.561  30.308  1.00  0.00    -0.354 N 
ATOM     55  N   UNL A   1      40.828  32.517  30.282  1.00  0.00    -0.248 NA
ATOM     56  C   UNL A   1      39.243  34.162  30.762  1.00  0.00     0.031 C 
ATOM     57  C   UNL A   1      45.193  32.968  30.976  1.00  0.00     0.029 A 
ATOM     58  C   UNL A   1      43.826  32.845  30.781  1.00  0.00     0.049 A 
ATOM     59  H   UNL A   1      42.729  31.183  30.083  1.00  0.00     0.167 HD
ATOM     60  C   UNL A   1      41.475  33.639  30.780  1.00  0.00     0.074 A 
ATOM     61  C   UNL A   1      40.453  34.634  31.028  1.00  0.00     0.031 C 
ATOM     62  C   UNL A   1      42.797  33.826  31.015  1.00  0.00     0.037 A 
BRANCH  49  63
ATOM     63  C   UNL A   1      46.339  28.937  29.714  1.00  0.00     0.064 A 
ATOM     64  C   UNL A   1      46.887  28.273  30.821  1.00  0.00     0.173 A 
ATOM     65  C   UNL A   1      47.096  28.979  28.532  1.00  0.00     0.173 A 
ATOM     66  F   UNL A   1      46.210  28.217  31.978  1.00  0.00    -0.203 F 
ATOM     67  C   UNL A   1      48.149  27.686  30.754  1.00  0.00     0.198 A 
ATOM     68  C   UNL A   1      48.343  28.364  28.459  1.00  0.00     0.198 A 
ATOM     69  F   UNL A   1      46.618  29.599  27.444  1.00  0.00    -0.203 F 
ATOM     70  F   UNL A   1      48.667  27.091  31.836  1.00  0.00    -0.200 F 
ATOM     71  C   UNL A   1      48.870  27.722  29.570  1.00  0.00     0.200 A 
ATOM     72  F   UNL A   1      49.033  28.386  27.310  1.00  0.00    -0.200 F 
ATOM     73  F   UNL A   1      50.075  27.140  29.501  1.00  0.00    -0.200 F 
ENDBRANCH  49  63
BRANCH  50  74
ATOM     74  C   UNL A   1      37.008  32.533  29.769  1.00  0.00     0.064 A 
ATOM     75  C   UNL A   1      36.158  32.367  30.871  1.00  0.00     0.173 A 
ATOM     76  C   UNL A   1      36.514  33.247  28.668  1.00  0.00     0.173 A 
ATOM     77  F   UNL A   1      36.577  31.674  31.940  1.00  0.00    -0.203 F 
ATOM     78  C   UNL A   1      34.863  32.882  30.867  1.00  0.00     0.198 A 
ATOM     79  C   UNL A   1      35.229  33.788  28.677  1.00  0.00     0.198 A 
ATOM     80  F   UNL A   1      37.287  33.439  27.588  1.00  0.00    -0.203 F 
ATOM     81  F   UNL A   1      34.059  32.675  31.919  1.00  0.00    -0.200 F 
ATOM     82  C   UNL A   1      34.403  33.599  29.774  1.00  0.00     0.200 A 
ATOM     83  F   UNL A   1      34.794  34.494  27.625  1.00  0.00    -0.200 F 
ATOM     84  F   UNL A   1      33.162  34.105  29.776  1.00  0.00    -0.200 F 
ENDBRANCH  50  74
BRANCH  62  85
ATOM     85  C   UNL A   1      43.228  35.159  31.551  1.00  0.00     0.064 A 
ATOM     86  C   UNL A   1      43.609  36.203  30.696  1.00  0.00     0.173 A 
ATOM     87  C   UNL A   1      43.177  35.424  32.929  1.00  0.00     0.173 A 
ATOM     88  F   UNL A   1      43.685  35.999  29.372  1.00  0.00    -0.203 F 
ATOM     89  C   UNL A   1      43.934  37.460  31.201  1.00  0.00     0.198 A 
ATOM     90  C   UNL A   1      43.470  36.689  33.427  1.00  0.00     0.198 A 
ATOM     91  F   UNL A   1      42.809  34.461  33.788  1.00  0.00    -0.203 F 
ATOM     92  F   UNL A   1      44.327  38.433  30.368  1.00  0.00    -0.200 F 
ATOM     93  C   UNL A   1      43.852  37.704  32.564  1.00  0.00     0.200 A 
ATOM     94  F   UNL A   1      43.372  36.929  34.742  1.00  0.00    -0.200 F 
ATOM     95  F   UNL A   1      44.143  38.921  33.046  1.00  0.00    -0.200 F 
ENDBRANCH  62  85
ENDBRANCH  36  37
ENDBRANCH  28  31
ENDBRANCH  26  27
ENDBRANCH  25  26
ENDBRANCH   1  25
TORSDOF 14
ENDMDL
MODEL 2
REMARK VINA RESULT:     -11.8      0.384      1.679
REMARK SMILES Cc1cc(Br)cc2c1O[C@H](C(F)(F)F)C(C(=O)NCCCCCCNC(=O)c1ccc(-c3c4nc(c(-c5c(F)c(F)c(F)c(F)c5F)c5ccc([nH]5)c(-c5c(F)c(F)c(F)c(F)c5F)c5nc(c(-c6c(F)c(F)c(F)c(F)c6F)c6ccc3[nH]6)C=C5)C=C4)cc1)=C2
REMARK SMILES IDX 22 1 21 2 20 3 19 4 18 5 16 6 17 7 15 9 1 10 2 11 3 12 8 13
REMARK SMILES IDX 4 14 7 15 9 16 5 17 6 18 91 19 10 20 11 21 12 22 13 23 14 24
REMARK SMILES IDX 23 25 24 26 25 27 26 28 27 30 28 31 29 32 90 33 30 34 89 35
REMARK SMILES IDX 31 36 32 37 33 38 83 39 34 40 88 41 82 42 84 43 35 44 87 45
REMARK SMILES IDX 81 46 80 47 36 49 68 50 48 51 67 52 49 53 52 54 66 55 85 56
REMARK SMILES IDX 50 57 51 58 65 60 86 61 53 62 37 63 38 64 46 65 39 66 40 67
REMARK SMILES IDX 44 68 47 69 41 70 42 71 45 72 43 73 69 74 70 75 78 76 71 77
REMARK SMILES IDX 72 78 76 79 79 80 73 81 74 82 77 83 75 84 54 85 55 86 63 87
REMARK SMILES IDX 56 88 57 89 61 90 64 91 58 92 59 93 62 94 60 95
REMARK H PARENT 18 8 25 29 84 48 52 59
REMARK Flexibility Score: inf
ROOT
ATOM      1  C   UNL A   1      34.919  22.138  24.460  1.00  0.00     0.002 C 
ENDROOT
BRANCH   1   2
ATOM      2  C   UNL A   1      34.658  20.675  24.841  1.00  0.00     0.002 C 
BRANCH   2   3
ATOM      3  C   UNL A   1      33.262  20.394  25.401  1.00  0.00     0.021 C 
BRANCH   3   4
ATOM      4  C   UNL A   1      32.186  21.314  24.836  1.00  0.00     0.116 C 
BRANCH   4   5
ATOM      5  N   UNL A   1      31.442  21.984  25.887  1.00  0.00    -0.352 N 
ATOM      6  C   UNL A   1      31.211  23.258  26.280  1.00  0.00     0.251 C 
ATOM      7  O   UNL A   1      30.457  23.382  27.251  1.00  0.00    -0.270 OA
ATOM      8  H   UNL A   1      30.982  21.338  26.470  1.00  0.00     0.163 HD
BRANCH   6   9
ATOM      9  C   UNL A   1      31.795  24.474  25.639  1.00  0.00     0.067 C 
ATOM     10  C   UNL A   1      34.019  27.904  22.523  1.00  0.00     0.048 C 
ATOM     11  C   UNL A   1      33.714  27.840  23.994  1.00  0.00    -0.007 A 
ATOM     12  C   UNL A   1      33.994  28.935  24.818  1.00  0.00     0.023 A 
ATOM     13  C   UNL A   1      33.090  26.717  24.555  1.00  0.00     0.130 A 
ATOM     14  C   UNL A   1      33.685  28.884  26.178  1.00  0.00     0.019 A 
ATOM     15  C   UNL A   1      32.790  26.658  25.920  1.00  0.00     0.019 A 
ATOM     16  O   UNL A   1      32.839  25.677  23.711  1.00  0.00    -0.475 OA
ATOM     17  Br  UNL A   1      34.086  30.368  27.279  1.00  0.00    -0.051 Br
ATOM     18  C   UNL A   1      33.091  27.751  26.735  1.00  0.00     0.027 A 
ATOM     19  C   UNL A   1      32.207  25.443  26.477  1.00  0.00     0.025 C 
ATOM     20  C   UNL A   1      31.909  24.663  24.156  1.00  0.00     0.314 C 
BRANCH  20  21
ATOM     21  C   UNL A   1      30.548  24.900  23.476  1.00  0.00     0.429 C 
ATOM     22  F   UNL A   1      29.994  23.718  23.104  1.00  0.00    -0.167 F 
ATOM     23  F   UNL A   1      29.649  25.496  24.294  1.00  0.00    -0.167 F 
ATOM     24  F   UNL A   1      30.646  25.668  22.370  1.00  0.00    -0.167 F 
ENDBRANCH  20  21
ENDBRANCH   6   9
ENDBRANCH   4   5
ENDBRANCH   3   4
ENDBRANCH   2   3
ENDBRANCH   1   2
BRANCH   1  25
ATOM     25  C   UNL A   1      35.234  23.070  25.635  1.00  0.00     0.021 C 
BRANCH  25  26
ATOM     26  C   UNL A   1      36.622  23.695  25.582  1.00  0.00     0.116 C 
BRANCH  26  27
ATOM     27  N   UNL A   1      37.664  22.713  25.833  1.00  0.00    -0.352 N 
ATOM     28  C   UNL A   1      38.936  22.903  26.303  1.00  0.00     0.251 C 
ATOM     29  H   UNL A   1      37.421  21.780  25.638  1.00  0.00     0.163 HD
ATOM     30  O   UNL A   1      39.766  21.999  26.243  1.00  0.00    -0.269 OA
BRANCH  28  31
ATOM     31  C   UNL A   1      39.311  24.210  26.875  1.00  0.00     0.039 A 
ATOM     32  C   UNL A   1      38.975  24.490  28.201  1.00  0.00     0.014 A 
ATOM     33  C   UNL A   1      39.990  25.155  26.099  1.00  0.00     0.014 A 
ATOM     34  C   UNL A   1      39.363  25.704  28.765  1.00  0.00     0.010 A 
ATOM     35  C   UNL A   1      40.444  26.331  26.685  1.00  0.00     0.010 A 
ATOM     36  C   UNL A   1      40.123  26.622  28.019  1.00  0.00    -0.014 A 
BRANCH  36  37
ATOM     37  C   UNL A   1      40.565  27.905  28.615  1.00  0.00     0.031 A 
ATOM     38  C   UNL A   1      42.012  28.109  28.962  1.00  0.00     0.074 A 
ATOM     39  C   UNL A   1      39.660  28.869  28.869  1.00  0.00     0.049 A 
ATOM     40  N   UNL A   1      42.591  29.144  29.516  1.00  0.00    -0.248 NA
ATOM     41  C   UNL A   1      42.929  26.995  28.670  1.00  0.00     0.031 C 
ATOM     42  C   UNL A   1      38.225  28.769  28.602  1.00  0.00     0.029 A 
ATOM     43  N   UNL A   1      39.813  30.122  29.405  1.00  0.00    -0.354 N 
ATOM     44  C   UNL A   1      43.933  28.807  29.631  1.00  0.00     0.074 A 
ATOM     45  C   UNL A   1      44.074  27.448  29.158  1.00  0.00     0.031 C 
ATOM     46  C   UNL A   1      37.634  29.927  28.940  1.00  0.00     0.029 A 
ATOM     47  C   UNL A   1      38.640  30.834  29.484  1.00  0.00     0.049 A 
ATOM     48  H   UNL A   1      40.681  30.478  29.705  1.00  0.00     0.167 HD
ATOM     49  C   UNL A   1      44.959  29.577  30.062  1.00  0.00     0.037 A 
ATOM     50  C   UNL A   1      38.407  32.079  29.942  1.00  0.00     0.037 A 
ATOM     51  C   UNL A   1      44.815  30.935  30.514  1.00  0.00     0.049 A 
ATOM     52  C   UNL A   1      39.561  32.898  30.457  1.00  0.00     0.074 A 
ATOM     53  C   UNL A   1      45.798  31.810  30.938  1.00  0.00     0.029 A 
ATOM     54  N   UNL A   1      43.608  31.614  30.600  1.00  0.00    -0.354 N 
ATOM     55  N   UNL A   1      40.834  32.588  30.512  1.00  0.00    -0.248 NA
ATOM     56  C   UNL A   1      39.247  34.238  30.971  1.00  0.00     0.031 C 
ATOM     57  C   UNL A   1      45.182  33.001  31.329  1.00  0.00     0.029 A 
ATOM     58  C   UNL A   1      43.820  32.890  31.095  1.00  0.00     0.049 A 
ATOM     59  H   UNL A   1      42.731  31.244  30.347  1.00  0.00     0.167 HD
ATOM     60  C   UNL A   1      41.475  33.699  31.042  1.00  0.00     0.074 A 
ATOM     61  C   UNL A   1      40.453  34.699  31.275  1.00  0.00     0.031 C 
ATOM     62  C   UNL A   1      42.791  33.875  31.315  1.00  0.00     0.037 A 
BRANCH  49  63
ATOM     63  C   UNL A   1      46.336  28.979  30.046  1.00  0.00     0.064 A 
ATOM     64  C   UNL A   1      47.173  29.101  28.926  1.00  0.00     0.173 A 
ATOM     65  C   UNL A   1      46.850  28.335  31.182  1.00  0.00     0.173 A 
ATOM     66  F   UNL A   1      46.725  29.696  27.810  1.00  0.00    -0.203 F 
ATOM     67  C   UNL A   1      48.467  28.587  28.939  1.00  0.00     0.198 A 
ATOM     68  C   UNL A   1      48.155  27.850  31.202  1.00  0.00     0.198 A 
ATOM     69  F   UNL A   1      46.093  28.194  32.280  1.00  0.00    -0.203 F 
ATOM     70  F   UNL A   1      49.234  28.683  27.844  1.00  0.00    -0.200 F 
ATOM     71  C   UNL A   1      48.961  27.973  30.080  1.00  0.00     0.200 A 
ATOM     72  F   UNL A   1      48.636  27.270  32.310  1.00  0.00    -0.200 F 
ATOM     73  F   UNL A   1      50.212  27.496  30.096  1.00  0.00    -0.200 F 
ENDBRANCH  49  63
BRANCH  50  74
ATOM     74  C   UNL A   1      37.030  32.637  29.897  1.00  0.00     0.064 A 
ATOM     75  C   UNL A   1      36.557  33.288  28.749  1.00  0.00     0.173 A 
ATOM     76  C   UNL A   1      36.154  32.520  30.986  1.00  0.00     0.173 A 
ATOM     77  F   UNL A   1      37.363  33.444  27.689  1.00  0.00    -0.203 F 
ATOM     78  C   UNL A   1      35.267  33.811  28.697  1.00  0.00     0.198 A 
ATOM     79  C   UNL A   1      34.853  33.016  30.922  1.00  0.00     0.198 A 
ATOM     80  F   UNL A   1      36.555  31.902  32.108  1.00  0.00    -0.203 F 
ATOM     81  F   UNL A   1      34.854  34.462  27.601  1.00  0.00    -0.200 F 
ATOM     82  C   UNL A   1      34.413  33.667  29.780  1.00  0.00     0.200 A 
ATOM     83  F   UNL A   1      34.027  32.861  31.964  1.00  0.00    -0.200 F 
ATOM     84  F   UNL A   1      33.168  34.159  29.724  1.00  0.00    -0.200 F 
ENDBRANCH  50  74
BRANCH  62  85
ATOM     85  C   UNL A   1      43.216  35.198  31.879  1.00  0.00     0.064 A 
ATOM     86  C   UNL A   1      43.600  36.260  31.047  1.00  0.00     0.173 A 
ATOM     87  C   UNL A   1      43.156  35.436  33.261  1.00  0.00     0.173 A 
ATOM     88  F   UNL A   1      43.686  36.081  29.720  1.00  0.00    -0.203 F 
ATOM     89  C   UNL A   1      43.920  37.506  31.579  1.00  0.00     0.198 A 
ATOM     90  C   UNL A   1      43.444  36.692  33.786  1.00  0.00     0.198 A 
ATOM     91  F   UNL A   1      42.785  34.456  34.100  1.00  0.00    -0.203 F 
ATOM     92  F   UNL A   1      44.316  38.496  30.767  1.00  0.00    -0.200 F 
ATOM     93  C   UNL A   1      43.829  37.724  32.945  1.00  0.00     0.200 A 
ATOM     94  F   UNL A   1      43.337  36.906  35.105  1.00  0.00    -0.200 F 
ATOM     95  F   UNL A   1      44.115  38.932  33.452  1.00  0.00    -0.200 F 
ENDBRANCH  62  85
ENDBRANCH  36  37
ENDBRANCH  28  31
ENDBRANCH  26  27
ENDBRANCH  25  26
ENDBRANCH   1  25
TORSDOF 14
ENDMDL
MODEL 3
REMARK VINA RESULT:     -11.8      3.448      8.578
REMARK SMILES Cc1cc(Br)cc2c1O[C@H](C(F)(F)F)C(C(=O)NCCCCCCNC(=O)c1ccc(-c3c4nc(c(-c5c(F)c(F)c(F)c(F)c5F)c5ccc([nH]5)c(-c5c(F)c(F)c(F)c(F)c5F)c5nc(c(-c6c(F)c(F)c(F)c(F)c6F)c6ccc3[nH]6)C=C5)C=C4)cc1)=C2
REMARK SMILES IDX 22 1 21 2 20 3 19 4 18 5 16 6 17 7 15 9 1 10 2 11 3 12 8 13
REMARK SMILES IDX 4 14 7 15 9 16 5 17 6 18 91 19 10 20 11 21 12 22 13 23 14 24
REMARK SMILES IDX 23 25 24 26 25 27 26 28 27 30 28 31 29 32 90 33 30 34 89 35
REMARK SMILES IDX 31 36 32 37 33 38 83 39 34 40 88 41 82 42 84 43 35 44 87 45
REMARK SMILES IDX 81 46 80 47 36 49 68 50 48 51 67 52 49 53 52 54 66 55 85 56
REMARK SMILES IDX 50 57 51 58 65 60 86 61 53 62 37 63 38 64 46 65 39 66 40 67
REMARK SMILES IDX 44 68 47 69 41 70 42 71 45 72 43 73 69 74 70 75 78 76 71 77
REMARK SMILES IDX 72 78 76 79 79 80 73 81 74 82 77 83 75 84 54 85 55 86 63 87
REMARK SMILES IDX 56 88 57 89 61 90 64 91 58 92 59 93 62 94 60 95
REMARK H PARENT 18 8 25 29 84 48 52 59
REMARK Flexibility Score: inf
ROOT
ATOM      1  C   UNL A   1      32.951  28.904  24.649  1.00  0.00     0.002 C 
ENDROOT
BRANCH   1   2
ATOM      2  C   UNL A   1      31.427  28.742  24.704  1.00  0.00     0.002 C 
BRANCH   2   3
ATOM      3  C   UNL A   1      30.728  28.737  23.342  1.00  0.00     0.021 C 
BRANCH   3   4
ATOM      4  C   UNL A   1      30.505  27.337  22.782  1.00  0.00     0.116 C 
BRANCH   4   5
ATOM      5  N   UNL A   1      31.594  26.922  21.917  1.00  0.00    -0.352 N 
ATOM      6  C   UNL A   1      32.642  26.068  21.982  1.00  0.00     0.251 C 
ATOM      7  O   UNL A   1      33.331  25.999  20.959  1.00  0.00    -0.270 OA
ATOM      8  H   UNL A   1      31.562  27.387  21.049  1.00  0.00     0.163 HD
BRANCH   6   9
ATOM      9  C   UNL A   1      33.003  25.242  23.173  1.00  0.00     0.067 C 
ATOM     10  C   UNL A   1      33.207  22.816  27.700  1.00  0.00     0.048 C 
ATOM     11  C   UNL A   1      34.204  23.162  26.629  1.00  0.00    -0.007 A 
ATOM     12  C   UNL A   1      35.528  22.723  26.734  1.00  0.00     0.023 A 
ATOM     13  C   UNL A   1      33.818  23.868  25.482  1.00  0.00     0.130 A 
ATOM     14  C   UNL A   1      36.446  23.021  25.727  1.00  0.00     0.019 A 
ATOM     15  C   UNL A   1      34.739  24.178  24.475  1.00  0.00     0.019 A 
ATOM     16  O   UNL A   1      32.518  24.273  25.427  1.00  0.00    -0.475 OA
ATOM     17  Br  UNL A   1      38.236  22.433  25.894  1.00  0.00    -0.051 Br
ATOM     18  C   UNL A   1      36.062  23.751  24.601  1.00  0.00     0.027 A 
ATOM     19  C   UNL A   1      34.313  24.979  23.332  1.00  0.00     0.025 C 
ATOM     20  C   UNL A   1      32.000  24.692  24.143  1.00  0.00     0.314 C 
BRANCH  20  21
ATOM     21  C   UNL A   1      31.156  23.550  23.548  1.00  0.00     0.429 C 
ATOM     22  F   UNL A   1      30.038  24.049  22.961  1.00  0.00    -0.167 F 
ATOM     23  F   UNL A   1      31.810  22.858  22.587  1.00  0.00    -0.167 F 
ATOM     24  F   UNL A   1      30.761  22.656  24.480  1.00  0.00    -0.167 F 
ENDBRANCH  20  21
ENDBRANCH   6   9
ENDBRANCH   4   5
ENDBRANCH   3   4
ENDBRANCH   2   3
ENDBRANCH   1   2
BRANCH   1  25
ATOM     25  C   UNL A   1      33.739  27.959  25.562  1.00  0.00     0.021 C 
BRANCH  25  26
ATOM     26  C   UNL A   1      33.654  28.307  27.043  1.00  0.00     0.116 C 
BRANCH  26  27
ATOM     27  N   UNL A   1      33.554  29.742  27.254  1.00  0.00    -0.352 N 
ATOM     28  C   UNL A   1      34.413  30.580  27.915  1.00  0.00     0.251 C 
ATOM     29  H   UNL A   1      32.758  30.171  26.868  1.00  0.00     0.163 HD
ATOM     30  O   UNL A   1      34.072  31.724  28.200  1.00  0.00    -0.269 OA
BRANCH  28  31
ATOM     31  C   UNL A   1      35.753  30.094  28.293  1.00  0.00     0.039 A 
ATOM     32  C   UNL A   1      36.792  30.180  27.364  1.00  0.00     0.014 A 
ATOM     33  C   UNL A   1      35.979  29.554  29.563  1.00  0.00     0.014 A 
ATOM     34  C   UNL A   1      38.072  29.766  27.726  1.00  0.00     0.010 A 
ATOM     35  C   UNL A   1      37.271  29.213  29.949  1.00  0.00     0.010 A 
ATOM     36  C   UNL A   1      38.326  29.304  29.030  1.00  0.00    -0.014 A 
BRANCH  36  37
ATOM     37  C   UNL A   1      39.688  28.885  29.436  1.00  0.00     0.031 A 
ATOM     38  C   UNL A   1      40.478  29.735  30.390  1.00  0.00     0.074 A 
ATOM     39  C   UNL A   1      40.221  27.760  28.923  1.00  0.00     0.049 A 
ATOM     40  N   UNL A   1      41.693  29.556  30.844  1.00  0.00    -0.248 NA
ATOM     41  C   UNL A   1      39.827  30.959  30.885  1.00  0.00     0.031 C 
ATOM     42  C   UNL A   1      39.558  26.874  27.966  1.00  0.00     0.029 A 
ATOM     43  N   UNL A   1      41.439  27.167  29.137  1.00  0.00    -0.354 N 
ATOM     44  C   UNL A   1      41.946  30.638  31.676  1.00  0.00     0.074 A 
ATOM     45  C   UNL A   1      40.790  31.505  31.613  1.00  0.00     0.031 C 
ATOM     46  C   UNL A   1      40.362  25.831  27.704  1.00  0.00     0.029 A 
ATOM     47  C   UNL A   1      41.610  25.994  28.442  1.00  0.00     0.049 A 
ATOM     48  H   UNL A   1      42.126  27.545  29.733  1.00  0.00     0.167 HD
ATOM     49  C   UNL A   1      43.032  30.868  32.450  1.00  0.00     0.037 A 
ATOM     50  C   UNL A   1      42.657  25.147  28.408  1.00  0.00     0.037 A 
ATOM     51  C   UNL A   1      44.170  29.992  32.523  1.00  0.00     0.049 A 
ATOM     52  C   UNL A   1      43.871  25.451  29.246  1.00  0.00     0.074 A 
ATOM     53  C   UNL A   1      45.306  30.119  33.303  1.00  0.00     0.029 A 
ATOM     54  N   UNL A   1      44.317  28.825  31.787  1.00  0.00    -0.354 N 
ATOM     55  N   UNL A   1      44.078  26.449  30.070  1.00  0.00    -0.248 NA
ATOM     56  C   UNL A   1      44.996  24.510  29.149  1.00  0.00     0.031 C 
ATOM     57  C   UNL A   1      46.162  29.057  33.003  1.00  0.00     0.029 A 
ATOM     58  C   UNL A   1      45.537  28.236  32.077  1.00  0.00     0.049 A 
ATOM     59  H   UNL A   1      43.653  28.469  31.154  1.00  0.00     0.167 HD
ATOM     60  C   UNL A   1      45.341  26.245  30.608  1.00  0.00     0.074 A 
ATOM     61  C   UNL A   1      45.847  25.017  30.031  1.00  0.00     0.031 C 
ATOM     62  C   UNL A   1      46.022  27.009  31.498  1.00  0.00     0.037 A 
BRANCH  49  63
ATOM     63  C   UNL A   1      43.036  32.105  33.300  1.00  0.00     0.064 A 
ATOM     64  C   UNL A   1      42.527  32.095  34.608  1.00  0.00     0.173 A 
ATOM     65  C   UNL A   1      43.612  33.295  32.829  1.00  0.00     0.173 A 
ATOM     66  F   UNL A   1      41.954  30.987  35.101  1.00  0.00    -0.203 F 
ATOM     67  C   UNL A   1      42.580  33.235  35.407  1.00  0.00     0.198 A 
ATOM     68  C   UNL A   1      43.692  34.423  33.642  1.00  0.00     0.198 A 
ATOM     69  F   UNL A   1      44.115  33.358  31.588  1.00  0.00    -0.203 F 
ATOM     70  F   UNL A   1      42.054  33.212  36.638  1.00  0.00    -0.200 F 
ATOM     71  C   UNL A   1      43.173  34.393  34.928  1.00  0.00     0.200 A 
ATOM     72  F   UNL A   1      44.277  35.538  33.183  1.00  0.00    -0.200 F 
ATOM     73  F   UNL A   1      43.240  35.482  35.705  1.00  0.00    -0.200 F 
ENDBRANCH  49  63
BRANCH  50  74
ATOM     74  C   UNL A   1      42.585  23.915  27.580  1.00  0.00     0.064 A 
ATOM     75  C   UNL A   1      42.991  23.927  26.239  1.00  0.00     0.173 A 
ATOM     76  C   UNL A   1      42.127  22.700  28.111  1.00  0.00     0.173 A 
ATOM     77  F   UNL A   1      43.417  25.068  25.679  1.00  0.00    -0.203 F 
ATOM     78  C   UNL A   1      42.930  22.775  25.457  1.00  0.00     0.198 A 
ATOM     79  C   UNL A   1      42.095  21.541  27.337  1.00  0.00     0.198 A 
ATOM     80  F   UNL A   1      41.730  22.632  29.391  1.00  0.00    -0.203 F 
ATOM     81  F   UNL A   1      43.289  22.824  24.167  1.00  0.00    -0.200 F 
ATOM     82  C   UNL A   1      42.490  21.581  26.009  1.00  0.00     0.200 A 
ATOM     83  F   UNL A   1      41.685  20.387  27.879  1.00  0.00    -0.200 F 
ATOM     84  F   UNL A   1      42.445  20.472  25.260  1.00  0.00    -0.200 F 
ENDBRANCH  50  74
BRANCH  62  85
ATOM     85  C   UNL A   1      47.382  26.539  31.923  1.00  0.00     0.064 A 
ATOM     86  C   UNL A   1      47.549  25.668  33.009  1.00  0.00     0.173 A 
ATOM     87  C   UNL A   1      48.521  26.893  31.183  1.00  0.00     0.173 A 
ATOM     88  F   UNL A   1      46.494  25.309  33.755  1.00  0.00    -0.203 F 
ATOM     89  C   UNL A   1      48.808  25.179  33.347  1.00  0.00     0.198 A 
ATOM     90  C   UNL A   1      49.773  26.377  31.504  1.00  0.00     0.198 A 
ATOM     91  F   UNL A   1      48.414  27.716  30.129  1.00  0.00    -0.203 F 
ATOM     92  F   UNL A   1      48.948  24.375  34.409  1.00  0.00    -0.200 F 
ATOM     93  C   UNL A   1      49.916  25.524  32.587  1.00  0.00     0.200 A 
ATOM     94  F   UNL A   1      50.839  26.696  30.756  1.00  0.00    -0.200 F 
ATOM     95  F   UNL A   1      51.124  25.033  32.900  1.00  0.00    -0.200 F 
ENDBRANCH  62  85
ENDBRANCH  36  37
ENDBRANCH  28  31
ENDBRANCH  26  27
ENDBRANCH  25  26
ENDBRANCH   1  25
TORSDOF 14
ENDMDL
