MODEL 1
REMARK VINA RESULT:     -12.8      0.000      0.000
REMARK SMILES COc1c[nH]c(C[N@H+]2CCC[C@@H](c3ccc(C(=O)NCCCCCCNC(=O)c4ccc(-c5c6nc(c(-c7c(F)c(F)c(F)c(F)c7F)c7ccc([nH]7)c(-c7c(F)c(F)c(F)c(F)c7F)c7nc(c(-c8c(F)c(F)c(F)c(F)c8F)c8ccc5[nH]8)C=C7)C=C6)cc4)cc3)C2)cc1=O
REMARK SMILES IDX 21 1 20 2 19 3 17 4 18 5 16 7 13 8 14 9 93 10 15 11 92 12
REMARK SMILES IDX 12 13 8 14 9 15 94 16 10 18 11 19 7 20 6 21 3 22 4 23 96 24
REMARK SMILES IDX 5 25 95 26 97 27 2 29 1 30 22 31 23 32 24 33 25 34 26 35
REMARK SMILES IDX 27 36 28 38 29 39 30 40 91 41 31 42 90 43 32 44 33 45 34 46
REMARK SMILES IDX 84 47 35 48 89 49 83 50 85 51 36 52 88 53 82 54 81 55 37 57
REMARK SMILES IDX 69 58 49 59 68 60 50 61 53 62 67 63 86 64 51 65 52 66 66 68
REMARK SMILES IDX 87 69 54 70 38 71 39 72 47 73 40 74 41 75 45 76 48 77 42 78
REMARK SMILES IDX 43 79 46 80 44 81 70 82 71 83 79 84 72 85 73 86 77 87 80 88
REMARK SMILES IDX 74 89 75 90 78 91 76 92 55 93 56 94 64 95 57 96 58 97 62 98
REMARK SMILES IDX 65 99 59 100 60 101 63 102 61 103
REMARK H PARENT 19 6 8 17 5 28 26 37 85 56 53 67
REMARK Flexibility Score: inf
ROOT
ATOM      1  C   UNL A   1      31.798  32.015  26.869  1.00  0.00     0.021 C 
ENDROOT
BRANCH   1   2
ATOM      2  C   UNL A   1      31.726  30.507  26.627  1.00  0.00     0.116 C 
BRANCH   2   3
ATOM      3  N   UNL A   1      31.400  30.258  25.240  1.00  0.00    -0.352 N 
ATOM      4  C   UNL A   1      31.534  29.145  24.456  1.00  0.00     0.251 C 
ATOM      5  O   UNL A   1      31.221  29.240  23.270  1.00  0.00    -0.269 OA
ATOM      6  H   UNL A   1      31.008  31.032  24.774  1.00  0.00     0.163 HD
BRANCH   4   7
ATOM      7  C   UNL A   1      31.958  27.823  24.994  1.00  0.00     0.039 A 
ATOM      8  C   UNL A   1      32.965  25.302  25.781  1.00  0.00    -0.039 A 
ATOM      9  C   UNL A   1      33.833  26.345  25.421  1.00  0.00     0.005 A 
ATOM     10  C   UNL A   1      31.594  25.569  25.835  1.00  0.00     0.005 A 
ATOM     11  C   UNL A   1      33.335  27.582  25.013  1.00  0.00     0.014 A 
ATOM     12  C   UNL A   1      31.101  26.830  25.477  1.00  0.00     0.014 A 
BRANCH   8  13
ATOM     13  C   UNL A   1      33.488  23.911  26.109  1.00  0.00     0.074 C 
ATOM     14  N   UNL A   1      33.195  21.463  25.476  1.00  0.00    -0.329 N 
ATOM     15  C   UNL A   1      34.622  21.395  25.128  1.00  0.00     0.262 C 
ATOM     16  C   UNL A   1      32.678  22.832  25.355  1.00  0.00     0.270 C 
ATOM     17  H   UNL A   1      33.106  21.198  26.458  1.00  0.00     0.348 HD
ATOM     18  C   UNL A   1      35.460  22.366  25.963  1.00  0.00     0.062 C 
ATOM     19  C   UNL A   1      34.980  23.802  25.782  1.00  0.00     0.020 C 
BRANCH  14  20
ATOM     20  C   UNL A   1      32.390  20.488  24.698  1.00  0.00     0.317 C 
BRANCH  20  21
ATOM     21  C   UNL A   1      32.880  19.040  24.711  1.00  0.00     0.074 A 
ATOM     22  C   UNL A   1      33.326  16.225  24.899  1.00  0.00     0.182 A 
ATOM     23  C   UNL A   1      32.987  16.979  25.953  1.00  0.00     0.133 A 
ATOM     24  C   UNL A   1      33.599  16.967  23.616  1.00  0.00     0.223 A 
ATOM     25  N   UNL A   1      32.857  18.340  25.905  1.00  0.00    -0.357 N 
ATOM     26  C   UNL A   1      33.288  18.427  23.584  1.00  0.00     0.083 A 
ATOM     27  O   UNL A   1      34.025  16.422  22.601  1.00  0.00    -0.286 OA
ATOM     28  H   UNL A   1      32.742  18.837  26.747  1.00  0.00     0.166 HD
BRANCH  22  29
ATOM     29  O   UNL A   1      33.317  14.846  24.996  1.00  0.00    -0.491 OA
ATOM     30  C   UNL A   1      32.275  14.341  25.820  1.00  0.00     0.278 C 
ENDBRANCH  22  29
ENDBRANCH  20  21
ENDBRANCH  14  20
ENDBRANCH   8  13
ENDBRANCH   4   7
ENDBRANCH   2   3
ENDBRANCH   1   2
BRANCH   1  31
ATOM     31  C   UNL A   1      33.037  32.427  27.675  1.00  0.00     0.002 C 
BRANCH  31  32
ATOM     32  C   UNL A   1      33.096  33.919  28.025  1.00  0.00     0.002 C 
BRANCH  32  33
ATOM     33  C   UNL A   1      33.717  34.223  29.390  1.00  0.00     0.021 C 
BRANCH  33  34
ATOM     34  C   UNL A   1      34.453  33.037  29.999  1.00  0.00     0.116 C 
BRANCH  34  35
ATOM     35  N   UNL A   1      34.675  33.228  31.426  1.00  0.00    -0.352 N 
ATOM     36  C   UNL A   1      35.669  32.702  32.215  1.00  0.00     0.251 C 
ATOM     37  H   UNL A   1      34.028  33.811  31.885  1.00  0.00     0.163 HD
ATOM     38  O   UNL A   1      35.600  32.743  33.433  1.00  0.00    -0.269 OA
BRANCH  36  39
ATOM     39  C   UNL A   1      36.829  32.072  31.555  1.00  0.00     0.039 A 
ATOM     40  C   UNL A   1      37.299  32.590  30.347  1.00  0.00     0.014 A 
ATOM     41  C   UNL A   1      37.466  30.986  32.163  1.00  0.00     0.014 A 
ATOM     42  C   UNL A   1      38.457  32.058  29.776  1.00  0.00     0.010 A 
ATOM     43  C   UNL A   1      38.655  30.508  31.633  1.00  0.00     0.010 A 
ATOM     44  C   UNL A   1      39.161  31.036  30.434  1.00  0.00    -0.014 A 
BRANCH  44  45
ATOM     45  C   UNL A   1      40.421  30.473  29.894  1.00  0.00     0.031 A 
ATOM     46  C   UNL A   1      41.608  31.376  29.712  1.00  0.00     0.074 A 
ATOM     47  C   UNL A   1      40.463  29.196  29.468  1.00  0.00     0.049 A 
ATOM     48  N   UNL A   1      42.735  31.149  29.088  1.00  0.00    -0.248 NA
ATOM     49  C   UNL A   1      41.495  32.730  30.279  1.00  0.00     0.031 C 
ATOM     50  C   UNL A   1      39.367  28.233  29.573  1.00  0.00     0.029 A 
ATOM     51  N   UNL A   1      41.461  28.498  28.835  1.00  0.00    -0.354 N 
ATOM     52  C   UNL A   1      43.451  32.337  29.165  1.00  0.00     0.074 A 
ATOM     53  C   UNL A   1      42.614  33.295  29.851  1.00  0.00     0.031 C 
ATOM     54  C   UNL A   1      39.753  27.068  29.028  1.00  0.00     0.029 A 
ATOM     55  C   UNL A   1      41.102  27.218  28.489  1.00  0.00     0.049 A 
ATOM     56  H   UNL A   1      42.349  28.879  28.647  1.00  0.00     0.167 HD
ATOM     57  C   UNL A   1      44.701  32.597  28.716  1.00  0.00     0.037 A 
ATOM     58  C   UNL A   1      41.777  26.283  27.792  1.00  0.00     0.037 A 
ATOM     59  C   UNL A   1      45.535  31.627  28.057  1.00  0.00     0.049 A 
ATOM     60  C   UNL A   1      43.156  26.605  27.279  1.00  0.00     0.074 A 
ATOM     61  C   UNL A   1      46.835  31.772  27.608  1.00  0.00     0.029 A 
ATOM     62  N   UNL A   1      45.146  30.330  27.752  1.00  0.00    -0.354 N 
ATOM     63  N   UNL A   1      43.844  27.715  27.396  1.00  0.00    -0.248 NA
ATOM     64  C   UNL A   1      43.854  25.545  26.537  1.00  0.00     0.031 C 
ATOM     65  C   UNL A   1      47.215  30.581  26.984  1.00  0.00     0.029 A 
ATOM     66  C   UNL A   1      46.176  29.672  27.101  1.00  0.00     0.049 A 
ATOM     67  H   UNL A   1      44.269  29.938  27.966  1.00  0.00     0.167 HD
ATOM     68  C   UNL A   1      45.067  27.474  26.785  1.00  0.00     0.074 A 
ATOM     69  C   UNL A   1      45.027  26.113  26.293  1.00  0.00     0.031 C 
ATOM     70  C   UNL A   1      46.129  28.305  26.649  1.00  0.00     0.037 A 
BRANCH  57  71
ATOM     71  C   UNL A   1      45.240  33.983  28.917  1.00  0.00     0.064 A 
ATOM     72  C   UNL A   1      45.999  34.324  30.048  1.00  0.00     0.173 A 
ATOM     73  C   UNL A   1      45.027  34.976  27.948  1.00  0.00     0.173 A 
ATOM     74  F   UNL A   1      46.222  33.415  31.009  1.00  0.00    -0.203 F 
ATOM     75  C   UNL A   1      46.495  35.613  30.216  1.00  0.00     0.198 A 
ATOM     76  C   UNL A   1      45.555  36.254  28.104  1.00  0.00     0.198 A 
ATOM     77  F   UNL A   1      44.315  34.703  26.846  1.00  0.00    -0.203 F 
ATOM     78  F   UNL A   1      47.170  35.929  31.331  1.00  0.00    -0.200 F 
ATOM     79  C   UNL A   1      46.280  36.575  29.242  1.00  0.00     0.200 A 
ATOM     80  F   UNL A   1      45.359  37.178  27.152  1.00  0.00    -0.200 F 
ATOM     81  F   UNL A   1      46.767  37.813  29.401  1.00  0.00    -0.200 F 
ENDBRANCH  57  71
BRANCH  58  82
ATOM     82  C   UNL A   1      41.163  24.951  27.547  1.00  0.00     0.064 A 
ATOM     83  C   UNL A   1      40.120  24.800  26.622  1.00  0.00     0.173 A 
ATOM     84  C   UNL A   1      41.598  23.806  28.230  1.00  0.00     0.173 A 
ATOM     85  F   UNL A   1      39.656  25.868  25.957  1.00  0.00    -0.203 F 
ATOM     86  C   UNL A   1      39.520  23.562  26.407  1.00  0.00     0.198 A 
ATOM     87  C   UNL A   1      41.018  22.561  27.992  1.00  0.00     0.198 A 
ATOM     88  F   UNL A   1      42.597  23.892  29.120  1.00  0.00    -0.203 F 
ATOM     89  F   UNL A   1      38.493  23.456  25.553  1.00  0.00    -0.200 F 
ATOM     90  C   UNL A   1      39.974  22.441  27.088  1.00  0.00     0.200 A 
ATOM     91  F   UNL A   1      41.470  21.479  28.639  1.00  0.00    -0.200 F 
ATOM     92  F   UNL A   1      39.398  21.249  26.878  1.00  0.00    -0.200 F 
ENDBRANCH  58  82
BRANCH  70  93
ATOM     93  C   UNL A   1      47.369  27.756  26.008  1.00  0.00     0.064 A 
ATOM     94  C   UNL A   1      48.364  27.108  26.751  1.00  0.00     0.173 A 
ATOM     95  C   UNL A   1      47.511  27.798  24.610  1.00  0.00     0.173 A 
ATOM     96  F   UNL A   1      48.280  27.054  28.089  1.00  0.00    -0.203 F 
ATOM     97  C   UNL A   1      49.462  26.527  26.120  1.00  0.00     0.198 A 
ATOM     98  C   UNL A   1      48.594  27.191  23.983  1.00  0.00     0.198 A 
ATOM     99  F   UNL A   1      46.582  28.402  23.855  1.00  0.00    -0.203 F 
ATOM    100  F   UNL A   1      50.417  25.936  26.852  1.00  0.00    -0.200 F 
ATOM    101  C   UNL A   1      49.569  26.559  24.737  1.00  0.00     0.200 A 
ATOM    102  F   UNL A   1      48.686  27.209  22.646  1.00  0.00    -0.200 F 
ATOM    103  F   UNL A   1      50.613  25.977  24.132  1.00  0.00    -0.200 F 
ENDBRANCH  70  93
ENDBRANCH  44  45
ENDBRANCH  36  39
ENDBRANCH  34  35
ENDBRANCH  33  34
ENDBRANCH  32  33
ENDBRANCH  31  32
ENDBRANCH   1  31
TORSDOF 17
ENDMDL
MODEL 2
REMARK VINA RESULT:     -12.6      5.915     11.319
REMARK SMILES COc1c[nH]c(C[N@H+]2CCC[C@@H](c3ccc(C(=O)NCCCCCCNC(=O)c4ccc(-c5c6nc(c(-c7c(F)c(F)c(F)c(F)c7F)c7ccc([nH]7)c(-c7c(F)c(F)c(F)c(F)c7F)c7nc(c(-c8c(F)c(F)c(F)c(F)c8F)c8ccc5[nH]8)C=C7)C=C6)cc4)cc3)C2)cc1=O
REMARK SMILES IDX 21 1 20 2 19 3 17 4 18 5 16 7 13 8 14 9 93 10 15 11 92 12
REMARK SMILES IDX 12 13 8 14 9 15 94 16 10 18 11 19 7 20 6 21 3 22 4 23 96 24
REMARK SMILES IDX 5 25 95 26 97 27 2 29 1 30 22 31 23 32 24 33 25 34 26 35
REMARK SMILES IDX 27 36 28 38 29 39 30 40 91 41 31 42 90 43 32 44 33 45 34 46
REMARK SMILES IDX 84 47 35 48 89 49 83 50 85 51 36 52 88 53 82 54 81 55 37 57
REMARK SMILES IDX 69 58 49 59 68 60 50 61 53 62 67 63 86 64 51 65 52 66 66 68
REMARK SMILES IDX 87 69 54 70 38 71 39 72 47 73 40 74 41 75 45 76 48 77 42 78
REMARK SMILES IDX 43 79 46 80 44 81 70 82 71 83 79 84 72 85 73 86 77 87 80 88
REMARK SMILES IDX 74 89 75 90 78 91 76 92 55 93 56 94 64 95 57 96 58 97 62 98
REMARK SMILES IDX 65 99 59 100 60 101 63 102 61 103
REMARK H PARENT 19 6 8 17 5 28 26 37 85 56 53 67
REMARK Flexibility Score: inf
ROOT
ATOM      1  C   UNL A   1      42.604  23.622  28.313  1.00  0.00     0.021 C 
ENDROOT
BRANCH   1   2
ATOM      2  C   UNL A   1      41.188  24.083  27.967  1.00  0.00     0.116 C 
BRANCH   2   3
ATOM      3  N   UNL A   1      41.229  24.917  26.786  1.00  0.00    -0.352 N 
ATOM      4  C   UNL A   1      40.932  26.239  26.592  1.00  0.00     0.251 C 
ATOM      5  O   UNL A   1      41.004  26.677  25.444  1.00  0.00    -0.269 OA
ATOM      6  H   UNL A   1      41.525  24.448  25.973  1.00  0.00     0.163 HD
BRANCH   4   7
ATOM      7  C   UNL A   1      40.615  27.170  27.710  1.00  0.00     0.039 A 
ATOM      8  C   UNL A   1      40.250  29.109  29.733  1.00  0.00    -0.039 A 
ATOM      9  C   UNL A   1      40.471  29.490  28.400  1.00  0.00     0.005 A 
ATOM     10  C   UNL A   1      40.117  27.747  30.020  1.00  0.00     0.005 A 
ATOM     11  C   UNL A   1      40.672  28.533  27.406  1.00  0.00     0.014 A 
ATOM     12  C   UNL A   1      40.265  26.790  29.008  1.00  0.00     0.014 A 
BRANCH   8  13
ATOM     13  C   UNL A   1      40.153  30.140  30.848  1.00  0.00     0.074 C 
ATOM     14  N   UNL A   1      39.312  32.494  31.328  1.00  0.00    -0.329 N 
ATOM     15  C   UNL A   1      38.461  31.957  32.401  1.00  0.00     0.262 C 
ATOM     16  C   UNL A   1      39.594  31.476  30.308  1.00  0.00     0.270 C 
ATOM     17  H   UNL A   1      40.206  32.751  31.746  1.00  0.00     0.348 HD
ATOM     18  C   UNL A   1      39.068  30.706  33.039  1.00  0.00     0.062 C 
ATOM     19  C   UNL A   1      39.291  29.613  32.000  1.00  0.00     0.020 C 
BRANCH  14  20
ATOM     20  C   UNL A   1      38.744  33.734  30.741  1.00  0.00     0.317 C 
BRANCH  20  21
ATOM     21  C   UNL A   1      37.265  33.686  30.356  1.00  0.00     0.074 A 
ATOM     22  C   UNL A   1      34.512  34.102  29.716  1.00  0.00     0.182 A 
ATOM     23  C   UNL A   1      35.031  34.391  30.916  1.00  0.00     0.133 A 
ATOM     24  C   UNL A   1      35.435  33.407  28.747  1.00  0.00     0.223 A 
ATOM     25  N   UNL A   1      36.323  34.118  31.274  1.00  0.00    -0.357 N 
ATOM     26  C   UNL A   1      36.871  33.279  29.135  1.00  0.00     0.083 A 
ATOM     27  O   UNL A   1      35.068  32.982  27.655  1.00  0.00    -0.286 OA
ATOM     28  H   UNL A   1      36.591  34.233  32.214  1.00  0.00     0.166 HD
BRANCH  22  29
ATOM     29  O   UNL A   1      33.237  34.520  29.389  1.00  0.00    -0.491 OA
ATOM     30  C   UNL A   1      32.912  35.807  29.896  1.00  0.00     0.278 C 
ENDBRANCH  22  29
ENDBRANCH  20  21
ENDBRANCH  14  20
ENDBRANCH   8  13
ENDBRANCH   4   7
ENDBRANCH   2   3
ENDBRANCH   1   2
BRANCH   1  31
ATOM     31  C   UNL A   1      43.674  24.650  27.924  1.00  0.00     0.002 C 
BRANCH  31  32
ATOM     32  C   UNL A   1      45.098  24.274  28.352  1.00  0.00     0.002 C 
BRANCH  32  33
ATOM     33  C   UNL A   1      46.042  23.949  27.193  1.00  0.00     0.021 C 
BRANCH  33  34
ATOM     34  C   UNL A   1      45.429  24.204  25.822  1.00  0.00     0.116 C 
BRANCH  34  35
ATOM     35  N   UNL A   1      46.356  24.913  24.952  1.00  0.00    -0.352 N 
ATOM     36  C   UNL A   1      46.529  26.269  24.809  1.00  0.00     0.251 C 
ATOM     37  H   UNL A   1      46.935  24.347  24.392  1.00  0.00     0.163 HD
ATOM     38  O   UNL A   1      47.163  26.732  23.874  1.00  0.00    -0.269 OA
BRANCH  36  39
ATOM     39  C   UNL A   1      45.919  27.163  25.813  1.00  0.00     0.039 A 
ATOM     40  C   UNL A   1      44.565  27.489  25.713  1.00  0.00     0.014 A 
ATOM     41  C   UNL A   1      46.694  27.644  26.873  1.00  0.00     0.014 A 
ATOM     42  C   UNL A   1      43.967  28.250  26.718  1.00  0.00     0.010 A 
ATOM     43  C   UNL A   1      46.081  28.337  27.906  1.00  0.00     0.010 A 
ATOM     44  C   UNL A   1      44.714  28.650  27.838  1.00  0.00    -0.014 A 
BRANCH  44  45
ATOM     45  C   UNL A   1      44.112  29.416  28.956  1.00  0.00     0.031 A 
ATOM     46  C   UNL A   1      43.965  30.906  28.827  1.00  0.00     0.074 A 
ATOM     47  C   UNL A   1      43.809  28.798  30.112  1.00  0.00     0.049 A 
ATOM     48  N   UNL A   1      43.648  31.790  29.737  1.00  0.00    -0.248 NA
ATOM     49  C   UNL A   1      44.246  31.480  27.500  1.00  0.00     0.031 C 
ATOM     50  C   UNL A   1      43.930  27.362  30.361  1.00  0.00     0.029 A 
ATOM     51  N   UNL A   1      43.361  29.306  31.306  1.00  0.00    -0.354 N 
ATOM     52  C   UNL A   1      43.719  33.023  29.101  1.00  0.00     0.074 A 
ATOM     53  C   UNL A   1      44.155  32.779  27.744  1.00  0.00     0.031 C 
ATOM     54  C   UNL A   1      43.561  27.103  31.627  1.00  0.00     0.029 A 
ATOM     55  C   UNL A   1      43.229  28.359  32.292  1.00  0.00     0.049 A 
ATOM     56  H   UNL A   1      43.153  30.259  31.442  1.00  0.00     0.167 HD
ATOM     57  C   UNL A   1      43.429  34.247  29.603  1.00  0.00     0.037 A 
ATOM     58  C   UNL A   1      42.903  28.496  33.592  1.00  0.00     0.037 A 
ATOM     59  C   UNL A   1      42.972  34.475  30.947  1.00  0.00     0.049 A 
ATOM     60  C   UNL A   1      42.612  29.871  34.135  1.00  0.00     0.074 A 
ATOM     61  C   UNL A   1      42.602  35.668  31.541  1.00  0.00     0.029 A 
ATOM     62  N   UNL A   1      42.821  33.484  31.908  1.00  0.00    -0.354 N 
ATOM     63  N   UNL A   1      42.637  31.026  33.515  1.00  0.00    -0.248 NA
ATOM     64  C   UNL A   1      42.248  29.962  35.556  1.00  0.00     0.031 C 
ATOM     65  C   UNL A   1      42.280  35.409  32.876  1.00  0.00     0.029 A 
ATOM     66  C   UNL A   1      42.385  34.045  33.097  1.00  0.00     0.049 A 
ATOM     67  H   UNL A   1      42.999  32.527  31.765  1.00  0.00     0.167 HD
ATOM     68  C   UNL A   1      42.250  31.972  34.455  1.00  0.00     0.074 A 
ATOM     69  C   UNL A   1      42.000  31.258  35.689  1.00  0.00     0.031 C 
ATOM     70  C   UNL A   1      42.109  33.312  34.305  1.00  0.00     0.037 A 
BRANCH  57  71
ATOM     71  C   UNL A   1      43.605  35.431  28.698  1.00  0.00     0.064 A 
ATOM     72  C   UNL A   1      42.522  36.007  28.016  1.00  0.00     0.173 A 
ATOM     73  C   UNL A   1      44.868  36.022  28.538  1.00  0.00     0.173 A 
ATOM     74  F   UNL A   1      41.295  35.473  28.126  1.00  0.00    -0.203 F 
ATOM     75  C   UNL A   1      42.702  37.108  27.184  1.00  0.00     0.198 A 
ATOM     76  C   UNL A   1      45.038  37.144  27.732  1.00  0.00     0.198 A 
ATOM     77  F   UNL A   1      45.937  35.516  29.171  1.00  0.00    -0.203 F 
ATOM     78  F   UNL A   1      41.662  37.606  26.501  1.00  0.00    -0.200 F 
ATOM     79  C   UNL A   1      43.957  37.681  27.049  1.00  0.00     0.200 A 
ATOM     80  F   UNL A   1      46.249  37.706  27.616  1.00  0.00    -0.200 F 
ATOM     81  F   UNL A   1      44.127  38.747  26.255  1.00  0.00    -0.200 F 
ENDBRANCH  57  71
BRANCH  58  82
ATOM     82  C   UNL A   1      42.825  27.298  34.469  1.00  0.00     0.064 A 
ATOM     83  C   UNL A   1      43.966  26.807  35.119  1.00  0.00     0.173 A 
ATOM     84  C   UNL A   1      41.616  26.615  34.673  1.00  0.00     0.173 A 
ATOM     85  F   UNL A   1      45.149  27.414  34.942  1.00  0.00    -0.203 F 
ATOM     86  C   UNL A   1      43.908  25.669  35.920  1.00  0.00     0.198 A 
ATOM     87  C   UNL A   1      41.552  25.494  35.498  1.00  0.00     0.198 A 
ATOM     88  F   UNL A   1      40.493  27.045  34.081  1.00  0.00    -0.203 F 
ATOM     89  F   UNL A   1      45.024  25.194  36.490  1.00  0.00    -0.200 F 
ATOM     90  C   UNL A   1      42.699  25.016  36.114  1.00  0.00     0.200 A 
ATOM     91  F   UNL A   1      40.380  24.876  35.696  1.00  0.00    -0.200 F 
ATOM     92  F   UNL A   1      42.643  23.923  36.886  1.00  0.00    -0.200 F 
ENDBRANCH  58  82
BRANCH  70  93
ATOM     93  C   UNL A   1      41.596  34.096  35.477  1.00  0.00     0.064 A 
ATOM     94  C   UNL A   1      40.234  34.133  35.805  1.00  0.00     0.173 A 
ATOM     95  C   UNL A   1      42.500  34.741  36.337  1.00  0.00     0.173 A 
ATOM     96  F   UNL A   1      39.331  33.544  35.007  1.00  0.00    -0.203 F 
ATOM     97  C   UNL A   1      39.794  34.794  36.949  1.00  0.00     0.198 A 
ATOM     98  C   UNL A   1      42.058  35.374  37.495  1.00  0.00     0.198 A 
ATOM     99  F   UNL A   1      43.813  34.728  36.069  1.00  0.00    -0.203 F 
ATOM    100  F   UNL A   1      38.484  34.841  37.230  1.00  0.00    -0.200 F 
ATOM    101  C   UNL A   1      40.707  35.403  37.799  1.00  0.00     0.200 A 
ATOM    102  F   UNL A   1      42.944  35.946  38.322  1.00  0.00    -0.200 F 
ATOM    103  F   UNL A   1      40.282  36.015  38.912  1.00  0.00    -0.200 F 
ENDBRANCH  70  93
ENDBRANCH  44  45
ENDBRANCH  36  39
ENDBRANCH  34  35
ENDBRANCH  33  34
ENDBRANCH  32  33
ENDBRANCH  31  32
ENDBRANCH   1  31
TORSDOF 17
ENDMDL
MODEL 3
REMARK VINA RESULT:     -12.6      5.375      9.648
REMARK SMILES COc1c[nH]c(C[N@H+]2CCC[C@@H](c3ccc(C(=O)NCCCCCCNC(=O)c4ccc(-c5c6nc(c(-c7c(F)c(F)c(F)c(F)c7F)c7ccc([nH]7)c(-c7c(F)c(F)c(F)c(F)c7F)c7nc(c(-c8c(F)c(F)c(F)c(F)c8F)c8ccc5[nH]8)C=C7)C=C6)cc4)cc3)C2)cc1=O
REMARK SMILES IDX 21 1 20 2 19 3 17 4 18 5 16 7 13 8 14 9 93 10 15 11 92 12
REMARK SMILES IDX 12 13 8 14 9 15 94 16 10 18 11 19 7 20 6 21 3 22 4 23 96 24
REMARK SMILES IDX 5 25 95 26 97 27 2 29 1 30 22 31 23 32 24 33 25 34 26 35
REMARK SMILES IDX 27 36 28 38 29 39 30 40 91 41 31 42 90 43 32 44 33 45 34 46
REMARK SMILES IDX 84 47 35 48 89 49 83 50 85 51 36 52 88 53 82 54 81 55 37 57
REMARK SMILES IDX 69 58 49 59 68 60 50 61 53 62 67 63 86 64 51 65 52 66 66 68
REMARK SMILES IDX 87 69 54 70 38 71 39 72 47 73 40 74 41 75 45 76 48 77 42 78
REMARK SMILES IDX 43 79 46 80 44 81 70 82 71 83 79 84 72 85 73 86 77 87 80 88
REMARK SMILES IDX 74 89 75 90 78 91 76 92 55 93 56 94 64 95 57 96 58 97 62 98
REMARK SMILES IDX 65 99 59 100 60 101 63 102 61 103
REMARK H PARENT 19 6 8 17 5 28 26 37 85 56 53 67
REMARK Flexibility Score: inf
ROOT
ATOM      1  C   UNL A   1      33.417  36.601  28.766  1.00  0.00     0.021 C 
ENDROOT
BRANCH   1   2
ATOM      2  C   UNL A   1      32.603  35.698  29.693  1.00  0.00     0.116 C 
BRANCH   2   3
ATOM      3  N   UNL A   1      32.321  36.403  30.924  1.00  0.00    -0.352 N 
ATOM      4  C   UNL A   1      32.770  36.220  32.203  1.00  0.00     0.251 C 
ATOM      5  O   UNL A   1      32.307  36.949  33.081  1.00  0.00    -0.269 OA
ATOM      6  H   UNL A   1      31.691  37.153  30.823  1.00  0.00     0.163 HD
BRANCH   4   7
ATOM      7  C   UNL A   1      33.842  35.248  32.554  1.00  0.00     0.039 A 
ATOM      8  C   UNL A   1      36.047  33.538  33.002  1.00  0.00    -0.039 A 
ATOM      9  C   UNL A   1      36.224  34.924  32.869  1.00  0.00     0.005 A 
ATOM     10  C   UNL A   1      34.743  33.034  33.005  1.00  0.00     0.005 A 
ATOM     11  C   UNL A   1      35.138  35.764  32.628  1.00  0.00     0.014 A 
ATOM     12  C   UNL A   1      33.650  33.888  32.816  1.00  0.00     0.014 A 
BRANCH   8  13
ATOM     13  C   UNL A   1      37.233  32.595  33.142  1.00  0.00     0.074 C 
ATOM     14  N   UNL A   1      39.066  31.916  34.772  1.00  0.00    -0.329 N 
ATOM     15  C   UNL A   1      38.582  30.528  34.719  1.00  0.00     0.262 C 
ATOM     16  C   UNL A   1      37.995  32.870  34.458  1.00  0.00     0.270 C 
ATOM     17  H   UNL A   1      39.778  32.020  34.048  1.00  0.00     0.348 HD
ATOM     18  C   UNL A   1      37.942  30.199  33.368  1.00  0.00     0.062 C 
ATOM     19  C   UNL A   1      36.777  31.135  33.070  1.00  0.00     0.020 C 
BRANCH  14  20
ATOM     20  C   UNL A   1      39.728  32.220  36.066  1.00  0.00     0.317 C 
BRANCH  20  21
ATOM     21  C   UNL A   1      39.610  33.660  36.566  1.00  0.00     0.074 A 
ATOM     22  C   UNL A   1      39.650  36.183  37.906  1.00  0.00     0.182 A 
ATOM     23  C   UNL A   1      39.087  35.089  38.433  1.00  0.00     0.133 A 
ATOM     24  C   UNL A   1      40.150  36.051  36.489  1.00  0.00     0.223 A 
ATOM     25  N   UNL A   1      38.975  33.896  37.774  1.00  0.00    -0.357 N 
ATOM     26  C   UNL A   1      40.145  34.688  35.881  1.00  0.00     0.083 A 
ATOM     27  O   UNL A   1      40.587  36.997  35.839  1.00  0.00    -0.286 OA
ATOM     28  H   UNL A   1      38.428  33.181  38.172  1.00  0.00     0.166 HD
BRANCH  22  29
ATOM     29  O   UNL A   1      39.836  37.314  38.677  1.00  0.00    -0.491 OA
ATOM     30  C   UNL A   1      38.979  37.377  39.810  1.00  0.00     0.278 C 
ENDBRANCH  22  29
ENDBRANCH  20  21
ENDBRANCH  14  20
ENDBRANCH   8  13
ENDBRANCH   4   7
ENDBRANCH   2   3
ENDBRANCH   1   2
BRANCH   1  31
ATOM     31  C   UNL A   1      34.599  35.871  28.114  1.00  0.00     0.002 C 
BRANCH  31  32
ATOM     32  C   UNL A   1      35.410  34.995  29.076  1.00  0.00     0.002 C 
BRANCH  32  33
ATOM     33  C   UNL A   1      35.614  33.555  28.601  1.00  0.00     0.021 C 
BRANCH  33  34
ATOM     34  C   UNL A   1      34.911  32.523  29.472  1.00  0.00     0.116 C 
BRANCH  34  35
ATOM     35  N   UNL A   1      34.137  31.588  28.667  1.00  0.00    -0.352 N 
ATOM     36  C   UNL A   1      34.575  30.472  27.995  1.00  0.00     0.251 C 
ATOM     37  H   UNL A   1      33.174  31.780  28.595  1.00  0.00     0.163 HD
ATOM     38  O   UNL A   1      33.874  29.918  27.163  1.00  0.00    -0.269 OA
BRANCH  36  39
ATOM     39  C   UNL A   1      35.926  29.959  28.293  1.00  0.00     0.039 A 
ATOM     40  C   UNL A   1      36.947  30.120  27.355  1.00  0.00     0.014 A 
ATOM     41  C   UNL A   1      36.177  29.349  29.526  1.00  0.00     0.014 A 
ATOM     42  C   UNL A   1      38.246  29.725  27.680  1.00  0.00     0.010 A 
ATOM     43  C   UNL A   1      37.481  29.026  29.874  1.00  0.00     0.010 A 
ATOM     44  C   UNL A   1      38.526  29.207  28.955  1.00  0.00    -0.014 A 
BRANCH  44  45
ATOM     45  C   UNL A   1      39.898  28.821  29.365  1.00  0.00     0.031 A 
ATOM     46  C   UNL A   1      40.721  29.787  30.168  1.00  0.00     0.074 A 
ATOM     47  C   UNL A   1      40.434  27.667  28.925  1.00  0.00     0.049 A 
ATOM     48  N   UNL A   1      41.993  29.743  30.470  1.00  0.00    -0.248 NA
ATOM     49  C   UNL A   1      40.024  30.983  30.670  1.00  0.00     0.031 C 
ATOM     50  C   UNL A   1      39.739  26.662  28.122  1.00  0.00     0.029 A 
ATOM     51  N   UNL A   1      41.702  27.159  29.070  1.00  0.00    -0.354 N 
ATOM     52  C   UNL A   1      42.253  30.913  31.170  1.00  0.00     0.074 A 
ATOM     53  C   UNL A   1      41.021  31.670  31.207  1.00  0.00     0.031 C 
ATOM     54  C   UNL A   1      40.586  25.656  27.849  1.00  0.00     0.029 A 
ATOM     55  C   UNL A   1      41.896  25.970  28.412  1.00  0.00     0.049 A 
ATOM     56  H   UNL A   1      42.404  27.606  29.598  1.00  0.00     0.167 HD
ATOM     57  C   UNL A   1      43.412  31.310  31.745  1.00  0.00     0.037 A 
ATOM     58  C   UNL A   1      43.013  25.232  28.259  1.00  0.00     0.037 A 
ATOM     59  C   UNL A   1      44.625  30.537  31.724  1.00  0.00     0.049 A 
ATOM     60  C   UNL A   1      44.298  25.708  28.884  1.00  0.00     0.074 A 
ATOM     61  C   UNL A   1      45.841  30.824  32.317  1.00  0.00     0.029 A 
ATOM     62  N   UNL A   1      44.773  29.321  31.071  1.00  0.00    -0.354 N 
ATOM     63  N   UNL A   1      44.524  26.794  29.584  1.00  0.00    -0.248 NA
ATOM     64  C   UNL A   1      45.483  24.859  28.699  1.00  0.00     0.031 C 
ATOM     65  C   UNL A   1      46.740  29.809  31.980  1.00  0.00     0.029 A 
ATOM     66  C   UNL A   1      46.068  28.857  31.231  1.00  0.00     0.049 A 
ATOM     67  H   UNL A   1      44.063  28.859  30.570  1.00  0.00     0.167 HD
ATOM     68  C   UNL A   1      45.859  26.736  29.959  1.00  0.00     0.074 A 
ATOM     69  C   UNL A   1      46.396  25.511  29.405  1.00  0.00     0.031 C 
ATOM     70  C   UNL A   1      46.574  27.617  30.700  1.00  0.00     0.037 A 
BRANCH  57  71
ATOM     71  C   UNL A   1      43.427  32.642  32.438  1.00  0.00     0.064 A 
ATOM     72  C   UNL A   1      43.530  33.845  31.723  1.00  0.00     0.173 A 
ATOM     73  C   UNL A   1      43.298  32.719  33.833  1.00  0.00     0.173 A 
ATOM     74  F   UNL A   1      43.666  33.827  30.388  1.00  0.00    -0.203 F 
ATOM     75  C   UNL A   1      43.537  35.072  32.381  1.00  0.00     0.198 A 
ATOM     76  C   UNL A   1      43.271  33.949  34.484  1.00  0.00     0.198 A 
ATOM     77  F   UNL A   1      43.190  31.600  34.565  1.00  0.00    -0.203 F 
ATOM     78  F   UNL A   1      43.692  36.204  31.680  1.00  0.00    -0.200 F 
ATOM     79  C   UNL A   1      43.400  35.124  33.759  1.00  0.00     0.200 A 
ATOM     80  F   UNL A   1      43.121  33.997  35.815  1.00  0.00    -0.200 F 
ATOM     81  F   UNL A   1      43.397  36.306  34.390  1.00  0.00    -0.200 F 
ENDBRANCH  57  71
BRANCH  58  82
ATOM     82  C   UNL A   1      42.964  23.960  27.490  1.00  0.00     0.064 A 
ATOM     83  C   UNL A   1      43.320  23.926  26.134  1.00  0.00     0.173 A 
ATOM     84  C   UNL A   1      42.559  22.757  28.086  1.00  0.00     0.173 A 
ATOM     85  F   UNL A   1      43.698  25.054  25.513  1.00  0.00    -0.203 F 
ATOM     86  C   UNL A   1      43.251  22.746  25.398  1.00  0.00     0.198 A 
ATOM     87  C   UNL A   1      42.518  21.570  27.357  1.00  0.00     0.198 A 
ATOM     88  F   UNL A   1      42.214  22.731  29.381  1.00  0.00    -0.203 F 
ATOM     89  F   UNL A   1      43.550  22.753  24.092  1.00  0.00    -0.200 F 
ATOM     90  C   UNL A   1      42.856  21.566  26.012  1.00  0.00     0.200 A 
ATOM     91  F   UNL A   1      42.152  20.430  27.958  1.00  0.00    -0.200 F 
ATOM     92  F   UNL A   1      42.791  20.430  25.305  1.00  0.00    -0.200 F 
ENDBRANCH  58  82
BRANCH  70  93
ATOM     93  C   UNL A   1      47.996  27.266  31.026  1.00  0.00     0.064 A 
ATOM     94  C   UNL A   1      49.068  27.709  30.239  1.00  0.00     0.173 A 
ATOM     95  C   UNL A   1      48.290  26.554  32.201  1.00  0.00     0.173 A 
ATOM     96  F   UNL A   1      48.837  28.380  29.101  1.00  0.00    -0.203 F 
ATOM     97  C   UNL A   1      50.383  27.447  30.613  1.00  0.00     0.198 A 
ATOM     98  C   UNL A   1      49.606  26.321  32.586  1.00  0.00     0.198 A 
ATOM     99  F   UNL A   1      47.299  26.115  32.990  1.00  0.00    -0.203 F 
ATOM    100  F   UNL A   1      51.393  27.856  29.832  1.00  0.00    -0.200 F 
ATOM    101  C   UNL A   1      50.651  26.764  31.791  1.00  0.00     0.200 A 
ATOM    102  F   UNL A   1      49.862  25.677  33.733  1.00  0.00    -0.200 F 
ATOM    103  F   UNL A   1      51.919  26.536  32.161  1.00  0.00    -0.200 F 
ENDBRANCH  70  93
ENDBRANCH  44  45
ENDBRANCH  36  39
ENDBRANCH  34  35
ENDBRANCH  33  34
ENDBRANCH  32  33
ENDBRANCH  31  32
ENDBRANCH   1  31
TORSDOF 17
ENDMDL
