MODEL 1
REMARK VINA RESULT:     -11.3      0.000      0.000
REMARK SMILES C[N@H+]1CCO[C@H](CNc2nnc(SCC(=O)NCCCCCCNC(=O)c3ccc(-c4c5nc(c(-c6c(F)c(F)c(F)c(F)c6F)c6ccc([nH]6)c(-c6c(F)c(F)c(F)c(F)c6F)c6nc(c(-c7c(F)c(F)c(F)c(F)c7F)c7ccc4[nH]7)C=C6)C=C5)cc3)s2)C1
REMARK SMILES IDX 19 1 18 2 17 3 15 4 16 5 14 7 13 8 12 9 9 10 10 11 90 12
REMARK SMILES IDX 11 13 8 14 7 16 6 17 1 18 2 19 3 20 91 21 4 23 5 24 20 25
REMARK SMILES IDX 21 26 22 27 23 28 24 29 25 30 26 32 27 33 28 34 89 35 29 36
REMARK SMILES IDX 88 37 30 38 31 39 32 40 82 41 33 42 87 43 81 44 83 45 34 46
REMARK SMILES IDX 86 47 80 48 79 49 35 51 67 52 47 53 66 54 48 55 51 56 65 57
REMARK SMILES IDX 84 58 49 59 50 60 64 62 85 63 52 64 36 65 37 66 45 67 38 68
REMARK SMILES IDX 39 69 43 70 46 71 40 72 41 73 44 74 42 75 68 76 69 77 77 78
REMARK SMILES IDX 70 79 71 80 75 81 78 82 72 83 73 84 76 85 74 86 53 87 54 88
REMARK SMILES IDX 62 89 55 90 56 91 60 92 63 93 57 94 58 95 61 96 59 97
REMARK H PARENT 17 6 8 15 2 22 24 31 83 50 51 61
REMARK Flexibility Score: inf
ROOT
ATOM      1  C   UNL A   1      35.580  21.832  26.113  1.00  0.00     0.021 C 
ENDROOT
BRANCH   1   2
ATOM      2  C   UNL A   1      34.367  21.458  26.968  1.00  0.00     0.116 C 
BRANCH   2   3
ATOM      3  N   UNL A   1      33.503  20.536  26.259  1.00  0.00    -0.355 N 
ATOM      4  C   UNL A   1      32.540  20.772  25.326  1.00  0.00     0.230 C 
ATOM      5  O   UNL A   1      31.882  19.805  24.934  1.00  0.00    -0.274 OA
ATOM      6  H   UNL A   1      33.634  19.587  26.487  1.00  0.00     0.163 HD
BRANCH   4   7
ATOM      7  C   UNL A   1      32.352  22.145  24.711  1.00  0.00     0.177 C 
BRANCH   7   8
ATOM      8  S   UNL A   1      33.113  22.378  23.099  1.00  0.00    -0.084 SA
BRANCH   8   9
ATOM      9  C   UNL A   1      32.803  24.032  22.634  1.00  0.00     0.176 A 
ATOM     10  C   UNL A   1      32.185  26.289  22.173  1.00  0.00     0.206 A 
ATOM     11  N   UNL A   1      33.384  25.989  21.722  1.00  0.00    -0.119 NA
ATOM     12  S   UNL A   1      31.372  24.935  22.861  1.00  0.00    -0.069 S 
ATOM     13  N   UNL A   1      33.754  24.696  22.015  1.00  0.00    -0.130 NA
BRANCH  10  14
ATOM     14  N   UNL A   1      31.670  27.538  22.080  1.00  0.00    -0.357 N 
ATOM     15  H   UNL A   1      31.869  28.082  21.284  1.00  0.00     0.163 HD
BRANCH  14  16
ATOM     16  C   UNL A   1      30.826  28.098  23.132  1.00  0.00     0.153 C 
BRANCH  16  17
ATOM     17  C   UNL A   1      31.677  28.545  24.343  1.00  0.00     0.192 C 
ATOM     18  C   UNL A   1      33.761  27.868  26.560  1.00  0.00     0.332 C 
ATOM     19  N   UNL A   1      32.310  27.963  26.719  1.00  0.00    -0.333 N 
ATOM     20  C   UNL A   1      31.889  29.336  27.072  1.00  0.00     0.290 C 
ATOM     21  C   UNL A   1      31.573  27.542  25.510  1.00  0.00     0.296 C 
ATOM     22  H   UNL A   1      32.080  27.324  27.480  1.00  0.00     0.348 HD
ATOM     23  C   UNL A   1      31.953  30.328  25.895  1.00  0.00     0.222 C 
ATOM     24  O   UNL A   1      31.229  29.854  24.757  1.00  0.00    -0.365 OA
ENDBRANCH  16  17
ENDBRANCH  14  16
ENDBRANCH  10  14
ENDBRANCH   8   9
ENDBRANCH   7   8
ENDBRANCH   4   7
ENDBRANCH   2   3
ENDBRANCH   1   2
BRANCH   1  25
ATOM     25  C   UNL A   1      35.991  20.751  25.100  1.00  0.00     0.002 C 
BRANCH  25  26
ATOM     26  C   UNL A   1      37.444  20.827  24.618  1.00  0.00     0.002 C 
BRANCH  26  27
ATOM     27  C   UNL A   1      38.313  19.625  24.990  1.00  0.00     0.021 C 
BRANCH  27  28
ATOM     28  C   UNL A   1      39.356  19.903  26.067  1.00  0.00     0.116 C 
BRANCH  28  29
ATOM     29  N   UNL A   1      40.477  18.979  26.001  1.00  0.00    -0.352 N 
ATOM     30  C   UNL A   1      41.822  19.236  26.069  1.00  0.00     0.251 C 
ATOM     31  H   UNL A   1      40.235  18.031  25.890  1.00  0.00     0.163 HD
ATOM     32  O   UNL A   1      42.636  18.353  25.808  1.00  0.00    -0.269 OA
BRANCH  30  33
ATOM     33  C   UNL A   1      42.298  20.586  26.436  1.00  0.00     0.039 A 
ATOM     34  C   UNL A   1      42.720  21.453  25.425  1.00  0.00     0.014 A 
ATOM     35  C   UNL A   1      42.334  20.998  27.772  1.00  0.00     0.014 A 
ATOM     36  C   UNL A   1      43.117  22.753  25.746  1.00  0.00     0.010 A 
ATOM     37  C   UNL A   1      42.656  22.316  28.082  1.00  0.00     0.010 A 
ATOM     38  C   UNL A   1      43.053  23.207  27.073  1.00  0.00    -0.014 A 
BRANCH  38  39
ATOM     39  C   UNL A   1      43.392  24.610  27.423  1.00  0.00     0.031 A 
ATOM     40  C   UNL A   1      44.829  25.051  27.479  1.00  0.00     0.074 A 
ATOM     41  C   UNL A   1      42.410  25.471  27.752  1.00  0.00     0.049 A 
ATOM     42  N   UNL A   1      45.327  26.212  27.825  1.00  0.00    -0.248 NA
ATOM     43  C   UNL A   1      45.843  24.047  27.122  1.00  0.00     0.031 C 
ATOM     44  C   UNL A   1      40.982  25.152  27.780  1.00  0.00     0.029 A 
ATOM     45  N   UNL A   1      42.462  26.788  28.136  1.00  0.00    -0.354 N 
ATOM     46  C   UNL A   1      46.705  26.073  27.739  1.00  0.00     0.074 A 
ATOM     47  C   UNL A   1      46.970  24.701  27.363  1.00  0.00     0.031 C 
ATOM     48  C   UNL A   1      40.293  26.247  28.139  1.00  0.00     0.029 A 
ATOM     49  C   UNL A   1      41.231  27.333  28.406  1.00  0.00     0.049 A 
ATOM     50  H   UNL A   1      43.303  27.294  28.210  1.00  0.00     0.167 HD
ATOM     51  C   UNL A   1      47.664  27.010  27.933  1.00  0.00     0.037 A 
ATOM     52  C   UNL A   1      40.897  28.566  28.833  1.00  0.00     0.037 A 
ATOM     53  C   UNL A   1      47.396  28.380  28.290  1.00  0.00     0.049 A 
ATOM     54  C   UNL A   1      41.982  29.584  29.060  1.00  0.00     0.074 A 
ATOM     55  C   UNL A   1      48.293  29.420  28.453  1.00  0.00     0.029 A 
ATOM     56  N   UNL A   1      46.134  28.897  28.546  1.00  0.00    -0.354 N 
ATOM     57  N   UNL A   1      43.278  29.460  28.905  1.00  0.00    -0.248 NA
ATOM     58  C   UNL A   1      41.557  30.914  29.516  1.00  0.00     0.031 C 
ATOM     59  C   UNL A   1      47.581  30.552  28.862  1.00  0.00     0.029 A 
ATOM     60  C   UNL A   1      46.233  30.236  28.894  1.00  0.00     0.049 A 
ATOM     61  H   UNL A   1      45.292  28.389  28.490  1.00  0.00     0.167 HD
ATOM     62  C   UNL A   1      43.819  30.702  29.212  1.00  0.00     0.074 A 
ATOM     63  C   UNL A   1      42.708  31.569  29.547  1.00  0.00     0.031 C 
ATOM     64  C   UNL A   1      45.118  31.089  29.217  1.00  0.00     0.037 A 
BRANCH  51  65
ATOM     65  C   UNL A   1      49.096  26.588  27.764  1.00  0.00     0.064 A 
ATOM     66  C   UNL A   1      49.689  26.486  26.496  1.00  0.00     0.173 A 
ATOM     67  C   UNL A   1      49.896  26.321  28.884  1.00  0.00     0.173 A 
ATOM     68  F   UNL A   1      48.967  26.721  25.390  1.00  0.00    -0.203 F 
ATOM     69  C   UNL A   1      51.020  26.101  26.356  1.00  0.00     0.198 A 
ATOM     70  C   UNL A   1      51.237  25.969  28.743  1.00  0.00     0.198 A 
ATOM     71  F   UNL A   1      49.384  26.410  30.121  1.00  0.00    -0.203 F 
ATOM     72  F   UNL A   1      51.549  25.959  25.133  1.00  0.00    -0.200 F 
ATOM     73  C   UNL A   1      51.794  25.851  27.479  1.00  0.00     0.200 A 
ATOM     74  F   UNL A   1      51.988  25.744  29.828  1.00  0.00    -0.200 F 
ATOM     75  F   UNL A   1      53.079  25.490  27.343  1.00  0.00    -0.200 F 
ENDBRANCH  51  65
BRANCH  52  76
ATOM     76  C   UNL A   1      39.468  28.914  29.057  1.00  0.00     0.064 A 
ATOM     77  C   UNL A   1      38.669  29.391  28.008  1.00  0.00     0.173 A 
ATOM     78  C   UNL A   1      38.875  28.788  30.323  1.00  0.00     0.173 A 
ATOM     79  F   UNL A   1      39.196  29.549  26.785  1.00  0.00    -0.203 F 
ATOM     80  C   UNL A   1      37.340  29.752  28.221  1.00  0.00     0.198 A 
ATOM     81  C   UNL A   1      37.537  29.118  30.527  1.00  0.00     0.198 A 
ATOM     82  F   UNL A   1      39.592  28.331  31.359  1.00  0.00    -0.203 F 
ATOM     83  F   UNL A   1      36.616  30.254  27.213  1.00  0.00    -0.200 F 
ATOM     84  C   UNL A   1      36.773  29.610  29.478  1.00  0.00     0.200 A 
ATOM     85  F   UNL A   1      36.988  28.964  31.740  1.00  0.00    -0.200 F 
ATOM     86  F   UNL A   1      35.495  29.953  29.682  1.00  0.00    -0.200 F 
ENDBRANCH  52  76
BRANCH  64  87
ATOM     87  C   UNL A   1      45.410  32.523  29.555  1.00  0.00     0.064 A 
ATOM     88  C   UNL A   1      45.709  32.928  30.865  1.00  0.00     0.173 A 
ATOM     89  C   UNL A   1      45.429  33.499  28.546  1.00  0.00     0.173 A 
ATOM     90  F   UNL A   1      45.689  32.037  31.868  1.00  0.00    -0.203 F 
ATOM     91  C   UNL A   1      45.988  34.261  31.155  1.00  0.00     0.198 A 
ATOM     92  C   UNL A   1      45.743  34.824  28.835  1.00  0.00     0.198 A 
ATOM     93  F   UNL A   1      45.157  33.165  27.276  1.00  0.00    -0.203 F 
ATOM     94  F   UNL A   1      46.219  34.634  32.422  1.00  0.00    -0.200 F 
ATOM     95  C   UNL A   1      46.013  35.206  30.141  1.00  0.00     0.200 A 
ATOM     96  F   UNL A   1      45.781  35.732  27.851  1.00  0.00    -0.200 F 
ATOM     97  F   UNL A   1      46.291  36.487  30.422  1.00  0.00    -0.200 F 
ENDBRANCH  64  87
ENDBRANCH  38  39
ENDBRANCH  30  33
ENDBRANCH  28  29
ENDBRANCH  27  28
ENDBRANCH  26  27
ENDBRANCH  25  26
ENDBRANCH   1  25
TORSDOF 18
ENDMDL
MODEL 2
REMARK VINA RESULT:     -11.2      1.383      7.395
REMARK SMILES C[N@H+]1CCO[C@H](CNc2nnc(SCC(=O)NCCCCCCNC(=O)c3ccc(-c4c5nc(c(-c6c(F)c(F)c(F)c(F)c6F)c6ccc([nH]6)c(-c6c(F)c(F)c(F)c(F)c6F)c6nc(c(-c7c(F)c(F)c(F)c(F)c7F)c7ccc4[nH]7)C=C6)C=C5)cc3)s2)C1
REMARK SMILES IDX 19 1 18 2 17 3 15 4 16 5 14 7 13 8 12 9 9 10 10 11 90 12
REMARK SMILES IDX 11 13 8 14 7 16 6 17 1 18 2 19 3 20 91 21 4 23 5 24 20 25
REMARK SMILES IDX 21 26 22 27 23 28 24 29 25 30 26 32 27 33 28 34 89 35 29 36
REMARK SMILES IDX 88 37 30 38 31 39 32 40 82 41 33 42 87 43 81 44 83 45 34 46
REMARK SMILES IDX 86 47 80 48 79 49 35 51 67 52 47 53 66 54 48 55 51 56 65 57
REMARK SMILES IDX 84 58 49 59 50 60 64 62 85 63 52 64 36 65 37 66 45 67 38 68
REMARK SMILES IDX 39 69 43 70 46 71 40 72 41 73 44 74 42 75 68 76 69 77 77 78
REMARK SMILES IDX 70 79 71 80 75 81 78 82 72 83 73 84 76 85 74 86 53 87 54 88
REMARK SMILES IDX 62 89 55 90 56 91 60 92 63 93 57 94 58 95 61 96 59 97
REMARK H PARENT 17 6 8 15 2 22 24 31 83 50 51 61
REMARK Flexibility Score: inf
ROOT
ATOM      1  C   UNL A   1      35.491  22.340  25.780  1.00  0.00     0.021 C 
ENDROOT
BRANCH   1   2
ATOM      2  C   UNL A   1      34.181  22.216  26.562  1.00  0.00     0.116 C 
BRANCH   2   3
ATOM      3  N   UNL A   1      33.396  21.099  26.075  1.00  0.00    -0.355 N 
ATOM      4  C   UNL A   1      32.364  21.070  25.188  1.00  0.00     0.230 C 
ATOM      5  O   UNL A   1      31.805  19.985  25.005  1.00  0.00    -0.274 OA
ATOM      6  H   UNL A   1      33.649  20.223  26.445  1.00  0.00     0.163 HD
BRANCH   4   7
ATOM      7  C   UNL A   1      31.984  22.290  24.373  1.00  0.00     0.177 C 
BRANCH   7   8
ATOM      8  S   UNL A   1      32.930  22.536  22.864  1.00  0.00    -0.084 SA
BRANCH   8   9
ATOM      9  C   UNL A   1      32.698  24.200  22.394  1.00  0.00     0.176 A 
ATOM     10  C   UNL A   1      32.308  26.520  21.997  1.00  0.00     0.206 A 
ATOM     11  N   UNL A   1      33.025  25.956  21.048  1.00  0.00    -0.119 NA
ATOM     12  S   UNL A   1      31.769  25.395  23.185  1.00  0.00    -0.069 S 
ATOM     13  N   UNL A   1      33.277  24.625  21.292  1.00  0.00    -0.130 NA
BRANCH  10  14
ATOM     14  N   UNL A   1      32.034  27.846  22.004  1.00  0.00    -0.357 N 
ATOM     15  H   UNL A   1      32.236  28.383  21.203  1.00  0.00     0.163 HD
BRANCH  14  16
ATOM     16  C   UNL A   1      31.444  28.500  23.169  1.00  0.00     0.153 C 
BRANCH  16  17
ATOM     17  C   UNL A   1      30.291  29.440  22.750  1.00  0.00     0.192 C 
ATOM     18  C   UNL A   1      29.105  32.317  22.552  1.00  0.00     0.332 C 
ATOM     19  N   UNL A   1      28.781  31.300  23.553  1.00  0.00    -0.333 N 
ATOM     20  C   UNL A   1      27.651  30.450  23.118  1.00  0.00     0.290 C 
ATOM     21  C   UNL A   1      29.929  30.429  23.877  1.00  0.00     0.296 C 
ATOM     22  H   UNL A   1      28.520  31.821  24.390  1.00  0.00     0.348 HD
ATOM     23  C   UNL A   1      28.025  29.433  22.022  1.00  0.00     0.222 C 
ATOM     24  O   UNL A   1      29.148  28.632  22.396  1.00  0.00    -0.365 OA
ENDBRANCH  16  17
ENDBRANCH  14  16
ENDBRANCH  10  14
ENDBRANCH   8   9
ENDBRANCH   7   8
ENDBRANCH   4   7
ENDBRANCH   2   3
ENDBRANCH   1   2
BRANCH   1  25
ATOM     25  C   UNL A   1      35.902  21.059  25.036  1.00  0.00     0.002 C 
BRANCH  25  26
ATOM     26  C   UNL A   1      37.367  21.004  24.591  1.00  0.00     0.002 C 
BRANCH  26  27
ATOM     27  C   UNL A   1      38.152  19.792  25.097  1.00  0.00     0.021 C 
BRANCH  27  28
ATOM     28  C   UNL A   1      39.278  20.125  26.068  1.00  0.00     0.116 C 
BRANCH  28  29
ATOM     29  N   UNL A   1      40.321  19.111  26.071  1.00  0.00    -0.352 N 
ATOM     30  C   UNL A   1      41.683  19.264  26.123  1.00  0.00     0.251 C 
ATOM     31  H   UNL A   1      40.004  18.180  26.030  1.00  0.00     0.163 HD
ATOM     32  O   UNL A   1      42.422  18.301  25.928  1.00  0.00    -0.269 OA
BRANCH  30  33
ATOM     33  C   UNL A   1      42.268  20.594  26.391  1.00  0.00     0.039 A 
ATOM     34  C   UNL A   1      42.626  21.405  25.311  1.00  0.00     0.014 A 
ATOM     35  C   UNL A   1      42.468  21.042  27.700  1.00  0.00     0.014 A 
ATOM     36  C   UNL A   1      43.124  22.689  25.544  1.00  0.00     0.010 A 
ATOM     37  C   UNL A   1      42.892  22.348  27.930  1.00  0.00     0.010 A 
ATOM     38  C   UNL A   1      43.226  23.184  26.854  1.00  0.00    -0.014 A 
BRANCH  38  39
ATOM     39  C   UNL A   1      43.677  24.576  27.118  1.00  0.00     0.031 A 
ATOM     40  C   UNL A   1      42.702  25.606  27.618  1.00  0.00     0.074 A 
ATOM     41  C   UNL A   1      44.948  24.927  26.846  1.00  0.00     0.049 A 
ATOM     42  N   UNL A   1      42.888  26.881  27.846  1.00  0.00    -0.248 NA
ATOM     43  C   UNL A   1      41.328  25.146  27.874  1.00  0.00     0.031 C 
ATOM     44  C   UNL A   1      45.977  24.031  26.315  1.00  0.00     0.029 A 
ATOM     45  N   UNL A   1      45.591  26.133  26.969  1.00  0.00    -0.354 N 
ATOM     46  C   UNL A   1      41.658  27.376  28.257  1.00  0.00     0.074 A 
ATOM     47  C   UNL A   1      40.718  26.278  28.196  1.00  0.00     0.031 C 
ATOM     48  C   UNL A   1      47.125  24.713  26.179  1.00  0.00     0.029 A 
ATOM     49  C   UNL A   1      46.905  26.100  26.573  1.00  0.00     0.049 A 
ATOM     50  H   UNL A   1      45.151  26.945  27.310  1.00  0.00     0.167 HD
ATOM     51  C   UNL A   1      41.345  28.627  28.673  1.00  0.00     0.037 A 
ATOM     52  C   UNL A   1      47.827  27.082  26.521  1.00  0.00     0.037 A 
ATOM     53  C   UNL A   1      42.288  29.713  28.750  1.00  0.00     0.049 A 
ATOM     54  C   UNL A   1      47.448  28.468  26.970  1.00  0.00     0.074 A 
ATOM     55  C   UNL A   1      42.083  31.002  29.211  1.00  0.00     0.029 A 
ATOM     56  N   UNL A   1      43.613  29.639  28.347  1.00  0.00    -0.354 N 
ATOM     57  N   UNL A   1      46.300  28.906  27.426  1.00  0.00    -0.248 NA
ATOM     58  C   UNL A   1      48.497  29.495  26.900  1.00  0.00     0.031 C 
ATOM     59  C   UNL A   1      43.269  31.723  29.035  1.00  0.00     0.029 A 
ATOM     60  C   UNL A   1      44.231  30.868  28.524  1.00  0.00     0.049 A 
ATOM     61  H   UNL A   1      44.051  28.833  27.989  1.00  0.00     0.167 HD
ATOM     62  C   UNL A   1      46.496  30.247  27.728  1.00  0.00     0.074 A 
ATOM     63  C   UNL A   1      47.878  30.547  27.418  1.00  0.00     0.031 C 
ATOM     64  C   UNL A   1      45.611  31.150  28.218  1.00  0.00     0.037 A 
BRANCH  51  65
ATOM     65  C   UNL A   1      39.922  28.891  29.076  1.00  0.00     0.064 A 
ATOM     66  C   UNL A   1      38.963  29.329  28.149  1.00  0.00     0.173 A 
ATOM     67  C   UNL A   1      39.502  28.667  30.395  1.00  0.00     0.173 A 
ATOM     68  F   UNL A   1      39.313  29.568  26.876  1.00  0.00    -0.203 F 
ATOM     69  C   UNL A   1      37.646  29.562  28.536  1.00  0.00     0.198 A 
ATOM     70  C   UNL A   1      38.176  28.868  30.771  1.00  0.00     0.198 A 
ATOM     71  F   UNL A   1      40.374  28.241  31.322  1.00  0.00    -0.203 F 
ATOM     72  F   UNL A   1      36.761  30.030  27.645  1.00  0.00    -0.200 F 
ATOM     73  C   UNL A   1      37.252  29.324  29.844  1.00  0.00     0.200 A 
ATOM     74  F   UNL A   1      37.793  28.622  32.031  1.00  0.00    -0.200 F 
ATOM     75  F   UNL A   1      35.981  29.539  30.212  1.00  0.00    -0.200 F 
ENDBRANCH  51  65
BRANCH  52  76
ATOM     76  C   UNL A   1      49.204  26.786  26.043  1.00  0.00     0.064 A 
ATOM     77  C   UNL A   1      50.181  26.295  26.921  1.00  0.00     0.173 A 
ATOM     78  C   UNL A   1      49.574  26.997  24.707  1.00  0.00     0.173 A 
ATOM     79  F   UNL A   1      49.882  26.096  28.213  1.00  0.00    -0.203 F 
ATOM     80  C   UNL A   1      51.482  26.049  26.486  1.00  0.00     0.198 A 
ATOM     81  C   UNL A   1      50.867  26.720  24.266  1.00  0.00     0.198 A 
ATOM     82  F   UNL A   1      48.677  27.460  23.825  1.00  0.00    -0.203 F 
ATOM     83  F   UNL A   1      52.409  25.630  27.357  1.00  0.00    -0.200 F 
ATOM     84  C   UNL A   1      51.823  26.257  25.158  1.00  0.00     0.200 A 
ATOM     85  F   UNL A   1      51.188  26.906  22.978  1.00  0.00    -0.200 F 
ATOM     86  F   UNL A   1      53.072  26.018  24.739  1.00  0.00    -0.200 F 
ENDBRANCH  52  76
BRANCH  64  87
ATOM     87  C   UNL A   1      46.118  32.537  28.489  1.00  0.00     0.064 A 
ATOM     88  C   UNL A   1      46.692  32.887  29.720  1.00  0.00     0.173 A 
ATOM     89  C   UNL A   1      46.063  33.520  27.488  1.00  0.00     0.173 A 
ATOM     90  F   UNL A   1      46.754  31.989  30.716  1.00  0.00    -0.203 F 
ATOM     91  C   UNL A   1      47.166  34.177  29.948  1.00  0.00     0.198 A 
ATOM     92  C   UNL A   1      46.570  34.798  27.708  1.00  0.00     0.198 A 
ATOM     93  F   UNL A   1      45.530  33.236  26.290  1.00  0.00    -0.203 F 
ATOM     94  F   UNL A   1      47.663  34.503  31.150  1.00  0.00    -0.200 F 
ATOM     95  C   UNL A   1      47.112  35.128  28.940  1.00  0.00     0.200 A 
ATOM     96  F   UNL A   1      46.531  35.711  26.727  1.00  0.00    -0.200 F 
ATOM     97  F   UNL A   1      47.578  36.365  29.159  1.00  0.00    -0.200 F 
ENDBRANCH  64  87
ENDBRANCH  38  39
ENDBRANCH  30  33
ENDBRANCH  28  29
ENDBRANCH  27  28
ENDBRANCH  26  27
ENDBRANCH  25  26
ENDBRANCH   1  25
TORSDOF 18
ENDMDL
MODEL 3
REMARK VINA RESULT:     -11.1      3.060      8.157
REMARK SMILES C[N@H+]1CCO[C@H](CNc2nnc(SCC(=O)NCCCCCCNC(=O)c3ccc(-c4c5nc(c(-c6c(F)c(F)c(F)c(F)c6F)c6ccc([nH]6)c(-c6c(F)c(F)c(F)c(F)c6F)c6nc(c(-c7c(F)c(F)c(F)c(F)c7F)c7ccc4[nH]7)C=C6)C=C5)cc3)s2)C1
REMARK SMILES IDX 19 1 18 2 17 3 15 4 16 5 14 7 13 8 12 9 9 10 10 11 90 12
REMARK SMILES IDX 11 13 8 14 7 16 6 17 1 18 2 19 3 20 91 21 4 23 5 24 20 25
REMARK SMILES IDX 21 26 22 27 23 28 24 29 25 30 26 32 27 33 28 34 89 35 29 36
REMARK SMILES IDX 88 37 30 38 31 39 32 40 82 41 33 42 87 43 81 44 83 45 34 46
REMARK SMILES IDX 86 47 80 48 79 49 35 51 67 52 47 53 66 54 48 55 51 56 65 57
REMARK SMILES IDX 84 58 49 59 50 60 64 62 85 63 52 64 36 65 37 66 45 67 38 68
REMARK SMILES IDX 39 69 43 70 46 71 40 72 41 73 44 74 42 75 68 76 69 77 77 78
REMARK SMILES IDX 70 79 71 80 75 81 78 82 72 83 73 84 76 85 74 86 53 87 54 88
REMARK SMILES IDX 62 89 55 90 56 91 60 92 63 93 57 94 58 95 61 96 59 97
REMARK H PARENT 17 6 8 15 2 22 24 31 83 50 51 61
REMARK Flexibility Score: inf
ROOT
ATOM      1  C   UNL A   1      34.276  24.956  24.139  1.00  0.00     0.021 C 
ENDROOT
BRANCH   1   2
ATOM      2  C   UNL A   1      34.803  24.482  25.496  1.00  0.00     0.116 C 
BRANCH   2   3
ATOM      3  N   UNL A   1      35.373  23.154  25.389  1.00  0.00    -0.355 N 
ATOM      4  C   UNL A   1      34.863  21.945  25.753  1.00  0.00     0.230 C 
ATOM      5  O   UNL A   1      35.597  20.960  25.630  1.00  0.00    -0.274 OA
ATOM      6  H   UNL A   1      36.272  23.120  24.990  1.00  0.00     0.163 HD
BRANCH   4   7
ATOM      7  C   UNL A   1      33.420  21.792  26.189  1.00  0.00     0.177 C 
BRANCH   7   8
ATOM      8  S   UNL A   1      32.245  21.467  24.866  1.00  0.00    -0.084 SA
BRANCH   8   9
ATOM      9  C   UNL A   1      31.394  22.962  24.574  1.00  0.00     0.176 A 
ATOM     10  C   UNL A   1      30.303  25.077  24.414  1.00  0.00     0.206 A 
ATOM     11  N   UNL A   1      30.462  24.498  23.243  1.00  0.00    -0.119 NA
ATOM     12  S   UNL A   1      30.826  24.088  25.724  1.00  0.00    -0.069 S 
ATOM     13  N   UNL A   1      31.120  23.292  23.331  1.00  0.00    -0.130 NA
BRANCH  10  14
ATOM     14  N   UNL A   1      29.771  26.316  24.541  1.00  0.00    -0.357 N 
ATOM     15  H   UNL A   1      30.164  26.944  25.190  1.00  0.00     0.163 HD
BRANCH  14  16
ATOM     16  C   UNL A   1      28.629  26.743  23.738  1.00  0.00     0.153 C 
BRANCH  16  17
ATOM     17  C   UNL A   1      28.750  28.236  23.356  1.00  0.00     0.192 C 
ATOM     18  C   UNL A   1      27.660  31.152  23.531  1.00  0.00     0.332 C 
ATOM     19  N   UNL A   1      27.482  30.213  22.423  1.00  0.00    -0.333 N 
ATOM     20  C   UNL A   1      28.572  30.329  21.430  1.00  0.00     0.290 C 
ATOM     21  C   UNL A   1      27.402  28.808  22.871  1.00  0.00     0.296 C 
ATOM     22  H   UNL A   1      26.593  30.470  21.993  1.00  0.00     0.348 HD
ATOM     23  C   UNL A   1      29.907  29.720  21.899  1.00  0.00     0.222 C 
ATOM     24  O   UNL A   1      29.755  28.365  22.328  1.00  0.00    -0.365 OA
ENDBRANCH  16  17
ENDBRANCH  14  16
ENDBRANCH  10  14
ENDBRANCH   8   9
ENDBRANCH   7   8
ENDBRANCH   4   7
ENDBRANCH   2   3
ENDBRANCH   1   2
BRANCH   1  25
ATOM     25  C   UNL A   1      33.945  26.456  24.082  1.00  0.00     0.002 C 
BRANCH  25  26
ATOM     26  C   UNL A   1      33.261  27.020  25.332  1.00  0.00     0.002 C 
BRANCH  26  27
ATOM     27  C   UNL A   1      33.738  28.410  25.758  1.00  0.00     0.021 C 
BRANCH  27  28
ATOM     28  C   UNL A   1      33.945  28.578  27.259  1.00  0.00     0.116 C 
BRANCH  28  29
ATOM     29  N   UNL A   1      33.879  29.972  27.672  1.00  0.00    -0.352 N 
ATOM     30  C   UNL A   1      34.805  30.723  28.350  1.00  0.00     0.251 C 
ATOM     31  H   UNL A   1      33.050  30.444  27.430  1.00  0.00     0.163 HD
ATOM     32  O   UNL A   1      34.505  31.836  28.779  1.00  0.00    -0.269 OA
BRANCH  30  33
ATOM     33  C   UNL A   1      36.162  30.187  28.586  1.00  0.00     0.039 A 
ATOM     34  C   UNL A   1      37.109  30.269  27.562  1.00  0.00     0.014 A 
ATOM     35  C   UNL A   1      36.501  29.602  29.810  1.00  0.00     0.014 A 
ATOM     36  C   UNL A   1      38.413  29.822  27.787  1.00  0.00     0.010 A 
ATOM     37  C   UNL A   1      37.818  29.227  30.058  1.00  0.00     0.010 A 
ATOM     38  C   UNL A   1      38.788  29.332  29.049  1.00  0.00    -0.014 A 
BRANCH  38  39
ATOM     39  C   UNL A   1      40.189  28.928  29.332  1.00  0.00     0.031 A 
ATOM     40  C   UNL A   1      41.106  29.851  30.085  1.00  0.00     0.074 A 
ATOM     41  C   UNL A   1      40.654  27.757  28.856  1.00  0.00     0.049 A 
ATOM     42  N   UNL A   1      42.375  29.706  30.373  1.00  0.00    -0.248 NA
ATOM     43  C   UNL A   1      40.527  31.119  30.557  1.00  0.00     0.031 C 
ATOM     44  C   UNL A   1      39.877  26.795  28.073  1.00  0.00     0.029 A 
ATOM     45  N   UNL A   1      41.896  27.180  28.951  1.00  0.00    -0.354 N 
ATOM     46  C   UNL A   1      42.746  30.863  31.045  1.00  0.00     0.074 A 
ATOM     47  C   UNL A   1      41.585  31.726  31.075  1.00  0.00     0.031 C 
ATOM     48  C   UNL A   1      40.652  25.740  27.778  1.00  0.00     0.029 A 
ATOM     49  C   UNL A   1      41.990  25.967  28.314  1.00  0.00     0.049 A 
ATOM     50  H   UNL A   1      42.648  27.596  29.431  1.00  0.00     0.167 HD
ATOM     51  C   UNL A   1      43.939  31.168  31.609  1.00  0.00     0.037 A 
ATOM     52  C   UNL A   1      43.041  25.137  28.168  1.00  0.00     0.037 A 
ATOM     53  C   UNL A   1      45.088  30.299  31.593  1.00  0.00     0.049 A 
ATOM     54  C   UNL A   1      44.362  25.509  28.787  1.00  0.00     0.074 A 
ATOM     55  C   UNL A   1      46.324  30.493  32.184  1.00  0.00     0.029 A 
ATOM     56  N   UNL A   1      45.142  29.074  30.945  1.00  0.00    -0.354 N 
ATOM     57  N   UNL A   1      44.680  26.573  29.483  1.00  0.00    -0.248 NA
ATOM     58  C   UNL A   1      45.469  24.560  28.604  1.00  0.00     0.031 C 
ATOM     59  C   UNL A   1      47.144  29.411  31.847  1.00  0.00     0.029 A 
ATOM     60  C   UNL A   1      46.401  28.512  31.099  1.00  0.00     0.049 A 
ATOM     61  H   UNL A   1      44.397  28.662  30.450  1.00  0.00     0.167 HD
ATOM     62  C   UNL A   1      46.010  26.408  29.848  1.00  0.00     0.074 A 
ATOM     63  C   UNL A   1      46.434  25.133  29.309  1.00  0.00     0.031 C 
ATOM     64  C   UNL A   1      46.807  27.238  30.563  1.00  0.00     0.037 A 
BRANCH  51  65
ATOM     65  C   UNL A   1      44.067  32.501  32.291  1.00  0.00     0.064 A 
ATOM     66  C   UNL A   1      43.814  32.653  33.663  1.00  0.00     0.173 A 
ATOM     67  C   UNL A   1      44.486  33.631  31.573  1.00  0.00     0.173 A 
ATOM     68  F   UNL A   1      43.402  31.608  34.395  1.00  0.00    -0.203 F 
ATOM     69  C   UNL A   1      43.944  33.894  34.283  1.00  0.00     0.198 A 
ATOM     70  C   UNL A   1      44.649  34.863  32.204  1.00  0.00     0.198 A 
ATOM     71  F   UNL A   1      44.749  33.542  30.261  1.00  0.00    -0.203 F 
ATOM     72  F   UNL A   1      43.647  34.025  35.583  1.00  0.00    -0.200 F 
ATOM     73  C   UNL A   1      44.369  34.995  33.555  1.00  0.00     0.200 A 
ATOM     74  F   UNL A   1      45.075  35.922  31.503  1.00  0.00    -0.200 F 
ATOM     75  F   UNL A   1      44.504  36.186  34.156  1.00  0.00    -0.200 F 
ENDBRANCH  51  65
BRANCH  52  76
ATOM     76  C   UNL A   1      42.883  23.861  27.420  1.00  0.00     0.064 A 
ATOM     77  C   UNL A   1      42.407  22.706  28.056  1.00  0.00     0.173 A 
ATOM     78  C   UNL A   1      43.215  23.767  26.060  1.00  0.00     0.173 A 
ATOM     79  F   UNL A   1      42.096  22.740  29.360  1.00  0.00    -0.203 F 
ATOM     80  C   UNL A   1      42.291  21.500  27.368  1.00  0.00     0.198 A 
ATOM     81  C   UNL A   1      43.068  22.568  25.364  1.00  0.00     0.198 A 
ATOM     82  F   UNL A   1      43.670  24.842  25.402  1.00  0.00    -0.203 F 
ATOM     83  F   UNL A   1      41.883  20.400  28.013  1.00  0.00    -0.200 F 
ATOM     84  C   UNL A   1      42.616  21.433  26.021  1.00  0.00     0.200 A 
ATOM     85  F   UNL A   1      43.367  22.512  24.059  1.00  0.00    -0.200 F 
ATOM     86  F   UNL A   1      42.502  20.275  25.359  1.00  0.00    -0.200 F 
ENDBRANCH  52  76
BRANCH  64  87
ATOM     87  C   UNL A   1      48.209  26.777  30.843  1.00  0.00     0.064 A 
ATOM     88  C   UNL A   1      48.509  25.935  31.924  1.00  0.00     0.173 A 
ATOM     89  C   UNL A   1      49.261  27.153  29.993  1.00  0.00     0.173 A 
ATOM     90  F   UNL A   1      47.542  25.559  32.776  1.00  0.00    -0.203 F 
ATOM     91  C   UNL A   1      49.814  25.510  32.160  1.00  0.00     0.198 A 
ATOM     92  C   UNL A   1      50.559  26.698  30.212  1.00  0.00     0.198 A 
ATOM     93  F   UNL A   1      49.029  27.952  28.941  1.00  0.00    -0.203 F 
ATOM     94  F   UNL A   1      50.085  24.748  33.230  1.00  0.00    -0.200 F 
ATOM     95  C   UNL A   1      50.835  25.884  31.301  1.00  0.00     0.200 A 
ATOM     96  F   UNL A   1      51.541  27.048  29.371  1.00  0.00    -0.200 F 
ATOM     97  F   UNL A   1      52.089  25.466  31.524  1.00  0.00    -0.200 F 
ENDBRANCH  64  87
ENDBRANCH  38  39
ENDBRANCH  30  33
ENDBRANCH  28  29
ENDBRANCH  27  28
ENDBRANCH  26  27
ENDBRANCH  25  26
ENDBRANCH   1  25
TORSDOF 18
ENDMDL
