MODEL 1
REMARK VINA RESULT:     -12.0      0.000      0.000
REMARK SMILES Cc1ccnc(N2CCCC[C@H]2C(=O)NCCCCCCNC(=O)c2ccc(-c3c4nc(c(-c5c(F)c(F)c(F)c(F)c5F)c5ccc([nH]5)c(-c5c(F)c(F)c(F)c(F)c5F)c5nc(c(-c6c(F)c(F)c(F)c(F)c6F)c6ccc3[nH]6)C=C5)C=C4)cc2)n1
REMARK SMILES IDX 19 1 18 2 17 3 16 4 15 5 13 6 14 7 12 9 7 10 8 11 9 12 11 13
REMARK SMILES IDX 10 14 6 15 1 16 2 17 3 18 88 19 4 20 5 21 20 22 21 23 22 24
REMARK SMILES IDX 23 25 24 27 25 28 26 29 87 30 27 31 86 32 28 33 29 34 30 35
REMARK SMILES IDX 80 36 31 37 85 38 79 39 81 40 32 41 84 42 78 43 77 44 33 46
REMARK SMILES IDX 65 47 45 48 64 49 46 50 49 51 63 52 82 53 47 54 48 55 62 57
REMARK SMILES IDX 83 58 50 59 34 60 35 61 43 62 36 63 37 64 41 65 44 66 38 67
REMARK SMILES IDX 39 68 42 69 40 70 66 71 67 72 75 73 68 74 69 75 73 76 76 77
REMARK SMILES IDX 70 78 71 79 74 80 72 81 51 82 52 83 60 84 53 85 54 86 58 87
REMARK SMILES IDX 61 88 55 89 56 90 59 91 57 92
REMARK H PARENT 15 8 22 26 81 45 49 56
REMARK Flexibility Score: inf
ROOT
ATOM      1  C   UNL A   1      37.088  20.379  24.980  1.00  0.00     0.002 C 
ENDROOT
BRANCH   1   2
ATOM      2  C   UNL A   1      37.379  21.818  24.542  1.00  0.00     0.002 C 
BRANCH   2   3
ATOM      3  C   UNL A   1      37.552  22.835  25.674  1.00  0.00     0.021 C 
BRANCH   3   4
ATOM      4  C   UNL A   1      36.325  23.696  25.951  1.00  0.00     0.116 C 
BRANCH   4   5
ATOM      5  N   UNL A   1      35.411  23.062  26.875  1.00  0.00    -0.354 N 
ATOM      6  C   UNL A   1      34.278  22.350  26.608  1.00  0.00     0.242 C 
ATOM      7  O   UNL A   1      33.718  21.830  27.578  1.00  0.00    -0.273 OA
ATOM      8  H   UNL A   1      35.636  23.159  27.828  1.00  0.00     0.163 HD
BRANCH   6   9
ATOM      9  C   UNL A   1      33.745  22.220  25.159  1.00  0.00     0.174 C 
ATOM     10  N   UNL A   1      32.498  21.461  25.109  1.00  0.00    -0.329 N 
ATOM     11  C   UNL A   1      31.286  22.032  25.655  1.00  0.00     0.120 C 
ATOM     12  C   UNL A   1      31.010  23.384  25.006  1.00  0.00     0.022 C 
ATOM     13  C   UNL A   1      33.490  23.616  24.548  1.00  0.00     0.035 C 
ATOM     14  C   UNL A   1      32.225  24.304  25.073  1.00  0.00     0.004 C 
BRANCH  10  15
ATOM     15  C   UNL A   1      32.443  20.217  24.551  1.00  0.00     0.226 A 
ATOM     16  C   UNL A   1      32.699  16.745  25.696  1.00  0.00     0.067 C 
ATOM     17  C   UNL A   1      32.594  17.922  24.774  1.00  0.00     0.043 A 
ATOM     18  C   UNL A   1      32.451  17.741  23.417  1.00  0.00     0.044 A 
ATOM     19  N   UNL A   1      32.620  19.148  25.343  1.00  0.00    -0.218 NA
ATOM     20  C   UNL A   1      32.294  18.887  22.685  1.00  0.00     0.117 A 
ATOM     21  N   UNL A   1      32.256  20.116  23.229  1.00  0.00    -0.221 NA
ENDBRANCH  10  15
ENDBRANCH   6   9
ENDBRANCH   4   5
ENDBRANCH   3   4
ENDBRANCH   2   3
ENDBRANCH   1   2
BRANCH   1  22
ATOM     22  C   UNL A   1      38.288  19.430  24.974  1.00  0.00     0.021 C 
BRANCH  22  23
ATOM     23  C   UNL A   1      39.418  19.802  25.928  1.00  0.00     0.116 C 
BRANCH  23  24
ATOM     24  N   UNL A   1      40.550  18.894  25.844  1.00  0.00    -0.352 N 
ATOM     25  C   UNL A   1      41.887  19.154  25.979  1.00  0.00     0.251 C 
ATOM     26  H   UNL A   1      40.320  17.954  25.663  1.00  0.00     0.163 HD
ATOM     27  O   UNL A   1      42.714  18.273  25.738  1.00  0.00    -0.269 OA
BRANCH  25  28
ATOM     28  C   UNL A   1      42.351  20.498  26.381  1.00  0.00     0.039 A 
ATOM     29  C   UNL A   1      42.808  21.371  25.391  1.00  0.00     0.014 A 
ATOM     30  C   UNL A   1      42.353  20.897  27.722  1.00  0.00     0.014 A 
ATOM     31  C   UNL A   1      43.211  22.663  25.736  1.00  0.00     0.010 A 
ATOM     32  C   UNL A   1      42.690  22.207  28.057  1.00  0.00     0.010 A 
ATOM     33  C   UNL A   1      43.125  23.102  27.068  1.00  0.00    -0.014 A 
BRANCH  33  34
ATOM     34  C   UNL A   1      43.478  24.498  27.431  1.00  0.00     0.031 A 
ATOM     35  C   UNL A   1      44.914  24.941  27.445  1.00  0.00     0.074 A 
ATOM     36  C   UNL A   1      42.504  25.353  27.796  1.00  0.00     0.049 A 
ATOM     37  N   UNL A   1      45.417  26.109  27.759  1.00  0.00    -0.248 NA
ATOM     38  C   UNL A   1      45.923  23.933  27.083  1.00  0.00     0.031 C 
ATOM     39  C   UNL A   1      41.079  25.028  27.870  1.00  0.00     0.029 A 
ATOM     40  N   UNL A   1      42.563  26.670  28.177  1.00  0.00    -0.354 N 
ATOM     41  C   UNL A   1      46.793  25.973  27.644  1.00  0.00     0.074 A 
ATOM     42  C   UNL A   1      47.053  24.597  27.280  1.00  0.00     0.031 C 
ATOM     43  C   UNL A   1      40.396  26.123  28.240  1.00  0.00     0.029 A 
ATOM     44  C   UNL A   1      41.337  27.217  28.464  1.00  0.00     0.049 A 
ATOM     45  H   UNL A   1      43.406  27.176  28.238  1.00  0.00     0.167 HD
ATOM     46  C   UNL A   1      47.752  26.916  27.807  1.00  0.00     0.037 A 
ATOM     47  C   UNL A   1      41.008  28.459  28.863  1.00  0.00     0.037 A 
ATOM     48  C   UNL A   1      47.488  28.292  28.138  1.00  0.00     0.049 A 
ATOM     49  C   UNL A   1      42.094  29.486  29.036  1.00  0.00     0.074 A 
ATOM     50  C   UNL A   1      48.385  29.340  28.249  1.00  0.00     0.029 A 
ATOM     51  N   UNL A   1      46.232  28.810  28.417  1.00  0.00    -0.354 N 
ATOM     52  N   UNL A   1      43.385  29.367  28.844  1.00  0.00    -0.248 NA
ATOM     53  C   UNL A   1      41.675  30.825  29.474  1.00  0.00     0.031 C 
ATOM     54  C   UNL A   1      47.679  30.481  28.644  1.00  0.00     0.029 A 
ATOM     55  C   UNL A   1      46.334  30.158  28.727  1.00  0.00     0.049 A 
ATOM     56  H   UNL A   1      45.392  28.297  28.396  1.00  0.00     0.167 HD
ATOM     57  C   UNL A   1      43.928  30.618  29.109  1.00  0.00     0.074 A 
ATOM     58  C   UNL A   1      42.823  31.486  29.458  1.00  0.00     0.031 C 
ATOM     59  C   UNL A   1      45.225  31.010  29.067  1.00  0.00     0.037 A 
BRANCH  46  60
ATOM     60  C   UNL A   1      49.183  26.495  27.626  1.00  0.00     0.064 A 
ATOM     61  C   UNL A   1      49.755  26.356  26.353  1.00  0.00     0.173 A 
ATOM     62  C   UNL A   1      50.004  26.276  28.742  1.00  0.00     0.173 A 
ATOM     63  F   UNL A   1      49.009  26.544  25.254  1.00  0.00    -0.203 F 
ATOM     64  C   UNL A   1      51.089  25.988  26.203  1.00  0.00     0.198 A 
ATOM     65  C   UNL A   1      51.347  25.938  28.589  1.00  0.00     0.198 A 
ATOM     66  F   UNL A   1      49.509  26.402  29.983  1.00  0.00    -0.203 F 
ATOM     67  F   UNL A   1      51.602  25.818  24.977  1.00  0.00    -0.200 F 
ATOM     68  C   UNL A   1      51.886  25.787  27.320  1.00  0.00     0.200 A 
ATOM     69  F   UNL A   1      52.118  25.756  29.669  1.00  0.00    -0.200 F 
ATOM     70  F   UNL A   1      53.173  25.443  27.174  1.00  0.00    -0.200 F 
ENDBRANCH  46  60
BRANCH  47  71
ATOM     71  C   UNL A   1      39.584  28.816  29.098  1.00  0.00     0.064 A 
ATOM     72  C   UNL A   1      38.790  29.322  28.060  1.00  0.00     0.173 A 
ATOM     73  C   UNL A   1      38.994  28.674  30.362  1.00  0.00     0.173 A 
ATOM     74  F   UNL A   1      39.316  29.495  26.839  1.00  0.00    -0.203 F 
ATOM     75  C   UNL A   1      37.466  29.695  28.282  1.00  0.00     0.198 A 
ATOM     76  C   UNL A   1      37.661  29.022  30.576  1.00  0.00     0.198 A 
ATOM     77  F   UNL A   1      39.710  28.191  31.389  1.00  0.00    -0.203 F 
ATOM     78  F   UNL A   1      36.746  30.223  27.284  1.00  0.00    -0.200 F 
ATOM     79  C   UNL A   1      36.901  29.541  29.539  1.00  0.00     0.200 A 
ATOM     80  F   UNL A   1      37.115  28.857  31.789  1.00  0.00    -0.200 F 
ATOM     81  F   UNL A   1      35.629  29.899  29.753  1.00  0.00    -0.200 F 
ENDBRANCH  47  71
BRANCH  59  82
ATOM     82  C   UNL A   1      45.514  32.451  29.375  1.00  0.00     0.064 A 
ATOM     83  C   UNL A   1      45.835  32.877  30.672  1.00  0.00     0.173 A 
ATOM     84  C   UNL A   1      45.496  33.413  28.353  1.00  0.00     0.173 A 
ATOM     85  F   UNL A   1      45.848  31.999  31.686  1.00  0.00    -0.203 F 
ATOM     86  C   UNL A   1      46.097  34.217  30.941  1.00  0.00     0.198 A 
ATOM     87  C   UNL A   1      45.791  34.747  28.620  1.00  0.00     0.198 A 
ATOM     88  F   UNL A   1      45.202  33.056  27.094  1.00  0.00    -0.203 F 
ATOM     89  F   UNL A   1      46.349  34.610  32.197  1.00  0.00    -0.200 F 
ATOM     90  C   UNL A   1      46.082  35.149  29.914  1.00  0.00     0.200 A 
ATOM     91  F   UNL A   1      45.789  35.643  27.624  1.00  0.00    -0.200 F 
ATOM     92  F   UNL A   1      46.340  36.438  30.174  1.00  0.00    -0.200 F 
ENDBRANCH  59  82
ENDBRANCH  33  34
ENDBRANCH  25  28
ENDBRANCH  23  24
ENDBRANCH  22  23
ENDBRANCH   1  22
TORSDOF 14
ENDMDL
MODEL 2
REMARK VINA RESULT:     -11.9      6.739     11.854
REMARK SMILES Cc1ccnc(N2CCCC[C@H]2C(=O)NCCCCCCNC(=O)c2ccc(-c3c4nc(c(-c5c(F)c(F)c(F)c(F)c5F)c5ccc([nH]5)c(-c5c(F)c(F)c(F)c(F)c5F)c5nc(c(-c6c(F)c(F)c(F)c(F)c6F)c6ccc3[nH]6)C=C5)C=C4)cc2)n1
REMARK SMILES IDX 19 1 18 2 17 3 16 4 15 5 13 6 14 7 12 9 7 10 8 11 9 12 11 13
REMARK SMILES IDX 10 14 6 15 1 16 2 17 3 18 88 19 4 20 5 21 20 22 21 23 22 24
REMARK SMILES IDX 23 25 24 27 25 28 26 29 87 30 27 31 86 32 28 33 29 34 30 35
REMARK SMILES IDX 80 36 31 37 85 38 79 39 81 40 32 41 84 42 78 43 77 44 33 46
REMARK SMILES IDX 65 47 45 48 64 49 46 50 49 51 63 52 82 53 47 54 48 55 62 57
REMARK SMILES IDX 83 58 50 59 34 60 35 61 43 62 36 63 37 64 41 65 44 66 38 67
REMARK SMILES IDX 39 68 42 69 40 70 66 71 67 72 75 73 68 74 69 75 73 76 76 77
REMARK SMILES IDX 70 78 71 79 74 80 72 81 51 82 52 83 60 84 53 85 54 86 58 87
REMARK SMILES IDX 61 88 55 89 56 90 59 91 57 92
REMARK H PARENT 15 8 22 26 81 45 49 56
REMARK Flexibility Score: inf
ROOT
ATOM      1  C   UNL A   1      34.488  33.503  29.183  1.00  0.00     0.002 C 
ENDROOT
BRANCH   1   2
ATOM      2  C   UNL A   1      35.022  32.699  27.993  1.00  0.00     0.002 C 
BRANCH   2   3
ATOM      3  C   UNL A   1      34.748  31.193  28.033  1.00  0.00     0.021 C 
BRANCH   3   4
ATOM      4  C   UNL A   1      33.510  30.747  27.263  1.00  0.00     0.116 C 
BRANCH   4   5
ATOM      5  N   UNL A   1      33.846  30.107  26.012  1.00  0.00    -0.354 N 
ATOM      6  C   UNL A   1      33.044  29.390  25.173  1.00  0.00     0.242 C 
ATOM      7  O   UNL A   1      33.554  29.021  24.111  1.00  0.00    -0.273 OA
ATOM      8  H   UNL A   1      34.783  30.200  25.726  1.00  0.00     0.163 HD
BRANCH   6   9
ATOM      9  C   UNL A   1      31.579  29.068  25.558  1.00  0.00     0.174 C 
ATOM     10  N   UNL A   1      30.860  28.425  24.461  1.00  0.00    -0.329 N 
ATOM     11  C   UNL A   1      31.203  27.075  24.070  1.00  0.00     0.120 C 
ATOM     12  C   UNL A   1      31.102  26.144  25.273  1.00  0.00     0.022 C 
ATOM     13  C   UNL A   1      31.534  28.129  26.785  1.00  0.00     0.035 C 
ATOM     14  C   UNL A   1      31.890  26.672  26.467  1.00  0.00     0.004 C 
BRANCH  10  15
ATOM     15  C   UNL A   1      29.861  29.067  23.790  1.00  0.00     0.226 A 
ATOM     16  C   UNL A   1      28.804  32.529  23.217  1.00  0.00     0.067 C 
ATOM     17  C   UNL A   1      28.789  31.031  23.209  1.00  0.00     0.043 A 
ATOM     18  C   UNL A   1      27.798  30.340  22.549  1.00  0.00     0.044 A 
ATOM     19  N   UNL A   1      29.802  30.407  23.852  1.00  0.00    -0.218 NA
ATOM     20  C   UNL A   1      27.930  28.978  22.551  1.00  0.00     0.117 A 
ATOM     21  N   UNL A   1      28.956  28.332  23.131  1.00  0.00    -0.221 NA
ENDBRANCH  10  15
ENDBRANCH   6   9
ENDBRANCH   4   5
ENDBRANCH   3   4
ENDBRANCH   2   3
ENDBRANCH   1   2
BRANCH   1  22
ATOM     22  C   UNL A   1      33.284  34.400  28.887  1.00  0.00     0.021 C 
BRANCH  22  23
ATOM     23  C   UNL A   1      33.375  35.817  29.444  1.00  0.00     0.116 C 
BRANCH  23  24
ATOM     24  N   UNL A   1      32.494  36.034  30.579  1.00  0.00    -0.352 N 
ATOM     25  C   UNL A   1      32.631  35.625  31.879  1.00  0.00     0.251 C 
ATOM     26  H   UNL A   1      31.680  36.551  30.385  1.00  0.00     0.163 HD
ATOM     27  O   UNL A   1      31.708  35.790  32.677  1.00  0.00    -0.269 OA
BRANCH  25  28
ATOM     28  C   UNL A   1      33.871  34.957  32.327  1.00  0.00     0.039 A 
ATOM     29  C   UNL A   1      33.784  33.658  32.833  1.00  0.00     0.014 A 
ATOM     30  C   UNL A   1      35.110  35.603  32.265  1.00  0.00     0.014 A 
ATOM     31  C   UNL A   1      34.944  32.986  33.222  1.00  0.00     0.010 A 
ATOM     32  C   UNL A   1      36.273  34.908  32.589  1.00  0.00     0.010 A 
ATOM     33  C   UNL A   1      36.201  33.593  33.073  1.00  0.00    -0.014 A 
BRANCH  33  34
ATOM     34  C   UNL A   1      37.445  32.857  33.413  1.00  0.00     0.031 A 
ATOM     35  C   UNL A   1      38.182  33.154  34.688  1.00  0.00     0.074 A 
ATOM     36  C   UNL A   1      37.936  31.952  32.544  1.00  0.00     0.049 A 
ATOM     37  N   UNL A   1      39.295  32.632  35.141  1.00  0.00    -0.248 NA
ATOM     38  C   UNL A   1      37.609  34.190  35.560  1.00  0.00     0.031 C 
ATOM     39  C   UNL A   1      37.339  31.612  31.252  1.00  0.00     0.029 A 
ATOM     40  N   UNL A   1      39.051  31.155  32.613  1.00  0.00    -0.354 N 
ATOM     41  C   UNL A   1      39.559  33.284  36.338  1.00  0.00     0.074 A 
ATOM     42  C   UNL A   1      38.519  34.273  36.519  1.00  0.00     0.031 C 
ATOM     43  C   UNL A   1      38.075  30.655  30.665  1.00  0.00     0.029 A 
ATOM     44  C   UNL A   1      39.214  30.339  31.522  1.00  0.00     0.049 A 
ATOM     45  H   UNL A   1      39.675  31.167  33.375  1.00  0.00     0.167 HD
ATOM     46  C   UNL A   1      40.566  33.061  37.218  1.00  0.00     0.037 A 
ATOM     47  C   UNL A   1      40.175  29.437  31.242  1.00  0.00     0.037 A 
ATOM     48  C   UNL A   1      41.581  32.054  37.050  1.00  0.00     0.049 A 
ATOM     49  C   UNL A   1      41.281  29.212  32.238  1.00  0.00     0.074 A 
ATOM     50  C   UNL A   1      42.598  31.700  37.920  1.00  0.00     0.029 A 
ATOM     51  N   UNL A   1      41.711  31.243  35.932  1.00  0.00    -0.354 N 
ATOM     52  N   UNL A   1      41.474  29.776  33.404  1.00  0.00    -0.248 NA
ATOM     53  C   UNL A   1      42.300  28.216  31.878  1.00  0.00     0.031 C 
ATOM     54  C   UNL A   1      43.372  30.709  37.308  1.00  0.00     0.029 A 
ATOM     55  C   UNL A   1      42.808  30.408  36.080  1.00  0.00     0.049 A 
ATOM     56  H   UNL A   1      41.112  31.257  35.151  1.00  0.00     0.167 HD
ATOM     57  C   UNL A   1      42.615  29.186  33.930  1.00  0.00     0.074 A 
ATOM     58  C   UNL A   1      43.062  28.207  32.962  1.00  0.00     0.031 C 
ATOM     59  C   UNL A   1      43.237  29.434  35.109  1.00  0.00     0.037 A 
BRANCH  46  60
ATOM     60  C   UNL A   1      40.621  33.922  38.447  1.00  0.00     0.064 A 
ATOM     61  C   UNL A   1      41.377  35.103  38.487  1.00  0.00     0.173 A 
ATOM     62  C   UNL A   1      39.871  33.585  39.583  1.00  0.00     0.173 A 
ATOM     63  F   UNL A   1      42.121  35.464  37.430  1.00  0.00    -0.203 F 
ATOM     64  C   UNL A   1      41.399  35.902  39.627  1.00  0.00     0.198 A 
ATOM     65  C   UNL A   1      39.871  34.402  40.712  1.00  0.00     0.198 A 
ATOM     66  F   UNL A   1      39.126  32.469  39.597  1.00  0.00    -0.203 F 
ATOM     67  F   UNL A   1      42.162  37.003  39.658  1.00  0.00    -0.200 F 
ATOM     68  C   UNL A   1      40.640  35.555  40.735  1.00  0.00     0.200 A 
ATOM     69  F   UNL A   1      39.127  34.072  41.777  1.00  0.00    -0.200 F 
ATOM     70  F   UNL A   1      40.654  36.331  41.828  1.00  0.00    -0.200 F 
ENDBRANCH  46  60
BRANCH  47  71
ATOM     71  C   UNL A   1      40.120  28.654  29.980  1.00  0.00     0.064 A 
ATOM     72  C   UNL A   1      39.481  27.408  29.936  1.00  0.00     0.173 A 
ATOM     73  C   UNL A   1      40.715  29.126  28.801  1.00  0.00     0.173 A 
ATOM     74  F   UNL A   1      38.916  26.906  31.043  1.00  0.00    -0.203 F 
ATOM     75  C   UNL A   1      39.460  26.650  28.766  1.00  0.00     0.198 A 
ATOM     76  C   UNL A   1      40.668  28.380  27.625  1.00  0.00     0.198 A 
ATOM     77  F   UNL A   1      41.335  30.315  28.789  1.00  0.00    -0.203 F 
ATOM     78  F   UNL A   1      38.886  25.440  28.766  1.00  0.00    -0.200 F 
ATOM     79  C   UNL A   1      40.049  27.139  27.610  1.00  0.00     0.200 A 
ATOM     80  F   UNL A   1      41.227  28.863  26.506  1.00  0.00    -0.200 F 
ATOM     81  F   UNL A   1      40.029  26.412  26.486  1.00  0.00    -0.200 F 
ENDBRANCH  47  71
BRANCH  59  82
ATOM     82  C   UNL A   1      44.450  28.609  35.430  1.00  0.00     0.064 A 
ATOM     83  C   UNL A   1      44.344  27.344  36.026  1.00  0.00     0.173 A 
ATOM     84  C   UNL A   1      45.733  29.081  35.114  1.00  0.00     0.173 A 
ATOM     85  F   UNL A   1      43.141  26.856  36.363  1.00  0.00    -0.203 F 
ATOM     86  C   UNL A   1      45.480  26.594  36.319  1.00  0.00     0.198 A 
ATOM     87  C   UNL A   1      46.864  28.315  35.379  1.00  0.00     0.198 A 
ATOM     88  F   UNL A   1      45.889  30.283  34.537  1.00  0.00    -0.203 F 
ATOM     89  F   UNL A   1      45.358  25.411  36.936  1.00  0.00    -0.200 F 
ATOM     90  C   UNL A   1      46.738  27.077  35.990  1.00  0.00     0.200 A 
ATOM     91  F   UNL A   1      48.078  28.777  35.047  1.00  0.00    -0.200 F 
ATOM     92  F   UNL A   1      47.829  26.351  36.269  1.00  0.00    -0.200 F 
ENDBRANCH  59  82
ENDBRANCH  33  34
ENDBRANCH  25  28
ENDBRANCH  23  24
ENDBRANCH  22  23
ENDBRANCH   1  22
TORSDOF 14
ENDMDL
MODEL 3
REMARK VINA RESULT:     -11.9      0.695      7.434
REMARK SMILES Cc1ccnc(N2CCCC[C@H]2C(=O)NCCCCCCNC(=O)c2ccc(-c3c4nc(c(-c5c(F)c(F)c(F)c(F)c5F)c5ccc([nH]5)c(-c5c(F)c(F)c(F)c(F)c5F)c5nc(c(-c6c(F)c(F)c(F)c(F)c6F)c6ccc3[nH]6)C=C5)C=C4)cc2)n1
REMARK SMILES IDX 19 1 18 2 17 3 16 4 15 5 13 6 14 7 12 9 7 10 8 11 9 12 11 13
REMARK SMILES IDX 10 14 6 15 1 16 2 17 3 18 88 19 4 20 5 21 20 22 21 23 22 24
REMARK SMILES IDX 23 25 24 27 25 28 26 29 87 30 27 31 86 32 28 33 29 34 30 35
REMARK SMILES IDX 80 36 31 37 85 38 79 39 81 40 32 41 84 42 78 43 77 44 33 46
REMARK SMILES IDX 65 47 45 48 64 49 46 50 49 51 63 52 82 53 47 54 48 55 62 57
REMARK SMILES IDX 83 58 50 59 34 60 35 61 43 62 36 63 37 64 41 65 44 66 38 67
REMARK SMILES IDX 39 68 42 69 40 70 66 71 67 72 75 73 68 74 69 75 73 76 76 77
REMARK SMILES IDX 70 78 71 79 74 80 72 81 51 82 52 83 60 84 53 85 54 86 58 87
REMARK SMILES IDX 61 88 55 89 56 90 59 91 57 92
REMARK H PARENT 15 8 22 26 81 45 49 56
REMARK Flexibility Score: inf
ROOT
ATOM      1  C   UNL A   1      36.966  20.406  24.901  1.00  0.00     0.002 C 
ENDROOT
BRANCH   1   2
ATOM      2  C   UNL A   1      37.379  21.821  24.482  1.00  0.00     0.002 C 
BRANCH   2   3
ATOM      3  C   UNL A   1      37.549  22.828  25.624  1.00  0.00     0.021 C 
BRANCH   3   4
ATOM      4  C   UNL A   1      36.325  23.694  25.898  1.00  0.00     0.116 C 
BRANCH   4   5
ATOM      5  N   UNL A   1      35.428  23.086  26.854  1.00  0.00    -0.354 N 
ATOM      6  C   UNL A   1      34.268  22.404  26.629  1.00  0.00     0.242 C 
ATOM      7  O   UNL A   1      33.729  21.899  27.618  1.00  0.00    -0.273 OA
ATOM      8  H   UNL A   1      35.689  23.177  27.798  1.00  0.00     0.163 HD
BRANCH   6   9
ATOM      9  C   UNL A   1      33.681  22.287  25.200  1.00  0.00     0.174 C 
ATOM     10  N   UNL A   1      32.457  21.490  25.182  1.00  0.00    -0.329 N 
ATOM     11  C   UNL A   1      31.251  22.012  25.789  1.00  0.00     0.120 C 
ATOM     12  C   UNL A   1      30.908  23.367  25.181  1.00  0.00     0.022 C 
ATOM     13  C   UNL A   1      33.358  23.687  24.630  1.00  0.00     0.035 C 
ATOM     14  C   UNL A   1      32.095  24.323  25.220  1.00  0.00     0.004 C 
BRANCH  10  15
ATOM     15  C   UNL A   1      32.417  20.257  24.600  1.00  0.00     0.226 A 
ATOM     16  C   UNL A   1      32.667  16.765  25.684  1.00  0.00     0.067 C 
ATOM     17  C   UNL A   1      32.574  17.959  24.783  1.00  0.00     0.043 A 
ATOM     18  C   UNL A   1      32.457  17.803  23.420  1.00  0.00     0.044 A 
ATOM     19  N   UNL A   1      32.584  19.174  25.375  1.00  0.00    -0.218 NA
ATOM     20  C   UNL A   1      32.307  18.963  22.707  1.00  0.00     0.117 A 
ATOM     21  N   UNL A   1      32.255  20.180  23.273  1.00  0.00    -0.221 NA
ENDBRANCH  10  15
ENDBRANCH   6   9
ENDBRANCH   4   5
ENDBRANCH   3   4
ENDBRANCH   2   3
ENDBRANCH   1   2
BRANCH   1  22
ATOM     22  C   UNL A   1      38.109  19.397  25.036  1.00  0.00     0.021 C 
BRANCH  22  23
ATOM     23  C   UNL A   1      39.332  19.897  25.797  1.00  0.00     0.116 C 
BRANCH  23  24
ATOM     24  N   UNL A   1      40.396  18.909  25.865  1.00  0.00    -0.352 N 
ATOM     25  C   UNL A   1      41.739  19.088  26.064  1.00  0.00     0.251 C 
ATOM     26  H   UNL A   1      40.109  17.975  25.751  1.00  0.00     0.163 HD
ATOM     27  O   UNL A   1      42.510  18.134  25.955  1.00  0.00    -0.269 OA
BRANCH  25  28
ATOM     28  C   UNL A   1      42.277  20.428  26.380  1.00  0.00     0.039 A 
ATOM     29  C   UNL A   1      42.700  21.242  25.327  1.00  0.00     0.014 A 
ATOM     30  C   UNL A   1      42.380  20.879  27.700  1.00  0.00     0.014 A 
ATOM     31  C   UNL A   1      43.172  22.529  25.591  1.00  0.00     0.010 A 
ATOM     32  C   UNL A   1      42.786  22.187  27.957  1.00  0.00     0.010 A 
ATOM     33  C   UNL A   1      43.188  23.024  26.906  1.00  0.00    -0.014 A 
BRANCH  33  34
ATOM     34  C   UNL A   1      43.615  24.418  27.187  1.00  0.00     0.031 A 
ATOM     35  C   UNL A   1      42.630  25.425  27.710  1.00  0.00     0.074 A 
ATOM     36  C   UNL A   1      44.884  24.787  26.925  1.00  0.00     0.049 A 
ATOM     37  N   UNL A   1      42.812  26.692  27.990  1.00  0.00    -0.248 NA
ATOM     38  C   UNL A   1      41.253  24.957  27.923  1.00  0.00     0.031 C 
ATOM     39  C   UNL A   1      45.920  23.915  26.370  1.00  0.00     0.029 A 
ATOM     40  N   UNL A   1      45.519  25.993  27.086  1.00  0.00    -0.354 N 
ATOM     41  C   UNL A   1      41.575  27.171  28.399  1.00  0.00     0.074 A 
ATOM     42  C   UNL A   1      40.639  26.074  28.284  1.00  0.00     0.031 C 
ATOM     43  C   UNL A   1      47.067  24.604  26.266  1.00  0.00     0.029 A 
ATOM     44  C   UNL A   1      46.840  25.975  26.714  1.00  0.00     0.049 A 
ATOM     45  H   UNL A   1      45.069  26.796  27.436  1.00  0.00     0.167 HD
ATOM     46  C   UNL A   1      41.255  28.408  28.851  1.00  0.00     0.037 A 
ATOM     47  C   UNL A   1      47.764  26.953  26.730  1.00  0.00     0.037 A 
ATOM     48  C   UNL A   1      42.196  29.487  28.994  1.00  0.00     0.049 A 
ATOM     49  C   UNL A   1      47.380  28.317  27.236  1.00  0.00     0.074 A 
ATOM     50  C   UNL A   1      41.986  30.753  29.514  1.00  0.00     0.029 A 
ATOM     51  N   UNL A   1      43.528  29.430  28.611  1.00  0.00    -0.354 N 
ATOM     52  N   UNL A   1      46.227  28.736  27.698  1.00  0.00    -0.248 NA
ATOM     53  C   UNL A   1      48.431  29.345  27.231  1.00  0.00     0.031 C 
ATOM     54  C   UNL A   1      43.177  31.477  29.399  1.00  0.00     0.029 A 
ATOM     55  C   UNL A   1      44.144  30.647  28.858  1.00  0.00     0.049 A 
ATOM     56  H   UNL A   1      43.971  28.640  28.223  1.00  0.00     0.167 HD
ATOM     57  C   UNL A   1      46.419  30.061  28.063  1.00  0.00     0.074 A 
ATOM     58  C   UNL A   1      47.805  30.373  27.786  1.00  0.00     0.031 C 
ATOM     59  C   UNL A   1      45.526  30.941  28.581  1.00  0.00     0.037 A 
BRANCH  46  60
ATOM     60  C   UNL A   1      39.824  28.664  29.227  1.00  0.00     0.064 A 
ATOM     61  C   UNL A   1      39.347  28.418  30.523  1.00  0.00     0.173 A 
ATOM     62  C   UNL A   1      38.930  29.208  28.292  1.00  0.00     0.173 A 
ATOM     63  F   UNL A   1      40.158  27.888  31.451  1.00  0.00    -0.203 F 
ATOM     64  C   UNL A   1      38.023  28.684  30.863  1.00  0.00     0.198 A 
ATOM     65  C   UNL A   1      37.614  29.501  28.644  1.00  0.00     0.198 A 
ATOM     66  F   UNL A   1      39.336  29.468  27.040  1.00  0.00    -0.203 F 
ATOM     67  F   UNL A   1      37.579  28.399  32.094  1.00  0.00    -0.200 F 
ATOM     68  C   UNL A   1      37.161  29.231  29.925  1.00  0.00     0.200 A 
ATOM     69  F   UNL A   1      36.786  30.043  27.740  1.00  0.00    -0.200 F 
ATOM     70  F   UNL A   1      35.889  29.496  30.257  1.00  0.00    -0.200 F 
ENDBRANCH  46  60
BRANCH  47  71
ATOM     71  C   UNL A   1      49.155  26.676  26.283  1.00  0.00     0.064 A 
ATOM     72  C   UNL A   1      49.541  26.902  24.955  1.00  0.00     0.173 A 
ATOM     73  C   UNL A   1      50.118  26.167  27.166  1.00  0.00     0.173 A 
ATOM     74  F   UNL A   1      48.648  27.369  24.070  1.00  0.00    -0.203 F 
ATOM     75  C   UNL A   1      50.831  26.608  24.520  1.00  0.00     0.198 A 
ATOM     76  C   UNL A   1      51.417  25.899  26.736  1.00  0.00     0.198 A 
ATOM     77  F   UNL A   1      49.801  25.937  28.449  1.00  0.00    -0.203 F 
ATOM     78  F   UNL A   1      51.158  26.786  23.234  1.00  0.00    -0.200 F 
ATOM     79  C   UNL A   1      51.769  26.111  25.412  1.00  0.00     0.200 A 
ATOM     80  F   UNL A   1      52.324  25.433  27.605  1.00  0.00    -0.200 F 
ATOM     81  F   UNL A   1      53.010  25.827  24.994  1.00  0.00    -0.200 F 
ENDBRANCH  47  71
BRANCH  59  82
ATOM     82  C   UNL A   1      46.033  32.315  28.912  1.00  0.00     0.064 A 
ATOM     83  C   UNL A   1      45.979  33.364  27.983  1.00  0.00     0.173 A 
ATOM     84  C   UNL A   1      46.555  32.591  30.185  1.00  0.00     0.173 A 
ATOM     85  F   UNL A   1      45.505  33.146  26.747  1.00  0.00    -0.203 F 
ATOM     86  C   UNL A   1      46.456  34.631  28.306  1.00  0.00     0.198 A 
ATOM     87  C   UNL A   1      47.002  33.867  30.515  1.00  0.00     0.198 A 
ATOM     88  F   UNL A   1      46.622  31.624  31.113  1.00  0.00    -0.203 F 
ATOM     89  F   UNL A   1      46.444  35.604  27.384  1.00  0.00    -0.200 F 
ATOM     90  C   UNL A   1      46.961  34.883  29.573  1.00  0.00     0.200 A 
ATOM     91  F   UNL A   1      47.475  34.113  31.745  1.00  0.00    -0.200 F 
ATOM     92  F   UNL A   1      47.415  36.106  29.882  1.00  0.00    -0.200 F 
ENDBRANCH  59  82
ENDBRANCH  33  34
ENDBRANCH  25  28
ENDBRANCH  23  24
ENDBRANCH  22  23
ENDBRANCH   1  22
TORSDOF 14
ENDMDL
