MODEL 1
REMARK VINA RESULT:     -11.8      0.000      0.000
REMARK SMILES Nc1ccc(O)c(C(=O)NCCCCCCNC(=O)c2ccc(-c3c4nc(c(-c5c(F)c(F)c(F)c(F)c5F)c5ccc([nH]5)c(-c5c(F)c(F)c(F)c(F)c5F)c5nc(c(-c6c(F)c(F)c(F)c(F)c6F)c6ccc3[nH]6)C=C5)C=C4)cc2)c1
REMARK SMILES IDX 14 1 13 2 12 3 11 4 10 5 8 6 9 7 7 9 2 10 3 11 83 12 4 13
REMARK SMILES IDX 5 14 1 15 6 18 15 20 16 21 17 22 18 23 19 25 20 26 21 27
REMARK SMILES IDX 82 28 22 29 81 30 23 31 24 32 25 33 75 34 26 35 80 36 74 37
REMARK SMILES IDX 76 38 27 39 79 40 73 41 72 42 28 44 60 45 40 46 59 47 41 48
REMARK SMILES IDX 44 49 58 50 77 51 42 52 43 53 57 55 78 56 45 57 29 58 30 59
REMARK SMILES IDX 38 60 31 61 32 62 36 63 39 64 33 65 34 66 37 67 35 68 61 69
REMARK SMILES IDX 62 70 70 71 63 72 64 73 68 74 71 75 65 76 66 77 69 78 67 79
REMARK SMILES IDX 46 80 47 81 55 82 48 83 49 84 53 85 56 86 50 87 51 88 54 89
REMARK SMILES IDX 52 90
REMARK H PARENT 10 8 1 16 1 17 6 19 17 24 76 43 44 54
REMARK Flexibility Score: inf
ROOT
ATOM      1  C   UNL A   1      31.528  30.793  26.089  1.00  0.00     0.002 C 
ENDROOT
BRANCH   1   2
ATOM      2  C   UNL A   1      32.182  29.795  27.055  1.00  0.00     0.002 C 
BRANCH   2   3
ATOM      3  C   UNL A   1      32.600  28.459  26.421  1.00  0.00     0.021 C 
BRANCH   3   4
ATOM      4  C   UNL A   1      31.437  27.722  25.750  1.00  0.00     0.116 C 
BRANCH   4   5
ATOM      5  N   UNL A   1      31.826  27.299  24.420  1.00  0.00    -0.352 N 
ATOM      6  C   UNL A   1      31.276  27.442  23.175  1.00  0.00     0.255 C 
ATOM      7  O   UNL A   1      31.889  26.913  22.242  1.00  0.00    -0.269 OA
ATOM      8  H   UNL A   1      32.675  26.799  24.410  1.00  0.00     0.163 HD
BRANCH   6   9
ATOM      9  C   UNL A   1      30.055  28.234  22.852  1.00  0.00     0.083 A 
ATOM     10  C   UNL A   1      27.656  28.693  22.953  1.00  0.00     0.032 A 
ATOM     11  C   UNL A   1      27.855  29.888  22.265  1.00  0.00     0.029 A 
ATOM     12  C   UNL A   1      28.748  27.841  23.167  1.00  0.00     0.043 A 
ATOM     13  C   UNL A   1      29.134  30.267  21.865  1.00  0.00     0.049 A 
ATOM     14  C   UNL A   1      30.221  29.453  22.165  1.00  0.00     0.128 A 
BRANCH  10  15
ATOM     15  N   UNL A   1      26.372  28.294  23.301  1.00  0.00    -0.399 N 
ATOM     16  H   UNL A   1      26.242  27.613  24.001  1.00  0.00     0.156 HD
ATOM     17  H   UNL A   1      25.593  28.692  22.851  1.00  0.00     0.156 HD
ENDBRANCH  10  15
BRANCH  14  18
ATOM     18  O   UNL A   1      31.437  29.921  21.733  1.00  0.00    -0.507 OA
ATOM     19  H   UNL A   1      31.499  30.387  20.923  1.00  0.00     0.293 HD
ENDBRANCH  14  18
ENDBRANCH   6   9
ENDBRANCH   4   5
ENDBRANCH   3   4
ENDBRANCH   2   3
ENDBRANCH   1   2
BRANCH   1  20
ATOM     20  C   UNL A   1      31.350  32.208  26.645  1.00  0.00     0.021 C 
BRANCH  20  21
ATOM     21  C   UNL A   1      32.630  32.833  27.190  1.00  0.00     0.116 C 
BRANCH  21  22
ATOM     22  N   UNL A   1      32.428  34.219  27.583  1.00  0.00    -0.352 N 
ATOM     23  C   UNL A   1      33.006  34.925  28.607  1.00  0.00     0.251 C 
ATOM     24  H   UNL A   1      31.784  34.722  27.035  1.00  0.00     0.163 HD
ATOM     25  O   UNL A   1      32.555  36.017  28.938  1.00  0.00    -0.269 OA
BRANCH  23  26
ATOM     26  C   UNL A   1      34.170  34.363  29.324  1.00  0.00     0.039 A 
ATOM     27  C   UNL A   1      33.953  33.606  30.477  1.00  0.00     0.014 A 
ATOM     28  C   UNL A   1      35.471  34.606  28.876  1.00  0.00     0.014 A 
ATOM     29  C   UNL A   1      35.039  33.045  31.152  1.00  0.00     0.010 A 
ATOM     30  C   UNL A   1      36.548  33.993  29.510  1.00  0.00     0.010 A 
ATOM     31  C   UNL A   1      36.343  33.212  30.658  1.00  0.00    -0.014 A 
BRANCH  31  32
ATOM     32  C   UNL A   1      37.507  32.583  31.332  1.00  0.00     0.031 A 
ATOM     33  C   UNL A   1      38.240  31.449  30.668  1.00  0.00     0.074 A 
ATOM     34  C   UNL A   1      37.862  32.991  32.565  1.00  0.00     0.049 A 
ATOM     35  N   UNL A   1      39.228  30.723  31.125  1.00  0.00    -0.248 NA
ATOM     36  C   UNL A   1      37.782  31.062  29.325  1.00  0.00     0.031 C 
ATOM     37  C   UNL A   1      37.203  34.052  33.327  1.00  0.00     0.029 A 
ATOM     38  N   UNL A   1      38.860  32.553  33.400  1.00  0.00    -0.354 N 
ATOM     39  C   UNL A   1      39.497  29.786  30.136  1.00  0.00     0.074 A 
ATOM     40  C   UNL A   1      38.539  30.003  29.075  1.00  0.00     0.031 C 
ATOM     41  C   UNL A   1      37.825  34.196  34.509  1.00  0.00     0.029 A 
ATOM     42  C   UNL A   1      38.902  33.214  34.603  1.00  0.00     0.049 A 
ATOM     43  H   UNL A   1      39.486  31.832  33.159  1.00  0.00     0.167 HD
ATOM     44  C   UNL A   1      40.471  28.845  30.107  1.00  0.00     0.037 A 
ATOM     45  C   UNL A   1      39.713  33.043  35.664  1.00  0.00     0.037 A 
ATOM     46  C   UNL A   1      41.443  28.655  31.152  1.00  0.00     0.049 A 
ATOM     47  C   UNL A   1      40.784  31.987  35.605  1.00  0.00     0.074 A 
ATOM     48  C   UNL A   1      42.510  27.774  31.187  1.00  0.00     0.029 A 
ATOM     49  N   UNL A   1      41.466  29.358  32.346  1.00  0.00    -0.354 N 
ATOM     50  N   UNL A   1      41.074  31.155  34.634  1.00  0.00    -0.248 NA
ATOM     51  C   UNL A   1      41.646  31.853  36.787  1.00  0.00     0.031 C 
ATOM     52  C   UNL A   1      43.151  27.911  32.422  1.00  0.00     0.029 A 
ATOM     53  C   UNL A   1      42.515  28.914  33.136  1.00  0.00     0.049 A 
ATOM     54  H   UNL A   1      40.831  30.068  32.597  1.00  0.00     0.167 HD
ATOM     55  C   UNL A   1      42.168  30.422  35.074  1.00  0.00     0.074 A 
ATOM     56  C   UNL A   1      42.499  30.917  36.394  1.00  0.00     0.031 C 
ATOM     57  C   UNL A   1      42.839  29.428  34.442  1.00  0.00     0.037 A 
BRANCH  44  58
ATOM     58  C   UNL A   1      40.540  27.948  28.906  1.00  0.00     0.064 A 
ATOM     59  C   UNL A   1      39.789  26.766  28.825  1.00  0.00     0.173 A 
ATOM     60  C   UNL A   1      41.327  28.302  27.799  1.00  0.00     0.173 A 
ATOM     61  F   UNL A   1      39.029  26.376  29.859  1.00  0.00    -0.203 F 
ATOM     62  C   UNL A   1      39.842  25.958  27.691  1.00  0.00     0.198 A 
ATOM     63  C   UNL A   1      41.354  27.508  26.655  1.00  0.00     0.198 A 
ATOM     64  F   UNL A   1      42.060  29.424  27.821  1.00  0.00    -0.203 F 
ATOM     65  F   UNL A   1      39.149  24.812  27.654  1.00  0.00    -0.200 F 
ATOM     66  C   UNL A   1      40.617  26.334  26.605  1.00  0.00     0.200 A 
ATOM     67  F   UNL A   1      42.094  27.879  25.601  1.00  0.00    -0.200 F 
ATOM     68  F   UNL A   1      40.658  25.563  25.509  1.00  0.00    -0.200 F 
ENDBRANCH  44  58
BRANCH  45  69
ATOM     69  C   UNL A   1      39.561  33.904  36.866  1.00  0.00     0.064 A 
ATOM     70  C   UNL A   1      40.184  35.158  36.935  1.00  0.00     0.173 A 
ATOM     71  C   UNL A   1      38.809  33.487  37.974  1.00  0.00     0.173 A 
ATOM     72  F   UNL A   1      40.932  35.591  35.910  1.00  0.00    -0.203 F 
ATOM     73  C   UNL A   1      40.082  35.951  38.076  1.00  0.00     0.198 A 
ATOM     74  C   UNL A   1      38.683  34.295  39.102  1.00  0.00     0.198 A 
ATOM     75  F   UNL A   1      38.188  32.299  37.957  1.00  0.00    -0.203 F 
ATOM     76  F   UNL A   1      40.731  37.122  38.134  1.00  0.00    -0.200 F 
ATOM     77  C   UNL A   1      39.328  35.521  39.157  1.00  0.00     0.200 A 
ATOM     78  F   UNL A   1      37.941  33.882  40.139  1.00  0.00    -0.200 F 
ATOM     79  F   UNL A   1      39.229  36.284  40.254  1.00  0.00    -0.200 F 
ENDBRANCH  45  69
BRANCH  57  80
ATOM     80  C   UNL A   1      44.022  28.838  35.150  1.00  0.00     0.064 A 
ATOM     81  C   UNL A   1      43.892  27.743  36.017  1.00  0.00     0.173 A 
ATOM     82  C   UNL A   1      45.309  29.350  34.928  1.00  0.00     0.173 A 
ATOM     83  F   UNL A   1      42.680  27.226  36.274  1.00  0.00    -0.203 F 
ATOM     84  C   UNL A   1      45.003  27.198  36.654  1.00  0.00     0.198 A 
ATOM     85  C   UNL A   1      46.422  28.785  35.542  1.00  0.00     0.198 A 
ATOM     86  F   UNL A   1      45.488  30.393  34.103  1.00  0.00    -0.203 F 
ATOM     87  F   UNL A   1      44.849  26.183  37.515  1.00  0.00    -0.200 F 
ATOM     88  C   UNL A   1      46.268  27.714  36.410  1.00  0.00     0.200 A 
ATOM     89  F   UNL A   1      47.644  29.276  35.296  1.00  0.00    -0.200 F 
ATOM     90  F   UNL A   1      47.338  27.185  37.019  1.00  0.00    -0.200 F 
ENDBRANCH  57  80
ENDBRANCH  31  32
ENDBRANCH  23  26
ENDBRANCH  21  22
ENDBRANCH  20  21
ENDBRANCH   1  20
TORSDOF 15
ENDMDL
MODEL 2
REMARK VINA RESULT:     -11.8      0.128      1.653
REMARK SMILES Nc1ccc(O)c(C(=O)NCCCCCCNC(=O)c2ccc(-c3c4nc(c(-c5c(F)c(F)c(F)c(F)c5F)c5ccc([nH]5)c(-c5c(F)c(F)c(F)c(F)c5F)c5nc(c(-c6c(F)c(F)c(F)c(F)c6F)c6ccc3[nH]6)C=C5)C=C4)cc2)c1
REMARK SMILES IDX 14 1 13 2 12 3 11 4 10 5 8 6 9 7 7 9 2 10 3 11 83 12 4 13
REMARK SMILES IDX 5 14 1 15 6 18 15 20 16 21 17 22 18 23 19 25 20 26 21 27
REMARK SMILES IDX 82 28 22 29 81 30 23 31 24 32 25 33 75 34 26 35 80 36 74 37
REMARK SMILES IDX 76 38 27 39 79 40 73 41 72 42 28 44 60 45 40 46 59 47 41 48
REMARK SMILES IDX 44 49 58 50 77 51 42 52 43 53 57 55 78 56 45 57 29 58 30 59
REMARK SMILES IDX 38 60 31 61 32 62 36 63 39 64 33 65 34 66 37 67 35 68 61 69
REMARK SMILES IDX 62 70 70 71 63 72 64 73 68 74 71 75 65 76 66 77 69 78 67 79
REMARK SMILES IDX 46 80 47 81 55 82 48 83 49 84 53 85 56 86 50 87 51 88 54 89
REMARK SMILES IDX 52 90
REMARK H PARENT 10 8 1 16 1 17 6 19 17 24 76 43 44 54
REMARK Flexibility Score: inf
ROOT
ATOM      1  C   UNL A   1      31.496  30.731  26.155  1.00  0.00     0.002 C 
ENDROOT
BRANCH   1   2
ATOM      2  C   UNL A   1      32.527  29.936  26.967  1.00  0.00     0.002 C 
BRANCH   2   3
ATOM      3  C   UNL A   1      32.689  28.467  26.548  1.00  0.00     0.021 C 
BRANCH   3   4
ATOM      4  C   UNL A   1      31.476  27.920  25.791  1.00  0.00     0.116 C 
BRANCH   4   5
ATOM      5  N   UNL A   1      31.881  27.473  24.473  1.00  0.00    -0.352 N 
ATOM      6  C   UNL A   1      31.328  27.562  23.225  1.00  0.00     0.255 C 
ATOM      7  O   UNL A   1      31.959  27.028  22.307  1.00  0.00    -0.269 OA
ATOM      8  H   UNL A   1      32.746  27.002  24.477  1.00  0.00     0.163 HD
BRANCH   6   9
ATOM      9  C   UNL A   1      30.081  28.303  22.879  1.00  0.00     0.083 A 
ATOM     10  C   UNL A   1      27.668  28.685  22.972  1.00  0.00     0.032 A 
ATOM     11  C   UNL A   1      27.826  29.863  22.245  1.00  0.00     0.029 A 
ATOM     12  C   UNL A   1      28.788  27.877  23.211  1.00  0.00     0.043 A 
ATOM     13  C   UNL A   1      29.091  30.271  21.829  1.00  0.00     0.049 A 
ATOM     14  C   UNL A   1      30.205  29.503  22.153  1.00  0.00     0.128 A 
BRANCH  10  15
ATOM     15  N   UNL A   1      26.399  28.256  23.336  1.00  0.00    -0.399 N 
ATOM     16  H   UNL A   1      25.693  28.915  23.529  1.00  0.00     0.156 HD
ATOM     17  H   UNL A   1      26.204  27.293  23.401  1.00  0.00     0.156 HD
ENDBRANCH  10  15
BRANCH  14  18
ATOM     18  O   UNL A   1      31.404  29.997  21.703  1.00  0.00    -0.507 OA
ATOM     19  H   UNL A   1      31.422  30.750  21.146  1.00  0.00     0.293 HD
ENDBRANCH  14  18
ENDBRANCH   6   9
ENDBRANCH   4   5
ENDBRANCH   3   4
ENDBRANCH   2   3
ENDBRANCH   1   2
BRANCH   1  20
ATOM     20  C   UNL A   1      31.367  32.207  26.541  1.00  0.00     0.021 C 
BRANCH  20  21
ATOM     21  C   UNL A   1      32.610  32.793  27.201  1.00  0.00     0.116 C 
BRANCH  21  22
ATOM     22  N   UNL A   1      32.412  34.181  27.586  1.00  0.00    -0.352 N 
ATOM     23  C   UNL A   1      33.003  34.896  28.597  1.00  0.00     0.251 C 
ATOM     24  H   UNL A   1      31.760  34.680  27.042  1.00  0.00     0.163 HD
ATOM     25  O   UNL A   1      32.555  35.990  28.925  1.00  0.00    -0.269 OA
BRANCH  23  26
ATOM     26  C   UNL A   1      34.176  34.341  29.304  1.00  0.00     0.039 A 
ATOM     27  C   UNL A   1      33.972  33.571  30.451  1.00  0.00     0.014 A 
ATOM     28  C   UNL A   1      35.473  34.602  28.851  1.00  0.00     0.014 A 
ATOM     29  C   UNL A   1      35.069  33.017  31.116  1.00  0.00     0.010 A 
ATOM     30  C   UNL A   1      36.559  33.995  29.475  1.00  0.00     0.010 A 
ATOM     31  C   UNL A   1      36.368  33.202  30.616  1.00  0.00    -0.014 A 
BRANCH  31  32
ATOM     32  C   UNL A   1      37.542  32.579  31.280  1.00  0.00     0.031 A 
ATOM     33  C   UNL A   1      38.285  31.461  30.602  1.00  0.00     0.074 A 
ATOM     34  C   UNL A   1      37.897  32.978  32.516  1.00  0.00     0.049 A 
ATOM     35  N   UNL A   1      39.284  30.743  31.047  1.00  0.00    -0.248 NA
ATOM     36  C   UNL A   1      37.828  31.084  29.255  1.00  0.00     0.031 C 
ATOM     37  C   UNL A   1      37.227  34.023  33.292  1.00  0.00     0.029 A 
ATOM     38  N   UNL A   1      38.903  32.544  33.343  1.00  0.00    -0.354 N 
ATOM     39  C   UNL A   1      39.561  29.820  30.047  1.00  0.00     0.074 A 
ATOM     40  C   UNL A   1      38.597  30.037  28.991  1.00  0.00     0.031 C 
ATOM     41  C   UNL A   1      37.852  34.162  34.473  1.00  0.00     0.029 A 
ATOM     42  C   UNL A   1      38.941  33.193  34.552  1.00  0.00     0.049 A 
ATOM     43  H   UNL A   1      39.537  31.833  33.092  1.00  0.00     0.167 HD
ATOM     44  C   UNL A   1      40.546  28.891  30.004  1.00  0.00     0.037 A 
ATOM     45  C   UNL A   1      39.758  33.019  35.608  1.00  0.00     0.037 A 
ATOM     46  C   UNL A   1      41.525  28.702  31.043  1.00  0.00     0.049 A 
ATOM     47  C   UNL A   1      40.842  31.978  35.534  1.00  0.00     0.074 A 
ATOM     48  C   UNL A   1      42.602  27.834  31.065  1.00  0.00     0.029 A 
ATOM     49  N   UNL A   1      41.543  29.392  32.245  1.00  0.00    -0.354 N 
ATOM     50  N   UNL A   1      41.137  31.160  34.554  1.00  0.00    -0.248 NA
ATOM     51  C   UNL A   1      41.709  31.841  36.712  1.00  0.00     0.031 C 
ATOM     52  C   UNL A   1      43.246  27.965  32.299  1.00  0.00     0.029 A 
ATOM     53  C   UNL A   1      42.600  28.952  33.026  1.00  0.00     0.049 A 
ATOM     54  H   UNL A   1      40.900  30.091  32.505  1.00  0.00     0.167 HD
ATOM     55  C   UNL A   1      42.242  30.435  34.982  1.00  0.00     0.074 A 
ATOM     56  C   UNL A   1      42.572  30.920  36.305  1.00  0.00     0.031 C 
ATOM     57  C   UNL A   1      42.922  29.456  34.336  1.00  0.00     0.037 A 
BRANCH  44  58
ATOM     58  C   UNL A   1      40.621  28.008  28.793  1.00  0.00     0.064 A 
ATOM     59  C   UNL A   1      39.910  26.802  28.715  1.00  0.00     0.173 A 
ATOM     60  C   UNL A   1      41.373  28.399  27.674  1.00  0.00     0.173 A 
ATOM     61  F   UNL A   1      39.186  26.376  29.761  1.00  0.00    -0.203 F 
ATOM     62  C   UNL A   1      39.968  26.007  27.573  1.00  0.00     0.198 A 
ATOM     63  C   UNL A   1      41.404  27.617  26.522  1.00  0.00     0.198 A 
ATOM     64  F   UNL A   1      42.067  29.547  27.692  1.00  0.00    -0.203 F 
ATOM     65  F   UNL A   1      39.315  24.837  27.539  1.00  0.00    -0.200 F 
ATOM     66  C   UNL A   1      40.707  26.419  26.475  1.00  0.00     0.200 A 
ATOM     67  F   UNL A   1      42.109  28.024  25.457  1.00  0.00    -0.200 F 
ATOM     68  F   UNL A   1      40.753  25.660  25.371  1.00  0.00    -0.200 F 
ENDBRANCH  44  58
BRANCH  45  69
ATOM     69  C   UNL A   1      39.600  33.865  36.821  1.00  0.00     0.064 A 
ATOM     70  C   UNL A   1      38.824  33.431  37.905  1.00  0.00     0.173 A 
ATOM     71  C   UNL A   1      40.204  35.128  36.915  1.00  0.00     0.173 A 
ATOM     72  F   UNL A   1      38.209  32.240  37.852  1.00  0.00    -0.203 F 
ATOM     73  C   UNL A   1      38.636  34.237  39.025  1.00  0.00     0.198 A 
ATOM     74  C   UNL A   1      40.039  35.920  38.049  1.00  0.00     0.198 A 
ATOM     75  F   UNL A   1      40.961  35.588  35.909  1.00  0.00    -0.203 F 
ATOM     76  F   UNL A   1      37.847  33.818  40.023  1.00  0.00    -0.200 F 
ATOM     77  C   UNL A   1      39.247  35.479  39.099  1.00  0.00     0.200 A 
ATOM     78  F   UNL A   1      40.645  37.114  38.123  1.00  0.00    -0.200 F 
ATOM     79  F   UNL A   1      39.068  36.255  40.176  1.00  0.00    -0.200 F 
ENDBRANCH  45  69
BRANCH  57  80
ATOM     80  C   UNL A   1      44.115  28.873  35.034  1.00  0.00     0.064 A 
ATOM     81  C   UNL A   1      45.395  29.431  34.900  1.00  0.00     0.173 A 
ATOM     82  C   UNL A   1      43.968  27.763  35.881  1.00  0.00     0.173 A 
ATOM     83  F   UNL A   1      45.590  30.484  34.090  1.00  0.00    -0.203 F 
ATOM     84  C   UNL A   1      46.487  28.886  35.568  1.00  0.00     0.198 A 
ATOM     85  C   UNL A   1      45.057  27.238  36.570  1.00  0.00     0.198 A 
ATOM     86  F   UNL A   1      42.764  27.195  36.049  1.00  0.00    -0.203 F 
ATOM     87  F   UNL A   1      47.709  29.406  35.387  1.00  0.00    -0.200 F 
ATOM     88  C   UNL A   1      46.317  27.795  36.408  1.00  0.00     0.200 A 
ATOM     89  F   UNL A   1      44.888  26.194  37.392  1.00  0.00    -0.200 F 
ATOM     90  F   UNL A   1      47.368  27.275  37.056  1.00  0.00    -0.200 F 
ENDBRANCH  57  80
ENDBRANCH  31  32
ENDBRANCH  23  26
ENDBRANCH  21  22
ENDBRANCH  20  21
ENDBRANCH   1  20
TORSDOF 15
ENDMDL
MODEL 3
REMARK VINA RESULT:     -11.7      0.632      7.680
REMARK SMILES Nc1ccc(O)c(C(=O)NCCCCCCNC(=O)c2ccc(-c3c4nc(c(-c5c(F)c(F)c(F)c(F)c5F)c5ccc([nH]5)c(-c5c(F)c(F)c(F)c(F)c5F)c5nc(c(-c6c(F)c(F)c(F)c(F)c6F)c6ccc3[nH]6)C=C5)C=C4)cc2)c1
REMARK SMILES IDX 14 1 13 2 12 3 11 4 10 5 8 6 9 7 7 9 2 10 3 11 83 12 4 13
REMARK SMILES IDX 5 14 1 15 6 18 15 20 16 21 17 22 18 23 19 25 20 26 21 27
REMARK SMILES IDX 82 28 22 29 81 30 23 31 24 32 25 33 75 34 26 35 80 36 74 37
REMARK SMILES IDX 76 38 27 39 79 40 73 41 72 42 28 44 60 45 40 46 59 47 41 48
REMARK SMILES IDX 44 49 58 50 77 51 42 52 43 53 57 55 78 56 45 57 29 58 30 59
REMARK SMILES IDX 38 60 31 61 32 62 36 63 39 64 33 65 34 66 37 67 35 68 61 69
REMARK SMILES IDX 62 70 70 71 63 72 64 73 68 74 71 75 65 76 66 77 69 78 67 79
REMARK SMILES IDX 46 80 47 81 55 82 48 83 49 84 53 85 56 86 50 87 51 88 54 89
REMARK SMILES IDX 52 90
REMARK H PARENT 10 8 1 16 1 17 6 19 17 24 76 43 44 54
REMARK Flexibility Score: inf
ROOT
ATOM      1  C   UNL A   1      31.414  30.657  25.876  1.00  0.00     0.002 C 
ENDROOT
BRANCH   1   2
ATOM      2  C   UNL A   1      31.747  29.552  26.888  1.00  0.00     0.002 C 
BRANCH   2   3
ATOM      3  C   UNL A   1      32.419  28.306  26.289  1.00  0.00     0.021 C 
BRANCH   3   4
ATOM      4  C   UNL A   1      31.421  27.327  25.666  1.00  0.00     0.116 C 
BRANCH   4   5
ATOM      5  N   UNL A   1      31.810  27.033  24.301  1.00  0.00    -0.352 N 
ATOM      6  C   UNL A   1      31.268  27.308  23.075  1.00  0.00     0.255 C 
ATOM      7  O   UNL A   1      31.877  26.865  22.095  1.00  0.00    -0.269 OA
ATOM      8  H   UNL A   1      32.651  26.523  24.243  1.00  0.00     0.163 HD
BRANCH   6   9
ATOM      9  C   UNL A   1      30.060  28.147  22.829  1.00  0.00     0.083 A 
ATOM     10  C   UNL A   1      27.677  28.659  23.018  1.00  0.00     0.032 A 
ATOM     11  C   UNL A   1      27.890  29.886  22.394  1.00  0.00     0.029 A 
ATOM     12  C   UNL A   1      28.752  27.769  23.155  1.00  0.00     0.043 A 
ATOM     13  C   UNL A   1      29.168  30.255  21.982  1.00  0.00     0.049 A 
ATOM     14  C   UNL A   1      30.241  29.399  22.208  1.00  0.00     0.128 A 
BRANCH  10  15
ATOM     15  N   UNL A   1      26.393  28.272  23.377  1.00  0.00    -0.399 N 
ATOM     16  H   UNL A   1      25.715  28.113  22.681  1.00  0.00     0.156 HD
ATOM     17  H   UNL A   1      26.160  28.156  24.326  1.00  0.00     0.156 HD
ENDBRANCH  10  15
BRANCH  14  18
ATOM     18  O   UNL A   1      31.458  29.860  21.771  1.00  0.00    -0.507 OA
ATOM     19  H   UNL A   1      31.658  29.862  20.856  1.00  0.00     0.293 HD
ENDBRANCH  14  18
ENDBRANCH   6   9
ENDBRANCH   4   5
ENDBRANCH   3   4
ENDBRANCH   2   3
ENDBRANCH   1   2
BRANCH   1  20
ATOM     20  C   UNL A   1      31.305  32.065  26.468  1.00  0.00     0.021 C 
BRANCH  20  21
ATOM     21  C   UNL A   1      32.562  32.541  27.190  1.00  0.00     0.116 C 
BRANCH  21  22
ATOM     22  N   UNL A   1      32.466  33.940  27.573  1.00  0.00    -0.352 N 
ATOM     23  C   UNL A   1      33.136  34.621  28.557  1.00  0.00     0.251 C 
ATOM     24  H   UNL A   1      31.828  34.477  27.049  1.00  0.00     0.163 HD
ATOM     25  O   UNL A   1      32.771  35.742  28.893  1.00  0.00    -0.269 OA
BRANCH  23  26
ATOM     26  C   UNL A   1      34.297  33.995  29.226  1.00  0.00     0.039 A 
ATOM     27  C   UNL A   1      34.070  33.076  30.252  1.00  0.00     0.014 A 
ATOM     28  C   UNL A   1      35.602  34.334  28.858  1.00  0.00     0.014 A 
ATOM     29  C   UNL A   1      35.155  32.455  30.877  1.00  0.00     0.010 A 
ATOM     30  C   UNL A   1      36.679  33.667  29.435  1.00  0.00     0.010 A 
ATOM     31  C   UNL A   1      36.467  32.726  30.454  1.00  0.00    -0.014 A 
BRANCH  31  32
ATOM     32  C   UNL A   1      37.630  32.039  31.070  1.00  0.00     0.031 A 
ATOM     33  C   UNL A   1      38.099  32.436  32.443  1.00  0.00     0.074 A 
ATOM     34  C   UNL A   1      38.299  31.105  30.368  1.00  0.00     0.049 A 
ATOM     35  N   UNL A   1      39.135  32.009  33.119  1.00  0.00    -0.248 NA
ATOM     36  C   UNL A   1      37.314  33.470  33.137  1.00  0.00     0.031 C 
ATOM     37  C   UNL A   1      37.966  30.666  29.012  1.00  0.00     0.029 A 
ATOM     38  N   UNL A   1      39.408  30.364  30.694  1.00  0.00    -0.354 N 
ATOM     39  C   UNL A   1      39.136  32.732  34.305  1.00  0.00     0.074 A 
ATOM     40  C   UNL A   1      38.027  33.658  34.238  1.00  0.00     0.031 C 
ATOM     41  C   UNL A   1      38.838  29.719  28.631  1.00  0.00     0.029 A 
ATOM     42  C   UNL A   1      39.813  29.511  29.698  1.00  0.00     0.049 A 
ATOM     43  H   UNL A   1      39.869  30.438  31.561  1.00  0.00     0.167 HD
ATOM     44  C   UNL A   1      39.974  32.616  35.363  1.00  0.00     0.037 A 
ATOM     45  C   UNL A   1      40.857  28.662  29.648  1.00  0.00     0.037 A 
ATOM     46  C   UNL A   1      41.056  31.670  35.438  1.00  0.00     0.049 A 
ATOM     47  C   UNL A   1      41.774  28.557  30.837  1.00  0.00     0.074 A 
ATOM     48  C   UNL A   1      41.919  31.429  36.493  1.00  0.00     0.029 A 
ATOM     49  N   UNL A   1      41.423  30.808  34.416  1.00  0.00    -0.354 N 
ATOM     50  N   UNL A   1      41.722  29.195  31.981  1.00  0.00    -0.248 NA
ATOM     51  C   UNL A   1      42.890  27.607  30.730  1.00  0.00     0.031 C 
ATOM     52  C   UNL A   1      42.838  30.454  36.092  1.00  0.00     0.029 A 
ATOM     53  C   UNL A   1      42.516  30.050  34.807  1.00  0.00     0.049 A 
ATOM     54  H   UNL A   1      40.974  30.744  33.542  1.00  0.00     0.167 HD
ATOM     55  C   UNL A   1      42.775  28.703  32.740  1.00  0.00     0.074 A 
ATOM     56  C   UNL A   1      43.441  27.703  31.932  1.00  0.00     0.031 C 
ATOM     57  C   UNL A   1      43.157  29.048  33.994  1.00  0.00     0.037 A 
BRANCH  44  58
ATOM     58  C   UNL A   1      39.754  33.533  36.531  1.00  0.00     0.064 A 
ATOM     59  C   UNL A   1      40.369  34.791  36.606  1.00  0.00     0.173 A 
ATOM     60  C   UNL A   1      38.876  33.170  37.563  1.00  0.00     0.173 A 
ATOM     61  F   UNL A   1      41.227  35.182  35.652  1.00  0.00    -0.203 F 
ATOM     62  C   UNL A   1      40.133  35.642  37.684  1.00  0.00     0.198 A 
ATOM     63  C   UNL A   1      38.618  34.035  38.624  1.00  0.00     0.198 A 
ATOM     64  F   UNL A   1      38.255  31.981  37.538  1.00  0.00    -0.203 F 
ATOM     65  F   UNL A   1      40.767  36.821  37.756  1.00  0.00    -0.200 F 
ATOM     66  C   UNL A   1      39.252  35.267  38.686  1.00  0.00     0.200 A 
ATOM     67  F   UNL A   1      37.755  33.677  39.585  1.00  0.00    -0.200 F 
ATOM     68  F   UNL A   1      39.015  36.091  39.717  1.00  0.00    -0.200 F 
ENDBRANCH  44  58
BRANCH  45  69
ATOM     69  C   UNL A   1      41.083  27.827  28.440  1.00  0.00     0.064 A 
ATOM     70  C   UNL A   1      41.927  28.266  27.409  1.00  0.00     0.173 A 
ATOM     71  C   UNL A   1      40.450  26.585  28.280  1.00  0.00     0.173 A 
ATOM     72  F   UNL A   1      42.537  29.456  27.506  1.00  0.00    -0.203 F 
ATOM     73  C   UNL A   1      42.109  27.508  26.254  1.00  0.00     0.198 A 
ATOM     74  C   UNL A   1      40.657  25.815  27.138  1.00  0.00     0.198 A 
ATOM     75  F   UNL A   1      39.638  26.116  29.238  1.00  0.00    -0.203 F 
ATOM     76  F   UNL A   1      42.879  27.977  25.264  1.00  0.00    -0.200 F 
ATOM     77  C   UNL A   1      41.477  26.281  26.121  1.00  0.00     0.200 A 
ATOM     78  F   UNL A   1      40.056  24.622  27.020  1.00  0.00    -0.200 F 
ATOM     79  F   UNL A   1      41.652  25.551  25.012  1.00  0.00    -0.200 F 
ENDBRANCH  45  69
BRANCH  57  80
ATOM     80  C   UNL A   1      44.322  28.311  34.586  1.00  0.00     0.064 A 
ATOM     81  C   UNL A   1      45.633  28.799  34.482  1.00  0.00     0.173 A 
ATOM     82  C   UNL A   1      44.119  27.121  35.301  1.00  0.00     0.173 A 
ATOM     83  F   UNL A   1      45.881  29.926  33.796  1.00  0.00    -0.203 F 
ATOM     84  C   UNL A   1      46.700  28.110  35.051  1.00  0.00     0.198 A 
ATOM     85  C   UNL A   1      45.184  26.450  35.893  1.00  0.00     0.198 A 
ATOM     86  F   UNL A   1      42.883  26.615  35.434  1.00  0.00    -0.203 F 
ATOM     87  F   UNL A   1      47.950  28.570  34.898  1.00  0.00    -0.200 F 
ATOM     88  C   UNL A   1      46.475  26.941  35.762  1.00  0.00     0.200 A 
ATOM     89  F   UNL A   1      44.962  25.328  36.592  1.00  0.00    -0.200 F 
ATOM     90  F   UNL A   1      47.502  26.282  36.315  1.00  0.00    -0.200 F 
ENDBRANCH  57  80
ENDBRANCH  31  32
ENDBRANCH  23  26
ENDBRANCH  21  22
ENDBRANCH  20  21
ENDBRANCH   1  20
TORSDOF 15
ENDMDL
