MODEL 1
REMARK VINA RESULT:     -12.5      0.000      0.000
REMARK SMILES O=C(C[C@@H]1CN(c2nc3ccccc3s2)CCO1)NCCCCCCNC(=O)c1ccc(-c2c3nc(c(-c4c(F)c(F)c(F)c(F)c4F)c4ccc([nH]4)c(-c4c(F)c(F)c(F)c(F)c4F)c4nc(c(-c5c(F)c(F)c(F)c(F)c5F)c5ccc2[nH]5)C=C4)C=C3)cc1
REMARK SMILES IDX 22 1 21 2 20 3 19 4 1 5 2 6 3 8 4 9 5 10 18 11 6 12 17 13
REMARK SMILES IDX 16 14 7 15 8 16 15 17 9 18 14 19 10 20 13 21 11 22 12 23
REMARK SMILES IDX 23 24 24 25 25 26 26 27 27 28 28 30 29 31 30 32 91 33 31 34
REMARK SMILES IDX 90 35 32 36 33 37 34 38 84 39 35 40 89 41 83 42 85 43 36 44
REMARK SMILES IDX 88 45 82 46 81 47 37 49 69 50 49 51 68 52 50 53 53 54 67 55
REMARK SMILES IDX 86 56 51 57 52 58 66 60 87 61 54 62 38 63 39 64 47 65 40 66
REMARK SMILES IDX 41 67 45 68 48 69 42 70 43 71 46 72 44 73 70 74 71 75 79 76
REMARK SMILES IDX 72 77 73 78 77 79 80 80 74 81 75 82 78 83 76 84 55 85 56 86
REMARK SMILES IDX 64 87 57 88 58 89 62 90 65 91 59 92 60 93 63 94 61 95
REMARK H PARENT 19 7 26 29 85 48 53 59
REMARK Flexibility Score: inf
ROOT
ATOM      1  C   UNL A   1      30.968  30.267  24.967  1.00  0.00     0.002 C 
ENDROOT
BRANCH   1   2
ATOM      2  C   UNL A   1      31.470  28.972  24.310  1.00  0.00     0.021 C 
BRANCH   2   3
ATOM      3  C   UNL A   1      32.991  28.863  24.193  1.00  0.00     0.116 C 
BRANCH   3   4
ATOM      4  N   UNL A   1      33.429  27.509  24.432  1.00  0.00    -0.356 N 
ATOM      5  O   UNL A   1      33.536  27.598  26.725  1.00  0.00    -0.275 OA
ATOM      6  C   UNL A   1      33.712  26.997  25.672  1.00  0.00     0.222 C 
ATOM      7  H   UNL A   1      33.530  26.914  23.654  1.00  0.00     0.163 HD
BRANCH   6   8
ATOM      8  C   UNL A   1      34.373  25.638  25.620  1.00  0.00     0.133 C 
BRANCH   8   9
ATOM      9  C   UNL A   1      33.405  24.497  25.918  1.00  0.00     0.147 C 
ATOM     10  C   UNL A   1      33.649  23.347  24.922  1.00  0.00     0.151 C 
ATOM     11  O   UNL A   1      32.036  24.972  25.786  1.00  0.00    -0.374 OA
ATOM     12  N   UNL A   1      32.665  22.296  25.163  1.00  0.00    -0.343 N 
ATOM     13  C   UNL A   1      31.102  23.906  26.073  1.00  0.00     0.182 C 
ATOM     14  C   UNL A   1      31.275  22.730  25.094  1.00  0.00     0.147 C 
BRANCH  12  15
ATOM     15  C   UNL A   1      32.997  20.995  25.011  1.00  0.00     0.186 A 
ATOM     16  N   UNL A   1      32.163  19.990  25.131  1.00  0.00    -0.220 NA
ATOM     17  S   UNL A   1      34.637  20.547  24.710  1.00  0.00    -0.097 S 
ATOM     18  C   UNL A   1      32.819  18.790  24.899  1.00  0.00     0.084 A 
ATOM     19  C   UNL A   1      34.194  18.894  24.692  1.00  0.00     0.056 A 
ATOM     20  C   UNL A   1      32.229  17.511  24.859  1.00  0.00     0.030 A 
ATOM     21  C   UNL A   1      35.011  17.769  24.496  1.00  0.00     0.021 A 
ATOM     22  C   UNL A   1      33.028  16.382  24.636  1.00  0.00     0.002 A 
ATOM     23  C   UNL A   1      34.403  16.512  24.470  1.00  0.00     0.002 A 
ENDBRANCH  12  15
ENDBRANCH   8   9
ENDBRANCH   6   8
ENDBRANCH   3   4
ENDBRANCH   2   3
ENDBRANCH   1   2
BRANCH   1  24
ATOM     24  C   UNL A   1      31.662  30.653  26.277  1.00  0.00     0.002 C 
BRANCH  24  25
ATOM     25  C   UNL A   1      31.431  32.093  26.737  1.00  0.00     0.021 C 
BRANCH  25  26
ATOM     26  C   UNL A   1      32.679  32.821  27.224  1.00  0.00     0.116 C 
BRANCH  26  27
ATOM     27  N   UNL A   1      32.412  34.201  27.602  1.00  0.00    -0.352 N 
ATOM     28  C   UNL A   1      32.994  34.967  28.581  1.00  0.00     0.251 C 
ATOM     29  H   UNL A   1      31.711  34.652  27.077  1.00  0.00     0.163 HD
ATOM     30  O   UNL A   1      32.524  36.068  28.863  1.00  0.00    -0.269 OA
BRANCH  28  31
ATOM     31  C   UNL A   1      34.168  34.460  29.324  1.00  0.00     0.039 A 
ATOM     32  C   UNL A   1      33.966  33.818  30.548  1.00  0.00     0.014 A 
ATOM     33  C   UNL A   1      35.463  34.620  28.825  1.00  0.00     0.014 A 
ATOM     34  C   UNL A   1      35.054  33.274  31.235  1.00  0.00     0.010 A 
ATOM     35  C   UNL A   1      36.537  34.013  29.472  1.00  0.00     0.010 A 
ATOM     36  C   UNL A   1      36.344  33.332  30.684  1.00  0.00    -0.014 A 
BRANCH  36  37
ATOM     37  C   UNL A   1      37.497  32.673  31.353  1.00  0.00     0.031 A 
ATOM     38  C   UNL A   1      38.215  31.533  30.686  1.00  0.00     0.074 A 
ATOM     39  C   UNL A   1      37.858  33.063  32.591  1.00  0.00     0.049 A 
ATOM     40  N   UNL A   1      39.200  30.797  31.137  1.00  0.00    -0.248 NA
ATOM     41  C   UNL A   1      37.747  31.151  29.345  1.00  0.00     0.031 C 
ATOM     42  C   UNL A   1      37.211  34.125  33.365  1.00  0.00     0.029 A 
ATOM     43  N   UNL A   1      38.849  32.605  33.423  1.00  0.00    -0.354 N 
ATOM     44  C   UNL A   1      39.462  29.864  30.144  1.00  0.00     0.074 A 
ATOM     45  C   UNL A   1      38.496  30.087  29.089  1.00  0.00     0.031 C 
ATOM     46  C   UNL A   1      37.837  34.253  34.545  1.00  0.00     0.029 A 
ATOM     47  C   UNL A   1      38.900  33.256  34.631  1.00  0.00     0.049 A 
ATOM     48  H   UNL A   1      39.467  31.878  33.176  1.00  0.00     0.167 HD
ATOM     49  C   UNL A   1      40.433  28.920  30.104  1.00  0.00     0.037 A 
ATOM     50  C   UNL A   1      39.704  33.064  35.695  1.00  0.00     0.037 A 
ATOM     51  C   UNL A   1      41.403  28.710  31.148  1.00  0.00     0.049 A 
ATOM     52  C   UNL A   1      40.764  31.996  35.632  1.00  0.00     0.074 A 
ATOM     53  C   UNL A   1      42.461  27.819  31.175  1.00  0.00     0.029 A 
ATOM     54  N   UNL A   1      41.427  29.395  32.353  1.00  0.00    -0.354 N 
ATOM     55  N   UNL A   1      41.048  31.169  34.656  1.00  0.00    -0.248 NA
ATOM     56  C   UNL A   1      41.618  31.841  36.817  1.00  0.00     0.031 C 
ATOM     57  C   UNL A   1      43.092  27.925  32.418  1.00  0.00     0.029 A 
ATOM     58  C   UNL A   1      42.466  28.926  33.143  1.00  0.00     0.049 A 
ATOM     59  H   UNL A   1      40.799  30.109  32.611  1.00  0.00     0.167 HD
ATOM     60  C   UNL A   1      42.131  30.418  35.095  1.00  0.00     0.074 A 
ATOM     61  C   UNL A   1      42.462  30.899  36.420  1.00  0.00     0.031 C 
ATOM     62  C   UNL A   1      42.790  29.419  34.458  1.00  0.00     0.037 A 
BRANCH  49  63
ATOM     63  C   UNL A   1      40.497  28.038  28.887  1.00  0.00     0.064 A 
ATOM     64  C   UNL A   1      39.780  26.835  28.810  1.00  0.00     0.173 A 
ATOM     65  C   UNL A   1      41.252  28.423  27.768  1.00  0.00     0.173 A 
ATOM     66  F   UNL A   1      39.051  26.416  29.856  1.00  0.00    -0.203 F 
ATOM     67  C   UNL A   1      39.840  26.035  27.673  1.00  0.00     0.198 A 
ATOM     68  C   UNL A   1      41.283  27.637  26.619  1.00  0.00     0.198 A 
ATOM     69  F   UNL A   1      41.950  29.568  27.784  1.00  0.00    -0.203 F 
ATOM     70  F   UNL A   1      39.189  24.865  27.643  1.00  0.00    -0.200 F 
ATOM     71  C   UNL A   1      40.585  26.440  26.576  1.00  0.00     0.200 A 
ATOM     72  F   UNL A   1      41.990  28.038  25.554  1.00  0.00    -0.200 F 
ATOM     73  F   UNL A   1      40.635  25.674  25.478  1.00  0.00    -0.200 F 
ENDBRANCH  49  63
BRANCH  50  74
ATOM     74  C   UNL A   1      39.555  33.916  36.905  1.00  0.00     0.064 A 
ATOM     75  C   UNL A   1      38.785  33.489  37.996  1.00  0.00     0.173 A 
ATOM     76  C   UNL A   1      40.168  35.174  36.992  1.00  0.00     0.173 A 
ATOM     77  F   UNL A   1      38.162  32.302  37.951  1.00  0.00    -0.203 F 
ATOM     78  C   UNL A   1      38.617  34.297  39.119  1.00  0.00     0.198 A 
ATOM     79  C   UNL A   1      40.024  35.968  38.128  1.00  0.00     0.198 A 
ATOM     80  F   UNL A   1      40.919  35.628  35.978  1.00  0.00    -0.203 F 
ATOM     81  F   UNL A   1      37.834  33.885  40.125  1.00  0.00    -0.200 F 
ATOM     82  C   UNL A   1      39.241  35.533  39.186  1.00  0.00     0.200 A 
ATOM     83  F   UNL A   1      40.643  37.155  38.196  1.00  0.00    -0.200 F 
ATOM     84  F   UNL A   1      39.081  36.309  40.267  1.00  0.00    -0.200 F 
ENDBRANCH  50  74
BRANCH  62  85
ATOM     85  C   UNL A   1      43.962  28.803  35.167  1.00  0.00     0.064 A 
ATOM     86  C   UNL A   1      43.811  27.715  36.039  1.00  0.00     0.173 A 
ATOM     87  C   UNL A   1      45.261  29.287  34.942  1.00  0.00     0.173 A 
ATOM     88  F   UNL A   1      42.590  27.224  36.302  1.00  0.00    -0.203 F 
ATOM     89  C   UNL A   1      44.913  27.153  36.681  1.00  0.00     0.198 A 
ATOM     90  C   UNL A   1      46.362  28.701  35.558  1.00  0.00     0.198 A 
ATOM     91  F   UNL A   1      45.463  30.322  34.112  1.00  0.00    -0.203 F 
ATOM     92  F   UNL A   1      44.737  26.148  37.551  1.00  0.00    -0.200 F 
ATOM     93  C   UNL A   1      46.186  27.640  36.433  1.00  0.00     0.200 A 
ATOM     94  F   UNL A   1      47.595  29.163  35.306  1.00  0.00    -0.200 F 
ATOM     95  F   UNL A   1      47.246  27.093  37.045  1.00  0.00    -0.200 F 
ENDBRANCH  62  85
ENDBRANCH  36  37
ENDBRANCH  28  31
ENDBRANCH  26  27
ENDBRANCH  25  26
ENDBRANCH  24  25
ENDBRANCH   1  24
TORSDOF 15
ENDMDL
MODEL 2
REMARK VINA RESULT:     -12.5      0.670      1.744
REMARK SMILES O=C(C[C@@H]1CN(c2nc3ccccc3s2)CCO1)NCCCCCCNC(=O)c1ccc(-c2c3nc(c(-c4c(F)c(F)c(F)c(F)c4F)c4ccc([nH]4)c(-c4c(F)c(F)c(F)c(F)c4F)c4nc(c(-c5c(F)c(F)c(F)c(F)c5F)c5ccc2[nH]5)C=C4)C=C3)cc1
REMARK SMILES IDX 22 1 21 2 20 3 19 4 1 5 2 6 3 8 4 9 5 10 18 11 6 12 17 13
REMARK SMILES IDX 16 14 7 15 8 16 15 17 9 18 14 19 10 20 13 21 11 22 12 23
REMARK SMILES IDX 23 24 24 25 25 26 26 27 27 28 28 30 29 31 30 32 91 33 31 34
REMARK SMILES IDX 90 35 32 36 33 37 34 38 84 39 35 40 89 41 83 42 85 43 36 44
REMARK SMILES IDX 88 45 82 46 81 47 37 49 69 50 49 51 68 52 50 53 53 54 67 55
REMARK SMILES IDX 86 56 51 57 52 58 66 60 87 61 54 62 38 63 39 64 47 65 40 66
REMARK SMILES IDX 41 67 45 68 48 69 42 70 43 71 46 72 44 73 70 74 71 75 79 76
REMARK SMILES IDX 72 77 73 78 77 79 80 80 74 81 75 82 78 83 76 84 55 85 56 86
REMARK SMILES IDX 64 87 57 88 58 89 62 90 65 91 59 92 60 93 63 94 61 95
REMARK H PARENT 19 7 26 29 85 48 53 59
REMARK Flexibility Score: inf
ROOT
ATOM      1  C   UNL A   1      31.785  29.501  27.253  1.00  0.00     0.002 C 
ENDROOT
BRANCH   1   2
ATOM      2  C   UNL A   1      32.596  28.230  26.960  1.00  0.00     0.021 C 
BRANCH   2   3
ATOM      3  C   UNL A   1      33.657  28.386  25.870  1.00  0.00     0.116 C 
BRANCH   3   4
ATOM      4  N   UNL A   1      33.766  27.182  25.082  1.00  0.00    -0.356 N 
ATOM      5  O   UNL A   1      32.318  27.762  23.396  1.00  0.00    -0.275 OA
ATOM      6  C   UNL A   1      33.054  26.944  23.934  1.00  0.00     0.222 C 
ATOM      7  H   UNL A   1      34.393  26.487  25.388  1.00  0.00     0.163 HD
BRANCH   6   8
ATOM      8  C   UNL A   1      33.179  25.521  23.439  1.00  0.00     0.133 C 
BRANCH   8   9
ATOM      9  C   UNL A   1      32.980  24.489  24.546  1.00  0.00     0.147 C 
ATOM     10  C   UNL A   1      32.740  23.104  23.915  1.00  0.00     0.151 C 
ATOM     11  O   UNL A   1      31.831  24.859  25.357  1.00  0.00    -0.374 OA
ATOM     12  N   UNL A   1      32.471  22.141  24.979  1.00  0.00    -0.343 N 
ATOM     13  C   UNL A   1      31.631  23.898  26.417  1.00  0.00     0.182 C 
ATOM     14  C   UNL A   1      31.360  22.490  25.855  1.00  0.00     0.147 C 
BRANCH  12  15
ATOM     15  C   UNL A   1      32.904  20.864  24.876  1.00  0.00     0.186 A 
ATOM     16  N   UNL A   1      32.144  19.803  25.010  1.00  0.00    -0.220 NA
ATOM     17  S   UNL A   1      34.580  20.533  24.628  1.00  0.00    -0.097 S 
ATOM     18  C   UNL A   1      32.895  18.650  24.831  1.00  0.00     0.084 A 
ATOM     19  C   UNL A   1      34.263  18.851  24.654  1.00  0.00     0.056 A 
ATOM     20  C   UNL A   1      32.403  17.329  24.819  1.00  0.00     0.030 A 
ATOM     21  C   UNL A   1      35.166  17.786  24.513  1.00  0.00     0.021 A 
ATOM     22  C   UNL A   1      33.289  16.258  24.652  1.00  0.00     0.002 A 
ATOM     23  C   UNL A   1      34.655  16.487  24.514  1.00  0.00     0.002 A 
ENDBRANCH  12  15
ENDBRANCH   8   9
ENDBRANCH   6   8
ENDBRANCH   3   4
ENDBRANCH   2   3
ENDBRANCH   1   2
BRANCH   1  24
ATOM     24  C   UNL A   1      31.661  30.487  26.087  1.00  0.00     0.002 C 
BRANCH  24  25
ATOM     25  C   UNL A   1      31.451  31.948  26.489  1.00  0.00     0.021 C 
BRANCH  25  26
ATOM     26  C   UNL A   1      32.637  32.598  27.194  1.00  0.00     0.116 C 
BRANCH  26  27
ATOM     27  N   UNL A   1      32.389  33.989  27.541  1.00  0.00    -0.352 N 
ATOM     28  C   UNL A   1      32.976  34.767  28.507  1.00  0.00     0.251 C 
ATOM     29  H   UNL A   1      31.699  34.439  27.002  1.00  0.00     0.163 HD
ATOM     30  O   UNL A   1      32.522  35.880  28.763  1.00  0.00    -0.269 OA
BRANCH  28  31
ATOM     31  C   UNL A   1      34.138  34.258  29.269  1.00  0.00     0.039 A 
ATOM     32  C   UNL A   1      33.911  33.478  30.405  1.00  0.00     0.014 A 
ATOM     33  C   UNL A   1      35.446  34.550  28.872  1.00  0.00     0.014 A 
ATOM     34  C   UNL A   1      34.992  32.934  31.101  1.00  0.00     0.010 A 
ATOM     35  C   UNL A   1      36.520  33.946  29.522  1.00  0.00     0.010 A 
ATOM     36  C   UNL A   1      36.305  33.130  30.643  1.00  0.00    -0.014 A 
BRANCH  36  37
ATOM     37  C   UNL A   1      37.460  32.476  31.314  1.00  0.00     0.031 A 
ATOM     38  C   UNL A   1      38.168  31.322  30.660  1.00  0.00     0.074 A 
ATOM     39  C   UNL A   1      37.832  32.884  32.543  1.00  0.00     0.049 A 
ATOM     40  N   UNL A   1      39.153  30.589  31.115  1.00  0.00    -0.248 NA
ATOM     41  C   UNL A   1      37.688  30.921  29.328  1.00  0.00     0.031 C 
ATOM     42  C   UNL A   1      37.196  33.961  33.304  1.00  0.00     0.029 A 
ATOM     43  N   UNL A   1      38.828  32.434  33.374  1.00  0.00    -0.354 N 
ATOM     44  C   UNL A   1      39.403  29.639  30.134  1.00  0.00     0.074 A 
ATOM     45  C   UNL A   1      38.430  29.850  29.084  1.00  0.00     0.031 C 
ATOM     46  C   UNL A   1      37.831  34.105  34.477  1.00  0.00     0.029 A 
ATOM     47  C   UNL A   1      38.891  33.104  34.571  1.00  0.00     0.049 A 
ATOM     48  H   UNL A   1      39.440  31.701  33.135  1.00  0.00     0.167 HD
ATOM     49  C   UNL A   1      40.371  28.690  30.102  1.00  0.00     0.037 A 
ATOM     50  C   UNL A   1      39.702  32.926  35.632  1.00  0.00     0.037 A 
ATOM     51  C   UNL A   1      41.347  28.492  31.142  1.00  0.00     0.049 A 
ATOM     52  C   UNL A   1      40.756  31.853  35.578  1.00  0.00     0.074 A 
ATOM     53  C   UNL A   1      42.401  27.598  31.175  1.00  0.00     0.029 A 
ATOM     54  N   UNL A   1      41.383  29.197  32.336  1.00  0.00    -0.354 N 
ATOM     55  N   UNL A   1      41.030  31.009  34.613  1.00  0.00    -0.248 NA
ATOM     56  C   UNL A   1      41.619  31.713  36.759  1.00  0.00     0.031 C 
ATOM     57  C   UNL A   1      43.042  27.721  32.412  1.00  0.00     0.029 A 
ATOM     58  C   UNL A   1      42.426  28.736  33.126  1.00  0.00     0.049 A 
ATOM     59  H   UNL A   1      40.761  29.917  32.587  1.00  0.00     0.167 HD
ATOM     60  C   UNL A   1      42.112  30.260  35.056  1.00  0.00     0.074 A 
ATOM     61  C   UNL A   1      42.456  30.760  36.371  1.00  0.00     0.031 C 
ATOM     62  C   UNL A   1      42.762  29.248  34.430  1.00  0.00     0.037 A 
BRANCH  49  63
ATOM     63  C   UNL A   1      40.421  27.789  28.900  1.00  0.00     0.064 A 
ATOM     64  C   UNL A   1      41.217  28.092  27.784  1.00  0.00     0.173 A 
ATOM     65  C   UNL A   1      39.697  26.587  28.880  1.00  0.00     0.173 A 
ATOM     66  F   UNL A   1      41.921  29.233  27.747  1.00  0.00    -0.203 F 
ATOM     67  C   UNL A   1      41.262  27.242  26.683  1.00  0.00     0.198 A 
ATOM     68  C   UNL A   1      39.770  25.722  27.791  1.00  0.00     0.198 A 
ATOM     69  F   UNL A   1      38.927  26.243  29.923  1.00  0.00    -0.203 F 
ATOM     70  F   UNL A   1      41.987  27.578  25.608  1.00  0.00    -0.200 F 
ATOM     71  C   UNL A   1      40.545  26.055  26.690  1.00  0.00     0.200 A 
ATOM     72  F   UNL A   1      39.090  24.568  27.806  1.00  0.00    -0.200 F 
ATOM     73  F   UNL A   1      40.596  25.233  25.633  1.00  0.00    -0.200 F 
ENDBRANCH  49  63
BRANCH  50  74
ATOM     74  C   UNL A   1      39.565  33.797  36.829  1.00  0.00     0.064 A 
ATOM     75  C   UNL A   1      38.764  33.413  37.913  1.00  0.00     0.173 A 
ATOM     76  C   UNL A   1      40.223  35.034  36.911  1.00  0.00     0.173 A 
ATOM     77  F   UNL A   1      38.098  32.249  37.873  1.00  0.00    -0.203 F 
ATOM     78  C   UNL A   1      38.608  34.240  39.023  1.00  0.00     0.198 A 
ATOM     79  C   UNL A   1      40.091  35.846  38.035  1.00  0.00     0.198 A 
ATOM     80  F   UNL A   1      41.006  35.447  35.904  1.00  0.00    -0.203 F 
ATOM     81  F   UNL A   1      37.796  33.869  40.022  1.00  0.00    -0.200 F 
ATOM     82  C   UNL A   1      39.276  35.454  39.086  1.00  0.00     0.200 A 
ATOM     83  F   UNL A   1      40.752  37.011  38.099  1.00  0.00    -0.200 F 
ATOM     84  F   UNL A   1      39.128  36.248  40.155  1.00  0.00    -0.200 F 
ENDBRANCH  50  74
BRANCH  62  85
ATOM     85  C   UNL A   1      43.937  28.639  35.140  1.00  0.00     0.064 A 
ATOM     86  C   UNL A   1      45.236  29.147  34.990  1.00  0.00     0.173 A 
ATOM     87  C   UNL A   1      43.755  27.553  36.011  1.00  0.00     0.173 A 
ATOM     88  F   UNL A   1      45.468  30.173  34.157  1.00  0.00    -0.203 F 
ATOM     89  C   UNL A   1      46.312  28.574  35.664  1.00  0.00     0.198 A 
ATOM     90  C   UNL A   1      44.827  27.005  36.709  1.00  0.00     0.198 A 
ATOM     91  F   UNL A   1      42.532  27.033  36.197  1.00  0.00    -0.203 F 
ATOM     92  F   UNL A   1      47.552  29.043  35.464  1.00  0.00    -0.200 F 
ATOM     93  C   UNL A   1      46.106  27.510  36.529  1.00  0.00     0.200 A 
ATOM     94  F   UNL A   1      44.623  25.987  37.557  1.00  0.00    -0.200 F 
ATOM     95  F   UNL A   1      47.140  26.965  37.183  1.00  0.00    -0.200 F 
ENDBRANCH  62  85
ENDBRANCH  36  37
ENDBRANCH  28  31
ENDBRANCH  26  27
ENDBRANCH  25  26
ENDBRANCH  24  25
ENDBRANCH   1  24
TORSDOF 15
ENDMDL
MODEL 3
REMARK VINA RESULT:     -12.3      5.777     11.451
REMARK SMILES O=C(C[C@@H]1CN(c2nc3ccccc3s2)CCO1)NCCCCCCNC(=O)c1ccc(-c2c3nc(c(-c4c(F)c(F)c(F)c(F)c4F)c4ccc([nH]4)c(-c4c(F)c(F)c(F)c(F)c4F)c4nc(c(-c5c(F)c(F)c(F)c(F)c5F)c5ccc2[nH]5)C=C4)C=C3)cc1
REMARK SMILES IDX 22 1 21 2 20 3 19 4 1 5 2 6 3 8 4 9 5 10 18 11 6 12 17 13
REMARK SMILES IDX 16 14 7 15 8 16 15 17 9 18 14 19 10 20 13 21 11 22 12 23
REMARK SMILES IDX 23 24 24 25 25 26 26 27 27 28 28 30 29 31 30 32 91 33 31 34
REMARK SMILES IDX 90 35 32 36 33 37 34 38 84 39 35 40 89 41 83 42 85 43 36 44
REMARK SMILES IDX 88 45 82 46 81 47 37 49 69 50 49 51 68 52 50 53 53 54 67 55
REMARK SMILES IDX 86 56 51 57 52 58 66 60 87 61 54 62 38 63 39 64 47 65 40 66
REMARK SMILES IDX 41 67 45 68 48 69 42 70 43 71 46 72 44 73 70 74 71 75 79 76
REMARK SMILES IDX 72 77 73 78 77 79 80 80 74 81 75 82 78 83 76 84 55 85 56 86
REMARK SMILES IDX 64 87 57 88 58 89 62 90 65 91 59 92 60 93 63 94 61 95
REMARK H PARENT 19 7 26 29 85 48 53 59
REMARK Flexibility Score: inf
ROOT
ATOM      1  C   UNL A   1      36.999  21.934  24.338  1.00  0.00     0.002 C 
ENDROOT
BRANCH   1   2
ATOM      2  C   UNL A   1      36.777  23.153  25.247  1.00  0.00     0.021 C 
BRANCH   2   3
ATOM      3  C   UNL A   1      35.625  24.065  24.823  1.00  0.00     0.116 C 
BRANCH   3   4
ATOM      4  N   UNL A   1      34.425  23.299  24.584  1.00  0.00    -0.356 N 
ATOM      5  O   UNL A   1      34.465  23.336  22.287  1.00  0.00    -0.275 OA
ATOM      6  C   UNL A   1      33.914  23.035  23.339  1.00  0.00     0.222 C 
ATOM      7  H   UNL A   1      33.943  22.943  25.365  1.00  0.00     0.163 HD
BRANCH   6   8
ATOM      8  C   UNL A   1      32.532  22.422  23.379  1.00  0.00     0.133 C 
BRANCH   8   9
ATOM      9  C   UNL A   1      31.506  23.318  24.067  1.00  0.00     0.147 C 
ATOM     10  C   UNL A   1      31.771  24.786  23.681  1.00  0.00     0.151 C 
ATOM     11  O   UNL A   1      31.616  23.167  25.510  1.00  0.00    -0.374 OA
ATOM     12  N   UNL A   1      30.837  25.641  24.408  1.00  0.00    -0.343 N 
ATOM     13  C   UNL A   1      30.645  24.003  26.180  1.00  0.00     0.182 C 
ATOM     14  C   UNL A   1      30.869  25.492  25.858  1.00  0.00     0.147 C 
BRANCH  12  15
ATOM     15  C   UNL A   1      30.338  26.758  23.833  1.00  0.00     0.186 A 
ATOM     16  N   UNL A   1      29.064  27.064  23.772  1.00  0.00    -0.220 NA
ATOM     17  S   UNL A   1      31.391  27.868  23.035  1.00  0.00    -0.097 S 
ATOM     18  C   UNL A   1      28.892  28.282  23.131  1.00  0.00     0.084 A 
ATOM     19  C   UNL A   1      30.055  28.854  22.618  1.00  0.00     0.056 A 
ATOM     20  C   UNL A   1      27.673  28.967  22.957  1.00  0.00     0.030 A 
ATOM     21  C   UNL A   1      30.044  30.058  21.896  1.00  0.00     0.021 A 
ATOM     22  C   UNL A   1      27.652  30.184  22.263  1.00  0.00     0.002 A 
ATOM     23  C   UNL A   1      28.823  30.713  21.729  1.00  0.00     0.002 A 
ENDBRANCH  12  15
ENDBRANCH   8   9
ENDBRANCH   6   8
ENDBRANCH   3   4
ENDBRANCH   2   3
ENDBRANCH   1   2
BRANCH   1  24
ATOM     24  C   UNL A   1      36.827  20.569  25.011  1.00  0.00     0.002 C 
BRANCH  24  25
ATOM     25  C   UNL A   1      38.048  19.651  24.944  1.00  0.00     0.021 C 
BRANCH  25  26
ATOM     26  C   UNL A   1      39.240  20.104  25.783  1.00  0.00     0.116 C 
BRANCH  26  27
ATOM     27  N   UNL A   1      40.258  19.072  25.911  1.00  0.00    -0.352 N 
ATOM     28  C   UNL A   1      41.608  19.199  26.122  1.00  0.00     0.251 C 
ATOM     29  H   UNL A   1      39.930  18.147  25.837  1.00  0.00     0.163 HD
ATOM     30  O   UNL A   1      42.341  18.215  26.043  1.00  0.00    -0.269 OA
BRANCH  28  31
ATOM     31  C   UNL A   1      42.195  20.525  26.416  1.00  0.00     0.039 A 
ATOM     32  C   UNL A   1      42.690  21.293  25.358  1.00  0.00     0.014 A 
ATOM     33  C   UNL A   1      42.265  21.010  27.724  1.00  0.00     0.014 A 
ATOM     34  C   UNL A   1      43.188  22.574  25.605  1.00  0.00     0.010 A 
ATOM     35  C   UNL A   1      42.693  22.316  27.958  1.00  0.00     0.010 A 
ATOM     36  C   UNL A   1      43.158  23.112  26.901  1.00  0.00    -0.014 A 
BRANCH  36  37
ATOM     37  C   UNL A   1      43.592  24.510  27.164  1.00  0.00     0.031 A 
ATOM     38  C   UNL A   1      42.614  25.528  27.678  1.00  0.00     0.074 A 
ATOM     39  C   UNL A   1      44.858  24.877  26.880  1.00  0.00     0.049 A 
ATOM     40  N   UNL A   1      42.791  26.805  27.910  1.00  0.00    -0.248 NA
ATOM     41  C   UNL A   1      41.246  25.056  27.942  1.00  0.00     0.031 C 
ATOM     42  C   UNL A   1      45.891  23.994  26.333  1.00  0.00     0.029 A 
ATOM     43  N   UNL A   1      45.489  26.089  27.002  1.00  0.00    -0.354 N 
ATOM     44  C   UNL A   1      41.561  27.288  28.336  1.00  0.00     0.074 A 
ATOM     45  C   UNL A   1      40.630  26.182  28.276  1.00  0.00     0.031 C 
ATOM     46  C   UNL A   1      47.030  24.687  26.190  1.00  0.00     0.029 A 
ATOM     47  C   UNL A   1      46.800  26.072  26.593  1.00  0.00     0.049 A 
ATOM     48  H   UNL A   1      45.044  26.896  27.350  1.00  0.00     0.167 HD
ATOM     49  C   UNL A   1      41.242  28.535  28.759  1.00  0.00     0.037 A 
ATOM     50  C   UNL A   1      47.712  27.062  26.536  1.00  0.00     0.037 A 
ATOM     51  C   UNL A   1      42.175  29.630  28.832  1.00  0.00     0.049 A 
ATOM     52  C   UNL A   1      47.326  28.443  26.996  1.00  0.00     0.074 A 
ATOM     53  C   UNL A   1      41.962  30.914  29.301  1.00  0.00     0.029 A 
ATOM     54  N   UNL A   1      43.497  29.570  28.416  1.00  0.00    -0.354 N 
ATOM     55  N   UNL A   1      46.179  28.869  27.466  1.00  0.00    -0.248 NA
ATOM     56  C   UNL A   1      48.365  29.479  26.922  1.00  0.00     0.031 C 
ATOM     57  C   UNL A   1      43.138  31.648  29.119  1.00  0.00     0.029 A 
ATOM     58  C   UNL A   1      44.104  30.805  28.593  1.00  0.00     0.049 A 
ATOM     59  H   UNL A   1      43.939  28.771  28.050  1.00  0.00     0.167 HD
ATOM     60  C   UNL A   1      46.366  30.211  27.772  1.00  0.00     0.074 A 
ATOM     61  C   UNL A   1      47.743  30.524  27.449  1.00  0.00     0.031 C 
ATOM     62  C   UNL A   1      45.477  31.102  28.274  1.00  0.00     0.037 A 
BRANCH  49  63
ATOM     63  C   UNL A   1      39.820  28.785  29.178  1.00  0.00     0.064 A 
ATOM     64  C   UNL A   1      39.400  28.605  30.505  1.00  0.00     0.173 A 
ATOM     65  C   UNL A   1      38.875  29.250  28.249  1.00  0.00     0.173 A 
ATOM     66  F   UNL A   1      40.260  28.154  31.430  1.00  0.00    -0.203 F 
ATOM     67  C   UNL A   1      38.082  28.851  30.880  1.00  0.00     0.198 A 
ATOM     68  C   UNL A   1      37.566  29.526  28.635  1.00  0.00     0.198 A 
ATOM     69  F   UNL A   1      39.225  29.447  26.970  1.00  0.00    -0.203 F 
ATOM     70  F   UNL A   1      37.692  28.622  32.141  1.00  0.00    -0.200 F 
ATOM     71  C   UNL A   1      37.169  29.318  29.947  1.00  0.00     0.200 A 
ATOM     72  F   UNL A   1      36.689  29.993  27.736  1.00  0.00    -0.200 F 
ATOM     73  F   UNL A   1      35.902  29.563  30.311  1.00  0.00    -0.200 F 
ENDBRANCH  49  63
BRANCH  50  74
ATOM     74  C   UNL A   1      49.087  26.781  26.046  1.00  0.00     0.064 A 
ATOM     75  C   UNL A   1      49.432  26.995  24.704  1.00  0.00     0.173 A 
ATOM     76  C   UNL A   1      50.081  26.285  26.903  1.00  0.00     0.173 A 
ATOM     77  F   UNL A   1      48.511  27.448  23.841  1.00  0.00    -0.203 F 
ATOM     78  C   UNL A   1      50.710  26.703  24.233  1.00  0.00     0.198 A 
ATOM     79  C   UNL A   1      51.368  26.023  26.438  1.00  0.00     0.198 A 
ATOM     80  F   UNL A   1      49.805  26.067  28.197  1.00  0.00    -0.203 F 
ATOM     81  F   UNL A   1      50.997  26.870  22.935  1.00  0.00    -0.200 F 
ATOM     82  C   UNL A   1      51.679  26.223  25.101  1.00  0.00     0.200 A 
ATOM     83  F   UNL A   1      52.306  25.574  27.284  1.00  0.00    -0.200 F 
ATOM     84  F   UNL A   1      52.909  25.945  24.649  1.00  0.00    -0.200 F 
ENDBRANCH  50  74
BRANCH  62  85
ATOM     85  C   UNL A   1      45.974  32.494  28.545  1.00  0.00     0.064 A 
ATOM     86  C   UNL A   1      46.623  32.827  29.743  1.00  0.00     0.173 A 
ATOM     87  C   UNL A   1      45.830  33.500  27.577  1.00  0.00     0.173 A 
ATOM     88  F   UNL A   1      46.773  31.907  30.709  1.00  0.00    -0.203 F 
ATOM     89  C   UNL A   1      47.085  34.121  29.972  1.00  0.00     0.198 A 
ATOM     90  C   UNL A   1      46.323  34.783  27.795  1.00  0.00     0.198 A 
ATOM     91  F   UNL A   1      45.223  33.233  26.410  1.00  0.00    -0.203 F 
ATOM     92  F   UNL A   1      47.655  34.429  31.146  1.00  0.00    -0.200 F 
ATOM     93  C   UNL A   1      46.942  35.094  28.996  1.00  0.00     0.200 A 
ATOM     94  F   UNL A   1      46.198  35.718  26.844  1.00  0.00    -0.200 F 
ATOM     95  F   UNL A   1      47.393  36.337  29.214  1.00  0.00    -0.200 F 
ENDBRANCH  62  85
ENDBRANCH  36  37
ENDBRANCH  28  31
ENDBRANCH  26  27
ENDBRANCH  25  26
ENDBRANCH  24  25
ENDBRANCH   1  24
TORSDOF 15
ENDMDL
