MODEL 1
REMARK VINA RESULT:     -12.5      0.000      0.000
REMARK SMILES O=C(NCCCCCCNC(=O)c1cc(F)c(F)cc1NS(=O)(=O)c1ccc2c(c1)CCC2)c1ccc(-c2c3nc(c(-c4c(F)c(F)c(F)c(F)c4F)c4ccc([nH]4)c(-c4c(F)c(F)c(F)c(F)c4F)c4nc(c(-c5c(F)c(F)c(F)c(F)c5F)c5ccc2[nH]5)C=C4)C=C3)cc1
REMARK SMILES IDX 7 1 6 2 5 3 4 4 3 5 1 6 2 7 34 9 35 10 96 11 36 12 95 13
REMARK SMILES IDX 37 14 38 15 39 16 89 17 40 18 94 19 88 20 90 21 41 22 93 23
REMARK SMILES IDX 87 24 86 25 42 27 74 28 54 29 73 30 55 31 58 32 72 33 91 34
REMARK SMILES IDX 56 35 57 36 71 38 92 39 59 40 43 41 44 42 52 43 45 44 46 45
REMARK SMILES IDX 50 46 53 47 47 48 48 49 51 50 49 51 75 52 76 53 84 54 77 55
REMARK SMILES IDX 78 56 82 57 85 58 79 59 80 60 83 61 81 62 60 63 61 64 69 65
REMARK SMILES IDX 62 66 63 67 67 68 70 69 64 70 65 71 68 72 66 73 8 74 9 75
REMARK SMILES IDX 10 76 11 77 12 79 13 80 14 81 20 82 15 83 19 84 16 85 17 86
REMARK SMILES IDX 18 87 21 88 22 90 23 91 24 92 25 93 26 94 30 95 27 96 29 97
REMARK SMILES IDX 28 98 31 99 33 100 32 101
REMARK H PARENT 3 8 90 26 58 37 10 78 21 89
REMARK Flexibility Score: inf
ROOT
ATOM      1  C   UNL A   1      36.136  21.563  24.556  1.00  0.00     0.002 C 
ENDROOT
BRANCH   1   2
ATOM      2  C   UNL A   1      36.477  20.140  25.013  1.00  0.00     0.002 C 
BRANCH   2   3
ATOM      3  C   UNL A   1      37.902  19.680  24.706  1.00  0.00     0.021 C 
BRANCH   3   4
ATOM      4  C   UNL A   1      38.930  20.039  25.771  1.00  0.00     0.116 C 
BRANCH   4   5
ATOM      5  N   UNL A   1      40.020  19.079  25.844  1.00  0.00    -0.352 N 
ATOM      6  O   UNL A   1      42.167  18.387  25.941  1.00  0.00    -0.269 OA
ATOM      7  C   UNL A   1      41.355  19.296  26.078  1.00  0.00     0.251 C 
ATOM      8  H   UNL A   1      39.762  18.138  25.703  1.00  0.00     0.163 HD
BRANCH   7   9
ATOM      9  C   UNL A   1      41.816  20.643  26.478  1.00  0.00     0.039 A 
ATOM     10  C   UNL A   1      41.893  20.994  27.827  1.00  0.00     0.014 A 
ATOM     11  C   UNL A   1      42.176  21.563  25.490  1.00  0.00     0.014 A 
ATOM     12  C   UNL A   1      42.185  22.304  28.183  1.00  0.00     0.010 A 
ATOM     13  C   UNL A   1      42.565  22.856  25.855  1.00  0.00     0.010 A 
ATOM     14  C   UNL A   1      42.547  23.245  27.204  1.00  0.00    -0.014 A 
BRANCH  14  15
ATOM     15  C   UNL A   1      42.982  24.600  27.627  1.00  0.00     0.031 A 
ATOM     16  C   UNL A   1      44.435  24.979  27.664  1.00  0.00     0.074 A 
ATOM     17  C   UNL A   1      42.037  25.503  27.952  1.00  0.00     0.049 A 
ATOM     18  N   UNL A   1      44.977  26.123  27.998  1.00  0.00    -0.248 NA
ATOM     19  C   UNL A   1      45.409  23.944  27.284  1.00  0.00     0.031 C 
ATOM     20  C   UNL A   1      40.596  25.240  27.955  1.00  0.00     0.029 A 
ATOM     21  N   UNL A   1      42.134  26.820  28.320  1.00  0.00    -0.354 N 
ATOM     22  C   UNL A   1      46.349  25.945  27.879  1.00  0.00     0.074 A 
ATOM     23  C   UNL A   1      46.563  24.573  27.472  1.00  0.00     0.031 C 
ATOM     24  C   UNL A   1      39.943  26.371  28.254  1.00  0.00     0.029 A 
ATOM     25  C   UNL A   1      40.918  27.418  28.537  1.00  0.00     0.049 A 
ATOM     26  H   UNL A   1      42.993  27.290  28.420  1.00  0.00     0.167 HD
ATOM     27  C   UNL A   1      47.335  26.854  28.080  1.00  0.00     0.037 A 
ATOM     28  C   UNL A   1      40.615  28.667  28.939  1.00  0.00     0.037 A 
ATOM     29  C   UNL A   1      47.108  28.222  28.474  1.00  0.00     0.049 A 
ATOM     30  C   UNL A   1      41.730  29.635  29.201  1.00  0.00     0.074 A 
ATOM     31  C   UNL A   1      48.040  29.223  28.675  1.00  0.00     0.029 A 
ATOM     32  N   UNL A   1      45.862  28.778  28.733  1.00  0.00    -0.354 N 
ATOM     33  N   UNL A   1      43.022  29.464  29.057  1.00  0.00    -0.248 NA
ATOM     34  C   UNL A   1      41.352  30.968  29.687  1.00  0.00     0.031 C 
ATOM     35  C   UNL A   1      47.367  30.369  29.110  1.00  0.00     0.029 A 
ATOM     36  C   UNL A   1      46.008  30.102  29.119  1.00  0.00     0.049 A 
ATOM     37  H   UNL A   1      45.004  28.303  28.652  1.00  0.00     0.167 HD
ATOM     38  C   UNL A   1      43.610  30.667  29.419  1.00  0.00     0.074 A 
ATOM     39  C   UNL A   1      42.531  31.569  29.769  1.00  0.00     0.031 C 
ATOM     40  C   UNL A   1      44.925  30.990  29.462  1.00  0.00     0.037 A 
BRANCH  27  41
ATOM     41  C   UNL A   1      48.757  26.411  27.883  1.00  0.00     0.064 A 
ATOM     42  C   UNL A   1      49.572  26.125  28.991  1.00  0.00     0.173 A 
ATOM     43  C   UNL A   1      49.344  26.365  26.611  1.00  0.00     0.173 A 
ATOM     44  F   UNL A   1      49.065  26.163  30.232  1.00  0.00    -0.203 F 
ATOM     45  C   UNL A   1      50.924  25.827  28.830  1.00  0.00     0.198 A 
ATOM     46  C   UNL A   1      50.689  26.039  26.452  1.00  0.00     0.198 A 
ATOM     47  F   UNL A   1      48.609  26.622  25.518  1.00  0.00    -0.203 F 
ATOM     48  F   UNL A   1      51.690  25.598  29.906  1.00  0.00    -0.200 F 
ATOM     49  C   UNL A   1      51.481  25.783  27.562  1.00  0.00     0.200 A 
ATOM     50  F   UNL A   1      51.220  25.975  25.223  1.00  0.00    -0.200 F 
ATOM     51  F   UNL A   1      52.780  25.492  27.408  1.00  0.00    -0.200 F 
ENDBRANCH  27  41
BRANCH  28  52
ATOM     52  C   UNL A   1      39.190  29.054  29.105  1.00  0.00     0.064 A 
ATOM     53  C   UNL A   1      38.445  29.571  28.034  1.00  0.00     0.173 A 
ATOM     54  C   UNL A   1      38.560  28.963  30.353  1.00  0.00     0.173 A 
ATOM     55  F   UNL A   1      39.005  29.686  26.821  1.00  0.00    -0.203 F 
ATOM     56  C   UNL A   1      37.136  30.011  28.213  1.00  0.00     0.198 A 
ATOM     57  C   UNL A   1      37.239  29.372  30.524  1.00  0.00     0.198 A 
ATOM     58  F   UNL A   1      39.225  28.459  31.404  1.00  0.00    -0.203 F 
ATOM     59  F   UNL A   1      36.465  30.548  27.185  1.00  0.00    -0.200 F 
ATOM     60  C   UNL A   1      36.533  29.907  29.457  1.00  0.00     0.200 A 
ATOM     61  F   UNL A   1      36.652  29.249  31.722  1.00  0.00    -0.200 F 
ATOM     62  F   UNL A   1      35.270  30.322  29.627  1.00  0.00    -0.200 F 
ENDBRANCH  28  52
BRANCH  40  63
ATOM     63  C   UNL A   1      45.284  32.384  29.886  1.00  0.00     0.064 A 
ATOM     64  C   UNL A   1      45.490  32.684  31.242  1.00  0.00     0.173 A 
ATOM     65  C   UNL A   1      45.344  33.439  28.963  1.00  0.00     0.173 A 
ATOM     66  F   UNL A   1      45.436  31.712  32.164  1.00  0.00    -0.203 F 
ATOM     67  C   UNL A   1      45.721  33.991  31.659  1.00  0.00     0.198 A 
ATOM     68  C   UNL A   1      45.608  34.740  29.381  1.00  0.00     0.198 A 
ATOM     69  F   UNL A   1      45.170  33.201  27.654  1.00  0.00    -0.203 F 
ATOM     70  F   UNL A   1      45.873  34.260  32.963  1.00  0.00    -0.200 F 
ATOM     71  C   UNL A   1      45.783  35.018  30.729  1.00  0.00     0.200 A 
ATOM     72  F   UNL A   1      45.694  35.727  28.478  1.00  0.00    -0.200 F 
ATOM     73  F   UNL A   1      46.014  36.274  31.131  1.00  0.00    -0.200 F 
ENDBRANCH  40  63
ENDBRANCH  14  15
ENDBRANCH   7   9
ENDBRANCH   4   5
ENDBRANCH   3   4
ENDBRANCH   2   3
ENDBRANCH   1   2
BRANCH   1  74
ATOM     74  C   UNL A   1      35.612  22.497  25.651  1.00  0.00     0.021 C 
BRANCH  74  75
ATOM     75  C   UNL A   1      35.534  23.969  25.251  1.00  0.00     0.116 C 
BRANCH  75  76
ATOM     76  N   UNL A   1      34.947  24.138  23.928  1.00  0.00    -0.352 N 
ATOM     77  C   UNL A   1      33.824  24.848  23.578  1.00  0.00     0.253 C 
ATOM     78  H   UNL A   1      35.416  23.687  23.190  1.00  0.00     0.163 HD
ATOM     79  O   UNL A   1      33.278  24.685  22.495  1.00  0.00    -0.269 OA
BRANCH  77  80
ATOM     80  C   UNL A   1      33.235  25.771  24.560  1.00  0.00     0.067 A 
ATOM     81  C   UNL A   1      33.930  26.961  24.835  1.00  0.00     0.058 A 
ATOM     82  C   UNL A   1      32.081  25.409  25.282  1.00  0.00     0.065 A 
ATOM     83  C   UNL A   1      33.539  27.738  25.913  1.00  0.00     0.159 A 
ATOM     84  C   UNL A   1      31.787  26.156  26.425  1.00  0.00     0.070 A 
ATOM     85  F   UNL A   1      34.229  28.844  26.214  1.00  0.00    -0.204 F 
ATOM     86  C   UNL A   1      32.491  27.323  26.719  1.00  0.00     0.160 A 
ATOM     87  F   UNL A   1      32.162  28.027  27.810  1.00  0.00    -0.204 F 
BRANCH  82  88
ATOM     88  N   UNL A   1      31.340  24.194  24.993  1.00  0.00    -0.279 N 
ATOM     89  H   UNL A   1      30.729  24.165  24.220  1.00  0.00     0.180 HD
BRANCH  88  90
ATOM     90  S   UNL A   1      31.524  22.805  25.994  1.00  0.00     0.261 S 
ATOM     91  O   UNL A   1      32.601  23.093  26.919  1.00  0.00    -0.201 OA
ATOM     92  O   UNL A   1      30.201  22.483  26.483  1.00  0.00    -0.201 OA
BRANCH  90  93
ATOM     93  C   UNL A   1      32.060  21.475  24.950  1.00  0.00     0.088 A 
ATOM     94  C   UNL A   1      31.957  21.629  23.552  1.00  0.00     0.022 A 
ATOM     95  C   UNL A   1      32.527  20.284  25.522  1.00  0.00     0.026 A 
ATOM     96  C   UNL A   1      32.194  20.542  22.711  1.00  0.00     0.005 A 
ATOM     97  C   UNL A   1      32.792  19.226  24.667  1.00  0.00    -0.043 A 
ATOM     98  C   UNL A   1      32.589  19.345  23.285  1.00  0.00    -0.045 A 
ATOM     99  C   UNL A   1      33.225  17.835  25.019  1.00  0.00     0.036 C 
ATOM    100  C   UNL A   1      32.785  18.026  22.604  1.00  0.00     0.036 C 
ATOM    101  C   UNL A   1      33.634  17.285  23.644  1.00  0.00     0.010 C 
ENDBRANCH  90  93
ENDBRANCH  88  90
ENDBRANCH  82  88
ENDBRANCH  77  80
ENDBRANCH  75  76
ENDBRANCH  74  75
ENDBRANCH   1  74
TORSDOF 16
ENDMDL
MODEL 2
REMARK VINA RESULT:     -12.4      0.826      7.102
REMARK SMILES O=C(NCCCCCCNC(=O)c1cc(F)c(F)cc1NS(=O)(=O)c1ccc2c(c1)CCC2)c1ccc(-c2c3nc(c(-c4c(F)c(F)c(F)c(F)c4F)c4ccc([nH]4)c(-c4c(F)c(F)c(F)c(F)c4F)c4nc(c(-c5c(F)c(F)c(F)c(F)c5F)c5ccc2[nH]5)C=C4)C=C3)cc1
REMARK SMILES IDX 7 1 6 2 5 3 4 4 3 5 1 6 2 7 34 9 35 10 96 11 36 12 95 13
REMARK SMILES IDX 37 14 38 15 39 16 89 17 40 18 94 19 88 20 90 21 41 22 93 23
REMARK SMILES IDX 87 24 86 25 42 27 74 28 54 29 73 30 55 31 58 32 72 33 91 34
REMARK SMILES IDX 56 35 57 36 71 38 92 39 59 40 43 41 44 42 52 43 45 44 46 45
REMARK SMILES IDX 50 46 53 47 47 48 48 49 51 50 49 51 75 52 76 53 84 54 77 55
REMARK SMILES IDX 78 56 82 57 85 58 79 59 80 60 83 61 81 62 60 63 61 64 69 65
REMARK SMILES IDX 62 66 63 67 67 68 70 69 64 70 65 71 68 72 66 73 8 74 9 75
REMARK SMILES IDX 10 76 11 77 12 79 13 80 14 81 20 82 15 83 19 84 16 85 17 86
REMARK SMILES IDX 18 87 21 88 22 90 23 91 24 92 25 93 26 94 30 95 27 96 29 97
REMARK SMILES IDX 28 98 31 99 33 100 32 101
REMARK H PARENT 3 8 90 26 58 37 10 78 21 89
REMARK Flexibility Score: inf
ROOT
ATOM      1  C   UNL A   1      36.186  21.588  24.661  1.00  0.00     0.002 C 
ENDROOT
BRANCH   1   2
ATOM      2  C   UNL A   1      36.463  20.121  25.003  1.00  0.00     0.002 C 
BRANCH   2   3
ATOM      3  C   UNL A   1      37.882  19.638  24.706  1.00  0.00     0.021 C 
BRANCH   3   4
ATOM      4  C   UNL A   1      38.939  20.130  25.685  1.00  0.00     0.116 C 
BRANCH   4   5
ATOM      5  N   UNL A   1      40.016  19.171  25.876  1.00  0.00    -0.352 N 
ATOM      6  O   UNL A   1      42.151  18.473  26.105  1.00  0.00    -0.269 OA
ATOM      7  C   UNL A   1      41.345  19.397  26.136  1.00  0.00     0.251 C 
ATOM      8  H   UNL A   1      39.753  18.224  25.808  1.00  0.00     0.163 HD
BRANCH   7   9
ATOM      9  C   UNL A   1      41.807  20.769  26.436  1.00  0.00     0.039 A 
ATOM     10  C   UNL A   1      42.001  21.179  27.756  1.00  0.00     0.014 A 
ATOM     11  C   UNL A   1      42.050  21.653  25.382  1.00  0.00     0.014 A 
ATOM     12  C   UNL A   1      42.292  22.509  28.029  1.00  0.00     0.010 A 
ATOM     13  C   UNL A   1      42.439  22.969  25.656  1.00  0.00     0.010 A 
ATOM     14  C   UNL A   1      42.537  23.414  26.983  1.00  0.00    -0.014 A 
BRANCH  14  15
ATOM     15  C   UNL A   1      42.976  24.795  27.307  1.00  0.00     0.031 A 
ATOM     16  C   UNL A   1      42.040  25.786  27.937  1.00  0.00     0.074 A 
ATOM     17  C   UNL A   1      44.254  25.137  27.050  1.00  0.00     0.049 A 
ATOM     18  N   UNL A   1      42.272  27.024  28.293  1.00  0.00    -0.248 NA
ATOM     19  C   UNL A   1      40.663  25.337  28.200  1.00  0.00     0.031 C 
ATOM     20  C   UNL A   1      45.248  24.255  26.436  1.00  0.00     0.029 A 
ATOM     21  N   UNL A   1      44.943  26.298  27.287  1.00  0.00    -0.354 N 
ATOM     22  C   UNL A   1      41.076  27.505  28.809  1.00  0.00     0.074 A 
ATOM     23  C   UNL A   1      40.107  26.436  28.692  1.00  0.00     0.031 C 
ATOM     24  C   UNL A   1      46.429  24.884  26.395  1.00  0.00     0.029 A 
ATOM     25  C   UNL A   1      46.261  26.239  26.908  1.00  0.00     0.049 A 
ATOM     26  H   UNL A   1      44.532  27.097  27.690  1.00  0.00     0.167 HD
ATOM     27  C   UNL A   1      40.820  28.725  29.342  1.00  0.00     0.037 A 
ATOM     28  C   UNL A   1      47.227  27.175  26.948  1.00  0.00     0.037 A 
ATOM     29  C   UNL A   1      41.798  29.778  29.461  1.00  0.00     0.049 A 
ATOM     30  C   UNL A   1      46.901  28.532  27.499  1.00  0.00     0.074 A 
ATOM     31  C   UNL A   1      41.641  31.037  30.012  1.00  0.00     0.029 A 
ATOM     32  N   UNL A   1      43.111  29.696  29.020  1.00  0.00    -0.354 N 
ATOM     33  N   UNL A   1      45.774  28.965  28.010  1.00  0.00    -0.248 NA
ATOM     34  C   UNL A   1      47.973  29.534  27.474  1.00  0.00     0.031 C 
ATOM     35  C   UNL A   1      42.840  31.738  29.853  1.00  0.00     0.029 A 
ATOM     36  C   UNL A   1      43.766  30.895  29.261  1.00  0.00     0.049 A 
ATOM     37  H   UNL A   1      43.518  28.904  28.599  1.00  0.00     0.167 HD
ATOM     38  C   UNL A   1      46.003  30.281  28.381  1.00  0.00     0.074 A 
ATOM     39  C   UNL A   1      47.385  30.571  28.056  1.00  0.00     0.031 C 
ATOM     40  C   UNL A   1      45.143  31.169  28.935  1.00  0.00     0.037 A 
BRANCH  27  41
ATOM     41  C   UNL A   1      39.430  29.005  29.838  1.00  0.00     0.064 A 
ATOM     42  C   UNL A   1      38.471  29.574  28.984  1.00  0.00     0.173 A 
ATOM     43  C   UNL A   1      39.072  28.803  31.179  1.00  0.00     0.173 A 
ATOM     44  F   UNL A   1      38.762  29.798  27.694  1.00  0.00    -0.203 F 
ATOM     45  C   UNL A   1      37.216  29.947  29.460  1.00  0.00     0.198 A 
ATOM     46  C   UNL A   1      37.807  29.150  31.644  1.00  0.00     0.198 A 
ATOM     47  F   UNL A   1      39.948  28.254  32.035  1.00  0.00    -0.203 F 
ATOM     48  F   UNL A   1      36.333  30.526  28.634  1.00  0.00    -0.200 F 
ATOM     49  C   UNL A   1      36.884  29.733  30.788  1.00  0.00     0.200 A 
ATOM     50  F   UNL A   1      37.480  28.922  32.924  1.00  0.00    -0.200 F 
ATOM     51  F   UNL A   1      35.674  30.087  31.244  1.00  0.00    -0.200 F 
ENDBRANCH  27  41
BRANCH  28  52
ATOM     52  C   UNL A   1      48.589  26.840  26.455  1.00  0.00     0.064 A 
ATOM     53  C   UNL A   1      48.935  26.999  25.105  1.00  0.00     0.173 A 
ATOM     54  C   UNL A   1      49.555  26.305  27.318  1.00  0.00     0.173 A 
ATOM     55  F   UNL A   1      48.043  27.500  24.238  1.00  0.00    -0.203 F 
ATOM     56  C   UNL A   1      50.184  26.606  24.630  1.00  0.00     0.198 A 
ATOM     57  C   UNL A   1      50.816  25.943  26.849  1.00  0.00     0.198 A 
ATOM     58  F   UNL A   1      49.277  26.150  28.621  1.00  0.00    -0.203 F 
ATOM     59  F   UNL A   1      50.470  26.722  23.327  1.00  0.00    -0.200 F 
ATOM     60  C   UNL A   1      51.124  26.083  25.504  1.00  0.00     0.200 A 
ATOM     61  F   UNL A   1      51.731  25.459  27.699  1.00  0.00    -0.200 F 
ATOM     62  F   UNL A   1      52.330  25.713  25.049  1.00  0.00    -0.200 F 
ENDBRANCH  28  52
BRANCH  40  63
ATOM     63  C   UNL A   1      45.666  32.541  29.247  1.00  0.00     0.064 A 
ATOM     64  C   UNL A   1      45.581  33.568  28.294  1.00  0.00     0.173 A 
ATOM     65  C   UNL A   1      46.323  32.818  30.455  1.00  0.00     0.173 A 
ATOM     66  F   UNL A   1      44.969  33.352  27.120  1.00  0.00    -0.203 F 
ATOM     67  C   UNL A   1      46.154  34.813  28.531  1.00  0.00     0.198 A 
ATOM     68  C   UNL A   1      46.867  34.075  30.701  1.00  0.00     0.198 A 
ATOM     69  F   UNL A   1      46.417  31.874  31.404  1.00  0.00    -0.203 F 
ATOM     70  F   UNL A   1      46.097  35.766  27.589  1.00  0.00    -0.200 F 
ATOM     71  C   UNL A   1      46.794  35.068  29.735  1.00  0.00     0.200 A 
ATOM     72  F   UNL A   1      47.461  34.328  31.876  1.00  0.00    -0.200 F 
ATOM     73  F   UNL A   1      47.337  36.270  29.965  1.00  0.00    -0.200 F 
ENDBRANCH  40  63
ENDBRANCH  14  15
ENDBRANCH   7   9
ENDBRANCH   4   5
ENDBRANCH   3   4
ENDBRANCH   2   3
ENDBRANCH   1   2
BRANCH   1  74
ATOM     74  C   UNL A   1      35.778  22.473  25.843  1.00  0.00     0.021 C 
BRANCH  74  75
ATOM     75  C   UNL A   1      35.554  23.943  25.493  1.00  0.00     0.116 C 
BRANCH  75  76
ATOM     76  N   UNL A   1      35.057  24.104  24.133  1.00  0.00    -0.352 N 
ATOM     77  C   UNL A   1      33.969  24.823  23.703  1.00  0.00     0.253 C 
ATOM     78  H   UNL A   1      35.568  23.640  23.432  1.00  0.00     0.163 HD
ATOM     79  O   UNL A   1      33.493  24.654  22.588  1.00  0.00    -0.269 OA
BRANCH  77  80
ATOM     80  C   UNL A   1      33.326  25.763  24.635  1.00  0.00     0.067 A 
ATOM     81  C   UNL A   1      34.017  26.948  24.943  1.00  0.00     0.058 A 
ATOM     82  C   UNL A   1      32.123  25.422  25.282  1.00  0.00     0.065 A 
ATOM     83  C   UNL A   1      33.565  27.740  25.986  1.00  0.00     0.159 A 
ATOM     84  C   UNL A   1      31.764  26.185  26.396  1.00  0.00     0.070 A 
ATOM     85  F   UNL A   1      34.247  28.842  26.320  1.00  0.00    -0.204 F 
ATOM     86  C   UNL A   1      32.461  27.346  26.725  1.00  0.00     0.160 A 
ATOM     87  F   UNL A   1      32.069  28.065  27.784  1.00  0.00    -0.204 F 
BRANCH  82  88
ATOM     88  N   UNL A   1      31.388  24.213  24.957  1.00  0.00    -0.279 N 
ATOM     89  H   UNL A   1      30.811  24.190  24.159  1.00  0.00     0.180 HD
BRANCH  88  90
ATOM     90  S   UNL A   1      31.522  22.819  25.960  1.00  0.00     0.261 S 
ATOM     91  O   UNL A   1      32.583  23.084  26.909  1.00  0.00    -0.201 OA
ATOM     92  O   UNL A   1      30.182  22.523  26.418  1.00  0.00    -0.201 OA
BRANCH  90  93
ATOM     93  C   UNL A   1      32.054  21.479  24.925  1.00  0.00     0.088 A 
ATOM     94  C   UNL A   1      31.957  21.626  23.526  1.00  0.00     0.022 A 
ATOM     95  C   UNL A   1      32.511  20.288  25.506  1.00  0.00     0.026 A 
ATOM     96  C   UNL A   1      32.191  20.533  22.693  1.00  0.00     0.005 A 
ATOM     97  C   UNL A   1      32.773  19.224  24.658  1.00  0.00    -0.043 A 
ATOM     98  C   UNL A   1      32.577  19.337  23.275  1.00  0.00    -0.045 A 
ATOM     99  C   UNL A   1      33.195  17.833  25.020  1.00  0.00     0.036 C 
ATOM    100  C   UNL A   1      32.768  18.013  22.602  1.00  0.00     0.036 C 
ATOM    101  C   UNL A   1      33.607  17.272  23.650  1.00  0.00     0.010 C 
ENDBRANCH  90  93
ENDBRANCH  88  90
ENDBRANCH  82  88
ENDBRANCH  77  80
ENDBRANCH  75  76
ENDBRANCH  74  75
ENDBRANCH   1  74
TORSDOF 16
ENDMDL
MODEL 3
REMARK VINA RESULT:     -12.4      1.775      3.978
REMARK SMILES O=C(NCCCCCCNC(=O)c1cc(F)c(F)cc1NS(=O)(=O)c1ccc2c(c1)CCC2)c1ccc(-c2c3nc(c(-c4c(F)c(F)c(F)c(F)c4F)c4ccc([nH]4)c(-c4c(F)c(F)c(F)c(F)c4F)c4nc(c(-c5c(F)c(F)c(F)c(F)c5F)c5ccc2[nH]5)C=C4)C=C3)cc1
REMARK SMILES IDX 7 1 6 2 5 3 4 4 3 5 1 6 2 7 34 9 35 10 96 11 36 12 95 13
REMARK SMILES IDX 37 14 38 15 39 16 89 17 40 18 94 19 88 20 90 21 41 22 93 23
REMARK SMILES IDX 87 24 86 25 42 27 74 28 54 29 73 30 55 31 58 32 72 33 91 34
REMARK SMILES IDX 56 35 57 36 71 38 92 39 59 40 43 41 44 42 52 43 45 44 46 45
REMARK SMILES IDX 50 46 53 47 47 48 48 49 51 50 49 51 75 52 76 53 84 54 77 55
REMARK SMILES IDX 78 56 82 57 85 58 79 59 80 60 83 61 81 62 60 63 61 64 69 65
REMARK SMILES IDX 62 66 63 67 67 68 70 69 64 70 65 71 68 72 66 73 8 74 9 75
REMARK SMILES IDX 10 76 11 77 12 79 13 80 14 81 20 82 15 83 19 84 16 85 17 86
REMARK SMILES IDX 18 87 21 88 22 90 23 91 24 92 25 93 26 94 30 95 27 96 29 97
REMARK SMILES IDX 28 98 31 99 33 100 32 101
REMARK H PARENT 3 8 90 26 58 37 10 78 21 89
REMARK Flexibility Score: inf
ROOT
ATOM      1  C   UNL A   1      38.310  22.366  25.751  1.00  0.00     0.002 C 
ENDROOT
BRANCH   1   2
ATOM      2  C   UNL A   1      37.777  21.300  24.787  1.00  0.00     0.002 C 
BRANCH   2   3
ATOM      3  C   UNL A   1      38.396  19.911  24.944  1.00  0.00     0.021 C 
BRANCH   3   4
ATOM      4  C   UNL A   1      39.239  19.729  26.200  1.00  0.00     0.116 C 
BRANCH   4   5
ATOM      5  N   UNL A   1      40.417  18.907  25.969  1.00  0.00    -0.352 N 
ATOM      6  O   UNL A   1      42.597  18.480  25.564  1.00  0.00    -0.269 OA
ATOM      7  C   UNL A   1      41.740  19.274  25.938  1.00  0.00     0.251 C 
ATOM      8  H   UNL A   1      40.239  17.951  25.811  1.00  0.00     0.163 HD
BRANCH   7   9
ATOM      9  C   UNL A   1      42.127  20.643  26.340  1.00  0.00     0.039 A 
ATOM     10  C   UNL A   1      42.339  21.631  25.376  1.00  0.00     0.014 A 
ATOM     11  C   UNL A   1      42.279  20.940  27.696  1.00  0.00     0.014 A 
ATOM     12  C   UNL A   1      42.843  22.868  25.757  1.00  0.00     0.010 A 
ATOM     13  C   UNL A   1      42.694  22.218  28.085  1.00  0.00     0.010 A 
ATOM     14  C   UNL A   1      43.005  23.184  27.116  1.00  0.00    -0.014 A 
BRANCH  14  15
ATOM     15  C   UNL A   1      43.419  24.558  27.496  1.00  0.00     0.031 A 
ATOM     16  C   UNL A   1      44.863  24.973  27.479  1.00  0.00     0.074 A 
ATOM     17  C   UNL A   1      42.462  25.445  27.830  1.00  0.00     0.049 A 
ATOM     18  N   UNL A   1      45.386  26.137  27.771  1.00  0.00    -0.248 NA
ATOM     19  C   UNL A   1      45.850  23.954  27.092  1.00  0.00     0.031 C 
ATOM     20  C   UNL A   1      41.029  25.148  27.884  1.00  0.00     0.029 A 
ATOM     21  N   UNL A   1      42.538  26.772  28.167  1.00  0.00    -0.354 N 
ATOM     22  C   UNL A   1      46.758  25.989  27.613  1.00  0.00     0.074 A 
ATOM     23  C   UNL A   1      46.993  24.614  27.231  1.00  0.00     0.031 C 
ATOM     24  C   UNL A   1      40.358  26.270  28.178  1.00  0.00     0.029 A 
ATOM     25  C   UNL A   1      41.315  27.346  28.408  1.00  0.00     0.049 A 
ATOM     26  H   UNL A   1      43.388  27.265  28.229  1.00  0.00     0.167 HD
ATOM     27  C   UNL A   1      47.726  26.926  27.764  1.00  0.00     0.037 A 
ATOM     28  C   UNL A   1      40.993  28.595  28.792  1.00  0.00     0.037 A 
ATOM     29  C   UNL A   1      47.478  28.296  28.136  1.00  0.00     0.049 A 
ATOM     30  C   UNL A   1      42.092  29.596  28.998  1.00  0.00     0.074 A 
ATOM     31  C   UNL A   1      48.391  29.325  28.285  1.00  0.00     0.029 A 
ATOM     32  N   UNL A   1      46.228  28.828  28.420  1.00  0.00    -0.354 N 
ATOM     33  N   UNL A   1      43.382  29.453  28.818  1.00  0.00    -0.248 NA
ATOM     34  C   UNL A   1      41.695  30.930  29.466  1.00  0.00     0.031 C 
ATOM     35  C   UNL A   1      47.703  30.463  28.716  1.00  0.00     0.029 A 
ATOM     36  C   UNL A   1      46.352  30.164  28.773  1.00  0.00     0.049 A 
ATOM     37  H   UNL A   1      45.379  28.331  28.376  1.00  0.00     0.167 HD
ATOM     38  C   UNL A   1      43.951  30.678  29.135  1.00  0.00     0.074 A 
ATOM     39  C   UNL A   1      42.862  31.561  29.498  1.00  0.00     0.031 C 
ATOM     40  C   UNL A   1      45.259  31.033  29.130  1.00  0.00     0.037 A 
BRANCH  27  41
ATOM     41  C   UNL A   1      49.153  26.514  27.533  1.00  0.00     0.064 A 
ATOM     42  C   UNL A   1      50.017  26.305  28.620  1.00  0.00     0.173 A 
ATOM     43  C   UNL A   1      49.692  26.420  26.242  1.00  0.00     0.173 A 
ATOM     44  F   UNL A   1      49.557  26.390  29.877  1.00  0.00    -0.203 F 
ATOM     45  C   UNL A   1      51.370  26.037  28.421  1.00  0.00     0.198 A 
ATOM     46  C   UNL A   1      51.039  26.124  26.046  1.00  0.00     0.198 A 
ATOM     47  F   UNL A   1      48.908  26.603  25.168  1.00  0.00    -0.203 F 
ATOM     48  F   UNL A   1      52.183  25.882  29.475  1.00  0.00    -0.200 F 
ATOM     49  C   UNL A   1      51.880  25.945  27.135  1.00  0.00     0.200 A 
ATOM     50  F   UNL A   1      51.525  26.014  24.802  1.00  0.00    -0.200 F 
ATOM     51  F   UNL A   1      53.180  25.683  26.945  1.00  0.00    -0.200 F 
ENDBRANCH  27  41
BRANCH  28  52
ATOM     52  C   UNL A   1      39.565  28.952  28.994  1.00  0.00     0.064 A 
ATOM     53  C   UNL A   1      38.955  28.836  30.252  1.00  0.00     0.173 A 
ATOM     54  C   UNL A   1      38.768  29.367  27.919  1.00  0.00     0.173 A 
ATOM     55  F   UNL A   1      39.673  28.435  31.312  1.00  0.00    -0.203 F 
ATOM     56  C   UNL A   1      37.596  29.091  30.421  1.00  0.00     0.198 A 
ATOM     57  C   UNL A   1      37.416  29.655  28.095  1.00  0.00     0.198 A 
ATOM     58  F   UNL A   1      39.309  29.511  26.700  1.00  0.00    -0.203 F 
ATOM     59  F   UNL A   1      37.029  28.922  31.623  1.00  0.00    -0.200 F 
ATOM     60  C   UNL A   1      36.829  29.504  29.343  1.00  0.00     0.200 A 
ATOM     61  F   UNL A   1      36.682  30.077  27.056  1.00  0.00    -0.200 F 
ATOM     62  F   UNL A   1      35.524  29.758  29.507  1.00  0.00    -0.200 F 
ENDBRANCH  28  52
BRANCH  40  63
ATOM     63  C   UNL A   1      45.596  32.445  29.512  1.00  0.00     0.064 A 
ATOM     64  C   UNL A   1      45.657  33.450  28.535  1.00  0.00     0.173 A 
ATOM     65  C   UNL A   1      45.936  32.786  30.829  1.00  0.00     0.173 A 
ATOM     66  F   UNL A   1      45.347  33.173  27.259  1.00  0.00    -0.203 F 
ATOM     67  C   UNL A   1      46.068  34.739  28.859  1.00  0.00     0.198 A 
ATOM     68  C   UNL A   1      46.316  34.085  31.155  1.00  0.00     0.198 A 
ATOM     69  F   UNL A   1      45.878  31.864  31.802  1.00  0.00    -0.203 F 
ATOM     70  F   UNL A   1      46.159  35.673  27.901  1.00  0.00    -0.200 F 
ATOM     71  C   UNL A   1      46.394  35.057  30.168  1.00  0.00     0.200 A 
ATOM     72  F   UNL A   1      46.605  34.397  32.426  1.00  0.00    -0.200 F 
ATOM     73  F   UNL A   1      46.781  36.301  30.481  1.00  0.00    -0.200 F 
ENDBRANCH  40  63
ENDBRANCH  14  15
ENDBRANCH   7   9
ENDBRANCH   4   5
ENDBRANCH   3   4
ENDBRANCH   2   3
ENDBRANCH   1   2
BRANCH   1  74
ATOM     74  C   UNL A   1      37.545  23.693  25.750  1.00  0.00     0.021 C 
BRANCH  74  75
ATOM     75  C   UNL A   1      36.030  23.557  25.894  1.00  0.00     0.116 C 
BRANCH  75  76
ATOM     76  N   UNL A   1      35.332  24.006  24.697  1.00  0.00    -0.352 N 
ATOM     77  C   UNL A   1      34.427  23.315  23.929  1.00  0.00     0.253 C 
ATOM     78  H   UNL A   1      35.533  24.922  24.402  1.00  0.00     0.163 HD
ATOM     79  O   UNL A   1      34.127  23.691  22.804  1.00  0.00    -0.269 OA
BRANCH  77  80
ATOM     80  C   UNL A   1      33.864  22.060  24.453  1.00  0.00     0.067 A 
ATOM     81  C   UNL A   1      34.658  20.904  24.367  1.00  0.00     0.058 A 
ATOM     82  C   UNL A   1      32.532  22.007  24.907  1.00  0.00     0.065 A 
ATOM     83  C   UNL A   1      34.084  19.671  24.626  1.00  0.00     0.159 A 
ATOM     84  C   UNL A   1      31.960  20.741  25.051  1.00  0.00     0.070 A 
ATOM     85  F   UNL A   1      34.819  18.560  24.495  1.00  0.00    -0.204 F 
ATOM     86  C   UNL A   1      32.736  19.588  24.940  1.00  0.00     0.160 A 
ATOM     87  F   UNL A   1      32.157  18.392  25.110  1.00  0.00    -0.204 F 
BRANCH  82  88
ATOM     88  N   UNL A   1      31.708  23.197  25.022  1.00  0.00    -0.279 N 
ATOM     89  H   UNL A   1      31.173  23.500  24.252  1.00  0.00     0.180 HD
BRANCH  88  90
ATOM     90  S   UNL A   1      31.660  24.082  26.499  1.00  0.00     0.261 S 
ATOM     91  O   UNL A   1      30.480  23.642  27.214  1.00  0.00    -0.201 OA
ATOM     92  O   UNL A   1      32.972  23.947  27.092  1.00  0.00    -0.201 OA
BRANCH  90  93
ATOM     93  C   UNL A   1      31.423  25.789  26.080  1.00  0.00     0.088 A 
ATOM     94  C   UNL A   1      30.694  26.104  24.914  1.00  0.00     0.022 A 
ATOM     95  C   UNL A   1      31.998  26.789  26.875  1.00  0.00     0.026 A 
ATOM     96  C   UNL A   1      30.645  27.420  24.456  1.00  0.00     0.005 A 
ATOM     97  C   UNL A   1      31.908  28.096  26.422  1.00  0.00    -0.043 A 
ATOM     98  C   UNL A   1      31.273  28.398  25.209  1.00  0.00    -0.045 A 
ATOM     99  C   UNL A   1      32.494  29.332  27.034  1.00  0.00     0.036 C 
ATOM    100  C   UNL A   1      31.453  29.844  24.862  1.00  0.00     0.036 C 
ATOM    101  C   UNL A   1      31.778  30.435  26.238  1.00  0.00     0.010 C 
ENDBRANCH  90  93
ENDBRANCH  88  90
ENDBRANCH  82  88
ENDBRANCH  77  80
ENDBRANCH  75  76
ENDBRANCH  74  75
ENDBRANCH   1  74
TORSDOF 16
ENDMDL
