MODEL 1
REMARK VINA RESULT:     -11.5      0.000      0.000
REMARK SMILES CO[C@@H]1C[C@H](C(=O)NCCCCCCNC(=O)c2ccc(-c3c4nc(c(-c5c(F)c(F)c(F)c(F)c5F)c5ccc([nH]5)c(-c5c(F)c(F)c(F)c(F)c5F)c5nc(c(-c6c(F)c(F)c(F)c(F)c6F)c6ccc3[nH]6)C=C5)C=C4)cc2)N(C(=O)c2ccc([N+](=O)[O-])s2)C1
REMARK SMILES IDX 11 1 10 2 9 3 8 4 6 5 7 6 5 8 3 9 4 10 92 11 81 12 2 13 1 14
REMARK SMILES IDX 82 15 83 16 84 17 85 18 91 19 86 20 87 21 88 22 89 23 90 24
REMARK SMILES IDX 12 25 13 26 14 27 15 28 16 29 17 31 18 32 19 33 80 34 20 35
REMARK SMILES IDX 79 36 21 37 22 38 23 39 73 40 24 41 78 42 72 43 74 44 25 45
REMARK SMILES IDX 77 46 71 47 70 48 26 50 58 51 38 52 57 53 39 54 42 55 56 56
REMARK SMILES IDX 75 57 40 58 41 59 55 61 76 62 43 63 27 64 28 65 36 66 29 67
REMARK SMILES IDX 30 68 34 69 37 70 31 71 32 72 35 73 33 74 59 75 60 76 68 77
REMARK SMILES IDX 61 78 62 79 66 80 69 81 63 82 64 83 67 84 65 85 44 86 45 87
REMARK SMILES IDX 53 88 46 89 47 90 51 91 54 92 48 93 49 94 52 95 50 96
REMARK H PARENT 8 7 15 30 74 49 42 60
REMARK Flexibility Score: inf
ROOT
ATOM      1  C   UNL A   1      32.192  29.753  27.248  1.00  0.00     0.002 C 
ENDROOT
BRANCH   1   2
ATOM      2  C   UNL A   1      33.722  29.711  27.317  1.00  0.00     0.021 C 
BRANCH   2   3
ATOM      3  C   UNL A   1      34.383  28.614  26.472  1.00  0.00     0.116 C 
BRANCH   3   4
ATOM      4  N   UNL A   1      34.249  28.907  25.055  1.00  0.00    -0.354 N 
ATOM      5  C   UNL A   1      33.702  28.240  24.010  1.00  0.00     0.242 C 
ATOM      6  O   UNL A   1      33.991  28.687  22.889  1.00  0.00    -0.273 OA
ATOM      7  H   UNL A   1      34.640  29.773  24.800  1.00  0.00     0.163 HD
BRANCH   5   8
ATOM      8  C   UNL A   1      32.858  26.941  24.075  1.00  0.00     0.177 C 
ATOM      9  C   UNL A   1      30.487  27.320  24.031  1.00  0.00     0.139 C 
ATOM     10  C   UNL A   1      31.641  27.026  24.989  1.00  0.00     0.069 C 
ATOM     11  C   UNL A   1      30.880  26.538  22.761  1.00  0.00     0.152 C 
ATOM     12  N   UNL A   1      32.324  26.329  22.864  1.00  0.00    -0.323 N 
BRANCH   9  13
ATOM     13  O   UNL A   1      30.352  28.710  23.741  1.00  0.00    -0.380 OA
ATOM     14  C   UNL A   1      30.133  28.991  22.361  1.00  0.00     0.195 C 
ENDBRANCH   9  13
BRANCH  12  15
ATOM     15  C   UNL A   1      32.952  25.361  22.089  1.00  0.00     0.264 C 
ATOM     16  O   UNL A   1      33.277  25.584  20.925  1.00  0.00    -0.268 OA
BRANCH  15  17
ATOM     17  C   UNL A   1      33.049  24.042  22.692  1.00  0.00     0.099 A 
ATOM     18  C   UNL A   1      32.011  23.152  22.924  1.00  0.00     0.033 A 
ATOM     19  S   UNL A   1      34.546  23.424  23.233  1.00  0.00    -0.058 S 
ATOM     20  C   UNL A   1      32.436  22.011  23.662  1.00  0.00     0.099 A 
ATOM     21  C   UNL A   1      33.794  22.046  23.897  1.00  0.00     0.324 A 
BRANCH  21  22
ATOM     22  N   UNL A   1      34.553  21.067  24.630  1.00  0.00     0.074 N 
ATOM     23  O   UNL A   1      35.686  21.413  24.993  1.00  0.00    -0.258 OA
ATOM     24  O   UNL A   1      34.036  19.966  24.850  1.00  0.00    -0.258 OA
ENDBRANCH  21  22
ENDBRANCH  15  17
ENDBRANCH  12  15
ENDBRANCH   5   8
ENDBRANCH   3   4
ENDBRANCH   2   3
ENDBRANCH   1   2
BRANCH   1  25
ATOM     25  C   UNL A   1      31.604  30.785  26.282  1.00  0.00     0.002 C 
BRANCH  25  26
ATOM     26  C   UNL A   1      31.401  32.194  26.847  1.00  0.00     0.021 C 
BRANCH  26  27
ATOM     27  C   UNL A   1      32.645  33.081  26.880  1.00  0.00     0.116 C 
BRANCH  27  28
ATOM     28  N   UNL A   1      32.433  34.310  27.626  1.00  0.00    -0.352 N 
ATOM     29  C   UNL A   1      33.039  34.779  28.763  1.00  0.00     0.251 C 
ATOM     30  H   UNL A   1      31.742  34.904  27.253  1.00  0.00     0.163 HD
ATOM     31  O   UNL A   1      32.580  35.766  29.332  1.00  0.00    -0.269 OA
BRANCH  29  32
ATOM     32  C   UNL A   1      34.233  34.109  29.326  1.00  0.00     0.039 A 
ATOM     33  C   UNL A   1      34.042  33.082  30.256  1.00  0.00     0.014 A 
ATOM     34  C   UNL A   1      35.529  34.524  29.006  1.00  0.00     0.014 A 
ATOM     35  C   UNL A   1      35.145  32.448  30.834  1.00  0.00     0.010 A 
ATOM     36  C   UNL A   1      36.630  33.849  29.533  1.00  0.00     0.010 A 
ATOM     37  C   UNL A   1      36.449  32.814  30.463  1.00  0.00    -0.014 A 
BRANCH  37  38
ATOM     38  C   UNL A   1      37.625  32.133  31.065  1.00  0.00     0.031 A 
ATOM     39  C   UNL A   1      38.098  32.502  32.443  1.00  0.00     0.074 A 
ATOM     40  C   UNL A   1      38.286  31.198  30.357  1.00  0.00     0.049 A 
ATOM     41  N   UNL A   1      39.101  32.018  33.133  1.00  0.00    -0.248 NA
ATOM     42  C   UNL A   1      37.363  33.577  33.127  1.00  0.00     0.031 C 
ATOM     43  C   UNL A   1      37.964  30.791  28.988  1.00  0.00     0.029 A 
ATOM     44  N   UNL A   1      39.369  30.424  30.689  1.00  0.00    -0.354 N 
ATOM     45  C   UNL A   1      39.118  32.730  34.325  1.00  0.00     0.074 A 
ATOM     46  C   UNL A   1      38.065  33.720  34.241  1.00  0.00     0.031 C 
ATOM     47  C   UNL A   1      38.819  29.830  28.604  1.00  0.00     0.029 A 
ATOM     48  C   UNL A   1      39.759  29.567  29.690  1.00  0.00     0.049 A 
ATOM     49  H   UNL A   1      39.824  30.477  31.560  1.00  0.00     0.167 HD
ATOM     50  C   UNL A   1      39.922  32.559  35.404  1.00  0.00     0.037 A 
ATOM     51  C   UNL A   1      40.758  28.664  29.656  1.00  0.00     0.037 A 
ATOM     52  C   UNL A   1      40.960  31.566  35.493  1.00  0.00     0.049 A 
ATOM     53  C   UNL A   1      41.613  28.466  30.877  1.00  0.00     0.074 A 
ATOM     54  C   UNL A   1      41.804  31.288  36.555  1.00  0.00     0.029 A 
ATOM     55  N   UNL A   1      41.296  30.683  34.476  1.00  0.00    -0.354 N 
ATOM     56  N   UNL A   1      41.578  29.101  32.023  1.00  0.00    -0.248 NA
ATOM     57  C   UNL A   1      42.634  27.411  30.805  1.00  0.00     0.031 C 
ATOM     58  C   UNL A   1      42.672  30.259  36.168  1.00  0.00     0.029 A 
ATOM     59  C   UNL A   1      42.339  29.866  34.882  1.00  0.00     0.049 A 
ATOM     60  H   UNL A   1      40.857  30.644  33.596  1.00  0.00     0.167 HD
ATOM     61  C   UNL A   1      42.552  28.510  32.816  1.00  0.00     0.074 A 
ATOM     62  C   UNL A   1      43.148  27.452  32.026  1.00  0.00     0.031 C 
ATOM     63  C   UNL A   1      42.921  28.817  34.084  1.00  0.00     0.037 A 
BRANCH  50  64
ATOM     64  C   UNL A   1      39.696  33.467  36.578  1.00  0.00     0.064 A 
ATOM     65  C   UNL A   1      38.844  33.105  37.634  1.00  0.00     0.173 A 
ATOM     66  C   UNL A   1      40.346  34.708  36.659  1.00  0.00     0.173 A 
ATOM     67  F   UNL A   1      38.190  31.934  37.599  1.00  0.00    -0.203 F 
ATOM     68  C   UNL A   1      38.624  33.963  38.706  1.00  0.00     0.198 A 
ATOM     69  C   UNL A   1      40.146  35.553  37.749  1.00  0.00     0.198 A 
ATOM     70  F   UNL A   1      41.175  35.103  35.681  1.00  0.00    -0.203 F 
ATOM     71  F   UNL A   1      37.761  33.618  39.673  1.00  0.00    -0.200 F 
ATOM     72  C   UNL A   1      39.279  35.185  38.766  1.00  0.00     0.200 A 
ATOM     73  F   UNL A   1      40.788  36.727  37.811  1.00  0.00    -0.200 F 
ATOM     74  F   UNL A   1      39.064  36.011  39.799  1.00  0.00    -0.200 F 
ENDBRANCH  50  64
BRANCH  51  75
ATOM     75  C   UNL A   1      40.969  27.849  28.433  1.00  0.00     0.064 A 
ATOM     76  C   UNL A   1      40.313  26.621  28.262  1.00  0.00     0.173 A 
ATOM     77  C   UNL A   1      41.817  28.286  27.406  1.00  0.00     0.173 A 
ATOM     78  F   UNL A   1      39.507  26.154  29.227  1.00  0.00    -0.203 F 
ATOM     79  C   UNL A   1      40.510  25.854  27.117  1.00  0.00     0.198 A 
ATOM     80  C   UNL A   1      41.993  27.530  26.248  1.00  0.00     0.198 A 
ATOM     81  F   UNL A   1      42.461  29.457  27.519  1.00  0.00    -0.203 F 
ATOM     82  F   UNL A   1      39.901  24.667  26.995  1.00  0.00    -0.200 F 
ATOM     83  C   UNL A   1      41.345  26.312  26.108  1.00  0.00     0.200 A 
ATOM     84  F   UNL A   1      42.789  27.983  25.270  1.00  0.00    -0.200 F 
ATOM     85  F   UNL A   1      41.528  25.577  25.002  1.00  0.00    -0.200 F 
ENDBRANCH  51  75
BRANCH  63  86
ATOM     86  C   UNL A   1      44.002  27.979  34.702  1.00  0.00     0.064 A 
ATOM     87  C   UNL A   1      45.353  28.350  34.630  1.00  0.00     0.173 A 
ATOM     88  C   UNL A   1      43.680  26.800  35.390  1.00  0.00     0.173 A 
ATOM     89  F   UNL A   1      45.714  29.462  33.971  1.00  0.00    -0.203 F 
ATOM     90  C   UNL A   1      46.345  27.553  35.195  1.00  0.00     0.198 A 
ATOM     91  C   UNL A   1      44.672  26.020  35.978  1.00  0.00     0.198 A 
ATOM     92  F   UNL A   1      42.402  26.404  35.493  1.00  0.00    -0.203 F 
ATOM     93  F   UNL A   1      47.633  27.899  35.067  1.00  0.00    -0.200 F 
ATOM     94  C   UNL A   1      46.004  26.392  35.872  1.00  0.00     0.200 A 
ATOM     95  F   UNL A   1      44.340  24.904  36.641  1.00  0.00    -0.200 F 
ATOM     96  F   UNL A   1      46.960  25.625  36.414  1.00  0.00    -0.200 F 
ENDBRANCH  63  86
ENDBRANCH  37  38
ENDBRANCH  29  32
ENDBRANCH  27  28
ENDBRANCH  26  27
ENDBRANCH  25  26
ENDBRANCH   1  25
TORSDOF 17
ENDMDL
MODEL 2
REMARK VINA RESULT:     -11.4      5.111     10.975
REMARK SMILES CO[C@@H]1C[C@H](C(=O)NCCCCCCNC(=O)c2ccc(-c3c4nc(c(-c5c(F)c(F)c(F)c(F)c5F)c5ccc([nH]5)c(-c5c(F)c(F)c(F)c(F)c5F)c5nc(c(-c6c(F)c(F)c(F)c(F)c6F)c6ccc3[nH]6)C=C5)C=C4)cc2)N(C(=O)c2ccc([N+](=O)[O-])s2)C1
REMARK SMILES IDX 11 1 10 2 9 3 8 4 6 5 7 6 5 8 3 9 4 10 92 11 81 12 2 13 1 14
REMARK SMILES IDX 82 15 83 16 84 17 85 18 91 19 86 20 87 21 88 22 89 23 90 24
REMARK SMILES IDX 12 25 13 26 14 27 15 28 16 29 17 31 18 32 19 33 80 34 20 35
REMARK SMILES IDX 79 36 21 37 22 38 23 39 73 40 24 41 78 42 72 43 74 44 25 45
REMARK SMILES IDX 77 46 71 47 70 48 26 50 58 51 38 52 57 53 39 54 42 55 56 56
REMARK SMILES IDX 75 57 40 58 41 59 55 61 76 62 43 63 27 64 28 65 36 66 29 67
REMARK SMILES IDX 30 68 34 69 37 70 31 71 32 72 35 73 33 74 59 75 60 76 68 77
REMARK SMILES IDX 61 78 62 79 66 80 69 81 63 82 64 83 67 84 65 85 44 86 45 87
REMARK SMILES IDX 53 88 46 89 47 90 51 91 54 92 48 93 49 94 52 95 50 96
REMARK H PARENT 8 7 15 30 74 49 42 60
REMARK Flexibility Score: inf
ROOT
ATOM      1  C   UNL A   1      37.183  21.678  24.440  1.00  0.00     0.002 C 
ENDROOT
BRANCH   1   2
ATOM      2  C   UNL A   1      37.639  22.717  25.468  1.00  0.00     0.021 C 
BRANCH   2   3
ATOM      3  C   UNL A   1      36.547  23.683  25.949  1.00  0.00     0.116 C 
BRANCH   3   4
ATOM      4  N   UNL A   1      35.656  23.024  26.889  1.00  0.00    -0.354 N 
ATOM      5  C   UNL A   1      34.317  22.820  26.922  1.00  0.00     0.242 C 
ATOM      6  O   UNL A   1      33.870  22.428  28.012  1.00  0.00    -0.273 OA
ATOM      7  H   UNL A   1      36.125  22.648  27.668  1.00  0.00     0.163 HD
BRANCH   5   8
ATOM      8  C   UNL A   1      33.302  23.121  25.790  1.00  0.00     0.177 C 
ATOM      9  C   UNL A   1      32.581  21.172  24.587  1.00  0.00     0.139 C 
ATOM     10  C   UNL A   1      33.550  22.350  24.499  1.00  0.00     0.069 C 
ATOM     11  C   UNL A   1      31.361  21.778  25.311  1.00  0.00     0.152 C 
ATOM     12  N   UNL A   1      31.868  22.963  26.003  1.00  0.00    -0.323 N 
BRANCH   9  13
ATOM     13  O   UNL A   1      33.109  20.076  25.331  1.00  0.00    -0.380 OA
ATOM     14  C   UNL A   1      33.597  19.012  24.519  1.00  0.00     0.195 C 
ENDBRANCH   9  13
BRANCH  12  15
ATOM     15  C   UNL A   1      30.993  23.945  26.452  1.00  0.00     0.264 C 
ATOM     16  O   UNL A   1      30.106  23.690  27.263  1.00  0.00    -0.268 OA
BRANCH  15  17
ATOM     17  C   UNL A   1      31.099  25.232  25.785  1.00  0.00     0.099 A 
ATOM     18  C   UNL A   1      31.578  26.416  26.325  1.00  0.00     0.033 A 
ATOM     19  S   UNL A   1      30.586  25.436  24.169  1.00  0.00    -0.058 S 
ATOM     20  C   UNL A   1      31.406  27.519  25.442  1.00  0.00     0.099 A 
ATOM     21  C   UNL A   1      30.869  27.115  24.238  1.00  0.00     0.324 A 
BRANCH  21  22
ATOM     22  N   UNL A   1      30.543  27.970  23.126  1.00  0.00     0.074 N 
ATOM     23  O   UNL A   1      30.674  27.472  21.999  1.00  0.00    -0.258 OA
ATOM     24  O   UNL A   1      30.159  29.121  23.362  1.00  0.00    -0.258 OA
ENDBRANCH  21  22
ENDBRANCH  15  17
ENDBRANCH  12  15
ENDBRANCH   5   8
ENDBRANCH   3   4
ENDBRANCH   2   3
ENDBRANCH   1   2
BRANCH   1  25
ATOM     25  C   UNL A   1      37.044  20.247  24.965  1.00  0.00     0.002 C 
BRANCH  25  26
ATOM     26  C   UNL A   1      38.329  19.412  24.989  1.00  0.00     0.021 C 
BRANCH  26  27
ATOM     27  C   UNL A   1      39.312  19.739  26.113  1.00  0.00     0.116 C 
BRANCH  27  28
ATOM     28  N   UNL A   1      40.523  18.941  26.042  1.00  0.00    -0.352 N 
ATOM     29  C   UNL A   1      41.842  19.320  26.040  1.00  0.00     0.251 C 
ATOM     30  H   UNL A   1      40.374  17.969  25.989  1.00  0.00     0.163 HD
ATOM     31  O   UNL A   1      42.711  18.488  25.791  1.00  0.00    -0.269 OA
BRANCH  29  32
ATOM     32  C   UNL A   1      42.237  20.718  26.323  1.00  0.00     0.039 A 
ATOM     33  C   UNL A   1      42.462  21.089  27.652  1.00  0.00     0.014 A 
ATOM     34  C   UNL A   1      42.318  21.678  25.310  1.00  0.00     0.014 A 
ATOM     35  C   UNL A   1      42.805  22.407  27.961  1.00  0.00     0.010 A 
ATOM     36  C   UNL A   1      42.724  22.979  25.610  1.00  0.00     0.010 A 
ATOM     37  C   UNL A   1      42.956  23.360  26.941  1.00  0.00    -0.014 A 
BRANCH  37  38
ATOM     38  C   UNL A   1      43.335  24.760  27.264  1.00  0.00     0.031 A 
ATOM     39  C   UNL A   1      44.733  25.250  27.010  1.00  0.00     0.074 A 
ATOM     40  C   UNL A   1      42.425  25.585  27.815  1.00  0.00     0.049 A 
ATOM     41  N   UNL A   1      45.249  26.435  27.226  1.00  0.00    -0.248 NA
ATOM     42  C   UNL A   1      45.687  24.271  26.467  1.00  0.00     0.031 C 
ATOM     43  C   UNL A   1      41.053  25.215  28.165  1.00  0.00     0.029 A 
ATOM     44  N   UNL A   1      42.518  26.904  28.181  1.00  0.00    -0.354 N 
ATOM     45  C   UNL A   1      46.582  26.342  26.849  1.00  0.00     0.074 A 
ATOM     46  C   UNL A   1      46.812  24.970  26.449  1.00  0.00     0.031 C 
ATOM     47  C   UNL A   1      40.427  26.286  28.679  1.00  0.00     0.029 A 
ATOM     48  C   UNL A   1      41.357  27.411  28.711  1.00  0.00     0.049 A 
ATOM     49  H   UNL A   1      43.338  27.437  28.075  1.00  0.00     0.167 HD
ATOM     50  C   UNL A   1      47.523  27.317  26.814  1.00  0.00     0.037 A 
ATOM     51  C   UNL A   1      41.072  28.647  29.165  1.00  0.00     0.037 A 
ATOM     52  C   UNL A   1      47.291  28.684  27.199  1.00  0.00     0.049 A 
ATOM     53  C   UNL A   1      42.122  29.720  29.084  1.00  0.00     0.074 A 
ATOM     54  C   UNL A   1      48.169  29.755  27.166  1.00  0.00     0.029 A 
ATOM     55  N   UNL A   1      46.087  29.171  27.688  1.00  0.00    -0.354 N 
ATOM     56  N   UNL A   1      43.360  29.636  28.664  1.00  0.00    -0.248 NA
ATOM     57  C   UNL A   1      41.725  31.066  29.520  1.00  0.00     0.031 C 
ATOM     58  C   UNL A   1      47.505  30.882  27.667  1.00  0.00     0.029 A 
ATOM     59  C   UNL A   1      46.201  30.525  27.969  1.00  0.00     0.049 A 
ATOM     60  H   UNL A   1      45.272  28.634  27.817  1.00  0.00     0.167 HD
ATOM     61  C   UNL A   1      43.884  30.918  28.763  1.00  0.00     0.074 A 
ATOM     62  C   UNL A   1      42.822  31.765  29.264  1.00  0.00     0.031 C 
ATOM     63  C   UNL A   1      45.134  31.353  28.467  1.00  0.00     0.037 A 
BRANCH  50  64
ATOM     64  C   UNL A   1      48.893  26.931  26.333  1.00  0.00     0.064 A 
ATOM     65  C   UNL A   1      49.879  26.470  27.219  1.00  0.00     0.173 A 
ATOM     66  C   UNL A   1      49.222  27.011  24.971  1.00  0.00     0.173 A 
ATOM     67  F   UNL A   1      49.619  26.387  28.532  1.00  0.00    -0.203 F 
ATOM     68  C   UNL A   1      51.153  26.137  26.766  1.00  0.00     0.198 A 
ATOM     69  C   UNL A   1      50.488  26.648  24.517  1.00  0.00     0.198 A 
ATOM     70  F   UNL A   1      48.316  27.440  24.080  1.00  0.00    -0.203 F 
ATOM     71  F   UNL A   1      52.094  25.754  27.640  1.00  0.00    -0.200 F 
ATOM     72  C   UNL A   1      51.455  26.221  25.415  1.00  0.00     0.200 A 
ATOM     73  F   UNL A   1      50.776  26.719  23.210  1.00  0.00    -0.200 F 
ATOM     74  F   UNL A   1      52.682  25.901  24.981  1.00  0.00    -0.200 F 
ENDBRANCH  50  64
BRANCH  51  75
ATOM     75  C   UNL A   1      39.717  28.939  29.695  1.00  0.00     0.064 A 
ATOM     76  C   UNL A   1      38.717  29.467  28.867  1.00  0.00     0.173 A 
ATOM     77  C   UNL A   1      39.390  28.682  31.034  1.00  0.00     0.173 A 
ATOM     78  F   UNL A   1      38.990  29.747  27.584  1.00  0.00    -0.203 F 
ATOM     79  C   UNL A   1      37.445  29.744  29.362  1.00  0.00     0.198 A 
ATOM     80  C   UNL A   1      38.109  28.934  31.522  1.00  0.00     0.198 A 
ATOM     81  F   UNL A   1      40.309  28.169  31.864  1.00  0.00    -0.203 F 
ATOM     82  F   UNL A   1      36.519  30.285  28.558  1.00  0.00    -0.200 F 
ATOM     83  C   UNL A   1      37.139  29.471  30.687  1.00  0.00     0.200 A 
ATOM     84  F   UNL A   1      37.814  28.657  32.799  1.00  0.00    -0.200 F 
ATOM     85  F   UNL A   1      35.913  29.730  31.161  1.00  0.00    -0.200 F 
ENDBRANCH  51  75
BRANCH  63  86
ATOM     86  C   UNL A   1      45.408  32.817  28.654  1.00  0.00     0.064 A 
ATOM     87  C   UNL A   1      45.938  33.321  29.852  1.00  0.00     0.173 A 
ATOM     88  C   UNL A   1      45.154  33.725  27.615  1.00  0.00     0.173 A 
ATOM     89  F   UNL A   1      46.185  32.495  30.880  1.00  0.00    -0.203 F 
ATOM     90  C   UNL A   1      46.171  34.684  30.014  1.00  0.00     0.198 A 
ATOM     91  C   UNL A   1      45.415  35.083  27.771  1.00  0.00     0.198 A 
ATOM     92  F   UNL A   1      44.654  33.294  26.447  1.00  0.00    -0.203 F 
ATOM     93  F   UNL A   1      46.626  35.148  31.185  1.00  0.00    -0.200 F 
ATOM     94  C   UNL A   1      45.915  35.563  28.973  1.00  0.00     0.200 A 
ATOM     95  F   UNL A   1      45.177  35.931  26.760  1.00  0.00    -0.200 F 
ATOM     96  F   UNL A   1      46.138  36.875  29.131  1.00  0.00    -0.200 F 
ENDBRANCH  63  86
ENDBRANCH  37  38
ENDBRANCH  29  32
ENDBRANCH  27  28
ENDBRANCH  26  27
ENDBRANCH  25  26
ENDBRANCH   1  25
TORSDOF 17
ENDMDL
MODEL 3
REMARK VINA RESULT:     -11.4      2.236      3.919
REMARK SMILES CO[C@@H]1C[C@H](C(=O)NCCCCCCNC(=O)c2ccc(-c3c4nc(c(-c5c(F)c(F)c(F)c(F)c5F)c5ccc([nH]5)c(-c5c(F)c(F)c(F)c(F)c5F)c5nc(c(-c6c(F)c(F)c(F)c(F)c6F)c6ccc3[nH]6)C=C5)C=C4)cc2)N(C(=O)c2ccc([N+](=O)[O-])s2)C1
REMARK SMILES IDX 11 1 10 2 9 3 8 4 6 5 7 6 5 8 3 9 4 10 92 11 81 12 2 13 1 14
REMARK SMILES IDX 82 15 83 16 84 17 85 18 91 19 86 20 87 21 88 22 89 23 90 24
REMARK SMILES IDX 12 25 13 26 14 27 15 28 16 29 17 31 18 32 19 33 80 34 20 35
REMARK SMILES IDX 79 36 21 37 22 38 23 39 73 40 24 41 78 42 72 43 74 44 25 45
REMARK SMILES IDX 77 46 71 47 70 48 26 50 58 51 38 52 57 53 39 54 42 55 56 56
REMARK SMILES IDX 75 57 40 58 41 59 55 61 76 62 43 63 27 64 28 65 36 66 29 67
REMARK SMILES IDX 30 68 34 69 37 70 31 71 32 72 35 73 33 74 59 75 60 76 68 77
REMARK SMILES IDX 61 78 62 79 66 80 69 81 63 82 64 83 67 84 65 85 44 86 45 87
REMARK SMILES IDX 53 88 46 89 47 90 51 91 54 92 48 93 49 94 52 95 50 96
REMARK H PARENT 8 7 15 30 74 49 42 60
REMARK Flexibility Score: inf
ROOT
ATOM      1  C   UNL A   1      34.495  32.281  29.025  1.00  0.00     0.002 C 
ENDROOT
BRANCH   1   2
ATOM      2  C   UNL A   1      34.620  31.119  28.036  1.00  0.00     0.021 C 
BRANCH   2   3
ATOM      3  C   UNL A   1      33.397  30.892  27.136  1.00  0.00     0.116 C 
BRANCH   3   4
ATOM      4  N   UNL A   1      32.605  29.775  27.618  1.00  0.00    -0.354 N 
ATOM      5  C   UNL A   1      32.309  28.553  27.114  1.00  0.00     0.242 C 
ATOM      6  O   UNL A   1      31.393  27.949  27.696  1.00  0.00    -0.273 OA
ATOM      7  H   UNL A   1      32.194  29.941  28.496  1.00  0.00     0.163 HD
BRANCH   5   8
ATOM      8  C   UNL A   1      32.917  27.896  25.848  1.00  0.00     0.177 C 
ATOM      9  C   UNL A   1      32.482  25.541  25.670  1.00  0.00     0.139 C 
ATOM     10  C   UNL A   1      33.562  26.538  26.090  1.00  0.00     0.069 C 
ATOM     11  C   UNL A   1      31.789  26.256  24.492  1.00  0.00     0.152 C 
ATOM     12  N   UNL A   1      32.110  27.674  24.654  1.00  0.00    -0.323 N 
BRANCH   9  13
ATOM     13  O   UNL A   1      31.545  25.271  26.710  1.00  0.00    -0.380 OA
ATOM     14  C   UNL A   1      30.416  24.513  26.285  1.00  0.00     0.195 C 
ENDBRANCH   9  13
BRANCH  12  15
ATOM     15  C   UNL A   1      31.959  28.557  23.590  1.00  0.00     0.264 C 
ATOM     16  O   UNL A   1      32.928  28.974  22.962  1.00  0.00    -0.268 OA
BRANCH  15  17
ATOM     17  C   UNL A   1      30.612  29.064  23.384  1.00  0.00     0.099 A 
ATOM     18  C   UNL A   1      29.565  28.417  22.745  1.00  0.00     0.033 A 
ATOM     19  S   UNL A   1      30.161  30.621  23.920  1.00  0.00    -0.058 S 
ATOM     20  C   UNL A   1      28.427  29.259  22.590  1.00  0.00     0.099 A 
ATOM     21  C   UNL A   1      28.630  30.486  23.183  1.00  0.00     0.324 A 
BRANCH  21  22
ATOM     22  N   UNL A   1      27.700  31.585  23.199  1.00  0.00     0.074 N 
ATOM     23  O   UNL A   1      26.789  31.517  24.037  1.00  0.00    -0.258 OA
ATOM     24  O   UNL A   1      27.865  32.508  22.393  1.00  0.00    -0.258 OA
ENDBRANCH  21  22
ENDBRANCH  15  17
ENDBRANCH  12  15
ENDBRANCH   5   8
ENDBRANCH   3   4
ENDBRANCH   2   3
ENDBRANCH   1   2
BRANCH   1  25
ATOM     25  C   UNL A   1      34.445  33.678  28.398  1.00  0.00     0.002 C 
BRANCH  25  26
ATOM     26  C   UNL A   1      33.135  34.450  28.583  1.00  0.00     0.021 C 
BRANCH  26  27
ATOM     27  C   UNL A   1      33.269  35.849  29.184  1.00  0.00     0.116 C 
BRANCH  27  28
ATOM     28  N   UNL A   1      32.510  36.001  30.414  1.00  0.00    -0.352 N 
ATOM     29  C   UNL A   1      32.732  35.489  31.667  1.00  0.00     0.251 C 
ATOM     30  H   UNL A   1      31.706  36.563  30.335  1.00  0.00     0.163 HD
ATOM     31  O   UNL A   1      31.862  35.596  32.528  1.00  0.00    -0.269 OA
BRANCH  29  32
ATOM     32  C   UNL A   1      33.999  34.799  31.999  1.00  0.00     0.039 A 
ATOM     33  C   UNL A   1      33.940  33.465  32.417  1.00  0.00     0.014 A 
ATOM     34  C   UNL A   1      35.228  35.465  31.974  1.00  0.00     0.014 A 
ATOM     35  C   UNL A   1      35.111  32.791  32.770  1.00  0.00     0.010 A 
ATOM     36  C   UNL A   1      36.404  34.774  32.264  1.00  0.00     0.010 A 
ATOM     37  C   UNL A   1      36.356  33.435  32.680  1.00  0.00    -0.014 A 
BRANCH  37  38
ATOM     38  C   UNL A   1      37.605  32.716  33.041  1.00  0.00     0.031 A 
ATOM     39  C   UNL A   1      38.303  33.006  34.340  1.00  0.00     0.074 A 
ATOM     40  C   UNL A   1      38.129  31.819  32.184  1.00  0.00     0.049 A 
ATOM     41  N   UNL A   1      39.400  32.481  34.829  1.00  0.00    -0.248 NA
ATOM     42  C   UNL A   1      37.705  34.045  35.194  1.00  0.00     0.031 C 
ATOM     43  C   UNL A   1      37.581  31.491  30.868  1.00  0.00     0.029 A 
ATOM     44  N   UNL A   1      39.242  31.024  32.291  1.00  0.00    -0.354 N 
ATOM     45  C   UNL A   1      39.622  33.125  36.038  1.00  0.00     0.074 A 
ATOM     46  C   UNL A   1      38.582  34.122  36.183  1.00  0.00     0.031 C 
ATOM     47  C   UNL A   1      38.349  30.550  30.296  1.00  0.00     0.029 A 
ATOM     48  C   UNL A   1      39.451  30.222  31.196  1.00  0.00     0.049 A 
ATOM     49  H   UNL A   1      39.834  31.027  33.076  1.00  0.00     0.167 HD
ATOM     50  C   UNL A   1      40.590  32.891  36.959  1.00  0.00     0.037 A 
ATOM     51  C   UNL A   1      40.419  29.319  30.949  1.00  0.00     0.037 A 
ATOM     52  C   UNL A   1      41.616  31.891  36.822  1.00  0.00     0.049 A 
ATOM     53  C   UNL A   1      41.461  29.051  31.999  1.00  0.00     0.074 A 
ATOM     54  C   UNL A   1      42.619  31.551  37.713  1.00  0.00     0.029 A 
ATOM     55  N   UNL A   1      41.768  31.065  35.717  1.00  0.00    -0.354 N 
ATOM     56  N   UNL A   1      41.622  29.620  33.168  1.00  0.00    -0.248 NA
ATOM     57  C   UNL A   1      42.442  27.998  31.703  1.00  0.00     0.031 C 
ATOM     58  C   UNL A   1      43.398  30.542  37.133  1.00  0.00     0.029 A 
ATOM     59  C   UNL A   1      42.853  30.222  35.900  1.00  0.00     0.049 A 
ATOM     60  H   UNL A   1      41.190  31.076  34.920  1.00  0.00     0.167 HD
ATOM     61  C   UNL A   1      42.706  28.983  33.756  1.00  0.00     0.074 A 
ATOM     62  C   UNL A   1      43.150  27.969  32.823  1.00  0.00     0.031 C 
ATOM     63  C   UNL A   1      43.282  29.218  34.962  1.00  0.00     0.037 A 
BRANCH  50  64
ATOM     64  C   UNL A   1      40.572  33.734  38.202  1.00  0.00     0.064 A 
ATOM     65  C   UNL A   1      39.735  33.425  39.286  1.00  0.00     0.173 A 
ATOM     66  C   UNL A   1      41.409  34.854  38.320  1.00  0.00     0.173 A 
ATOM     67  F   UNL A   1      38.907  32.372  39.219  1.00  0.00    -0.203 F 
ATOM     68  C   UNL A   1      39.709  34.226  40.424  1.00  0.00     0.198 A 
ATOM     69  C   UNL A   1      41.402  35.636  39.473  1.00  0.00     0.198 A 
ATOM     70  F   UNL A   1      42.233  35.191  37.317  1.00  0.00    -0.203 F 
ATOM     71  F   UNL A   1      38.858  33.943  41.421  1.00  0.00    -0.200 F 
ATOM     72  C   UNL A   1      40.546  35.328  40.519  1.00  0.00     0.200 A 
ATOM     73  F   UNL A   1      42.219  36.693  39.569  1.00  0.00    -0.200 F 
ATOM     74  F   UNL A   1      40.519  36.097  41.616  1.00  0.00    -0.200 F 
ENDBRANCH  50  64
BRANCH  51  75
ATOM     75  C   UNL A   1      40.415  28.572  29.666  1.00  0.00     0.064 A 
ATOM     76  C   UNL A   1      41.157  29.024  28.565  1.00  0.00     0.173 A 
ATOM     77  C   UNL A   1      39.683  27.385  29.519  1.00  0.00     0.173 A 
ATOM     78  F   UNL A   1      41.856  30.165  28.654  1.00  0.00    -0.203 F 
ATOM     79  C   UNL A   1      41.153  28.327  27.360  1.00  0.00     0.198 A 
ATOM     80  C   UNL A   1      39.701  26.674  28.320  1.00  0.00     0.198 A 
ATOM     81  F   UNL A   1      38.964  26.908  30.544  1.00  0.00    -0.203 F 
ATOM     82  F   UNL A   1      41.840  28.801  26.312  1.00  0.00    -0.200 F 
ATOM     83  C   UNL A   1      40.431  27.148  27.240  1.00  0.00     0.200 A 
ATOM     84  F   UNL A   1      39.013  25.529  28.213  1.00  0.00    -0.200 F 
ATOM     85  F   UNL A   1      40.434  26.473  26.083  1.00  0.00    -0.200 F 
ENDBRANCH  51  75
BRANCH  63  86
ATOM     86  C   UNL A   1      44.440  28.342  35.346  1.00  0.00     0.064 A 
ATOM     87  C   UNL A   1      45.762  28.690  35.034  1.00  0.00     0.173 A 
ATOM     88  C   UNL A   1      44.223  27.149  36.052  1.00  0.00     0.173 A 
ATOM     89  F   UNL A   1      46.021  29.815  34.348  1.00  0.00    -0.203 F 
ATOM     90  C   UNL A   1      46.823  27.859  35.384  1.00  0.00     0.198 A 
ATOM     91  C   UNL A   1      45.288  26.335  36.425  1.00  0.00     0.198 A 
ATOM     92  F   UNL A   1      42.978  26.774  36.381  1.00  0.00    -0.203 F 
ATOM     93  F   UNL A   1      48.073  28.185  35.028  1.00  0.00    -0.200 F 
ATOM     94  C   UNL A   1      46.586  26.685  36.083  1.00  0.00     0.200 A 
ATOM     95  F   UNL A   1      45.059  25.206  37.110  1.00  0.00    -0.200 F 
ATOM     96  F   UNL A   1      47.608  25.885  36.418  1.00  0.00    -0.200 F 
ENDBRANCH  63  86
ENDBRANCH  37  38
ENDBRANCH  29  32
ENDBRANCH  27  28
ENDBRANCH  26  27
ENDBRANCH  25  26
ENDBRANCH   1  25
TORSDOF 17
ENDMDL
