MODEL 1
REMARK VINA RESULT:     -12.8      0.000      0.000
REMARK SMILES Cc1ccc(S(=O)(=O)n2cc(C(=O)C(=O)NCC(=O)NCC(=O)NCCCCCCNC(=O)c3ccc(-c4c5nc(c(-c6c(F)c(F)c(F)c(F)c6F)c6ccc([nH]6)c(-c6c(F)c(F)c(F)c(F)c6F)c6nc(c(-c7c(F)c(F)c(F)c(F)c7F)c7ccc4[nH]7)C=C6)C=C5)cc3)c3ccccc32)cc1
REMARK SMILES IDX 25 1 24 2 22 3 23 4 21 6 20 7 18 8 19 9 17 11 16 12 14 13
REMARK SMILES IDX 15 14 12 16 13 17 11 18 9 19 10 20 102 21 97 22 101 23 98 24
REMARK SMILES IDX 100 25 99 26 6 27 7 28 8 29 5 30 1 31 2 32 3 33 104 34 4 35
REMARK SMILES IDX 103 36 26 37 27 38 28 39 29 40 30 41 31 42 32 43 33 45 34 46
REMARK SMILES IDX 35 47 96 48 36 49 95 50 37 51 38 52 39 53 89 54 40 55 94 56
REMARK SMILES IDX 88 57 90 58 41 59 93 60 87 61 86 62 42 64 74 65 54 66 73 67
REMARK SMILES IDX 55 68 58 69 72 70 91 71 56 72 57 73 71 75 92 76 59 77 43 78
REMARK SMILES IDX 44 79 52 80 45 81 46 82 50 83 53 84 47 85 48 86 51 87 49 88
REMARK SMILES IDX 75 89 76 90 84 91 77 92 78 93 82 94 85 95 79 96 80 97 83 98
REMARK SMILES IDX 81 99 60 100 61 101 69 102 62 103 63 104 67 105 70 106
REMARK SMILES IDX 64 107 65 108 68 109 66 110
REMARK H PARENT 24 5 20 10 16 15 31 44 90 63 58 74
REMARK Flexibility Score: inf
ROOT
ATOM      1  C   UNL A   1      37.665  23.097  25.766  1.00  0.00     0.116 C 
ENDROOT
BRANCH   1   2
ATOM      2  N   UNL A   1      38.009  21.730  25.464  1.00  0.00    -0.355 N 
ATOM      3  C   UNL A   1      37.198  20.706  25.064  1.00  0.00     0.239 C 
ATOM      4  O   UNL A   1      37.741  19.688  24.627  1.00  0.00    -0.273 OA
ATOM      5  H   UNL A   1      38.961  21.502  25.560  1.00  0.00     0.163 HD
BRANCH   3   6
ATOM      6  C   UNL A   1      35.668  20.869  24.992  1.00  0.00     0.216 C 
BRANCH   6   7
ATOM      7  N   UNL A   1      34.932  19.644  24.716  1.00  0.00    -0.346 N 
ATOM      8  C   UNL A   1      33.699  19.233  25.128  1.00  0.00     0.239 C 
ATOM      9  O   UNL A   1      33.340  18.097  24.812  1.00  0.00    -0.273 OA
ATOM     10  H   UNL A   1      35.403  19.006  24.133  1.00  0.00     0.164 HD
BRANCH   8  11
ATOM     11  C   UNL A   1      32.769  20.150  25.942  1.00  0.00     0.216 C 
BRANCH  11  12
ATOM     12  N   UNL A   1      33.407  20.866  27.050  1.00  0.00    -0.340 N 
ATOM     13  C   UNL A   1      33.247  22.154  27.525  1.00  0.00     0.292 C 
ATOM     14  O   UNL A   1      33.972  22.536  28.438  1.00  0.00    -0.265 OA
ATOM     15  H   UNL A   1      34.069  20.333  27.545  1.00  0.00     0.164 HD
BRANCH  13  16
ATOM     16  C   UNL A   1      32.179  23.090  26.920  1.00  0.00     0.252 C 
ATOM     17  O   UNL A   1      31.021  22.935  27.298  1.00  0.00    -0.283 OA
BRANCH  16  18
ATOM     18  C   UNL A   1      32.483  24.136  25.935  1.00  0.00     0.054 A 
ATOM     19  N   UNL A   1      32.857  26.080  24.899  1.00  0.00    -0.240 N 
ATOM     20  C   UNL A   1      32.581  25.504  26.118  1.00  0.00     0.117 A 
ATOM     21  C   UNL A   1      32.957  25.129  23.906  1.00  0.00     0.065 A 
ATOM     22  C   UNL A   1      32.722  23.899  24.531  1.00  0.00     0.012 A 
ATOM     23  C   UNL A   1      33.195  25.220  22.521  1.00  0.00     0.028 A 
ATOM     24  C   UNL A   1      32.737  22.729  23.740  1.00  0.00     0.011 A 
ATOM     25  C   UNL A   1      33.175  24.044  21.765  1.00  0.00     0.002 A 
ATOM     26  C   UNL A   1      32.954  22.812  22.364  1.00  0.00     0.001 A 
BRANCH  19  27
ATOM     27  S   UNL A   1      32.950  27.763  24.640  1.00  0.00     0.268 S 
ATOM     28  O   UNL A   1      33.895  27.930  23.558  1.00  0.00    -0.201 OA
ATOM     29  O   UNL A   1      33.168  28.351  25.953  1.00  0.00    -0.201 OA
BRANCH  27  30
ATOM     30  C   UNL A   1      31.364  28.322  24.069  1.00  0.00     0.088 A 
ATOM     31  C   UNL A   1      27.687  29.978  22.568  1.00  0.00     0.044 C 
ATOM     32  C   UNL A   1      28.959  29.390  23.103  1.00  0.00    -0.051 A 
ATOM     33  C   UNL A   1      29.816  30.173  23.887  1.00  0.00     0.005 A 
ATOM     34  C   UNL A   1      29.306  28.060  22.833  1.00  0.00     0.005 A 
ATOM     35  C   UNL A   1      31.016  29.645  24.363  1.00  0.00     0.022 A 
ATOM     36  C   UNL A   1      30.499  27.519  23.323  1.00  0.00     0.022 A 
ENDBRANCH  27  30
ENDBRANCH  19  27
ENDBRANCH  16  18
ENDBRANCH  13  16
ENDBRANCH  11  12
ENDBRANCH   8  11
ENDBRANCH   6   7
ENDBRANCH   3   6
ENDBRANCH   1   2
BRANCH   1  37
ATOM     37  C   UNL A   1      38.856  23.947  26.185  1.00  0.00     0.021 C 
BRANCH  37  38
ATOM     38  C   UNL A   1      39.593  23.431  27.420  1.00  0.00     0.002 C 
BRANCH  38  39
ATOM     39  C   UNL A   1      40.429  22.157  27.216  1.00  0.00     0.002 C 
BRANCH  39  40
ATOM     40  C   UNL A   1      41.930  22.365  27.018  1.00  0.00     0.021 C 
BRANCH  40  41
ATOM     41  C   UNL A   1      42.329  22.684  25.591  1.00  0.00     0.116 C 
BRANCH  41  42
ATOM     42  N   UNL A   1      43.252  21.712  25.022  1.00  0.00    -0.352 N 
ATOM     43  C   UNL A   1      44.590  21.833  24.699  1.00  0.00     0.251 C 
ATOM     44  H   UNL A   1      42.860  20.828  24.841  1.00  0.00     0.163 HD
ATOM     45  O   UNL A   1      45.134  20.968  24.020  1.00  0.00    -0.269 OA
BRANCH  43  46
ATOM     46  C   UNL A   1      45.414  22.876  25.355  1.00  0.00     0.039 A 
ATOM     47  C   UNL A   1      45.656  22.681  26.724  1.00  0.00     0.014 A 
ATOM     48  C   UNL A   1      45.528  24.140  24.794  1.00  0.00     0.014 A 
ATOM     49  C   UNL A   1      45.661  23.777  27.570  1.00  0.00     0.010 A 
ATOM     50  C   UNL A   1      45.363  25.212  25.627  1.00  0.00     0.010 A 
ATOM     51  C   UNL A   1      45.364  25.011  27.008  1.00  0.00    -0.014 A 
BRANCH  51  52
ATOM     52  C   UNL A   1      45.066  26.198  27.770  1.00  0.00     0.031 A 
ATOM     53  C   UNL A   1      43.677  26.666  27.736  1.00  0.00     0.074 A 
ATOM     54  C   UNL A   1      46.023  26.677  28.593  1.00  0.00     0.049 A 
ATOM     55  N   UNL A   1      43.318  27.879  27.946  1.00  0.00    -0.248 NA
ATOM     56  C   UNL A   1      42.560  25.790  27.384  1.00  0.00     0.031 C 
ATOM     57  C   UNL A   1      45.883  27.620  29.694  1.00  0.00     0.029 A 
ATOM     58  N   UNL A   1      47.411  26.482  28.480  1.00  0.00    -0.354 N 
ATOM     59  C   UNL A   1      41.945  27.875  28.089  1.00  0.00     0.074 A 
ATOM     60  C   UNL A   1      41.515  26.592  27.600  1.00  0.00     0.031 C 
ATOM     61  C   UNL A   1      47.089  28.151  29.967  1.00  0.00     0.029 A 
ATOM     62  C   UNL A   1      48.006  27.677  28.943  1.00  0.00     0.049 A 
ATOM     63  H   UNL A   1      47.873  25.679  28.147  1.00  0.00     0.167 HD
ATOM     64  C   UNL A   1      41.373  28.898  28.785  1.00  0.00     0.037 A 
ATOM     65  C   UNL A   1      48.691  28.486  28.077  1.00  0.00     0.037 A 
ATOM     66  C   UNL A   1      42.415  29.831  29.210  1.00  0.00     0.049 A 
ATOM     67  C   UNL A   1      48.024  29.829  27.908  1.00  0.00     0.074 A 
ATOM     68  C   UNL A   1      43.135  29.920  30.390  1.00  0.00     0.029 A 
ATOM     69  N   UNL A   1      43.122  30.549  28.255  1.00  0.00    -0.354 N 
ATOM     70  N   UNL A   1      46.742  30.025  28.056  1.00  0.00    -0.248 NA
ATOM     71  C   UNL A   1      48.752  31.054  27.597  1.00  0.00     0.031 C 
ATOM     72  C   UNL A   1      44.310  30.667  30.126  1.00  0.00     0.029 A 
ATOM     73  C   UNL A   1      44.293  31.046  28.794  1.00  0.00     0.049 A 
ATOM     74  H   UNL A   1      42.831  30.685  27.324  1.00  0.00     0.167 HD
ATOM     75  C   UNL A   1      46.466  31.358  27.885  1.00  0.00     0.074 A 
ATOM     76  C   UNL A   1      47.756  31.957  27.602  1.00  0.00     0.031 C 
ATOM     77  C   UNL A   1      45.199  31.859  27.999  1.00  0.00     0.037 A 
BRANCH  64  78
ATOM     78  C   UNL A   1      39.977  28.903  29.368  1.00  0.00     0.064 A 
ATOM     79  C   UNL A   1      38.874  29.235  28.547  1.00  0.00     0.173 A 
ATOM     80  C   UNL A   1      39.647  28.632  30.708  1.00  0.00     0.173 A 
ATOM     81  F   UNL A   1      39.013  29.434  27.230  1.00  0.00    -0.203 F 
ATOM     82  C   UNL A   1      37.577  29.372  29.044  1.00  0.00     0.198 A 
ATOM     83  C   UNL A   1      38.353  28.803  31.214  1.00  0.00     0.198 A 
ATOM     84  F   UNL A   1      40.543  28.137  31.568  1.00  0.00    -0.203 F 
ATOM     85  F   UNL A   1      36.579  29.700  28.210  1.00  0.00    -0.200 F 
ATOM     86  C   UNL A   1      37.318  29.181  30.384  1.00  0.00     0.200 A 
ATOM     87  F   UNL A   1      38.116  28.590  32.517  1.00  0.00    -0.200 F 
ATOM     88  F   UNL A   1      36.078  29.331  30.865  1.00  0.00    -0.200 F 
ENDBRANCH  64  78
BRANCH  65  89
ATOM     89  C   UNL A   1      49.359  27.706  26.994  1.00  0.00     0.064 A 
ATOM     90  C   UNL A   1      48.714  27.661  25.739  1.00  0.00     0.173 A 
ATOM     91  C   UNL A   1      50.734  27.445  27.021  1.00  0.00     0.173 A 
ATOM     92  F   UNL A   1      47.391  27.880  25.661  1.00  0.00    -0.203 F 
ATOM     93  C   UNL A   1      49.439  27.547  24.556  1.00  0.00     0.198 A 
ATOM     94  C   UNL A   1      51.454  27.298  25.832  1.00  0.00     0.198 A 
ATOM     95  F   UNL A   1      51.406  27.457  28.181  1.00  0.00    -0.203 F 
ATOM     96  F   UNL A   1      48.816  27.673  23.376  1.00  0.00    -0.200 F 
ATOM     97  C   UNL A   1      50.815  27.404  24.603  1.00  0.00     0.200 A 
ATOM     98  F   UNL A   1      52.787  27.159  25.872  1.00  0.00    -0.200 F 
ATOM     99  F   UNL A   1      51.529  27.408  23.469  1.00  0.00    -0.200 F 
ENDBRANCH  65  89
BRANCH  77 100
ATOM    100  C   UNL A   1      44.717  33.201  27.491  1.00  0.00     0.064 A 
ATOM    101  C   UNL A   1      44.025  33.380  26.282  1.00  0.00     0.173 A 
ATOM    102  C   UNL A   1      44.808  34.361  28.304  1.00  0.00     0.173 A 
ATOM    103  F   UNL A   1      43.726  32.349  25.484  1.00  0.00    -0.203 F 
ATOM    104  C   UNL A   1      43.553  34.630  25.874  1.00  0.00     0.198 A 
ATOM    105  C   UNL A   1      44.262  35.587  27.933  1.00  0.00     0.198 A 
ATOM    106  F   UNL A   1      45.401  34.342  29.507  1.00  0.00    -0.203 F 
ATOM    107  F   UNL A   1      42.963  34.754  24.678  1.00  0.00    -0.200 F 
ATOM    108  C   UNL A   1      43.661  35.730  26.703  1.00  0.00     0.200 A 
ATOM    109  F   UNL A   1      44.308  36.621  28.785  1.00  0.00    -0.200 F 
ATOM    110  F   UNL A   1      43.164  36.915  26.328  1.00  0.00    -0.200 F 
ENDBRANCH  77 100
ENDBRANCH  51  52
ENDBRANCH  43  46
ENDBRANCH  41  42
ENDBRANCH  40  41
ENDBRANCH  39  40
ENDBRANCH  38  39
ENDBRANCH  37  38
ENDBRANCH   1  37
TORSDOF 20
ENDMDL
MODEL 2
REMARK VINA RESULT:     -11.3      6.106     10.803
REMARK SMILES Cc1ccc(S(=O)(=O)n2cc(C(=O)C(=O)NCC(=O)NCC(=O)NCCCCCCNC(=O)c3ccc(-c4c5nc(c(-c6c(F)c(F)c(F)c(F)c6F)c6ccc([nH]6)c(-c6c(F)c(F)c(F)c(F)c6F)c6nc(c(-c7c(F)c(F)c(F)c(F)c7F)c7ccc4[nH]7)C=C6)C=C5)cc3)c3ccccc32)cc1
REMARK SMILES IDX 25 1 24 2 22 3 23 4 21 6 20 7 18 8 19 9 17 11 16 12 14 13
REMARK SMILES IDX 15 14 12 16 13 17 11 18 9 19 10 20 102 21 97 22 101 23 98 24
REMARK SMILES IDX 100 25 99 26 6 27 7 28 8 29 5 30 1 31 2 32 3 33 104 34 4 35
REMARK SMILES IDX 103 36 26 37 27 38 28 39 29 40 30 41 31 42 32 43 33 45 34 46
REMARK SMILES IDX 35 47 96 48 36 49 95 50 37 51 38 52 39 53 89 54 40 55 94 56
REMARK SMILES IDX 88 57 90 58 41 59 93 60 87 61 86 62 42 64 74 65 54 66 73 67
REMARK SMILES IDX 55 68 58 69 72 70 91 71 56 72 57 73 71 75 92 76 59 77 43 78
REMARK SMILES IDX 44 79 52 80 45 81 46 82 50 83 53 84 47 85 48 86 51 87 49 88
REMARK SMILES IDX 75 89 76 90 84 91 77 92 78 93 82 94 85 95 79 96 80 97 83 98
REMARK SMILES IDX 81 99 60 100 61 101 69 102 62 103 63 104 67 105 70 106
REMARK SMILES IDX 64 107 65 108 68 109 66 110
REMARK H PARENT 24 5 20 10 16 15 31 44 90 63 58 74
REMARK Flexibility Score: inf
ROOT
ATOM      1  C   UNL A   1      45.405  22.902  26.846  1.00  0.00     0.116 C 
ENDROOT
BRANCH   1   2
ATOM      2  N   UNL A   1      44.243  22.949  27.698  1.00  0.00    -0.355 N 
ATOM      3  C   UNL A   1      42.953  22.599  27.417  1.00  0.00     0.239 C 
ATOM      4  O   UNL A   1      42.174  22.490  28.367  1.00  0.00    -0.273 OA
ATOM      5  H   UNL A   1      44.401  23.282  28.611  1.00  0.00     0.163 HD
BRANCH   3   6
ATOM      6  C   UNL A   1      42.521  22.182  25.998  1.00  0.00     0.216 C 
BRANCH   6   7
ATOM      7  N   UNL A   1      42.038  20.815  25.880  1.00  0.00    -0.346 N 
ATOM      8  C   UNL A   1      40.770  20.315  25.873  1.00  0.00     0.239 C 
ATOM      9  O   UNL A   1      40.638  19.089  25.842  1.00  0.00    -0.273 OA
ATOM     10  H   UNL A   1      42.746  20.137  25.788  1.00  0.00     0.164 HD
BRANCH   8  11
ATOM     11  C   UNL A   1      39.536  21.234  25.884  1.00  0.00     0.216 C 
BRANCH  11  12
ATOM     12  N   UNL A   1      38.293  20.623  25.407  1.00  0.00    -0.340 N 
ATOM     13  C   UNL A   1      37.038  21.153  25.176  1.00  0.00     0.292 C 
ATOM     14  O   UNL A   1      36.133  20.393  24.842  1.00  0.00    -0.265 OA
ATOM     15  H   UNL A   1      38.365  19.660  25.217  1.00  0.00     0.164 HD
BRANCH  13  16
ATOM     16  C   UNL A   1      36.780  22.666  25.334  1.00  0.00     0.252 C 
ATOM     17  O   UNL A   1      37.714  23.353  25.738  1.00  0.00    -0.283 OA
BRANCH  16  18
ATOM     18  C   UNL A   1      35.494  23.305  25.026  1.00  0.00     0.054 A 
ATOM     19  N   UNL A   1      33.843  24.495  24.104  1.00  0.00    -0.240 N 
ATOM     20  C   UNL A   1      35.154  24.106  23.950  1.00  0.00     0.117 A 
ATOM     21  C   UNL A   1      33.294  23.966  25.253  1.00  0.00     0.065 A 
ATOM     22  C   UNL A   1      34.314  23.216  25.852  1.00  0.00     0.012 A 
ATOM     23  C   UNL A   1      32.024  24.092  25.847  1.00  0.00     0.028 A 
ATOM     24  C   UNL A   1      34.041  22.569  27.078  1.00  0.00     0.011 A 
ATOM     25  C   UNL A   1      31.798  23.460  27.074  1.00  0.00     0.002 A 
ATOM     26  C   UNL A   1      32.791  22.704  27.681  1.00  0.00     0.001 A 
BRANCH  19  27
ATOM     27  S   UNL A   1      33.044  25.584  23.063  1.00  0.00     0.268 S 
ATOM     28  O   UNL A   1      31.755  24.983  22.800  1.00  0.00    -0.201 OA
ATOM     29  O   UNL A   1      33.992  25.876  21.997  1.00  0.00    -0.201 OA
BRANCH  27  30
ATOM     30  C   UNL A   1      32.768  27.096  23.952  1.00  0.00     0.088 A 
ATOM     31  C   UNL A   1      31.759  30.649  26.161  1.00  0.00     0.044 C 
ATOM     32  C   UNL A   1      32.125  29.420  25.381  1.00  0.00    -0.051 A 
ATOM     33  C   UNL A   1      31.276  28.955  24.370  1.00  0.00     0.005 A 
ATOM     34  C   UNL A   1      33.312  28.727  25.648  1.00  0.00     0.005 A 
ATOM     35  C   UNL A   1      31.591  27.795  23.661  1.00  0.00     0.022 A 
ATOM     36  C   UNL A   1      33.643  27.574  24.929  1.00  0.00     0.022 A 
ENDBRANCH  27  30
ENDBRANCH  19  27
ENDBRANCH  16  18
ENDBRANCH  13  16
ENDBRANCH  11  12
ENDBRANCH   8  11
ENDBRANCH   6   7
ENDBRANCH   3   6
ENDBRANCH   1   2
BRANCH   1  37
ATOM     37  C   UNL A   1      45.613  24.167  26.026  1.00  0.00     0.021 C 
BRANCH  37  38
ATOM     38  C   UNL A   1      46.816  24.116  25.085  1.00  0.00     0.002 C 
BRANCH  38  39
ATOM     39  C   UNL A   1      47.350  25.476  24.608  1.00  0.00     0.002 C 
BRANCH  39  40
ATOM     40  C   UNL A   1      46.509  26.696  24.983  1.00  0.00     0.021 C 
BRANCH  40  41
ATOM     41  C   UNL A   1      47.319  27.952  25.241  1.00  0.00     0.116 C 
BRANCH  41  42
ATOM     42  N   UNL A   1      46.738  28.808  26.265  1.00  0.00    -0.352 N 
ATOM     43  C   UNL A   1      46.655  28.632  27.634  1.00  0.00     0.251 C 
ATOM     44  H   UNL A   1      46.344  29.644  25.931  1.00  0.00     0.163 HD
ATOM     45  O   UNL A   1      45.927  29.362  28.299  1.00  0.00    -0.269 OA
BRANCH  43  46
ATOM     46  C   UNL A   1      47.607  27.725  28.319  1.00  0.00     0.039 A 
ATOM     47  C   UNL A   1      47.145  26.417  28.535  1.00  0.00     0.014 A 
ATOM     48  C   UNL A   1      48.644  28.240  29.082  1.00  0.00     0.014 A 
ATOM     49  C   UNL A   1      47.471  25.776  29.718  1.00  0.00     0.010 A 
ATOM     50  C   UNL A   1      48.841  27.695  30.321  1.00  0.00     0.010 A 
ATOM     51  C   UNL A   1      48.198  26.501  30.651  1.00  0.00    -0.014 A 
BRANCH  51  52
ATOM     52  C   UNL A   1      48.394  26.094  32.020  1.00  0.00     0.031 A 
ATOM     53  C   UNL A   1      49.459  25.116  32.267  1.00  0.00     0.074 A 
ATOM     54  C   UNL A   1      47.724  26.765  32.981  1.00  0.00     0.049 A 
ATOM     55  N   UNL A   1      49.491  24.320  33.271  1.00  0.00    -0.248 NA
ATOM     56  C   UNL A   1      50.565  24.907  31.333  1.00  0.00     0.031 C 
ATOM     57  C   UNL A   1      47.983  26.795  34.414  1.00  0.00     0.029 A 
ATOM     58  N   UNL A   1      46.524  27.482  32.833  1.00  0.00    -0.354 N 
ATOM     59  C   UNL A   1      50.749  23.754  33.298  1.00  0.00     0.074 A 
ATOM     60  C   UNL A   1      51.323  24.042  32.009  1.00  0.00     0.031 C 
ATOM     61  C   UNL A   1      46.872  27.213  35.048  1.00  0.00     0.029 A 
ATOM     62  C   UNL A   1      45.821  27.312  34.048  1.00  0.00     0.049 A 
ATOM     63  H   UNL A   1      46.232  27.995  32.045  1.00  0.00     0.167 HD
ATOM     64  C   UNL A   1      51.209  23.276  34.488  1.00  0.00     0.037 A 
ATOM     65  C   UNL A   1      44.653  26.601  34.074  1.00  0.00     0.037 A 
ATOM     66  C   UNL A   1      50.180  23.459  35.509  1.00  0.00     0.049 A 
ATOM     67  C   UNL A   1      44.773  25.342  34.898  1.00  0.00     0.074 A 
ATOM     68  C   UNL A   1      49.969  24.480  36.421  1.00  0.00     0.029 A 
ATOM     69  N   UNL A   1      48.985  22.760  35.409  1.00  0.00    -0.354 N 
ATOM     70  N   UNL A   1      45.894  24.697  35.076  1.00  0.00    -0.248 NA
ATOM     71  C   UNL A   1      43.652  24.737  35.608  1.00  0.00     0.031 C 
ATOM     72  C   UNL A   1      48.618  24.416  36.841  1.00  0.00     0.029 A 
ATOM     73  C   UNL A   1      48.015  23.347  36.198  1.00  0.00     0.049 A 
ATOM     74  H   UNL A   1      48.847  21.959  34.853  1.00  0.00     0.167 HD
ATOM     75  C   UNL A   1      45.674  23.631  35.911  1.00  0.00     0.074 A 
ATOM     76  C   UNL A   1      44.258  23.702  36.216  1.00  0.00     0.031 C 
ATOM     77  C   UNL A   1      46.678  22.783  36.288  1.00  0.00     0.037 A 
BRANCH  64  78
ATOM     78  C   UNL A   1      52.652  22.965  34.821  1.00  0.00     0.064 A 
ATOM     79  C   UNL A   1      53.061  21.622  34.990  1.00  0.00     0.173 A 
ATOM     80  C   UNL A   1      53.670  23.915  35.021  1.00  0.00     0.173 A 
ATOM     81  F   UNL A   1      52.230  20.599  34.750  1.00  0.00    -0.203 F 
ATOM     82  C   UNL A   1      54.345  21.270  35.411  1.00  0.00     0.198 A 
ATOM     83  C   UNL A   1      54.947  23.564  35.476  1.00  0.00     0.198 A 
ATOM     84  F   UNL A   1      53.495  25.208  34.732  1.00  0.00    -0.203 F 
ATOM     85  F   UNL A   1      54.661  19.975  35.563  1.00  0.00    -0.200 F 
ATOM     86  C   UNL A   1      55.283  22.242  35.679  1.00  0.00     0.200 A 
ATOM     87  F   UNL A   1      55.855  24.524  35.710  1.00  0.00    -0.200 F 
ATOM     88  F   UNL A   1      56.508  21.906  36.101  1.00  0.00    -0.200 F 
ENDBRANCH  64  78
BRANCH  65  89
ATOM     89  C   UNL A   1      43.889  26.733  32.798  1.00  0.00     0.064 A 
ATOM     90  C   UNL A   1      43.271  27.975  32.541  1.00  0.00     0.173 A 
ATOM     91  C   UNL A   1      44.148  25.902  31.700  1.00  0.00     0.173 A 
ATOM     92  F   UNL A   1      42.979  28.799  33.561  1.00  0.00    -0.203 F 
ATOM     93  C   UNL A   1      43.094  28.440  31.240  1.00  0.00     0.198 A 
ATOM     94  C   UNL A   1      43.938  26.361  30.397  1.00  0.00     0.198 A 
ATOM     95  F   UNL A   1      44.720  24.703  31.875  1.00  0.00    -0.203 F 
ATOM     96  F   UNL A   1      42.657  29.691  31.032  1.00  0.00    -0.200 F 
ATOM     97  C   UNL A   1      43.464  27.646  30.169  1.00  0.00     0.200 A 
ATOM     98  F   UNL A   1      44.295  25.595  29.355  1.00  0.00    -0.200 F 
ATOM     99  F   UNL A   1      43.403  28.132  28.921  1.00  0.00    -0.200 F 
ENDBRANCH  65  89
BRANCH  77 100
ATOM    100  C   UNL A   1      46.508  21.404  36.887  1.00  0.00     0.064 A 
ATOM    101  C   UNL A   1      46.660  21.117  38.253  1.00  0.00     0.173 A 
ATOM    102  C   UNL A   1      46.025  20.325  36.101  1.00  0.00     0.173 A 
ATOM    103  F   UNL A   1      46.960  22.072  39.142  1.00  0.00    -0.203 F 
ATOM    104  C   UNL A   1      46.445  19.838  38.773  1.00  0.00     0.198 A 
ATOM    105  C   UNL A   1      45.731  19.073  36.638  1.00  0.00     0.198 A 
ATOM    106  F   UNL A   1      45.788  20.451  34.787  1.00  0.00    -0.203 F 
ATOM    107  F   UNL A   1      46.674  19.608  40.073  1.00  0.00    -0.200 F 
ATOM    108  C   UNL A   1      45.970  18.821  37.970  1.00  0.00     0.200 A 
ATOM    109  F   UNL A   1      45.196  18.124  35.856  1.00  0.00    -0.200 F 
ATOM    110  F   UNL A   1      45.719  17.610  38.483  1.00  0.00    -0.200 F 
ENDBRANCH  77 100
ENDBRANCH  51  52
ENDBRANCH  43  46
ENDBRANCH  41  42
ENDBRANCH  40  41
ENDBRANCH  39  40
ENDBRANCH  38  39
ENDBRANCH  37  38
ENDBRANCH   1  37
TORSDOF 20
ENDMDL
MODEL 3
REMARK VINA RESULT:     -11.2      6.587     13.419
REMARK SMILES Cc1ccc(S(=O)(=O)n2cc(C(=O)C(=O)NCC(=O)NCC(=O)NCCCCCCNC(=O)c3ccc(-c4c5nc(c(-c6c(F)c(F)c(F)c(F)c6F)c6ccc([nH]6)c(-c6c(F)c(F)c(F)c(F)c6F)c6nc(c(-c7c(F)c(F)c(F)c(F)c7F)c7ccc4[nH]7)C=C6)C=C5)cc3)c3ccccc32)cc1
REMARK SMILES IDX 25 1 24 2 22 3 23 4 21 6 20 7 18 8 19 9 17 11 16 12 14 13
REMARK SMILES IDX 15 14 12 16 13 17 11 18 9 19 10 20 102 21 97 22 101 23 98 24
REMARK SMILES IDX 100 25 99 26 6 27 7 28 8 29 5 30 1 31 2 32 3 33 104 34 4 35
REMARK SMILES IDX 103 36 26 37 27 38 28 39 29 40 30 41 31 42 32 43 33 45 34 46
REMARK SMILES IDX 35 47 96 48 36 49 95 50 37 51 38 52 39 53 89 54 40 55 94 56
REMARK SMILES IDX 88 57 90 58 41 59 93 60 87 61 86 62 42 64 74 65 54 66 73 67
REMARK SMILES IDX 55 68 58 69 72 70 91 71 56 72 57 73 71 75 92 76 59 77 43 78
REMARK SMILES IDX 44 79 52 80 45 81 46 82 50 83 53 84 47 85 48 86 51 87 49 88
REMARK SMILES IDX 75 89 76 90 84 91 77 92 78 93 82 94 85 95 79 96 80 97 83 98
REMARK SMILES IDX 81 99 60 100 61 101 69 102 62 103 63 104 67 105 70 106
REMARK SMILES IDX 64 107 65 108 68 109 66 110
REMARK H PARENT 24 5 20 10 16 15 31 44 90 63 58 74
REMARK Flexibility Score: inf
ROOT
ATOM      1  C   UNL A   1      41.633  36.162  28.186  1.00  0.00     0.116 C 
ENDROOT
BRANCH   1   2
ATOM      2  N   UNL A   1      41.795  35.648  26.849  1.00  0.00    -0.355 N 
ATOM      3  C   UNL A   1      42.941  35.467  26.127  1.00  0.00     0.239 C 
ATOM      4  O   UNL A   1      42.865  34.788  25.101  1.00  0.00    -0.273 OA
ATOM      5  H   UNL A   1      40.962  35.391  26.391  1.00  0.00     0.163 HD
BRANCH   3   6
ATOM      6  C   UNL A   1      44.309  35.939  26.655  1.00  0.00     0.216 C 
BRANCH   6   7
ATOM      7  N   UNL A   1      45.451  35.533  25.850  1.00  0.00    -0.346 N 
ATOM      8  C   UNL A   1      46.320  34.493  25.994  1.00  0.00     0.239 C 
ATOM      9  O   UNL A   1      47.264  34.421  25.205  1.00  0.00    -0.273 OA
ATOM     10  H   UNL A   1      45.624  36.105  25.067  1.00  0.00     0.164 HD
BRANCH   8  11
ATOM     11  C   UNL A   1      46.131  33.426  27.087  1.00  0.00     0.216 C 
BRANCH  11  12
ATOM     12  N   UNL A   1      45.223  32.329  26.743  1.00  0.00    -0.340 N 
ATOM     13  C   UNL A   1      45.390  30.957  26.765  1.00  0.00     0.292 C 
ATOM     14  O   UNL A   1      44.478  30.249  26.348  1.00  0.00    -0.265 OA
ATOM     15  H   UNL A   1      44.334  32.622  26.441  1.00  0.00     0.164 HD
BRANCH  13  16
ATOM     16  C   UNL A   1      46.693  30.330  27.303  1.00  0.00     0.252 C 
ATOM     17  O   UNL A   1      47.738  30.642  26.740  1.00  0.00    -0.283 OA
BRANCH  16  18
ATOM     18  C   UNL A   1      46.734  29.398  28.438  1.00  0.00     0.054 A 
ATOM     19  N   UNL A   1      46.867  28.478  30.470  1.00  0.00    -0.240 N 
ATOM     20  C   UNL A   1      46.838  29.674  29.790  1.00  0.00     0.117 A 
ATOM     21  C   UNL A   1      46.774  27.407  29.606  1.00  0.00     0.065 A 
ATOM     22  C   UNL A   1      46.693  27.960  28.322  1.00  0.00     0.012 A 
ATOM     23  C   UNL A   1      46.786  26.015  29.811  1.00  0.00     0.028 A 
ATOM     24  C   UNL A   1      46.613  27.083  27.217  1.00  0.00     0.011 A 
ATOM     25  C   UNL A   1      46.733  25.177  28.693  1.00  0.00     0.002 A 
ATOM     26  C   UNL A   1      46.643  25.702  27.411  1.00  0.00     0.001 A 
BRANCH  19  27
ATOM     27  S   UNL A   1      47.101  28.345  32.154  1.00  0.00     0.268 S 
ATOM     28  O   UNL A   1      47.457  29.675  32.596  1.00  0.00    -0.201 OA
ATOM     29  O   UNL A   1      47.990  27.207  32.337  1.00  0.00    -0.201 OA
BRANCH  27  30
ATOM     30  C   UNL A   1      45.545  27.923  32.896  1.00  0.00     0.088 A 
ATOM     31  C   UNL A   1      41.618  27.146  34.476  1.00  0.00     0.044 C 
ATOM     32  C   UNL A   1      42.995  27.411  33.941  1.00  0.00    -0.051 A 
ATOM     33  C   UNL A   1      43.446  28.728  33.793  1.00  0.00     0.005 A 
ATOM     34  C   UNL A   1      43.844  26.354  33.589  1.00  0.00     0.005 A 
ATOM     35  C   UNL A   1      44.713  28.985  33.267  1.00  0.00     0.022 A 
ATOM     36  C   UNL A   1      45.122  26.605  33.079  1.00  0.00     0.022 A 
ENDBRANCH  27  30
ENDBRANCH  19  27
ENDBRANCH  16  18
ENDBRANCH  13  16
ENDBRANCH  11  12
ENDBRANCH   8  11
ENDBRANCH   6   7
ENDBRANCH   3   6
ENDBRANCH   1   2
BRANCH   1  37
ATOM     37  C   UNL A   1      41.580  35.079  29.254  1.00  0.00     0.021 C 
BRANCH  37  38
ATOM     38  C   UNL A   1      42.663  35.198  30.325  1.00  0.00     0.002 C 
BRANCH  38  39
ATOM     39  C   UNL A   1      44.023  34.572  29.974  1.00  0.00     0.002 C 
BRANCH  39  40
ATOM     40  C   UNL A   1      45.248  35.231  30.606  1.00  0.00     0.021 C 
BRANCH  40  41
ATOM     41  C   UNL A   1      46.026  34.325  31.540  1.00  0.00     0.116 C 
BRANCH  41  42
ATOM     42  N   UNL A   1      46.713  35.049  32.601  1.00  0.00    -0.352 N 
ATOM     43  C   UNL A   1      46.230  35.562  33.790  1.00  0.00     0.251 C 
ATOM     44  H   UNL A   1      47.673  35.197  32.446  1.00  0.00     0.163 HD
ATOM     45  O   UNL A   1      46.919  36.336  34.445  1.00  0.00    -0.269 OA
BRANCH  43  46
ATOM     46  C   UNL A   1      44.991  35.003  34.382  1.00  0.00     0.039 A 
ATOM     47  C   UNL A   1      45.128  33.749  34.997  1.00  0.00     0.014 A 
ATOM     48  C   UNL A   1      43.746  35.446  33.958  1.00  0.00     0.014 A 
ATOM     49  C   UNL A   1      44.109  32.821  34.866  1.00  0.00     0.010 A 
ATOM     50  C   UNL A   1      42.805  34.495  33.675  1.00  0.00     0.010 A 
ATOM     51  C   UNL A   1      43.028  33.176  34.073  1.00  0.00    -0.014 A 
BRANCH  51  52
ATOM     52  C   UNL A   1      42.020  32.252  33.615  1.00  0.00     0.031 A 
ATOM     53  C   UNL A   1      42.180  31.729  32.254  1.00  0.00     0.074 A 
ATOM     54  C   UNL A   1      41.123  31.798  34.516  1.00  0.00     0.049 A 
ATOM     55  N   UNL A   1      41.217  31.292  31.530  1.00  0.00    -0.248 NA
ATOM     56  C   UNL A   1      43.468  31.725  31.561  1.00  0.00     0.031 C 
ATOM     57  C   UNL A   1      40.244  30.641  34.416  1.00  0.00     0.029 A 
ATOM     58  N   UNL A   1      40.726  32.431  35.707  1.00  0.00    -0.354 N 
ATOM     59  C   UNL A   1      41.785  30.655  30.445  1.00  0.00     0.074 A 
ATOM     60  C   UNL A   1      43.164  31.068  30.440  1.00  0.00     0.031 C 
ATOM     61  C   UNL A   1      39.238  30.783  35.299  1.00  0.00     0.029 A 
ATOM     62  C   UNL A   1      39.360  32.111  35.877  1.00  0.00     0.049 A 
ATOM     63  H   UNL A   1      41.285  32.983  36.301  1.00  0.00     0.167 HD
ATOM     64  C   UNL A   1      41.046  29.707  29.803  1.00  0.00     0.037 A 
ATOM     65  C   UNL A   1      38.408  33.089  35.788  1.00  0.00     0.037 A 
ATOM     66  C   UNL A   1      39.733  29.610  30.438  1.00  0.00     0.049 A 
ATOM     67  C   UNL A   1      37.484  32.877  34.613  1.00  0.00     0.074 A 
ATOM     68  C   UNL A   1      39.261  28.775  31.437  1.00  0.00     0.029 A 
ATOM     69  N   UNL A   1      38.861  30.688  30.372  1.00  0.00    -0.354 N 
ATOM     70  N   UNL A   1      37.833  32.251  33.521  1.00  0.00    -0.248 NA
ATOM     71  C   UNL A   1      36.095  33.320  34.592  1.00  0.00     0.031 C 
ATOM     72  C   UNL A   1      38.113  29.382  32.003  1.00  0.00     0.029 A 
ATOM     73  C   UNL A   1      37.879  30.574  31.338  1.00  0.00     0.049 A 
ATOM     74  H   UNL A   1      38.931  31.430  29.729  1.00  0.00     0.167 HD
ATOM     75  C   UNL A   1      36.756  32.185  32.674  1.00  0.00     0.074 A 
ATOM     76  C   UNL A   1      35.694  32.866  33.392  1.00  0.00     0.031 C 
ATOM     77  C   UNL A   1      36.825  31.567  31.457  1.00  0.00     0.037 A 
BRANCH  64  78
ATOM     78  C   UNL A   1      41.582  28.654  28.858  1.00  0.00     0.064 A 
ATOM     79  C   UNL A   1      42.333  27.569  29.367  1.00  0.00     0.173 A 
ATOM     80  C   UNL A   1      41.435  28.657  27.459  1.00  0.00     0.173 A 
ATOM     81  F   UNL A   1      42.489  27.379  30.684  1.00  0.00    -0.203 F 
ATOM     82  C   UNL A   1      42.955  26.628  28.545  1.00  0.00     0.198 A 
ATOM     83  C   UNL A   1      42.086  27.733  26.632  1.00  0.00     0.198 A 
ATOM     84  F   UNL A   1      40.614  29.509  26.839  1.00  0.00    -0.203 F 
ATOM     85  F   UNL A   1      43.663  25.630  29.095  1.00  0.00    -0.200 F 
ATOM     86  C   UNL A   1      42.853  26.723  27.174  1.00  0.00     0.200 A 
ATOM     87  F   UNL A   1      41.957  27.828  25.300  1.00  0.00    -0.200 F 
ATOM     88  F   UNL A   1      43.465  25.832  26.384  1.00  0.00    -0.200 F 
ENDBRANCH  64  78
BRANCH  65  89
ATOM     89  C   UNL A   1      38.916  34.409  36.264  1.00  0.00     0.064 A 
ATOM     90  C   UNL A   1      39.201  34.534  37.640  1.00  0.00     0.173 A 
ATOM     91  C   UNL A   1      39.539  35.312  35.392  1.00  0.00     0.173 A 
ATOM     92  F   UNL A   1      38.611  33.709  38.521  1.00  0.00    -0.203 F 
ATOM     93  C   UNL A   1      40.199  35.390  38.098  1.00  0.00     0.198 A 
ATOM     94  C   UNL A   1      40.517  36.192  35.861  1.00  0.00     0.198 A 
ATOM     95  F   UNL A   1      39.301  35.259  34.074  1.00  0.00    -0.203 F 
ATOM     96  F   UNL A   1      40.561  35.364  39.389  1.00  0.00    -0.200 F 
ATOM     97  C   UNL A   1      40.883  36.192  37.201  1.00  0.00     0.200 A 
ATOM     98  F   UNL A   1      41.182  36.972  34.996  1.00  0.00    -0.200 F 
ATOM     99  F   UNL A   1      41.920  36.932  37.619  1.00  0.00    -0.200 F 
ENDBRANCH  65  89
BRANCH  77 100
ATOM    100  C   UNL A   1      35.851  31.737  30.310  1.00  0.00     0.064 A 
ATOM    101  C   UNL A   1      35.313  32.971  29.913  1.00  0.00     0.173 A 
ATOM    102  C   UNL A   1      35.539  30.647  29.456  1.00  0.00     0.173 A 
ATOM    103  F   UNL A   1      35.643  34.112  30.529  1.00  0.00    -0.203 F 
ATOM    104  C   UNL A   1      34.456  33.090  28.816  1.00  0.00     0.198 A 
ATOM    105  C   UNL A   1      34.752  30.784  28.315  1.00  0.00     0.198 A 
ATOM    106  F   UNL A   1      36.012  29.411  29.676  1.00  0.00    -0.203 F 
ATOM    107  F   UNL A   1      33.917  34.282  28.527  1.00  0.00    -0.200 F 
ATOM    108  C   UNL A   1      34.185  32.001  28.011  1.00  0.00     0.200 A 
ATOM    109  F   UNL A   1      34.567  29.733  27.504  1.00  0.00    -0.200 F 
ATOM    110  F   UNL A   1      33.402  32.131  26.933  1.00  0.00    -0.200 F 
ENDBRANCH  77 100
ENDBRANCH  51  52
ENDBRANCH  43  46
ENDBRANCH  41  42
ENDBRANCH  40  41
ENDBRANCH  39  40
ENDBRANCH  38  39
ENDBRANCH  37  38
ENDBRANCH   1  37
TORSDOF 20
ENDMDL
