MODEL 1
REMARK VINA RESULT:     -13.1      0.000      0.000
REMARK SMILES CC1=C(CC(=O)NCCCCCCNC(=O)c2ccc(-c3c4nc(c(-c5c(F)c(F)c(F)c(F)c5F)c5ccc([nH]5)c(-c5c(F)c(F)c(F)c(F)c5F)c5nc(c(-c6c(F)c(F)c(F)c(F)c6F)c6ccc3[nH]6)C=C5)C=C4)cc2)c2cc(F)ccc2/C1=C\c1ccc([S@@+](C)[O-])cc1
REMARK SMILES IDX 10 1 9 2 8 3 7 4 5 5 6 6 4 8 3 9 1 10 2 11 87 12 80 13 86 14
REMARK SMILES IDX 88 15 81 16 85 17 82 18 84 19 83 20 89 21 90 22 97 23 91 24
REMARK SMILES IDX 96 25 92 26 93 27 94 28 95 29 11 30 12 31 13 32 14 33 15 34
REMARK SMILES IDX 16 36 17 37 18 38 79 39 19 40 78 41 20 42 21 43 22 44 72 45
REMARK SMILES IDX 23 46 77 47 71 48 73 49 24 50 76 51 70 52 69 53 25 55 57 56
REMARK SMILES IDX 37 57 56 58 38 59 41 60 55 61 74 62 39 63 40 64 54 66 75 67
REMARK SMILES IDX 42 68 26 69 27 70 35 71 28 72 29 73 33 74 36 75 30 76 31 77
REMARK SMILES IDX 34 78 32 79 58 80 59 81 67 82 60 83 61 84 65 85 68 86 62 87
REMARK SMILES IDX 63 88 66 89 64 90 43 91 44 92 52 93 45 94 46 95 50 96 53 97
REMARK SMILES IDX 47 98 48 99 51 100 49 101
REMARK H PARENT 7 7 14 35 73 54 41 65
REMARK Flexibility Score: inf
ROOT
ATOM      1  C   UNL A   1      37.380  21.947  24.486  1.00  0.00     0.002 C 
ENDROOT
BRANCH   1   2
ATOM      2  C   UNL A   1      37.629  22.994  25.581  1.00  0.00     0.021 C 
BRANCH   2   3
ATOM      3  C   UNL A   1      36.361  23.696  26.072  1.00  0.00     0.116 C 
BRANCH   3   4
ATOM      4  N   UNL A   1      35.592  22.841  26.951  1.00  0.00    -0.356 N 
ATOM      5  C   UNL A   1      34.411  22.203  26.707  1.00  0.00     0.224 C 
ATOM      6  O   UNL A   1      33.884  21.582  27.633  1.00  0.00    -0.275 OA
ATOM      7  H   UNL A   1      35.974  22.700  27.846  1.00  0.00     0.163 HD
BRANCH   5   8
ATOM      8  C   UNL A   1      33.795  22.217  25.310  1.00  0.00     0.136 C 
BRANCH   8   9
ATOM      9  C   UNL A   1      32.990  23.440  25.004  1.00  0.00    -0.027 C 
ATOM     10  C   UNL A   1      34.374  24.510  23.138  1.00  0.00     0.045 C 
ATOM     11  C   UNL A   1      33.240  24.424  24.107  1.00  0.00    -0.039 C 
ATOM     12  C   UNL A   1      32.178  25.442  24.178  1.00  0.00    -0.014 C 
ATOM     13  C   UNL A   1      31.698  23.736  25.647  1.00  0.00    -0.011 A 
ATOM     14  C   UNL A   1      31.160  24.922  25.113  1.00  0.00    -0.010 A 
ATOM     15  C   UNL A   1      32.218  26.626  23.536  1.00  0.00     0.017 C 
ATOM     16  C   UNL A   1      31.001  23.013  26.607  1.00  0.00     0.048 A 
ATOM     17  C   UNL A   1      29.894  25.352  25.487  1.00  0.00     0.012 A 
ATOM     18  C   UNL A   1      29.759  23.486  27.018  1.00  0.00     0.123 A 
ATOM     19  C   UNL A   1      29.197  24.635  26.462  1.00  0.00     0.040 A 
ATOM     20  F   UNL A   1      29.076  22.817  27.956  1.00  0.00    -0.207 F 
BRANCH  15  21
ATOM     21  C   UNL A   1      31.188  27.667  23.606  1.00  0.00    -0.025 A 
ATOM     22  C   UNL A   1      30.050  27.617  22.793  1.00  0.00     0.013 A 
ATOM     23  C   UNL A   1      31.406  28.782  24.417  1.00  0.00     0.013 A 
ATOM     24  C   UNL A   1      29.209  28.731  22.693  1.00  0.00     0.061 A 
ATOM     25  C   UNL A   1      30.552  29.885  24.335  1.00  0.00     0.061 A 
ATOM     26  C   UNL A   1      29.472  29.885  23.443  1.00  0.00     0.152 A 
BRANCH  26  27
ATOM     27  S   UNL A   1      28.566  31.425  23.148  1.00  0.00    -0.018 S 
ATOM     28  C   UNL A   1      28.336  31.313  21.364  1.00  0.00     0.346 C 
ATOM     29  O   UNL A   1      27.159  31.266  23.827  1.00  0.00    -0.612 OA
ENDBRANCH  26  27
ENDBRANCH  15  21
ENDBRANCH   8   9
ENDBRANCH   5   8
ENDBRANCH   3   4
ENDBRANCH   2   3
ENDBRANCH   1   2
BRANCH   1  30
ATOM     30  C   UNL A   1      37.096  20.525  24.985  1.00  0.00     0.002 C 
BRANCH  30  31
ATOM     31  C   UNL A   1      38.277  19.557  24.903  1.00  0.00     0.021 C 
BRANCH  31  32
ATOM     32  C   UNL A   1      39.483  19.948  25.750  1.00  0.00     0.116 C 
BRANCH  32  33
ATOM     33  N   UNL A   1      40.471  18.883  25.842  1.00  0.00    -0.352 N 
ATOM     34  C   UNL A   1      41.824  18.968  26.069  1.00  0.00     0.251 C 
ATOM     35  H   UNL A   1      40.120  17.969  25.726  1.00  0.00     0.163 HD
ATOM     36  O   UNL A   1      42.539  17.976  25.962  1.00  0.00    -0.269 OA
BRANCH  34  37
ATOM     37  C   UNL A   1      42.426  20.276  26.408  1.00  0.00     0.039 A 
ATOM     38  C   UNL A   1      42.400  20.749  27.722  1.00  0.00     0.014 A 
ATOM     39  C   UNL A   1      42.997  21.048  25.393  1.00  0.00     0.014 A 
ATOM     40  C   UNL A   1      42.789  22.058  27.988  1.00  0.00     0.010 A 
ATOM     41  C   UNL A   1      43.463  22.334  25.679  1.00  0.00     0.010 A 
ATOM     42  C   UNL A   1      43.314  22.869  26.968  1.00  0.00    -0.014 A 
BRANCH  42  43
ATOM     43  C   UNL A   1      43.675  24.278  27.271  1.00  0.00     0.031 A 
ATOM     44  C   UNL A   1      45.056  24.797  26.974  1.00  0.00     0.074 A 
ATOM     45  C   UNL A   1      42.731  25.112  27.748  1.00  0.00     0.049 A 
ATOM     46  N   UNL A   1      45.538  26.004  27.141  1.00  0.00    -0.248 NA
ATOM     47  C   UNL A   1      46.023  23.840  26.416  1.00  0.00     0.031 C 
ATOM     48  C   UNL A   1      41.352  24.732  28.054  1.00  0.00     0.029 A 
ATOM     49  N   UNL A   1      42.777  26.454  28.029  1.00  0.00    -0.354 N 
ATOM     50  C   UNL A   1      46.861  25.947  26.720  1.00  0.00     0.074 A 
ATOM     51  C   UNL A   1      47.118  24.580  26.320  1.00  0.00     0.031 C 
ATOM     52  C   UNL A   1      40.666  25.825  28.420  1.00  0.00     0.029 A 
ATOM     53  C   UNL A   1      41.571  26.971  28.433  1.00  0.00     0.049 A 
ATOM     54  H   UNL A   1      43.595  26.995  27.947  1.00  0.00     0.167 HD
ATOM     55  C   UNL A   1      47.771  26.948  26.656  1.00  0.00     0.037 A 
ATOM     56  C   UNL A   1      41.231  28.226  28.785  1.00  0.00     0.037 A 
ATOM     57  C   UNL A   1      47.510  28.311  27.039  1.00  0.00     0.049 A 
ATOM     58  C   UNL A   1      42.278  29.303  28.764  1.00  0.00     0.074 A 
ATOM     59  C   UNL A   1      48.369  29.396  27.007  1.00  0.00     0.029 A 
ATOM     60  N   UNL A   1      46.295  28.778  27.518  1.00  0.00    -0.354 N 
ATOM     61  N   UNL A   1      43.527  29.232  28.373  1.00  0.00    -0.248 NA
ATOM     62  C   UNL A   1      41.872  30.629  29.246  1.00  0.00     0.031 C 
ATOM     63  C   UNL A   1      47.686  30.510  27.503  1.00  0.00     0.029 A 
ATOM     64  C   UNL A   1      46.388  30.131  27.803  1.00  0.00     0.049 A 
ATOM     65  H   UNL A   1      45.487  28.229  27.640  1.00  0.00     0.167 HD
ATOM     66  C   UNL A   1      44.054  30.503  28.552  1.00  0.00     0.074 A 
ATOM     67  C   UNL A   1      42.983  31.331  29.068  1.00  0.00     0.031 C 
ATOM     68  C   UNL A   1      45.314  30.941  28.317  1.00  0.00     0.037 A 
BRANCH  55  69
ATOM     69  C   UNL A   1      49.146  26.611  26.155  1.00  0.00     0.064 A 
ATOM     70  C   UNL A   1      49.526  26.875  24.831  1.00  0.00     0.173 A 
ATOM     71  C   UNL A   1      50.111  26.078  27.021  1.00  0.00     0.173 A 
ATOM     72  F   UNL A   1      48.637  27.373  23.958  1.00  0.00    -0.203 F 
ATOM     73  C   UNL A   1      50.819  26.602  24.389  1.00  0.00     0.198 A 
ATOM     74  C   UNL A   1      51.409  25.830  26.583  1.00  0.00     0.198 A 
ATOM     75  F   UNL A   1      49.800  25.812  28.299  1.00  0.00    -0.203 F 
ATOM     76  F   UNL A   1      51.150  26.831  23.110  1.00  0.00    -0.200 F 
ATOM     77  C   UNL A   1      51.762  26.089  25.267  1.00  0.00     0.200 A 
ATOM     78  F   UNL A   1      52.323  25.344  27.437  1.00  0.00    -0.200 F 
ATOM     79  F   UNL A   1      53.008  25.839  24.844  1.00  0.00    -0.200 F 
ENDBRANCH  55  69
BRANCH  56  80
ATOM     80  C   UNL A   1      39.830  28.524  29.170  1.00  0.00     0.064 A 
ATOM     81  C   UNL A   1      39.384  28.301  30.480  1.00  0.00     0.173 A 
ATOM     82  C   UNL A   1      38.919  29.067  28.252  1.00  0.00     0.173 A 
ATOM     83  F   UNL A   1      40.213  27.765  31.387  1.00  0.00    -0.203 F 
ATOM     84  C   UNL A   1      38.079  28.611  30.856  1.00  0.00     0.198 A 
ATOM     85  C   UNL A   1      37.622  29.401  28.636  1.00  0.00     0.198 A 
ATOM     86  F   UNL A   1      39.299  29.301  26.987  1.00  0.00    -0.203 F 
ATOM     87  F   UNL A   1      37.669  28.366  32.109  1.00  0.00    -0.200 F 
ATOM     88  C   UNL A   1      37.202  29.170  29.938  1.00  0.00     0.200 A 
ATOM     89  F   UNL A   1      36.785  29.956  27.750  1.00  0.00    -0.200 F 
ATOM     90  F   UNL A   1      35.953  29.483  30.305  1.00  0.00    -0.200 F 
ENDBRANCH  56  80
BRANCH  68  91
ATOM     91  C   UNL A   1      45.608  32.383  28.603  1.00  0.00     0.064 A 
ATOM     92  C   UNL A   1      45.376  33.379  27.643  1.00  0.00     0.173 A 
ATOM     93  C   UNL A   1      46.065  32.781  29.869  1.00  0.00     0.173 A 
ATOM     94  F   UNL A   1      44.952  33.046  26.415  1.00  0.00    -0.203 F 
ATOM     95  C   UNL A   1      45.605  34.720  27.936  1.00  0.00     0.198 A 
ATOM     96  C   UNL A   1      46.268  34.126  30.165  1.00  0.00     0.198 A 
ATOM     97  F   UNL A   1      46.296  31.866  30.822  1.00  0.00    -0.203 F 
ATOM     98  F   UNL A   1      45.407  35.652  26.993  1.00  0.00    -0.200 F 
ATOM     99  C   UNL A   1      46.042  35.093  29.198  1.00  0.00     0.200 A 
ATOM    100  F   UNL A   1      46.678  34.486  31.389  1.00  0.00    -0.200 F 
ATOM    101  F   UNL A   1      46.248  36.386  29.482  1.00  0.00    -0.200 F 
ENDBRANCH  68  91
ENDBRANCH  42  43
ENDBRANCH  34  37
ENDBRANCH  32  33
ENDBRANCH  31  32
ENDBRANCH  30  31
ENDBRANCH   1  30
TORSDOF 16
ENDMDL
MODEL 2
REMARK VINA RESULT:     -13.1      1.503      2.085
REMARK SMILES CC1=C(CC(=O)NCCCCCCNC(=O)c2ccc(-c3c4nc(c(-c5c(F)c(F)c(F)c(F)c5F)c5ccc([nH]5)c(-c5c(F)c(F)c(F)c(F)c5F)c5nc(c(-c6c(F)c(F)c(F)c(F)c6F)c6ccc3[nH]6)C=C5)C=C4)cc2)c2cc(F)ccc2/C1=C\c1ccc([S@@+](C)[O-])cc1
REMARK SMILES IDX 10 1 9 2 8 3 7 4 5 5 6 6 4 8 3 9 1 10 2 11 87 12 80 13 86 14
REMARK SMILES IDX 88 15 81 16 85 17 82 18 84 19 83 20 89 21 90 22 97 23 91 24
REMARK SMILES IDX 96 25 92 26 93 27 94 28 95 29 11 30 12 31 13 32 14 33 15 34
REMARK SMILES IDX 16 36 17 37 18 38 79 39 19 40 78 41 20 42 21 43 22 44 72 45
REMARK SMILES IDX 23 46 77 47 71 48 73 49 24 50 76 51 70 52 69 53 25 55 57 56
REMARK SMILES IDX 37 57 56 58 38 59 41 60 55 61 74 62 39 63 40 64 54 66 75 67
REMARK SMILES IDX 42 68 26 69 27 70 35 71 28 72 29 73 33 74 36 75 30 76 31 77
REMARK SMILES IDX 34 78 32 79 58 80 59 81 67 82 60 83 61 84 65 85 68 86 62 87
REMARK SMILES IDX 63 88 66 89 64 90 43 91 44 92 52 93 45 94 46 95 50 96 53 97
REMARK SMILES IDX 47 98 48 99 51 100 49 101
REMARK H PARENT 7 7 14 35 73 54 41 65
REMARK Flexibility Score: inf
ROOT
ATOM      1  C   UNL A   1      35.468  21.322  25.822  1.00  0.00     0.002 C 
ENDROOT
BRANCH   1   2
ATOM      2  C   UNL A   1      34.218  20.564  25.353  1.00  0.00     0.021 C 
BRANCH   2   3
ATOM      3  C   UNL A   1      33.077  21.472  24.889  1.00  0.00     0.116 C 
BRANCH   3   4
ATOM      4  N   UNL A   1      32.352  22.024  26.013  1.00  0.00    -0.356 N 
ATOM      5  C   UNL A   1      32.387  23.291  26.517  1.00  0.00     0.224 C 
ATOM      6  O   UNL A   1      31.742  23.528  27.540  1.00  0.00    -0.275 OA
ATOM      7  H   UNL A   1      31.750  21.399  26.478  1.00  0.00     0.163 HD
BRANCH   5   8
ATOM      8  C   UNL A   1      33.162  24.391  25.796  1.00  0.00     0.136 C 
BRANCH   8   9
ATOM      9  C   UNL A   1      32.304  25.474  25.221  1.00  0.00    -0.027 C 
ATOM     10  C   UNL A   1      30.775  24.141  23.664  1.00  0.00     0.045 C 
ATOM     11  C   UNL A   1      31.312  25.379  24.303  1.00  0.00    -0.039 C 
ATOM     12  C   UNL A   1      30.768  26.719  24.021  1.00  0.00    -0.014 C 
ATOM     13  C   UNL A   1      32.394  26.882  25.642  1.00  0.00    -0.011 A 
ATOM     14  C   UNL A   1      31.425  27.645  24.964  1.00  0.00    -0.010 A 
ATOM     15  C   UNL A   1      29.887  26.988  23.037  1.00  0.00     0.017 C 
ATOM     16  C   UNL A   1      33.232  27.474  26.580  1.00  0.00     0.048 A 
ATOM     17  C   UNL A   1      31.244  28.987  25.272  1.00  0.00     0.012 A 
ATOM     18  C   UNL A   1      33.080  28.833  26.836  1.00  0.00     0.123 A 
ATOM     19  C   UNL A   1      32.093  29.588  26.204  1.00  0.00     0.040 A 
ATOM     20  F   UNL A   1      33.887  29.430  27.723  1.00  0.00    -0.207 F 
BRANCH  15  21
ATOM     21  C   UNL A   1      29.347  28.312  22.719  1.00  0.00    -0.025 A 
ATOM     22  C   UNL A   1      30.120  29.271  22.054  1.00  0.00     0.013 A 
ATOM     23  C   UNL A   1      28.079  28.658  23.190  1.00  0.00     0.013 A 
ATOM     24  C   UNL A   1      29.683  30.598  21.979  1.00  0.00     0.061 A 
ATOM     25  C   UNL A   1      27.632  29.978  23.093  1.00  0.00     0.061 A 
ATOM     26  C   UNL A   1      28.446  30.966  22.524  1.00  0.00     0.152 A 
BRANCH  26  27
ATOM     27  S   UNL A   1      27.967  32.706  22.677  1.00  0.00    -0.018 S 
ATOM     28  C   UNL A   1      29.524  33.408  23.253  1.00  0.00     0.346 C 
ATOM     29  O   UNL A   1      27.706  33.239  21.224  1.00  0.00    -0.612 OA
ENDBRANCH  26  27
ENDBRANCH  15  21
ENDBRANCH   8   9
ENDBRANCH   5   8
ENDBRANCH   3   4
ENDBRANCH   2   3
ENDBRANCH   1   2
BRANCH   1  30
ATOM     30  C   UNL A   1      36.648  21.318  24.841  1.00  0.00     0.002 C 
BRANCH  30  31
ATOM     31  C   UNL A   1      37.632  20.159  25.009  1.00  0.00     0.021 C 
BRANCH  31  32
ATOM     32  C   UNL A   1      38.904  20.507  25.774  1.00  0.00     0.116 C 
BRANCH  32  33
ATOM     33  N   UNL A   1      39.846  19.398  25.829  1.00  0.00    -0.352 N 
ATOM     34  C   UNL A   1      41.198  19.417  26.072  1.00  0.00     0.251 C 
ATOM     35  H   UNL A   1      39.458  18.507  25.669  1.00  0.00     0.163 HD
ATOM     36  O   UNL A   1      41.872  18.401  25.929  1.00  0.00    -0.269 OA
BRANCH  34  37
ATOM     37  C   UNL A   1      41.850  20.681  26.475  1.00  0.00     0.039 A 
ATOM     38  C   UNL A   1      41.993  21.008  27.825  1.00  0.00     0.014 A 
ATOM     39  C   UNL A   1      42.298  21.563  25.487  1.00  0.00     0.014 A 
ATOM     40  C   UNL A   1      42.425  22.281  28.182  1.00  0.00     0.010 A 
ATOM     41  C   UNL A   1      42.808  22.812  25.852  1.00  0.00     0.010 A 
ATOM     42  C   UNL A   1      42.826  23.201  27.200  1.00  0.00    -0.014 A 
BRANCH  42  43
ATOM     43  C   UNL A   1      43.235  24.570  27.608  1.00  0.00     0.031 A 
ATOM     44  C   UNL A   1      44.673  25.003  27.505  1.00  0.00     0.074 A 
ATOM     45  C   UNL A   1      42.295  25.449  28.004  1.00  0.00     0.049 A 
ATOM     46  N   UNL A   1      45.207  26.167  27.784  1.00  0.00    -0.248 NA
ATOM     47  C   UNL A   1      45.639  24.003  27.026  1.00  0.00     0.031 C 
ATOM     48  C   UNL A   1      40.867  25.153  28.122  1.00  0.00     0.029 A 
ATOM     49  N   UNL A   1      42.391  26.773  28.348  1.00  0.00    -0.354 N 
ATOM     50  C   UNL A   1      46.565  26.035  27.525  1.00  0.00     0.074 A 
ATOM     51  C   UNL A   1      46.783  24.670  27.098  1.00  0.00     0.031 C 
ATOM     52  C   UNL A   1      40.212  26.277  28.450  1.00  0.00     0.029 A 
ATOM     53  C   UNL A   1      41.179  27.356  28.625  1.00  0.00     0.049 A 
ATOM     54  H   UNL A   1      43.245  27.259  28.391  1.00  0.00     0.167 HD
ATOM     55  C   UNL A   1      47.539  26.973  27.618  1.00  0.00     0.037 A 
ATOM     56  C   UNL A   1      40.879  28.618  28.989  1.00  0.00     0.037 A 
ATOM     57  C   UNL A   1      47.319  28.335  28.027  1.00  0.00     0.049 A 
ATOM     58  C   UNL A   1      41.987  29.620  29.145  1.00  0.00     0.074 A 
ATOM     59  C   UNL A   1      48.243  29.359  28.149  1.00  0.00     0.029 A 
ATOM     60  N   UNL A   1      46.086  28.867  28.376  1.00  0.00    -0.354 N 
ATOM     61  N   UNL A   1      43.268  29.478  28.907  1.00  0.00    -0.248 NA
ATOM     62  C   UNL A   1      41.609  30.952  29.634  1.00  0.00     0.031 C 
ATOM     63  C   UNL A   1      47.576  30.499  28.608  1.00  0.00     0.029 A 
ATOM     64  C   UNL A   1      46.229  30.198  28.730  1.00  0.00     0.049 A 
ATOM     65  H   UNL A   1      45.235  28.371  28.373  1.00  0.00     0.167 HD
ATOM     66  C   UNL A   1      43.848  30.703  29.206  1.00  0.00     0.074 A 
ATOM     67  C   UNL A   1      42.776  31.583  29.623  1.00  0.00     0.031 C 
ATOM     68  C   UNL A   1      45.153  31.061  29.146  1.00  0.00     0.037 A 
BRANCH  55  69
ATOM     69  C   UNL A   1      48.941  26.561  27.273  1.00  0.00     0.064 A 
ATOM     70  C   UNL A   1      49.429  26.655  25.961  1.00  0.00     0.173 A 
ATOM     71  C   UNL A   1      49.823  26.127  28.273  1.00  0.00     0.173 A 
ATOM     72  F   UNL A   1      48.621  27.052  24.966  1.00  0.00    -0.203 F 
ATOM     73  C   UNL A   1      50.746  26.315  25.661  1.00  0.00     0.198 A 
ATOM     74  C   UNL A   1      51.146  25.812  27.974  1.00  0.00     0.198 A 
ATOM     75  F   UNL A   1      49.408  26.025  29.544  1.00  0.00    -0.203 F 
ATOM     76  F   UNL A   1      51.181  26.381  24.395  1.00  0.00    -0.200 F 
ATOM     77  C   UNL A   1      51.606  25.903  26.668  1.00  0.00     0.200 A 
ATOM     78  F   UNL A   1      51.980  25.425  28.951  1.00  0.00    -0.200 F 
ATOM     79  F   UNL A   1      52.876  25.588  26.380  1.00  0.00    -0.200 F 
ENDBRANCH  55  69
BRANCH  56  80
ATOM     80  C   UNL A   1      39.462  28.998  29.214  1.00  0.00     0.064 A 
ATOM     81  C   UNL A   1      38.881  28.878  30.484  1.00  0.00     0.173 A 
ATOM     82  C   UNL A   1      38.672  29.517  28.179  1.00  0.00     0.173 A 
ATOM     83  F   UNL A   1      39.592  28.368  31.500  1.00  0.00    -0.203 F 
ATOM     84  C   UNL A   1      37.562  29.265  30.709  1.00  0.00     0.198 A 
ATOM     85  C   UNL A   1      37.361  29.927  28.411  1.00  0.00     0.198 A 
ATOM     86  F   UNL A   1      39.183  29.652  26.946  1.00  0.00    -0.203 F 
ATOM     87  F   UNL A   1      37.022  29.118  31.927  1.00  0.00    -0.200 F 
ATOM     88  C   UNL A   1      36.806  29.798  29.675  1.00  0.00     0.200 A 
ATOM     89  F   UNL A   1      36.640  30.457  27.414  1.00  0.00    -0.200 F 
ATOM     90  F   UNL A   1      35.543  30.185  29.897  1.00  0.00    -0.200 F 
ENDBRANCH  56  80
BRANCH  68  91
ATOM     91  C   UNL A   1      45.500  32.468  29.530  1.00  0.00     0.064 A 
ATOM     92  C   UNL A   1      45.516  33.500  28.581  1.00  0.00     0.173 A 
ATOM     93  C   UNL A   1      45.757  32.799  30.869  1.00  0.00     0.173 A 
ATOM     94  F   UNL A   1      45.290  33.230  27.287  1.00  0.00    -0.203 F 
ATOM     95  C   UNL A   1      45.790  34.812  28.957  1.00  0.00     0.198 A 
ATOM     96  C   UNL A   1      46.006  34.116  31.245  1.00  0.00     0.198 A 
ATOM     97  F   UNL A   1      45.747  31.848  31.814  1.00  0.00    -0.203 F 
ATOM     98  F   UNL A   1      45.832  35.778  28.029  1.00  0.00    -0.200 F 
ATOM     99  C   UNL A   1      46.026  35.120  30.289  1.00  0.00     0.200 A 
ATOM    100  F   UNL A   1      46.221  34.414  32.533  1.00  0.00    -0.200 F 
ATOM    101  F   UNL A   1      46.276  36.386  30.651  1.00  0.00    -0.200 F 
ENDBRANCH  68  91
ENDBRANCH  42  43
ENDBRANCH  34  37
ENDBRANCH  32  33
ENDBRANCH  31  32
ENDBRANCH  30  31
ENDBRANCH   1  30
TORSDOF 16
ENDMDL
MODEL 3
REMARK VINA RESULT:     -12.6      5.823     11.441
REMARK SMILES CC1=C(CC(=O)NCCCCCCNC(=O)c2ccc(-c3c4nc(c(-c5c(F)c(F)c(F)c(F)c5F)c5ccc([nH]5)c(-c5c(F)c(F)c(F)c(F)c5F)c5nc(c(-c6c(F)c(F)c(F)c(F)c6F)c6ccc3[nH]6)C=C5)C=C4)cc2)c2cc(F)ccc2/C1=C\c1ccc([S@@+](C)[O-])cc1
REMARK SMILES IDX 10 1 9 2 8 3 7 4 5 5 6 6 4 8 3 9 1 10 2 11 87 12 80 13 86 14
REMARK SMILES IDX 88 15 81 16 85 17 82 18 84 19 83 20 89 21 90 22 97 23 91 24
REMARK SMILES IDX 96 25 92 26 93 27 94 28 95 29 11 30 12 31 13 32 14 33 15 34
REMARK SMILES IDX 16 36 17 37 18 38 79 39 19 40 78 41 20 42 21 43 22 44 72 45
REMARK SMILES IDX 23 46 77 47 71 48 73 49 24 50 76 51 70 52 69 53 25 55 57 56
REMARK SMILES IDX 37 57 56 58 38 59 41 60 55 61 74 62 39 63 40 64 54 66 75 67
REMARK SMILES IDX 42 68 26 69 27 70 35 71 28 72 29 73 33 74 36 75 30 76 31 77
REMARK SMILES IDX 34 78 32 79 58 80 59 81 67 82 60 83 61 84 65 85 68 86 62 87
REMARK SMILES IDX 63 88 66 89 64 90 43 91 44 92 52 93 45 94 46 95 50 96 53 97
REMARK SMILES IDX 47 98 48 99 51 100 49 101
REMARK H PARENT 7 7 14 35 73 54 41 65
REMARK Flexibility Score: inf
ROOT
ATOM      1  C   UNL A   1      35.186  30.032  27.259  1.00  0.00     0.002 C 
ENDROOT
BRANCH   1   2
ATOM      2  C   UNL A   1      34.420  28.766  26.850  1.00  0.00     0.021 C 
BRANCH   2   3
ATOM      3  C   UNL A   1      33.287  29.018  25.854  1.00  0.00     0.116 C 
BRANCH   3   4
ATOM      4  N   UNL A   1      33.455  28.230  24.653  1.00  0.00    -0.356 N 
ATOM      5  C   UNL A   1      33.827  26.923  24.530  1.00  0.00     0.224 C 
ATOM      6  O   UNL A   1      33.988  26.468  23.396  1.00  0.00    -0.275 OA
ATOM      7  H   UNL A   1      33.275  28.700  23.808  1.00  0.00     0.163 HD
BRANCH   5   8
ATOM      8  C   UNL A   1      33.986  26.043  25.767  1.00  0.00     0.136 C 
BRANCH   8   9
ATOM      9  C   UNL A   1      33.800  24.580  25.511  1.00  0.00    -0.027 C 
ATOM     10  C   UNL A   1      31.291  24.460  25.032  1.00  0.00     0.045 C 
ATOM     11  C   UNL A   1      32.662  23.902  25.224  1.00  0.00    -0.039 C 
ATOM     12  C   UNL A   1      32.964  22.468  25.079  1.00  0.00    -0.014 C 
ATOM     13  C   UNL A   1      34.916  23.619  25.482  1.00  0.00    -0.011 A 
ATOM     14  C   UNL A   1      34.432  22.337  25.163  1.00  0.00    -0.010 A 
ATOM     15  C   UNL A   1      32.029  21.505  24.958  1.00  0.00     0.017 C 
ATOM     16  C   UNL A   1      36.274  23.834  25.681  1.00  0.00     0.048 A 
ATOM     17  C   UNL A   1      35.312  21.279  24.972  1.00  0.00     0.012 A 
ATOM     18  C   UNL A   1      37.140  22.753  25.547  1.00  0.00     0.123 A 
ATOM     19  C   UNL A   1      36.676  21.489  25.185  1.00  0.00     0.040 A 
ATOM     20  F   UNL A   1      38.452  22.930  25.751  1.00  0.00    -0.207 F 
BRANCH  15  21
ATOM     21  C   UNL A   1      32.297  20.069  24.835  1.00  0.00    -0.025 A 
ATOM     22  C   UNL A   1      32.530  19.276  25.964  1.00  0.00     0.013 A 
ATOM     23  C   UNL A   1      32.435  19.512  23.562  1.00  0.00     0.013 A 
ATOM     24  C   UNL A   1      33.025  17.975  25.819  1.00  0.00     0.061 A 
ATOM     25  C   UNL A   1      32.906  18.205  23.418  1.00  0.00     0.061 A 
ATOM     26  C   UNL A   1      33.243  17.441  24.542  1.00  0.00     0.152 A 
BRANCH  26  27
ATOM     27  S   UNL A   1      34.121  15.873  24.318  1.00  0.00    -0.018 S 
ATOM     28  C   UNL A   1      35.559  16.168  25.362  1.00  0.00     0.346 C 
ATOM     29  O   UNL A   1      33.250  14.758  25.001  1.00  0.00    -0.612 OA
ENDBRANCH  26  27
ENDBRANCH  15  21
ENDBRANCH   8   9
ENDBRANCH   5   8
ENDBRANCH   3   4
ENDBRANCH   2   3
ENDBRANCH   1   2
BRANCH   1  30
ATOM     30  C   UNL A   1      34.403  31.024  28.129  1.00  0.00     0.002 C 
BRANCH  30  31
ATOM     31  C   UNL A   1      34.012  32.331  27.436  1.00  0.00     0.021 C 
BRANCH  31  32
ATOM     32  C   UNL A   1      32.548  32.724  27.595  1.00  0.00     0.116 C 
BRANCH  32  33
ATOM     33  N   UNL A   1      32.369  34.158  27.776  1.00  0.00    -0.352 N 
ATOM     34  C   UNL A   1      33.039  35.020  28.610  1.00  0.00     0.251 C 
ATOM     35  H   UNL A   1      31.667  34.569  27.220  1.00  0.00     0.163 HD
ATOM     36  O   UNL A   1      32.655  36.177  28.750  1.00  0.00    -0.269 OA
BRANCH  34  37
ATOM     37  C   UNL A   1      34.211  34.536  29.371  1.00  0.00     0.039 A 
ATOM     38  C   UNL A   1      35.505  34.730  28.882  1.00  0.00     0.014 A 
ATOM     39  C   UNL A   1      34.009  33.855  30.575  1.00  0.00     0.014 A 
ATOM     40  C   UNL A   1      36.576  34.099  29.505  1.00  0.00     0.010 A 
ATOM     41  C   UNL A   1      35.099  33.290  31.244  1.00  0.00     0.010 A 
ATOM     42  C   UNL A   1      36.384  33.363  30.686  1.00  0.00    -0.014 A 
BRANCH  42  43
ATOM     43  C   UNL A   1      37.539  32.659  31.302  1.00  0.00     0.031 A 
ATOM     44  C   UNL A   1      38.002  33.013  32.689  1.00  0.00     0.074 A 
ATOM     45  C   UNL A   1      38.125  31.646  30.635  1.00  0.00     0.049 A 
ATOM     46  N   UNL A   1      38.969  32.484  33.397  1.00  0.00    -0.248 NA
ATOM     47  C   UNL A   1      37.289  34.102  33.373  1.00  0.00     0.031 C 
ATOM     48  C   UNL A   1      37.750  31.195  29.295  1.00  0.00     0.029 A 
ATOM     49  N   UNL A   1      39.136  30.794  31.003  1.00  0.00    -0.354 N 
ATOM     50  C   UNL A   1      38.985  33.180  34.600  1.00  0.00     0.074 A 
ATOM     51  C   UNL A   1      37.955  34.192  34.515  1.00  0.00     0.031 C 
ATOM     52  C   UNL A   1      38.475  30.112  28.978  1.00  0.00     0.029 A 
ATOM     53  C   UNL A   1      39.407  29.830  30.065  1.00  0.00     0.049 A 
ATOM     54  H   UNL A   1      39.618  30.866  31.858  1.00  0.00     0.167 HD
ATOM     55  C   UNL A   1      39.776  32.980  35.681  1.00  0.00     0.037 A 
ATOM     56  C   UNL A   1      40.313  28.833  30.073  1.00  0.00     0.037 A 
ATOM     57  C   UNL A   1      40.790  31.962  35.771  1.00  0.00     0.049 A 
ATOM     58  C   UNL A   1      41.219  28.674  31.261  1.00  0.00     0.074 A 
ATOM     59  C   UNL A   1      41.640  31.681  36.826  1.00  0.00     0.029 A 
ATOM     60  N   UNL A   1      41.088  31.053  34.766  1.00  0.00    -0.354 N 
ATOM     61  N   UNL A   1      41.230  29.346  32.386  1.00  0.00    -0.248 NA
ATOM     62  C   UNL A   1      42.247  27.629  31.173  1.00  0.00     0.031 C 
ATOM     63  C   UNL A   1      42.477  30.628  36.447  1.00  0.00     0.029 A 
ATOM     64  C   UNL A   1      42.121  30.223  35.171  1.00  0.00     0.049 A 
ATOM     65  H   UNL A   1      40.634  31.006  33.894  1.00  0.00     0.167 HD
ATOM     66  C   UNL A   1      42.256  28.800  33.145  1.00  0.00     0.074 A 
ATOM     67  C   UNL A   1      42.832  27.728  32.359  1.00  0.00     0.031 C 
ATOM     68  C   UNL A   1      42.685  29.162  34.377  1.00  0.00     0.037 A 
BRANCH  55  69
ATOM     69  C   UNL A   1      39.583  33.883  36.865  1.00  0.00     0.064 A 
ATOM     70  C   UNL A   1      38.749  33.519  37.933  1.00  0.00     0.173 A 
ATOM     71  C   UNL A   1      40.284  35.093  36.962  1.00  0.00     0.173 A 
ATOM     72  F   UNL A   1      38.046  32.378  37.884  1.00  0.00    -0.203 F 
ATOM     73  C   UNL A   1      38.614  34.344  39.048  1.00  0.00     0.198 A 
ATOM     74  C   UNL A   1      40.166  35.903  38.089  1.00  0.00     0.198 A 
ATOM     75  F   UNL A   1      41.098  35.484  35.970  1.00  0.00    -0.203 F 
ATOM     76  F   UNL A   1      37.785  33.992  40.042  1.00  0.00    -0.200 F 
ATOM     77  C   UNL A   1      39.328  35.530  39.129  1.00  0.00     0.200 A 
ATOM     78  F   UNL A   1      40.867  37.043  38.170  1.00  0.00    -0.200 F 
ATOM     79  F   UNL A   1      39.207  36.315  40.208  1.00  0.00    -0.200 F 
ENDBRANCH  55  69
BRANCH  56  80
ATOM     80  C   UNL A   1      40.389  27.902  28.920  1.00  0.00     0.064 A 
ATOM     81  C   UNL A   1      39.649  26.713  28.908  1.00  0.00     0.173 A 
ATOM     82  C   UNL A   1      41.172  28.197  27.794  1.00  0.00     0.173 A 
ATOM     83  F   UNL A   1      38.901  26.379  29.970  1.00  0.00    -0.203 F 
ATOM     84  C   UNL A   1      39.689  25.852  27.814  1.00  0.00     0.198 A 
ATOM     85  C   UNL A   1      41.192  27.348  26.690  1.00  0.00     0.198 A 
ATOM     86  F   UNL A   1      41.897  29.324  27.756  1.00  0.00    -0.203 F 
ATOM     87  F   UNL A   1      38.991  24.708  27.837  1.00  0.00    -0.200 F 
ATOM     88  C   UNL A   1      40.453  26.175  26.701  1.00  0.00     0.200 A 
ATOM     89  F   UNL A   1      41.918  27.673  25.611  1.00  0.00    -0.200 F 
ATOM     90  F   UNL A   1      40.478  25.355  25.642  1.00  0.00    -0.200 F 
ENDBRANCH  56  80
BRANCH  68  91
ATOM     91  C   UNL A   1      43.828  28.388  34.965  1.00  0.00     0.064 A 
ATOM     92  C   UNL A   1      45.153  28.825  34.824  1.00  0.00     0.173 A 
ATOM     93  C   UNL A   1      43.591  27.235  35.728  1.00  0.00     0.173 A 
ATOM     94  F   UNL A   1      45.430  29.914  34.092  1.00  0.00    -0.203 F 
ATOM     95  C   UNL A   1      46.201  28.126  35.415  1.00  0.00     0.198 A 
ATOM     96  C   UNL A   1      44.640  26.554  36.338  1.00  0.00     0.198 A 
ATOM     97  F   UNL A   1      42.340  26.781  35.896  1.00  0.00    -0.203 F 
ATOM     98  F   UNL A   1      47.463  28.544  35.241  1.00  0.00    -0.200 F 
ATOM     99  C   UNL A   1      45.944  26.997  36.179  1.00  0.00     0.200 A 
ATOM    100  F   UNL A   1      44.388  25.471  37.086  1.00  0.00    -0.200 F 
ATOM    101  F   UNL A   1      46.954  26.335  36.759  1.00  0.00    -0.200 F 
ENDBRANCH  68  91
ENDBRANCH  42  43
ENDBRANCH  34  37
ENDBRANCH  32  33
ENDBRANCH  31  32
ENDBRANCH  30  31
ENDBRANCH   1  30
TORSDOF 16
ENDMDL
