MODEL 1
REMARK VINA RESULT:     -12.4      0.000      0.000
REMARK SMILES Cc1c(F)cccc1NCc1ccc(C(=O)NCCCCCCNC(=O)c2ccc(-c3c4nc(c(-c5c(F)c(F)c(F)c(F)c5F)c5ccc([nH]5)c(-c5c(F)c(F)c(F)c(F)c5F)c5nc(c(-c6c(F)c(F)c(F)c(F)c6F)c6ccc3[nH]6)C=C5)C=C4)cc2)cn1
REMARK SMILES IDX 20 1 19 2 18 3 17 4 15 5 16 6 14 8 11 9 12 10 91 11 13 12
REMARK SMILES IDX 90 13 10 14 9 15 8 17 1 18 2 19 3 20 4 21 5 22 7 23 6 24
REMARK SMILES IDX 21 25 22 26 23 27 24 28 25 29 26 31 27 32 28 33 89 34 29 35
REMARK SMILES IDX 88 36 30 37 31 38 32 39 82 40 33 41 87 42 81 43 83 44 34 45
REMARK SMILES IDX 86 46 80 47 79 48 35 50 67 51 47 52 66 53 48 54 51 55 65 56
REMARK SMILES IDX 84 57 49 58 50 59 64 61 85 62 52 63 36 64 37 65 45 66 38 67
REMARK SMILES IDX 39 68 43 69 46 70 40 71 41 72 44 73 42 74 68 75 69 76 77 77
REMARK SMILES IDX 70 78 71 79 75 80 78 81 72 82 73 83 76 84 74 85 53 86 54 87
REMARK SMILES IDX 62 88 55 89 56 90 60 91 63 92 57 93 58 94 61 95 59 96
REMARK H PARENT 17 7 9 16 24 30 83 49 51 60
REMARK Flexibility Score: inf
ROOT
ATOM      1  C   UNL A   1      32.431  28.775  24.511  1.00  0.00     0.002 C 
ENDROOT
BRANCH   1   2
ATOM      2  C   UNL A   1      31.981  28.958  23.055  1.00  0.00     0.021 C 
BRANCH   2   3
ATOM      3  C   UNL A   1      31.506  27.654  22.419  1.00  0.00     0.116 C 
BRANCH   3   4
ATOM      4  N   UNL A   1      30.140  27.392  22.800  1.00  0.00    -0.352 N 
ATOM      5  C   UNL A   1      29.571  26.569  23.728  1.00  0.00     0.252 C 
ATOM      6  O   UNL A   1      28.344  26.598  23.825  1.00  0.00    -0.269 OA
ATOM      7  H   UNL A   1      29.482  27.913  22.285  1.00  0.00     0.163 HD
BRANCH   5   8
ATOM      8  C   UNL A   1      30.346  25.700  24.643  1.00  0.00     0.058 A 
ATOM      9  C   UNL A   1      31.742  23.829  26.130  1.00  0.00     0.059 A 
ATOM     10  C   UNL A   1      31.460  25.073  26.687  1.00  0.00     0.026 A 
ATOM     11  N   UNL A   1      31.365  23.502  24.870  1.00  0.00    -0.259 NA
ATOM     12  C   UNL A   1      30.800  26.028  25.916  1.00  0.00     0.017 A 
ATOM     13  C   UNL A   1      30.676  24.435  24.166  1.00  0.00     0.125 A 
BRANCH   9  14
ATOM     14  C   UNL A   1      32.585  22.829  26.893  1.00  0.00     0.169 C 
BRANCH  14  15
ATOM     15  N   UNL A   1      33.451  22.110  25.967  1.00  0.00    -0.379 N 
ATOM     16  H   UNL A   1      33.027  21.394  25.442  1.00  0.00     0.160 HD
BRANCH  15  17
ATOM     17  C   UNL A   1      34.799  22.316  25.743  1.00  0.00     0.040 A 
ATOM     18  C   UNL A   1      35.113  19.918  24.838  1.00  0.00     0.050 C 
ATOM     19  C   UNL A   1      35.616  21.278  25.242  1.00  0.00     0.008 A 
ATOM     20  C   UNL A   1      37.001  21.492  25.114  1.00  0.00     0.128 A 
ATOM     21  F   UNL A   1      37.786  20.497  24.668  1.00  0.00    -0.207 F 
ATOM     22  C   UNL A   1      37.596  22.701  25.438  1.00  0.00     0.039 A 
ATOM     23  C   UNL A   1      35.423  23.540  26.050  1.00  0.00     0.026 A 
ATOM     24  C   UNL A   1      36.800  23.738  25.897  1.00  0.00     0.005 A 
ENDBRANCH  15  17
ENDBRANCH  14  15
ENDBRANCH   9  14
ENDBRANCH   5   8
ENDBRANCH   3   4
ENDBRANCH   2   3
ENDBRANCH   1   2
BRANCH   1  25
ATOM     25  C   UNL A   1      31.901  29.836  25.502  1.00  0.00     0.002 C 
BRANCH  25  26
ATOM     26  C   UNL A   1      32.076  29.511  26.997  1.00  0.00     0.021 C 
BRANCH  26  27
ATOM     27  C   UNL A   1      33.530  29.527  27.377  1.00  0.00     0.116 C 
BRANCH  27  28
ATOM     28  N   UNL A   1      33.974  30.826  27.840  1.00  0.00    -0.352 N 
ATOM     29  C   UNL A   1      35.059  31.135  28.632  1.00  0.00     0.251 C 
ATOM     30  H   UNL A   1      33.428  31.591  27.549  1.00  0.00     0.163 HD
ATOM     31  O   UNL A   1      35.104  32.205  29.211  1.00  0.00    -0.269 OA
BRANCH  29  32
ATOM     32  C   UNL A   1      36.205  30.199  28.711  1.00  0.00     0.039 A 
ATOM     33  C   UNL A   1      36.426  29.451  29.876  1.00  0.00     0.014 A 
ATOM     34  C   UNL A   1      37.173  30.209  27.713  1.00  0.00     0.014 A 
ATOM     35  C   UNL A   1      37.665  28.845  30.072  1.00  0.00     0.010 A 
ATOM     36  C   UNL A   1      38.301  29.473  27.809  1.00  0.00     0.010 A 
ATOM     37  C   UNL A   1      38.597  28.932  29.044  1.00  0.00    -0.014 A 
BRANCH  37  38
ATOM     38  C   UNL A   1      39.980  28.542  29.095  1.00  0.00     0.031 A 
ATOM     39  C   UNL A   1      40.271  27.171  28.711  1.00  0.00     0.074 A 
ATOM     40  C   UNL A   1      40.865  29.558  29.208  1.00  0.00     0.049 A 
ATOM     41  N   UNL A   1      41.197  26.456  29.229  1.00  0.00    -0.248 NA
ATOM     42  C   UNL A   1      39.457  26.457  27.727  1.00  0.00     0.031 C 
ATOM     43  C   UNL A   1      42.289  29.605  28.929  1.00  0.00     0.029 A 
ATOM     44  N   UNL A   1      40.578  30.847  29.698  1.00  0.00    -0.354 N 
ATOM     45  C   UNL A   1      41.357  25.384  28.382  1.00  0.00     0.074 A 
ATOM     46  C   UNL A   1      40.138  25.313  27.613  1.00  0.00     0.031 C 
ATOM     47  C   UNL A   1      42.810  30.685  29.548  1.00  0.00     0.029 A 
ATOM     48  C   UNL A   1      41.748  31.308  30.325  1.00  0.00     0.049 A 
ATOM     49  H   UNL A   1      39.725  31.330  29.616  1.00  0.00     0.167 HD
ATOM     50  C   UNL A   1      42.606  24.857  28.243  1.00  0.00     0.037 A 
ATOM     51  C   UNL A   1      41.728  31.446  31.686  1.00  0.00     0.037 A 
ATOM     52  C   UNL A   1      43.561  25.677  29.003  1.00  0.00     0.049 A 
ATOM     53  C   UNL A   1      42.525  30.359  32.353  1.00  0.00     0.074 A 
ATOM     54  C   UNL A   1      44.400  26.708  28.606  1.00  0.00     0.029 A 
ATOM     55  N   UNL A   1      43.423  25.800  30.383  1.00  0.00    -0.354 N 
ATOM     56  N   UNL A   1      42.802  29.213  31.791  1.00  0.00    -0.248 NA
ATOM     57  C   UNL A   1      43.134  30.508  33.667  1.00  0.00     0.031 C 
ATOM     58  C   UNL A   1      44.722  27.482  29.754  1.00  0.00     0.029 A 
ATOM     59  C   UNL A   1      44.084  26.924  30.850  1.00  0.00     0.049 A 
ATOM     60  H   UNL A   1      42.923  25.172  30.952  1.00  0.00     0.167 HD
ATOM     61  C   UNL A   1      43.624  28.492  32.609  1.00  0.00     0.074 A 
ATOM     62  C   UNL A   1      43.812  29.352  33.766  1.00  0.00     0.031 C 
ATOM     63  C   UNL A   1      44.091  27.251  32.272  1.00  0.00     0.037 A 
BRANCH  50  64
ATOM     64  C   UNL A   1      43.014  23.874  27.168  1.00  0.00     0.064 A 
ATOM     65  C   UNL A   1      42.733  22.498  27.312  1.00  0.00     0.173 A 
ATOM     66  C   UNL A   1      43.668  24.216  25.967  1.00  0.00     0.173 A 
ATOM     67  F   UNL A   1      42.037  22.031  28.356  1.00  0.00    -0.203 F 
ATOM     68  C   UNL A   1      43.143  21.542  26.378  1.00  0.00     0.198 A 
ATOM     69  C   UNL A   1      44.122  23.255  25.055  1.00  0.00     0.198 A 
ATOM     70  F   UNL A   1      43.837  25.491  25.599  1.00  0.00    -0.203 F 
ATOM     71  F   UNL A   1      42.835  20.253  26.572  1.00  0.00    -0.200 F 
ATOM     72  C   UNL A   1      43.859  21.917  25.261  1.00  0.00     0.200 A 
ATOM     73  F   UNL A   1      44.801  23.641  23.965  1.00  0.00    -0.200 F 
ATOM     74  F   UNL A   1      44.263  21.000  24.373  1.00  0.00    -0.200 F 
ENDBRANCH  50  64
BRANCH  51  75
ATOM     75  C   UNL A   1      40.432  32.040  32.152  1.00  0.00     0.064 A 
ATOM     76  C   UNL A   1      39.600  31.152  32.866  1.00  0.00     0.173 A 
ATOM     77  C   UNL A   1      40.321  33.405  32.453  1.00  0.00     0.173 A 
ATOM     78  F   UNL A   1      39.608  29.843  32.563  1.00  0.00    -0.203 F 
ATOM     79  C   UNL A   1      38.933  31.564  34.016  1.00  0.00     0.198 A 
ATOM     80  C   UNL A   1      39.597  33.824  33.575  1.00  0.00     0.198 A 
ATOM     81  F   UNL A   1      41.031  34.313  31.766  1.00  0.00    -0.203 F 
ATOM     82  F   UNL A   1      38.348  30.654  34.809  1.00  0.00    -0.200 F 
ATOM     83  C   UNL A   1      38.980  32.892  34.400  1.00  0.00     0.200 A 
ATOM     84  F   UNL A   1      39.573  35.121  33.908  1.00  0.00    -0.200 F 
ATOM     85  F   UNL A   1      38.475  33.254  35.587  1.00  0.00    -0.200 F 
ENDBRANCH  51  75
BRANCH  63  86
ATOM     86  C   UNL A   1      44.696  26.262  33.240  1.00  0.00     0.064 A 
ATOM     87  C   UNL A   1      43.961  25.592  34.233  1.00  0.00     0.173 A 
ATOM     88  C   UNL A   1      46.039  25.836  33.094  1.00  0.00     0.173 A 
ATOM     89  F   UNL A   1      42.642  25.772  34.377  1.00  0.00    -0.203 F 
ATOM     90  C   UNL A   1      44.549  24.653  35.080  1.00  0.00     0.198 A 
ATOM     91  C   UNL A   1      46.595  24.829  33.878  1.00  0.00     0.198 A 
ATOM     92  F   UNL A   1      46.854  26.358  32.167  1.00  0.00    -0.203 F 
ATOM     93  F   UNL A   1      43.822  24.107  36.064  1.00  0.00    -0.200 F 
ATOM     94  C   UNL A   1      45.859  24.260  34.894  1.00  0.00     0.200 A 
ATOM     95  F   UNL A   1      47.841  24.404  33.626  1.00  0.00    -0.200 F 
ATOM     96  F   UNL A   1      46.403  23.319  35.674  1.00  0.00    -0.200 F 
ENDBRANCH  63  86
ENDBRANCH  37  38
ENDBRANCH  29  32
ENDBRANCH  27  28
ENDBRANCH  26  27
ENDBRANCH  25  26
ENDBRANCH   1  25
TORSDOF 16
ENDMDL
MODEL 2
REMARK VINA RESULT:     -12.3      3.413      9.390
REMARK SMILES Cc1c(F)cccc1NCc1ccc(C(=O)NCCCCCCNC(=O)c2ccc(-c3c4nc(c(-c5c(F)c(F)c(F)c(F)c5F)c5ccc([nH]5)c(-c5c(F)c(F)c(F)c(F)c5F)c5nc(c(-c6c(F)c(F)c(F)c(F)c6F)c6ccc3[nH]6)C=C5)C=C4)cc2)cn1
REMARK SMILES IDX 20 1 19 2 18 3 17 4 15 5 16 6 14 8 11 9 12 10 91 11 13 12
REMARK SMILES IDX 90 13 10 14 9 15 8 17 1 18 2 19 3 20 4 21 5 22 7 23 6 24
REMARK SMILES IDX 21 25 22 26 23 27 24 28 25 29 26 31 27 32 28 33 89 34 29 35
REMARK SMILES IDX 88 36 30 37 31 38 32 39 82 40 33 41 87 42 81 43 83 44 34 45
REMARK SMILES IDX 86 46 80 47 79 48 35 50 67 51 47 52 66 53 48 54 51 55 65 56
REMARK SMILES IDX 84 57 49 58 50 59 64 61 85 62 52 63 36 64 37 65 45 66 38 67
REMARK SMILES IDX 39 68 43 69 46 70 40 71 41 72 44 73 42 74 68 75 69 76 77 77
REMARK SMILES IDX 70 78 71 79 75 80 78 81 72 82 73 83 76 84 74 85 53 86 54 87
REMARK SMILES IDX 62 88 55 89 56 90 60 91 63 92 57 93 58 94 61 95 59 96
REMARK H PARENT 17 7 9 16 24 30 83 49 51 60
REMARK Flexibility Score: inf
ROOT
ATOM      1  C   UNL A   1      34.933  21.257  25.283  1.00  0.00     0.002 C 
ENDROOT
BRANCH   1   2
ATOM      2  C   UNL A   1      34.051  20.006  25.176  1.00  0.00     0.021 C 
BRANCH   2   3
ATOM      3  C   UNL A   1      32.578  20.344  24.953  1.00  0.00     0.116 C 
BRANCH   3   4
ATOM      4  N   UNL A   1      32.268  20.284  23.546  1.00  0.00    -0.352 N 
ATOM      5  C   UNL A   1      32.148  21.235  22.576  1.00  0.00     0.252 C 
ATOM      6  O   UNL A   1      31.893  20.844  21.437  1.00  0.00    -0.269 OA
ATOM      7  H   UNL A   1      32.111  19.370  23.218  1.00  0.00     0.163 HD
BRANCH   5   8
ATOM      8  C   UNL A   1      32.359  22.682  22.810  1.00  0.00     0.058 A 
ATOM      9  C   UNL A   1      33.069  25.335  23.149  1.00  0.00     0.059 A 
ATOM     10  C   UNL A   1      31.832  24.895  23.611  1.00  0.00     0.026 A 
ATOM     11  N   UNL A   1      33.941  24.509  22.523  1.00  0.00    -0.259 NA
ATOM     12  C   UNL A   1      31.460  23.570  23.393  1.00  0.00     0.017 A 
ATOM     13  C   UNL A   1      33.570  23.211  22.376  1.00  0.00     0.125 A 
BRANCH   9  14
ATOM     14  C   UNL A   1      33.434  26.802  23.241  1.00  0.00     0.169 C 
BRANCH  14  15
ATOM     15  N   UNL A   1      33.319  27.250  24.624  1.00  0.00    -0.379 N 
ATOM     16  H   UNL A   1      33.654  26.630  25.311  1.00  0.00     0.160 HD
BRANCH  15  17
ATOM     17  C   UNL A   1      32.792  28.442  25.082  1.00  0.00     0.040 A 
ATOM     18  C   UNL A   1      34.563  28.619  26.952  1.00  0.00     0.050 C 
ATOM     19  C   UNL A   1      33.342  29.092  26.208  1.00  0.00     0.008 A 
ATOM     20  C   UNL A   1      32.725  30.255  26.705  1.00  0.00     0.128 A 
ATOM     21  F   UNL A   1      33.227  30.857  27.795  1.00  0.00    -0.207 F 
ATOM     22  C   UNL A   1      31.602  30.807  26.109  1.00  0.00     0.039 A 
ATOM     23  C   UNL A   1      31.661  29.031  24.484  1.00  0.00     0.026 A 
ATOM     24  C   UNL A   1      31.073  30.198  24.982  1.00  0.00     0.005 A 
ENDBRANCH  15  17
ENDBRANCH  14  15
ENDBRANCH   9  14
ENDBRANCH   5   8
ENDBRANCH   3   4
ENDBRANCH   2   3
ENDBRANCH   1   2
BRANCH   1  25
ATOM     25  C   UNL A   1      36.340  21.125  24.658  1.00  0.00     0.002 C 
BRANCH  25  26
ATOM     26  C   UNL A   1      37.088  22.445  24.393  1.00  0.00     0.021 C 
BRANCH  26  27
ATOM     27  C   UNL A   1      37.538  23.068  25.684  1.00  0.00     0.116 C 
BRANCH  27  28
ATOM     28  N   UNL A   1      38.817  22.560  26.137  1.00  0.00    -0.352 N 
ATOM     29  C   UNL A   1      39.934  23.263  26.533  1.00  0.00     0.251 C 
ATOM     30  H   UNL A   1      38.899  21.580  26.166  1.00  0.00     0.163 HD
ATOM     31  O   UNL A   1      41.021  22.716  26.552  1.00  0.00    -0.269 OA
BRANCH  29  32
ATOM     32  C   UNL A   1      39.795  24.659  27.012  1.00  0.00     0.039 A 
ATOM     33  C   UNL A   1      40.339  25.716  26.270  1.00  0.00     0.014 A 
ATOM     34  C   UNL A   1      39.305  24.903  28.290  1.00  0.00     0.014 A 
ATOM     35  C   UNL A   1      40.504  26.959  26.877  1.00  0.00     0.010 A 
ATOM     36  C   UNL A   1      39.287  26.145  28.819  1.00  0.00     0.010 A 
ATOM     37  C   UNL A   1      40.024  27.116  28.172  1.00  0.00    -0.014 A 
BRANCH  37  38
ATOM     38  C   UNL A   1      40.239  28.238  29.045  1.00  0.00     0.031 A 
ATOM     39  C   UNL A   1      39.216  29.270  29.022  1.00  0.00     0.074 A 
ATOM     40  C   UNL A   1      41.198  28.067  29.983  1.00  0.00     0.049 A 
ATOM     41  N   UNL A   1      39.446  30.519  29.176  1.00  0.00    -0.248 NA
ATOM     42  C   UNL A   1      37.815  28.960  28.738  1.00  0.00     0.031 C 
ATOM     43  C   UNL A   1      41.444  28.781  31.223  1.00  0.00     0.029 A 
ATOM     44  N   UNL A   1      42.250  27.134  29.921  1.00  0.00    -0.354 N 
ATOM     45  C   UNL A   1      38.220  31.095  29.422  1.00  0.00     0.074 A 
ATOM     46  C   UNL A   1      37.245  30.154  28.928  1.00  0.00     0.031 C 
ATOM     47  C   UNL A   1      42.708  28.524  31.620  1.00  0.00     0.029 A 
ATOM     48  C   UNL A   1      43.342  27.714  30.590  1.00  0.00     0.049 A 
ATOM     49  H   UNL A   1      42.227  26.248  29.493  1.00  0.00     0.167 HD
ATOM     50  C   UNL A   1      38.173  32.170  30.258  1.00  0.00     0.037 A 
ATOM     51  C   UNL A   1      44.427  28.078  29.841  1.00  0.00     0.037 A 
ATOM     52  C   UNL A   1      39.514  32.409  30.811  1.00  0.00     0.049 A 
ATOM     53  C   UNL A   1      44.505  29.572  29.689  1.00  0.00     0.074 A 
ATOM     54  C   UNL A   1      40.091  32.021  32.011  1.00  0.00     0.029 A 
ATOM     55  N   UNL A   1      40.569  32.720  29.958  1.00  0.00    -0.354 N 
ATOM     56  N   UNL A   1      43.481  30.370  29.833  1.00  0.00    -0.248 NA
ATOM     57  C   UNL A   1      45.750  30.285  29.440  1.00  0.00     0.031 C 
ATOM     58  C   UNL A   1      41.502  32.053  31.854  1.00  0.00     0.029 A 
ATOM     59  C   UNL A   1      41.789  32.461  30.562  1.00  0.00     0.049 A 
ATOM     60  H   UNL A   1      40.464  33.077  29.046  1.00  0.00     0.167 HD
ATOM     61  C   UNL A   1      43.899  31.667  29.736  1.00  0.00     0.074 A 
ATOM     62  C   UNL A   1      45.329  31.559  29.502  1.00  0.00     0.031 C 
ATOM     63  C   UNL A   1      43.042  32.725  29.861  1.00  0.00     0.037 A 
BRANCH  50  64
ATOM     64  C   UNL A   1      36.906  32.749  30.849  1.00  0.00     0.064 A 
ATOM     65  C   UNL A   1      36.090  33.612  30.086  1.00  0.00     0.173 A 
ATOM     66  C   UNL A   1      36.428  32.487  32.149  1.00  0.00     0.173 A 
ATOM     67  F   UNL A   1      36.364  33.884  28.804  1.00  0.00    -0.203 F 
ATOM     68  C   UNL A   1      34.943  34.221  30.605  1.00  0.00     0.198 A 
ATOM     69  C   UNL A   1      35.309  33.134  32.685  1.00  0.00     0.198 A 
ATOM     70  F   UNL A   1      36.985  31.550  32.925  1.00  0.00    -0.203 F 
ATOM     71  F   UNL A   1      34.208  35.023  29.824  1.00  0.00    -0.200 F 
ATOM     72  C   UNL A   1      34.566  34.002  31.913  1.00  0.00     0.200 A 
ATOM     73  F   UNL A   1      34.946  32.893  33.954  1.00  0.00    -0.200 F 
ATOM     74  F   UNL A   1      33.476  34.596  32.415  1.00  0.00    -0.200 F 
ENDBRANCH  50  64
BRANCH  51  75
ATOM     75  C   UNL A   1      44.744  27.040  28.805  1.00  0.00     0.064 A 
ATOM     76  C   UNL A   1      44.521  27.450  27.474  1.00  0.00     0.173 A 
ATOM     77  C   UNL A   1      45.735  26.071  29.021  1.00  0.00     0.173 A 
ATOM     78  F   UNL A   1      43.531  28.316  27.201  1.00  0.00    -0.203 F 
ATOM     79  C   UNL A   1      45.435  27.147  26.469  1.00  0.00     0.198 A 
ATOM     80  C   UNL A   1      46.614  25.721  27.990  1.00  0.00     0.198 A 
ATOM     81  F   UNL A   1      45.953  25.585  30.251  1.00  0.00    -0.203 F 
ATOM     82  F   UNL A   1      45.332  27.744  25.272  1.00  0.00    -0.200 F 
ATOM     83  C   UNL A   1      46.514  26.327  26.744  1.00  0.00     0.200 A 
ATOM     84  F   UNL A   1      47.615  24.864  28.231  1.00  0.00    -0.200 F 
ATOM     85  F   UNL A   1      47.474  26.167  25.824  1.00  0.00    -0.200 F 
ENDBRANCH  51  75
BRANCH  63  86
ATOM     86  C   UNL A   1      43.343  34.140  29.425  1.00  0.00     0.064 A 
ATOM     87  C   UNL A   1      43.429  35.228  30.309  1.00  0.00     0.173 A 
ATOM     88  C   UNL A   1      43.713  34.420  28.086  1.00  0.00     0.173 A 
ATOM     89  F   UNL A   1      43.267  35.079  31.629  1.00  0.00    -0.203 F 
ATOM     90  C   UNL A   1      43.751  36.513  29.871  1.00  0.00     0.198 A 
ATOM     91  C   UNL A   1      44.129  35.683  27.673  1.00  0.00     0.198 A 
ATOM     92  F   UNL A   1      43.715  33.475  27.135  1.00  0.00    -0.203 F 
ATOM     93  F   UNL A   1      43.735  37.529  30.743  1.00  0.00    -0.200 F 
ATOM     94  C   UNL A   1      44.116  36.738  28.559  1.00  0.00     0.200 A 
ATOM     95  F   UNL A   1      44.559  35.862  26.416  1.00  0.00    -0.200 F 
ATOM     96  F   UNL A   1      44.479  37.961  28.156  1.00  0.00    -0.200 F 
ENDBRANCH  63  86
ENDBRANCH  37  38
ENDBRANCH  29  32
ENDBRANCH  27  28
ENDBRANCH  26  27
ENDBRANCH  25  26
ENDBRANCH   1  25
TORSDOF 16
ENDMDL
MODEL 3
REMARK VINA RESULT:     -12.0      3.552      9.639
REMARK SMILES Cc1c(F)cccc1NCc1ccc(C(=O)NCCCCCCNC(=O)c2ccc(-c3c4nc(c(-c5c(F)c(F)c(F)c(F)c5F)c5ccc([nH]5)c(-c5c(F)c(F)c(F)c(F)c5F)c5nc(c(-c6c(F)c(F)c(F)c(F)c6F)c6ccc3[nH]6)C=C5)C=C4)cc2)cn1
REMARK SMILES IDX 20 1 19 2 18 3 17 4 15 5 16 6 14 8 11 9 12 10 91 11 13 12
REMARK SMILES IDX 90 13 10 14 9 15 8 17 1 18 2 19 3 20 4 21 5 22 7 23 6 24
REMARK SMILES IDX 21 25 22 26 23 27 24 28 25 29 26 31 27 32 28 33 89 34 29 35
REMARK SMILES IDX 88 36 30 37 31 38 32 39 82 40 33 41 87 42 81 43 83 44 34 45
REMARK SMILES IDX 86 46 80 47 79 48 35 50 67 51 47 52 66 53 48 54 51 55 65 56
REMARK SMILES IDX 84 57 49 58 50 59 64 61 85 62 52 63 36 64 37 65 45 66 38 67
REMARK SMILES IDX 39 68 43 69 46 70 40 71 41 72 44 73 42 74 68 75 69 76 77 77
REMARK SMILES IDX 70 78 71 79 75 80 78 81 72 82 73 83 76 84 74 85 53 86 54 87
REMARK SMILES IDX 62 88 55 89 56 90 60 91 63 92 57 93 58 94 61 95 59 96
REMARK H PARENT 17 7 9 16 24 30 83 49 51 60
REMARK Flexibility Score: inf
ROOT
ATOM      1  C   UNL A   1      35.132  23.416  25.920  1.00  0.00     0.002 C 
ENDROOT
BRANCH   1   2
ATOM      2  C   UNL A   1      34.593  22.357  26.891  1.00  0.00     0.021 C 
BRANCH   2   3
ATOM      3  C   UNL A   1      33.081  22.171  26.774  1.00  0.00     0.116 C 
BRANCH   3   4
ATOM      4  N   UNL A   1      32.751  21.644  25.473  1.00  0.00    -0.352 N 
ATOM      5  C   UNL A   1      32.115  22.171  24.387  1.00  0.00     0.252 C 
ATOM      6  O   UNL A   1      32.012  21.450  23.394  1.00  0.00    -0.269 OA
ATOM      7  H   UNL A   1      33.043  20.714  25.341  1.00  0.00     0.163 HD
BRANCH   5   8
ATOM      8  C   UNL A   1      31.601  23.558  24.327  1.00  0.00     0.058 A 
ATOM      9  C   UNL A   1      30.836  26.190  23.945  1.00  0.00     0.059 A 
ATOM     10  C   UNL A   1      30.446  25.527  25.105  1.00  0.00     0.026 A 
ATOM     11  N   UNL A   1      31.572  25.586  22.982  1.00  0.00    -0.259 NA
ATOM     12  C   UNL A   1      30.793  24.188  25.269  1.00  0.00     0.017 A 
ATOM     13  C   UNL A   1      31.939  24.297  23.197  1.00  0.00     0.125 A 
BRANCH   9  14
ATOM     14  C   UNL A   1      30.347  27.599  23.676  1.00  0.00     0.169 C 
BRANCH  14  15
ATOM     15  N   UNL A   1      31.468  28.528  23.745  1.00  0.00    -0.379 N 
ATOM     16  H   UNL A   1      31.910  28.741  22.891  1.00  0.00     0.160 HD
BRANCH  15  17
ATOM     17  C   UNL A   1      31.985  29.143  24.870  1.00  0.00     0.040 A 
ATOM     18  C   UNL A   1      33.875  27.396  25.076  1.00  0.00     0.050 C 
ATOM     19  C   UNL A   1      33.104  28.603  25.541  1.00  0.00     0.008 A 
ATOM     20  C   UNL A   1      33.547  29.201  26.736  1.00  0.00     0.128 A 
ATOM     21  F   UNL A   1      34.591  28.672  27.392  1.00  0.00    -0.207 F 
ATOM     22  C   UNL A   1      32.937  30.325  27.269  1.00  0.00     0.039 A 
ATOM     23  C   UNL A   1      31.391  30.294  25.423  1.00  0.00     0.026 A 
ATOM     24  C   UNL A   1      31.859  30.884  26.602  1.00  0.00     0.005 A 
ENDBRANCH  15  17
ENDBRANCH  14  15
ENDBRANCH   9  14
ENDBRANCH   5   8
ENDBRANCH   3   4
ENDBRANCH   2   3
ENDBRANCH   1   2
BRANCH   1  25
ATOM     25  C   UNL A   1      36.062  22.878  24.809  1.00  0.00     0.002 C 
BRANCH  25  26
ATOM     26  C   UNL A   1      37.574  22.981  25.085  1.00  0.00     0.021 C 
BRANCH  26  27
ATOM     27  C   UNL A   1      37.841  23.901  26.243  1.00  0.00     0.116 C 
BRANCH  27  28
ATOM     28  N   UNL A   1      39.013  23.520  27.004  1.00  0.00    -0.352 N 
ATOM     29  C   UNL A   1      39.986  24.328  27.551  1.00  0.00     0.251 C 
ATOM     30  H   UNL A   1      39.130  22.554  27.150  1.00  0.00     0.163 HD
ATOM     31  O   UNL A   1      41.067  23.856  27.855  1.00  0.00    -0.269 OA
BRANCH  29  32
ATOM     32  C   UNL A   1      39.687  25.749  27.844  1.00  0.00     0.039 A 
ATOM     33  C   UNL A   1      40.143  26.758  26.984  1.00  0.00     0.014 A 
ATOM     34  C   UNL A   1      39.130  26.097  29.070  1.00  0.00     0.014 A 
ATOM     35  C   UNL A   1      40.156  28.078  27.429  1.00  0.00     0.010 A 
ATOM     36  C   UNL A   1      38.965  27.386  29.435  1.00  0.00     0.010 A 
ATOM     37  C   UNL A   1      39.618  28.343  28.684  1.00  0.00    -0.014 A 
BRANCH  37  38
ATOM     38  C   UNL A   1      39.685  29.582  29.410  1.00  0.00     0.031 A 
ATOM     39  C   UNL A   1      38.620  30.534  29.147  1.00  0.00     0.074 A 
ATOM     40  C   UNL A   1      40.549  29.598  30.450  1.00  0.00     0.049 A 
ATOM     41  N   UNL A   1      38.769  31.804  29.149  1.00  0.00    -0.248 NA
ATOM     42  C   UNL A   1      37.272  30.101  28.776  1.00  0.00     0.031 C 
ATOM     43  C   UNL A   1      40.630  30.485  31.597  1.00  0.00     0.029 A 
ATOM     44  N   UNL A   1      41.648  28.735  30.618  1.00  0.00    -0.354 N 
ATOM     45  C   UNL A   1      37.497  32.328  29.194  1.00  0.00     0.074 A 
ATOM     46  C   UNL A   1      36.627  31.270  28.744  1.00  0.00     0.031 C 
ATOM     47  C   UNL A   1      41.857  30.364  32.144  1.00  0.00     0.029 A 
ATOM     48  C   UNL A   1      42.634  29.466  31.302  1.00  0.00     0.049 A 
ATOM     49  H   UNL A   1      41.714  27.800  30.316  1.00  0.00     0.167 HD
ATOM     50  C   UNL A   1      37.309  33.500  29.865  1.00  0.00     0.037 A 
ATOM     51  C   UNL A   1      43.772  29.796  30.617  1.00  0.00     0.037 A 
ATOM     52  C   UNL A   1      38.572  33.894  30.505  1.00  0.00     0.049 A 
ATOM     53  C   UNL A   1      43.789  31.259  30.268  1.00  0.00     0.074 A 
ATOM     54  C   UNL A   1      39.041  33.707  31.797  1.00  0.00     0.029 A 
ATOM     55  N   UNL A   1      39.693  34.157  29.722  1.00  0.00    -0.354 N 
ATOM     56  N   UNL A   1      42.717  32.003  30.202  1.00  0.00    -0.248 NA
ATOM     57  C   UNL A   1      45.015  32.011  30.043  1.00  0.00     0.031 C 
ATOM     58  C   UNL A   1      40.458  33.808  31.773  1.00  0.00     0.029 A 
ATOM     59  C   UNL A   1      40.856  34.059  30.470  1.00  0.00     0.049 A 
ATOM     60  H   UNL A   1      39.665  34.383  28.764  1.00  0.00     0.167 HD
ATOM     61  C   UNL A   1      43.077  33.299  29.967  1.00  0.00     0.074 A 
ATOM     62  C   UNL A   1      44.527  33.253  29.888  1.00  0.00     0.031 C 
ATOM     63  C   UNL A   1      42.159  34.308  29.862  1.00  0.00     0.037 A 
BRANCH  50  64
ATOM     64  C   UNL A   1      35.961  34.070  30.246  1.00  0.00     0.064 A 
ATOM     65  C   UNL A   1      35.067  34.521  29.251  1.00  0.00     0.173 A 
ATOM     66  C   UNL A   1      35.478  34.188  31.566  1.00  0.00     0.173 A 
ATOM     67  F   UNL A   1      35.346  34.391  27.948  1.00  0.00    -0.203 F 
ATOM     68  C   UNL A   1      33.836  35.111  29.554  1.00  0.00     0.198 A 
ATOM     69  C   UNL A   1      34.269  34.823  31.872  1.00  0.00     0.198 A 
ATOM     70  F   UNL A   1      36.124  33.639  32.600  1.00  0.00    -0.203 F 
ATOM     71  F   UNL A   1      33.031  35.509  28.560  1.00  0.00    -0.200 F 
ATOM     72  C   UNL A   1      33.447  35.285  30.865  1.00  0.00     0.200 A 
ATOM     73  F   UNL A   1      33.899  34.966  33.153  1.00  0.00    -0.200 F 
ATOM     74  F   UNL A   1      32.275  35.863  31.155  1.00  0.00    -0.200 F 
ENDBRANCH  50  64
BRANCH  51  75
ATOM     75  C   UNL A   1      44.245  28.653  29.769  1.00  0.00     0.064 A 
ATOM     76  C   UNL A   1      44.095  28.849  28.381  1.00  0.00     0.173 A 
ATOM     77  C   UNL A   1      45.288  27.815  30.191  1.00  0.00     0.173 A 
ATOM     78  F   UNL A   1      43.066  29.577  27.918  1.00  0.00    -0.203 F 
ATOM     79  C   UNL A   1      45.104  28.485  27.494  1.00  0.00     0.198 A 
ATOM     80  C   UNL A   1      46.268  27.399  29.283  1.00  0.00     0.198 A 
ATOM     81  F   UNL A   1      45.447  27.530  31.492  1.00  0.00    -0.203 F 
ATOM     82  F   UNL A   1      45.049  28.895  26.217  1.00  0.00    -0.200 F 
ATOM     83  C   UNL A   1      46.218  27.810  27.957  1.00  0.00     0.200 A 
ATOM     84  F   UNL A   1      47.310  26.675  29.713  1.00  0.00    -0.200 F 
ATOM     85  F   UNL A   1      47.256  27.604  27.135  1.00  0.00    -0.200 F 
ENDBRANCH  51  75
BRANCH  63  86
ATOM     86  C   UNL A   1      42.433  35.668  29.266  1.00  0.00     0.064 A 
ATOM     87  C   UNL A   1      41.815  36.148  28.099  1.00  0.00     0.173 A 
ATOM     88  C   UNL A   1      43.235  36.612  29.955  1.00  0.00     0.173 A 
ATOM     89  F   UNL A   1      40.905  35.426  27.434  1.00  0.00    -0.203 F 
ATOM     90  C   UNL A   1      42.064  37.428  27.604  1.00  0.00     0.198 A 
ATOM     91  C   UNL A   1      43.402  37.919  29.508  1.00  0.00     0.198 A 
ATOM     92  F   UNL A   1      43.860  36.311  31.102  1.00  0.00    -0.203 F 
ATOM     93  F   UNL A   1      41.513  37.803  26.441  1.00  0.00    -0.200 F 
ATOM     94  C   UNL A   1      42.843  38.319  28.315  1.00  0.00     0.200 A 
ATOM     95  F   UNL A   1      44.093  38.792  30.256  1.00  0.00    -0.200 F 
ATOM     96  F   UNL A   1      43.034  39.563  27.864  1.00  0.00    -0.200 F 
ENDBRANCH  63  86
ENDBRANCH  37  38
ENDBRANCH  29  32
ENDBRANCH  27  28
ENDBRANCH  26  27
ENDBRANCH  25  26
ENDBRANCH   1  25
TORSDOF 16
ENDMDL
