MODEL 1
REMARK VINA RESULT:     -12.2      0.000      0.000
REMARK SMILES CC1(C)[C@H]2CC[C@]1(C)[C@H](NC(=O)CCC(=O)NCCCCCCNC(=O)c1ccc(-c3c4nc(c(-c5c(F)c(F)c(F)c(F)c5F)c5ccc([nH]5)c(-c5c(F)c(F)c(F)c(F)c5F)c5nc(c(-c6c(F)c(F)c(F)c(F)c6F)c6ccc3[nH]6)C=C5)C=C4)cc1)C2
REMARK SMILES IDX 20 1 19 2 18 3 17 4 15 5 16 6 14 8 13 9 11 10 10 11 12 13
REMARK SMILES IDX 9 14 1 15 2 16 3 17 4 18 7 19 5 20 90 21 6 22 8 23 21 24
REMARK SMILES IDX 22 25 23 26 24 27 25 28 26 30 27 31 28 32 89 33 29 34 88 35
REMARK SMILES IDX 30 36 31 37 32 38 82 39 33 40 87 41 81 42 83 43 34 44 86 45
REMARK SMILES IDX 80 46 79 47 35 49 67 50 47 51 66 52 48 53 51 54 65 55 84 56
REMARK SMILES IDX 49 57 50 58 64 60 85 61 52 62 36 63 37 64 45 65 38 66 39 67
REMARK SMILES IDX 43 68 46 69 40 70 41 71 44 72 42 73 68 74 69 75 77 76 70 77
REMARK SMILES IDX 71 78 75 79 78 80 72 81 73 82 76 83 74 84 53 85 54 86 62 87
REMARK SMILES IDX 55 88 56 89 60 90 63 91 57 92 58 93 61 94 59 95
REMARK H PARENT 17 7 10 12 24 29 83 48 51 59
REMARK Flexibility Score: inf
ROOT
ATOM      1  C   UNL A   1      32.824  29.962  25.659  1.00  0.00     0.002 C 
ENDROOT
BRANCH   1   2
ATOM      2  C   UNL A   1      32.985  28.702  24.806  1.00  0.00     0.021 C 
BRANCH   2   3
ATOM      3  C   UNL A   1      33.286  28.945  23.332  1.00  0.00     0.116 C 
BRANCH   3   4
ATOM      4  N   UNL A   1      32.081  29.218  22.582  1.00  0.00    -0.356 N 
ATOM      5  C   UNL A   1      30.984  28.436  22.418  1.00  0.00     0.220 C 
ATOM      6  O   UNL A   1      30.008  28.924  21.849  1.00  0.00    -0.275 OA
ATOM      7  H   UNL A   1      32.052  30.090  22.128  1.00  0.00     0.163 HD
BRANCH   5   8
ATOM      8  C   UNL A   1      30.939  27.036  22.982  1.00  0.00     0.110 C 
BRANCH   8   9
ATOM      9  C   UNL A   1      31.378  25.853  22.133  1.00  0.00     0.110 C 
BRANCH   9  10
ATOM     10  C   UNL A   1      32.837  25.576  21.870  1.00  0.00     0.220 C 
ATOM     11  N   UNL A   1      33.734  25.345  22.864  1.00  0.00    -0.353 N 
ATOM     12  H   UNL A   1      34.627  25.724  22.693  1.00  0.00     0.163 HD
ATOM     13  O   UNL A   1      33.279  25.654  20.718  1.00  0.00    -0.275 OA
BRANCH  11  14
ATOM     14  C   UNL A   1      33.622  24.640  24.138  1.00  0.00     0.088 C 
ATOM     15  C   UNL A   1      34.894  21.341  25.790  1.00  0.00     0.012 C 
ATOM     16  C   UNL A   1      34.276  22.727  25.522  1.00  0.00    -0.025 C 
ATOM     17  C   UNL A   1      33.035  22.829  26.437  1.00  0.00     0.012 C 
ATOM     18  C   UNL A   1      35.307  23.867  25.684  1.00  0.00    -0.003 C 
ATOM     19  C   UNL A   1      34.021  23.115  24.031  1.00  0.00    -0.007 C 
ATOM     20  C   UNL A   1      36.318  23.638  24.538  1.00  0.00     0.005 C 
ATOM     21  C   UNL A   1      34.509  25.119  25.303  1.00  0.00     0.029 C 
ATOM     22  C   UNL A   1      35.446  23.044  23.422  1.00  0.00     0.010 C 
ATOM     23  C   UNL A   1      33.015  22.252  23.287  1.00  0.00     0.014 C 
ENDBRANCH  11  14
ENDBRANCH   9  10
ENDBRANCH   8   9
ENDBRANCH   5   8
ENDBRANCH   3   4
ENDBRANCH   2   3
ENDBRANCH   1   2
BRANCH   1  24
ATOM     24  C   UNL A   1      31.404  30.519  25.758  1.00  0.00     0.002 C 
BRANCH  24  25
ATOM     25  C   UNL A   1      31.264  31.817  26.552  1.00  0.00     0.021 C 
BRANCH  25  26
ATOM     26  C   UNL A   1      32.578  32.417  27.040  1.00  0.00     0.116 C 
BRANCH  26  27
ATOM     27  N   UNL A   1      32.429  33.798  27.455  1.00  0.00    -0.352 N 
ATOM     28  C   UNL A   1      33.119  34.477  28.422  1.00  0.00     0.251 C 
ATOM     29  H   UNL A   1      31.741  34.316  26.977  1.00  0.00     0.163 HD
ATOM     30  O   UNL A   1      32.752  35.597  28.783  1.00  0.00    -0.269 OA
BRANCH  28  31
ATOM     31  C   UNL A   1      34.297  33.852  29.056  1.00  0.00     0.039 A 
ATOM     32  C   UNL A   1      34.098  32.820  29.974  1.00  0.00     0.014 A 
ATOM     33  C   UNL A   1      35.592  34.284  28.748  1.00  0.00     0.014 A 
ATOM     34  C   UNL A   1      35.199  32.192  30.556  1.00  0.00     0.010 A 
ATOM     35  C   UNL A   1      36.690  33.612  29.277  1.00  0.00     0.010 A 
ATOM     36  C   UNL A   1      36.504  32.570  30.199  1.00  0.00    -0.014 A 
BRANCH  36  37
ATOM     37  C   UNL A   1      37.680  31.908  30.813  1.00  0.00     0.031 A 
ATOM     38  C   UNL A   1      38.113  32.283  32.202  1.00  0.00     0.074 A 
ATOM     39  C   UNL A   1      38.375  30.990  30.112  1.00  0.00     0.049 A 
ATOM     40  N   UNL A   1      39.121  31.833  32.907  1.00  0.00    -0.248 NA
ATOM     41  C   UNL A   1      37.322  33.320  32.883  1.00  0.00     0.031 C 
ATOM     42  C   UNL A   1      38.080  30.573  28.742  1.00  0.00     0.029 A 
ATOM     43  N   UNL A   1      39.473  30.245  30.459  1.00  0.00    -0.354 N 
ATOM     44  C   UNL A   1      39.087  32.534  34.104  1.00  0.00     0.074 A 
ATOM     45  C   UNL A   1      37.995  33.479  34.014  1.00  0.00     0.031 C 
ATOM     46  C   UNL A   1      38.960  29.628  28.371  1.00  0.00     0.029 A 
ATOM     47  C   UNL A   1      39.895  29.393  29.467  1.00  0.00     0.049 A 
ATOM     48  H   UNL A   1      39.917  30.314  31.335  1.00  0.00     0.167 HD
ATOM     49  C   UNL A   1      39.879  32.387  35.193  1.00  0.00     0.037 A 
ATOM     50  C   UNL A   1      40.920  28.520  29.450  1.00  0.00     0.037 A 
ATOM     51  C   UNL A   1      40.949  31.430  35.292  1.00  0.00     0.049 A 
ATOM     52  C   UNL A   1      41.782  28.372  30.675  1.00  0.00     0.074 A 
ATOM     53  C   UNL A   1      41.778  31.171  36.370  1.00  0.00     0.029 A 
ATOM     54  N   UNL A   1      41.335  30.572  34.274  1.00  0.00    -0.354 N 
ATOM     55  N   UNL A   1      41.701  28.997  31.824  1.00  0.00    -0.248 NA
ATOM     56  C   UNL A   1      42.874  27.391  30.601  1.00  0.00     0.031 C 
ATOM     57  C   UNL A   1      42.689  30.179  35.992  1.00  0.00     0.029 A 
ATOM     58  C   UNL A   1      42.400  29.792  34.692  1.00  0.00     0.049 A 
ATOM     59  H   UNL A   1      40.915  30.525  33.385  1.00  0.00     0.167 HD
ATOM     60  C   UNL A   1      42.707  28.465  32.619  1.00  0.00     0.074 A 
ATOM     61  C   UNL A   1      43.378  27.458  31.825  1.00  0.00     0.031 C 
ATOM     62  C   UNL A   1      43.046  28.785  33.891  1.00  0.00     0.037 A 
BRANCH  49  63
ATOM     63  C   UNL A   1      39.609  33.276  36.371  1.00  0.00     0.064 A 
ATOM     64  C   UNL A   1      40.250  34.517  36.513  1.00  0.00     0.173 A 
ATOM     65  C   UNL A   1      38.674  32.904  37.348  1.00  0.00     0.173 A 
ATOM     66  F   UNL A   1      41.162  34.912  35.612  1.00  0.00    -0.203 F 
ATOM     67  C   UNL A   1      39.984  35.339  37.604  1.00  0.00     0.198 A 
ATOM     68  C   UNL A   1      38.391  33.742  38.423  1.00  0.00     0.198 A 
ATOM     69  F   UNL A   1      38.031  31.730  37.256  1.00  0.00    -0.203 F 
ATOM     70  F   UNL A   1      40.640  36.500  37.742  1.00  0.00    -0.200 F 
ATOM     71  C   UNL A   1      39.049  34.955  38.554  1.00  0.00     0.200 A 
ATOM     72  F   UNL A   1      37.479  33.375  39.336  1.00  0.00    -0.200 F 
ATOM     73  F   UNL A   1      38.788  35.752  39.599  1.00  0.00    -0.200 F 
ENDBRANCH  49  63
BRANCH  50  74
ATOM     74  C   UNL A   1      41.167  27.688  28.244  1.00  0.00     0.064 A 
ATOM     75  C   UNL A   1      41.951  28.171  27.187  1.00  0.00     0.173 A 
ATOM     76  C   UNL A   1      40.619  26.404  28.117  1.00  0.00     0.173 A 
ATOM     77  F   UNL A   1      42.479  29.402  27.254  1.00  0.00    -0.203 F 
ATOM     78  C   UNL A   1      42.159  27.410  26.039  1.00  0.00     0.198 A 
ATOM     79  C   UNL A   1      40.849  25.634  26.979  1.00  0.00     0.198 A 
ATOM     80  F   UNL A   1      39.865  25.894  29.102  1.00  0.00    -0.203 F 
ATOM     81  F   UNL A   1      42.875  27.915  25.025  1.00  0.00    -0.200 F 
ATOM     82  C   UNL A   1      41.612  26.140  25.938  1.00  0.00     0.200 A 
ATOM     83  F   UNL A   1      40.328  24.402  26.890  1.00  0.00    -0.200 F 
ATOM     84  F   UNL A   1      41.813  25.409  24.833  1.00  0.00    -0.200 F 
ENDBRANCH  50  74
BRANCH  62  85
ATOM     85  C   UNL A   1      44.170  28.012  34.515  1.00  0.00     0.064 A 
ATOM     86  C   UNL A   1      45.493  28.476  34.473  1.00  0.00     0.173 A 
ATOM     87  C   UNL A   1      43.915  26.810  35.192  1.00  0.00     0.173 A 
ATOM     88  F   UNL A   1      45.789  29.612  33.824  1.00  0.00    -0.203 F 
ATOM     89  C   UNL A   1      46.523  27.751  35.065  1.00  0.00     0.198 A 
ATOM     90  C   UNL A   1      44.944  26.102  35.806  1.00  0.00     0.198 A 
ATOM     91  F   UNL A   1      42.665  26.328  35.266  1.00  0.00    -0.203 F 
ATOM     92  F   UNL A   1      47.786  28.190  34.973  1.00  0.00    -0.200 F 
ATOM     93  C   UNL A   1      46.248  26.569  35.737  1.00  0.00     0.200 A 
ATOM     94  F   UNL A   1      44.674  24.966  36.464  1.00  0.00    -0.200 F 
ATOM     95  F   UNL A   1      47.240  25.876  36.309  1.00  0.00    -0.200 F 
ENDBRANCH  62  85
ENDBRANCH  36  37
ENDBRANCH  28  31
ENDBRANCH  26  27
ENDBRANCH  25  26
ENDBRANCH  24  25
ENDBRANCH   1  24
TORSDOF 16
ENDMDL
MODEL 2
REMARK VINA RESULT:     -12.0      5.287      9.464
REMARK SMILES CC1(C)[C@H]2CC[C@]1(C)[C@H](NC(=O)CCC(=O)NCCCCCCNC(=O)c1ccc(-c3c4nc(c(-c5c(F)c(F)c(F)c(F)c5F)c5ccc([nH]5)c(-c5c(F)c(F)c(F)c(F)c5F)c5nc(c(-c6c(F)c(F)c(F)c(F)c6F)c6ccc3[nH]6)C=C5)C=C4)cc1)C2
REMARK SMILES IDX 20 1 19 2 18 3 17 4 15 5 16 6 14 8 13 9 11 10 10 11 12 13
REMARK SMILES IDX 9 14 1 15 2 16 3 17 4 18 7 19 5 20 90 21 6 22 8 23 21 24
REMARK SMILES IDX 22 25 23 26 24 27 25 28 26 30 27 31 28 32 89 33 29 34 88 35
REMARK SMILES IDX 30 36 31 37 32 38 82 39 33 40 87 41 81 42 83 43 34 44 86 45
REMARK SMILES IDX 80 46 79 47 35 49 67 50 47 51 66 52 48 53 51 54 65 55 84 56
REMARK SMILES IDX 49 57 50 58 64 60 85 61 52 62 36 63 37 64 45 65 38 66 39 67
REMARK SMILES IDX 43 68 46 69 40 70 41 71 44 72 42 73 68 74 69 75 77 76 70 77
REMARK SMILES IDX 71 78 75 79 78 80 72 81 73 82 76 83 74 84 53 85 54 86 62 87
REMARK SMILES IDX 55 88 56 89 60 90 63 91 57 92 58 93 61 94 59 95
REMARK H PARENT 17 7 10 12 24 29 83 48 51 59
REMARK Flexibility Score: inf
ROOT
ATOM      1  C   UNL A   1      35.964  20.688  25.161  1.00  0.00     0.002 C 
ENDROOT
BRANCH   1   2
ATOM      2  C   UNL A   1      35.581  21.777  26.166  1.00  0.00     0.021 C 
BRANCH   2   3
ATOM      3  C   UNL A   1      34.280  21.538  26.924  1.00  0.00     0.116 C 
BRANCH   3   4
ATOM      4  N   UNL A   1      33.529  20.443  26.354  1.00  0.00    -0.356 N 
ATOM      5  C   UNL A   1      32.557  20.477  25.409  1.00  0.00     0.220 C 
ATOM      6  O   UNL A   1      32.143  19.405  24.967  1.00  0.00    -0.275 OA
ATOM      7  H   UNL A   1      33.752  19.550  26.701  1.00  0.00     0.163 HD
BRANCH   5   8
ATOM      8  C   UNL A   1      32.052  21.792  24.863  1.00  0.00     0.110 C 
BRANCH   8   9
ATOM      9  C   UNL A   1      30.804  22.436  25.447  1.00  0.00     0.110 C 
BRANCH   9  10
ATOM     10  C   UNL A   1      30.892  23.438  26.571  1.00  0.00     0.220 C 
ATOM     11  N   UNL A   1      31.817  24.433  26.600  1.00  0.00    -0.353 N 
ATOM     12  H   UNL A   1      32.161  24.634  27.501  1.00  0.00     0.163 HD
ATOM     13  O   UNL A   1      30.169  23.310  27.566  1.00  0.00    -0.275 OA
BRANCH  11  14
ATOM     14  C   UNL A   1      32.394  25.262  25.546  1.00  0.00     0.088 C 
ATOM     15  C   UNL A   1      32.217  28.951  24.283  1.00  0.00     0.012 C 
ATOM     16  C   UNL A   1      32.602  27.478  24.520  1.00  0.00    -0.025 C 
ATOM     17  C   UNL A   1      33.030  26.919  23.145  1.00  0.00     0.012 C 
ATOM     18  C   UNL A   1      33.648  27.323  25.647  1.00  0.00    -0.003 C 
ATOM     19  C   UNL A   1      31.576  26.591  25.295  1.00  0.00    -0.007 C 
ATOM     20  C   UNL A   1      32.905  27.766  26.927  1.00  0.00     0.005 C 
ATOM     21  C   UNL A   1      33.821  25.804  25.759  1.00  0.00     0.029 C 
ATOM     22  C   UNL A   1      31.456  27.333  26.653  1.00  0.00     0.010 C 
ATOM     23  C   UNL A   1      30.234  26.384  24.613  1.00  0.00     0.014 C 
ENDBRANCH  11  14
ENDBRANCH   9  10
ENDBRANCH   8   9
ENDBRANCH   5   8
ENDBRANCH   3   4
ENDBRANCH   2   3
ENDBRANCH   1   2
BRANCH   1  24
ATOM     24  C   UNL A   1      37.382  20.776  24.598  1.00  0.00     0.002 C 
BRANCH  24  25
ATOM     25  C   UNL A   1      38.295  19.597  24.940  1.00  0.00     0.021 C 
BRANCH  25  26
ATOM     26  C   UNL A   1      39.279  19.855  26.075  1.00  0.00     0.116 C 
BRANCH  26  27
ATOM     27  N   UNL A   1      40.421  18.963  26.022  1.00  0.00    -0.352 N 
ATOM     28  C   UNL A   1      41.752  19.281  26.041  1.00  0.00     0.251 C 
ATOM     29  H   UNL A   1      40.211  18.003  25.967  1.00  0.00     0.163 HD
ATOM     30  O   UNL A   1      42.603  18.422  25.806  1.00  0.00    -0.269 OA
BRANCH  28  31
ATOM     31  C   UNL A   1      42.169  20.670  26.320  1.00  0.00     0.039 A 
ATOM     32  C   UNL A   1      42.398  21.050  27.643  1.00  0.00     0.014 A 
ATOM     33  C   UNL A   1      42.331  21.593  25.281  1.00  0.00     0.014 A 
ATOM     34  C   UNL A   1      42.827  22.347  27.924  1.00  0.00     0.010 A 
ATOM     35  C   UNL A   1      42.825  22.865  25.556  1.00  0.00     0.010 A 
ATOM     36  C   UNL A   1      43.063  23.259  26.882  1.00  0.00    -0.014 A 
BRANCH  36  37
ATOM     37  C   UNL A   1      43.520  24.640  27.172  1.00  0.00     0.031 A 
ATOM     38  C   UNL A   1      42.556  25.648  27.732  1.00  0.00     0.074 A 
ATOM     39  C   UNL A   1      44.792  24.995  26.907  1.00  0.00     0.049 A 
ATOM     40  N   UNL A   1      42.755  26.906  28.037  1.00  0.00    -0.248 NA
ATOM     41  C   UNL A   1      41.177  25.189  27.958  1.00  0.00     0.031 C 
ATOM     42  C   UNL A   1      45.809  24.120  26.323  1.00  0.00     0.029 A 
ATOM     43  N   UNL A   1      45.445  26.187  27.092  1.00  0.00    -0.354 N 
ATOM     44  C   UNL A   1      41.531  27.385  28.481  1.00  0.00     0.074 A 
ATOM     45  C   UNL A   1      40.580  26.302  28.357  1.00  0.00     0.031 C 
ATOM     46  C   UNL A   1      46.965  24.797  26.221  1.00  0.00     0.029 A 
ATOM     47  C   UNL A   1      46.763  26.159  26.706  1.00  0.00     0.049 A 
ATOM     48  H   UNL A   1      45.010  26.987  27.466  1.00  0.00     0.167 HD
ATOM     49  C   UNL A   1      41.231  28.610  28.974  1.00  0.00     0.037 A 
ATOM     50  C   UNL A   1      47.700  27.125  26.746  1.00  0.00     0.037 A 
ATOM     51  C   UNL A   1      42.183  29.678  29.122  1.00  0.00     0.049 A 
ATOM     52  C   UNL A   1      47.342  28.476  27.302  1.00  0.00     0.074 A 
ATOM     53  C   UNL A   1      41.989  30.941  29.655  1.00  0.00     0.029 A 
ATOM     54  N   UNL A   1      43.513  29.607  28.737  1.00  0.00    -0.354 N 
ATOM     55  N   UNL A   1      46.196  28.898  27.778  1.00  0.00    -0.248 NA
ATOM     56  C   UNL A   1      48.412  29.483  27.334  1.00  0.00     0.031 C 
ATOM     57  C   UNL A   1      43.194  31.645  29.561  1.00  0.00     0.029 A 
ATOM     58  C   UNL A   1      44.149  30.807  29.008  1.00  0.00     0.049 A 
ATOM     59  H   UNL A   1      43.943  28.819  28.331  1.00  0.00     0.167 HD
ATOM     60  C   UNL A   1      46.413  30.204  28.193  1.00  0.00     0.074 A 
ATOM     61  C   UNL A   1      47.805  30.503  27.924  1.00  0.00     0.031 C 
ATOM     62  C   UNL A   1      45.539  31.080  28.745  1.00  0.00     0.037 A 
BRANCH  49  63
ATOM     63  C   UNL A   1      39.814  28.857  29.402  1.00  0.00     0.064 A 
ATOM     64  C   UNL A   1      38.858  29.362  28.506  1.00  0.00     0.173 A 
ATOM     65  C   UNL A   1      39.398  28.553  30.705  1.00  0.00     0.173 A 
ATOM     66  F   UNL A   1      39.210  29.680  27.252  1.00  0.00    -0.203 F 
ATOM     67  C   UNL A   1      37.543  29.576  28.910  1.00  0.00     0.198 A 
ATOM     68  C   UNL A   1      38.075  28.743  31.097  1.00  0.00     0.198 A 
ATOM     69  F   UNL A   1      40.272  28.065  31.598  1.00  0.00    -0.203 F 
ATOM     70  F   UNL A   1      36.657  30.099  28.050  1.00  0.00    -0.200 F 
ATOM     71  C   UNL A   1      37.151  29.260  30.201  1.00  0.00     0.200 A 
ATOM     72  F   UNL A   1      37.694  28.427  32.343  1.00  0.00    -0.200 F 
ATOM     73  F   UNL A   1      35.883  29.459  30.586  1.00  0.00    -0.200 F 
ENDBRANCH  49  63
BRANCH  50  74
ATOM     74  C   UNL A   1      49.081  26.839  26.276  1.00  0.00     0.064 A 
ATOM     75  C   UNL A   1      49.450  27.075  24.945  1.00  0.00     0.173 A 
ATOM     76  C   UNL A   1      50.052  26.316  27.140  1.00  0.00     0.173 A 
ATOM     77  F   UNL A   1      48.547  27.555  24.076  1.00  0.00    -0.203 F 
ATOM     78  C   UNL A   1      50.732  26.779  24.489  1.00  0.00     0.198 A 
ATOM     79  C   UNL A   1      51.343  26.044  26.690  1.00  0.00     0.198 A 
ATOM     80  F   UNL A   1      49.751  26.076  28.425  1.00  0.00    -0.203 F 
ATOM     81  F   UNL A   1      51.044  26.972  23.200  1.00  0.00    -0.200 F 
ATOM     82  C   UNL A   1      51.679  26.268  25.363  1.00  0.00     0.200 A 
ATOM     83  F   UNL A   1      52.259  25.561  27.540  1.00  0.00    -0.200 F 
ATOM     84  F   UNL A   1      52.913  25.983  24.925  1.00  0.00    -0.200 F 
ENDBRANCH  50  74
BRANCH  62  85
ATOM     85  C   UNL A   1      46.069  32.430  29.127  1.00  0.00     0.064 A 
ATOM     86  C   UNL A   1      46.029  33.514  28.239  1.00  0.00     0.173 A 
ATOM     87  C   UNL A   1      46.593  32.648  30.411  1.00  0.00     0.173 A 
ATOM     88  F   UNL A   1      45.552  33.350  26.996  1.00  0.00    -0.203 F 
ATOM     89  C   UNL A   1      46.517  34.762  28.613  1.00  0.00     0.198 A 
ATOM     90  C   UNL A   1      47.056  33.905  30.790  1.00  0.00     0.198 A 
ATOM     91  F   UNL A   1      46.647  31.644  31.299  1.00  0.00    -0.203 F 
ATOM     92  F   UNL A   1      46.512  35.772  27.732  1.00  0.00    -0.200 F 
ATOM     93  C   UNL A   1      47.024  34.959  29.889  1.00  0.00     0.200 A 
ATOM     94  F   UNL A   1      47.534  34.095  32.027  1.00  0.00    -0.200 F 
ATOM     95  F   UNL A   1      47.490  36.162  30.248  1.00  0.00    -0.200 F 
ENDBRANCH  62  85
ENDBRANCH  36  37
ENDBRANCH  28  31
ENDBRANCH  26  27
ENDBRANCH  25  26
ENDBRANCH  24  25
ENDBRANCH   1  24
TORSDOF 16
ENDMDL
MODEL 3
REMARK VINA RESULT:     -12.0      0.776      7.387
REMARK SMILES CC1(C)[C@H]2CC[C@]1(C)[C@H](NC(=O)CCC(=O)NCCCCCCNC(=O)c1ccc(-c3c4nc(c(-c5c(F)c(F)c(F)c(F)c5F)c5ccc([nH]5)c(-c5c(F)c(F)c(F)c(F)c5F)c5nc(c(-c6c(F)c(F)c(F)c(F)c6F)c6ccc3[nH]6)C=C5)C=C4)cc1)C2
REMARK SMILES IDX 20 1 19 2 18 3 17 4 15 5 16 6 14 8 13 9 11 10 10 11 12 13
REMARK SMILES IDX 9 14 1 15 2 16 3 17 4 18 7 19 5 20 90 21 6 22 8 23 21 24
REMARK SMILES IDX 22 25 23 26 24 27 25 28 26 30 27 31 28 32 89 33 29 34 88 35
REMARK SMILES IDX 30 36 31 37 32 38 82 39 33 40 87 41 81 42 83 43 34 44 86 45
REMARK SMILES IDX 80 46 79 47 35 49 67 50 47 51 66 52 48 53 51 54 65 55 84 56
REMARK SMILES IDX 49 57 50 58 64 60 85 61 52 62 36 63 37 64 45 65 38 66 39 67
REMARK SMILES IDX 43 68 46 69 40 70 41 71 44 72 42 73 68 74 69 75 77 76 70 77
REMARK SMILES IDX 71 78 75 79 78 80 72 81 73 82 76 83 74 84 53 85 54 86 62 87
REMARK SMILES IDX 55 88 56 89 60 90 63 91 57 92 58 93 61 94 59 95
REMARK H PARENT 17 7 10 12 24 29 83 48 51 59
REMARK Flexibility Score: inf
ROOT
ATOM      1  C   UNL A   1      32.794  30.134  26.370  1.00  0.00     0.002 C 
ENDROOT
BRANCH   1   2
ATOM      2  C   UNL A   1      32.981  28.748  25.747  1.00  0.00     0.021 C 
BRANCH   2   3
ATOM      3  C   UNL A   1      33.489  28.741  24.310  1.00  0.00     0.116 C 
BRANCH   3   4
ATOM      4  N   UNL A   1      32.499  29.263  23.395  1.00  0.00    -0.356 N 
ATOM      5  C   UNL A   1      31.422  28.638  22.858  1.00  0.00     0.220 C 
ATOM      6  O   UNL A   1      30.628  29.315  22.205  1.00  0.00    -0.275 OA
ATOM      7  H   UNL A   1      32.625  30.200  23.124  1.00  0.00     0.163 HD
BRANCH   5   8
ATOM      8  C   UNL A   1      31.168  27.171  23.116  1.00  0.00     0.110 C 
BRANCH   8   9
ATOM      9  C   UNL A   1      31.452  26.142  22.033  1.00  0.00     0.110 C 
BRANCH   9  10
ATOM     10  C   UNL A   1      32.853  25.655  21.762  1.00  0.00     0.220 C 
ATOM     11  N   UNL A   1      33.729  25.343  22.753  1.00  0.00    -0.353 N 
ATOM     12  H   UNL A   1      34.662  25.586  22.554  1.00  0.00     0.163 HD
ATOM     13  O   UNL A   1      33.279  25.623  20.602  1.00  0.00    -0.275 OA
BRANCH  11  14
ATOM     14  C   UNL A   1      33.545  24.713  24.058  1.00  0.00     0.088 C 
ATOM     15  C   UNL A   1      34.647  21.474  25.936  1.00  0.00     0.012 C 
ATOM     16  C   UNL A   1      34.084  22.860  25.569  1.00  0.00    -0.025 C 
ATOM     17  C   UNL A   1      32.813  23.049  26.426  1.00  0.00     0.012 C 
ATOM     18  C   UNL A   1      35.144  23.977  25.711  1.00  0.00    -0.003 C 
ATOM     19  C   UNL A   1      33.899  23.173  24.049  1.00  0.00    -0.007 C 
ATOM     20  C   UNL A   1      36.191  23.655  24.620  1.00  0.00     0.005 C 
ATOM     21  C   UNL A   1      34.401  25.229  25.230  1.00  0.00     0.029 C 
ATOM     22  C   UNL A   1      35.345  23.026  23.503  1.00  0.00     0.010 C 
ATOM     23  C   UNL A   1      32.896  22.301  23.313  1.00  0.00     0.014 C 
ENDBRANCH  11  14
ENDBRANCH   9  10
ENDBRANCH   8   9
ENDBRANCH   5   8
ENDBRANCH   3   4
ENDBRANCH   2   3
ENDBRANCH   1   2
BRANCH   1  24
ATOM     24  C   UNL A   1      31.425  30.779  26.152  1.00  0.00     0.002 C 
BRANCH  24  25
ATOM     25  C   UNL A   1      31.336  32.261  26.517  1.00  0.00     0.021 C 
BRANCH  25  26
ATOM     26  C   UNL A   1      32.551  32.817  27.250  1.00  0.00     0.116 C 
BRANCH  26  27
ATOM     27  N   UNL A   1      32.374  34.206  27.626  1.00  0.00    -0.352 N 
ATOM     28  C   UNL A   1      33.013  34.911  28.611  1.00  0.00     0.251 C 
ATOM     29  H   UNL A   1      31.708  34.710  27.104  1.00  0.00     0.163 HD
ATOM     30  O   UNL A   1      32.624  36.035  28.928  1.00  0.00    -0.269 OA
BRANCH  28  31
ATOM     31  C   UNL A   1      34.163  34.307  29.314  1.00  0.00     0.039 A 
ATOM     32  C   UNL A   1      33.925  33.548  30.462  1.00  0.00     0.014 A 
ATOM     33  C   UNL A   1      35.468  34.490  28.846  1.00  0.00     0.014 A 
ATOM     34  C   UNL A   1      34.994  32.940  31.119  1.00  0.00     0.010 A 
ATOM     35  C   UNL A   1      36.526  33.828  29.463  1.00  0.00     0.010 A 
ATOM     36  C   UNL A   1      36.300  33.059  30.616  1.00  0.00    -0.014 A 
BRANCH  36  37
ATOM     37  C   UNL A   1      37.442  32.414  31.309  1.00  0.00     0.031 A 
ATOM     38  C   UNL A   1      38.198  31.302  30.638  1.00  0.00     0.074 A 
ATOM     39  C   UNL A   1      37.781  32.810  32.552  1.00  0.00     0.049 A 
ATOM     40  N   UNL A   1      39.212  30.603  31.081  1.00  0.00    -0.248 NA
ATOM     41  C   UNL A   1      37.739  30.907  29.297  1.00  0.00     0.031 C 
ATOM     42  C   UNL A   1      37.098  33.847  33.324  1.00  0.00     0.029 A 
ATOM     43  N   UNL A   1      38.786  32.383  33.382  1.00  0.00    -0.354 N 
ATOM     44  C   UNL A   1      39.504  29.685  30.082  1.00  0.00     0.074 A 
ATOM     45  C   UNL A   1      38.530  29.878  29.030  1.00  0.00     0.031 C 
ATOM     46  C   UNL A   1      37.718  33.994  34.507  1.00  0.00     0.029 A 
ATOM     47  C   UNL A   1      38.824  33.044  34.586  1.00  0.00     0.049 A 
ATOM     48  H   UNL A   1      39.420  31.669  33.139  1.00  0.00     0.167 HD
ATOM     49  C   UNL A   1      40.511  28.781  30.032  1.00  0.00     0.037 A 
ATOM     50  C   UNL A   1      39.661  32.900  35.630  1.00  0.00     0.037 A 
ATOM     51  C   UNL A   1      41.495  28.608  31.067  1.00  0.00     0.049 A 
ATOM     52  C   UNL A   1      40.775  31.890  35.547  1.00  0.00     0.074 A 
ATOM     53  C   UNL A   1      42.583  27.752  31.090  1.00  0.00     0.029 A 
ATOM     54  N   UNL A   1      41.512  29.309  32.263  1.00  0.00    -0.354 N 
ATOM     55  N   UNL A   1      41.079  31.073  34.570  1.00  0.00    -0.248 NA
ATOM     56  C   UNL A   1      41.665  31.792  36.712  1.00  0.00     0.031 C 
ATOM     57  C   UNL A   1      43.238  27.911  32.316  1.00  0.00     0.029 A 
ATOM     58  C   UNL A   1      42.582  28.895  33.038  1.00  0.00     0.049 A 
ATOM     59  H   UNL A   1      40.859  29.998  32.523  1.00  0.00     0.167 HD
ATOM     60  C   UNL A   1      42.211  30.385  34.986  1.00  0.00     0.074 A 
ATOM     61  C   UNL A   1      42.547  30.891  36.301  1.00  0.00     0.031 C 
ATOM     62  C   UNL A   1      42.908  29.420  34.339  1.00  0.00     0.037 A 
BRANCH  49  63
ATOM     63  C   UNL A   1      40.605  27.916  28.810  1.00  0.00     0.064 A 
ATOM     64  C   UNL A   1      39.882  26.716  28.706  1.00  0.00     0.173 A 
ATOM     65  C   UNL A   1      41.393  28.304  27.718  1.00  0.00     0.173 A 
ATOM     66  F   UNL A   1      39.124  26.295  29.729  1.00  0.00    -0.203 F 
ATOM     67  C   UNL A   1      39.967  25.927  27.563  1.00  0.00     0.198 A 
ATOM     68  C   UNL A   1      41.453  27.525  26.566  1.00  0.00     0.198 A 
ATOM     69  F   UNL A   1      42.100  29.444  27.765  1.00  0.00    -0.203 F 
ATOM     70  F   UNL A   1      39.303  24.764  27.504  1.00  0.00    -0.200 F 
ATOM     71  C   UNL A   1      40.746  26.335  26.491  1.00  0.00     0.200 A 
ATOM     72  F   UNL A   1      42.199  27.925  25.525  1.00  0.00    -0.200 F 
ATOM     73  F   UNL A   1      40.820  25.577  25.389  1.00  0.00    -0.200 F 
ENDBRANCH  49  63
BRANCH  50  74
ATOM     74  C   UNL A   1      39.503  33.758  36.833  1.00  0.00     0.064 A 
ATOM     75  C   UNL A   1      40.161  34.992  36.927  1.00  0.00     0.173 A 
ATOM     76  C   UNL A   1      38.706  33.359  37.914  1.00  0.00     0.173 A 
ATOM     77  F   UNL A   1      40.953  35.405  35.925  1.00  0.00    -0.203 F 
ATOM     78  C   UNL A   1      40.044  35.786  38.065  1.00  0.00     0.198 A 
ATOM     79  C   UNL A   1      38.570  34.166  39.043  1.00  0.00     0.198 A 
ATOM     80  F   UNL A   1      38.052  32.189  37.873  1.00  0.00    -0.203 F 
ATOM     81  F   UNL A   1      40.721  36.940  38.146  1.00  0.00    -0.200 F 
ATOM     82  C   UNL A   1      39.245  35.374  39.120  1.00  0.00     0.200 A 
ATOM     83  F   UNL A   1      37.787  33.770  40.056  1.00  0.00    -0.200 F 
ATOM     84  F   UNL A   1      39.133  36.139  40.215  1.00  0.00    -0.200 F 
ENDBRANCH  50  74
BRANCH  62  85
ATOM     85  C   UNL A   1      44.123  28.874  35.028  1.00  0.00     0.064 A 
ATOM     86  C   UNL A   1      44.052  27.748  35.861  1.00  0.00     0.173 A 
ATOM     87  C   UNL A   1      45.379  29.466  34.826  1.00  0.00     0.173 A 
ATOM     88  F   UNL A   1      42.870  27.157  36.097  1.00  0.00    -0.203 F 
ATOM     89  C   UNL A   1      45.191  27.248  36.485  1.00  0.00     0.198 A 
ATOM     90  C   UNL A   1      46.520  28.947  35.431  1.00  0.00     0.198 A 
ATOM     91  F   UNL A   1      45.500  30.542  34.033  1.00  0.00    -0.203 F 
ATOM     92  F   UNL A   1      45.092  26.198  37.313  1.00  0.00    -0.200 F 
ATOM     93  C   UNL A   1      46.424  27.843  36.265  1.00  0.00     0.200 A 
ATOM     94  F   UNL A   1      47.712  29.516  35.208  1.00  0.00    -0.200 F 
ATOM     95  F   UNL A   1      47.520  27.358  36.864  1.00  0.00    -0.200 F 
ENDBRANCH  62  85
ENDBRANCH  36  37
ENDBRANCH  28  31
ENDBRANCH  26  27
ENDBRANCH  25  26
ENDBRANCH  24  25
ENDBRANCH   1  24
TORSDOF 16
ENDMDL
