MODEL 1
REMARK VINA RESULT:     -12.6      0.000      0.000
REMARK SMILES COc1cccc(C(=O)/C=C(/Nc2cc(C)c(C)cc2[N+](=O)[O-])C(=O)NCCCCCCNC(=O)c2ccc(-c3c4nc(c(-c5c(F)c(F)c(F)c(F)c5F)c5ccc([nH]5)c(-c5c(F)c(F)c(F)c(F)c5F)c5nc(c(-c6c(F)c(F)c(F)c(F)c6F)c6ccc3[nH]6)C=C5)C=C4)cc2)c1
REMARK SMILES IDX 29 1 28 2 27 3 26 4 24 5 25 6 11 8 10 9 8 10 9 11 7 12 3 13
REMARK SMILES IDX 4 14 99 15 5 16 6 17 2 18 1 19 12 20 13 22 14 23 20 24 15 25
REMARK SMILES IDX 19 26 16 27 17 28 18 29 21 30 22 31 23 32 30 33 31 34 32 35
REMARK SMILES IDX 33 36 34 37 35 39 36 40 37 41 98 42 38 43 97 44 39 45 40 46
REMARK SMILES IDX 41 47 91 48 42 49 96 50 90 51 92 52 43 53 95 54 89 55 88 56
REMARK SMILES IDX 44 58 76 59 56 60 75 61 57 62 60 63 74 64 93 65 58 66 59 67
REMARK SMILES IDX 73 69 94 70 61 71 45 72 46 73 54 74 47 75 48 76 52 77 55 78
REMARK SMILES IDX 49 79 50 80 53 81 51 82 77 83 78 84 86 85 79 86 80 87 84 88
REMARK SMILES IDX 87 89 81 90 82 91 85 92 83 93 62 94 63 95 71 96 64 97 65 98
REMARK SMILES IDX 69 99 72 100 66 101 67 102 70 103 68 104
REMARK H PARENT 26 7 12 21 33 38 92 57 60 68
REMARK Flexibility Score: inf
ROOT
ATOM      1  C   UNL A   1      32.218  29.893  26.069  1.00  0.00     0.002 C 
ENDROOT
BRANCH   1   2
ATOM      2  C   UNL A   1      31.787  28.654  26.860  1.00  0.00     0.021 C 
BRANCH   2   3
ATOM      3  C   UNL A   1      31.850  27.284  26.196  1.00  0.00     0.116 C 
BRANCH   3   4
ATOM      4  N   UNL A   1      31.044  26.223  26.759  1.00  0.00    -0.351 N 
ATOM      5  C   UNL A   1      30.705  25.020  26.189  1.00  0.00     0.267 C 
ATOM      6  O   UNL A   1      30.234  24.128  26.889  1.00  0.00    -0.268 OA
ATOM      7  H   UNL A   1      30.695  26.382  27.665  1.00  0.00     0.163 HD
BRANCH   5   8
ATOM      8  C   UNL A   1      30.885  24.811  24.714  1.00  0.00     0.108 C 
ATOM      9  C   UNL A   1      31.990  24.158  24.293  1.00  0.00     0.084 C 
BRANCH   9  10
ATOM     10  C   UNL A   1      33.220  23.548  24.891  1.00  0.00     0.188 C 
ATOM     11  O   UNL A   1      33.991  24.306  25.485  1.00  0.00    -0.289 OA
BRANCH  10  12
ATOM     12  C   UNL A   1      33.560  22.112  24.868  1.00  0.00     0.026 A 
ATOM     13  C   UNL A   1      32.976  19.767  24.848  1.00  0.00     0.119 A 
ATOM     14  C   UNL A   1      34.336  19.445  24.913  1.00  0.00     0.046 A 
ATOM     15  C   UNL A   1      32.592  21.107  24.767  1.00  0.00     0.058 A 
ATOM     16  C   UNL A   1      35.309  20.440  24.889  1.00  0.00     0.005 A 
ATOM     17  C   UNL A   1      34.922  21.776  24.872  1.00  0.00     0.012 A 
BRANCH  13  18
ATOM     18  O   UNL A   1      32.166  18.672  24.905  1.00  0.00    -0.497 OA
ATOM     19  C   UNL A   1      32.600  17.500  25.565  1.00  0.00     0.278 C 
ENDBRANCH  13  18
ENDBRANCH  10  12
ENDBRANCH   9  10
BRANCH   8  20
ATOM     20  N   UNL A   1      29.934  25.277  23.794  1.00  0.00    -0.345 N 
ATOM     21  H   UNL A   1      29.261  24.612  23.521  1.00  0.00     0.167 HD
BRANCH  20  22
ATOM     22  C   UNL A   1      29.788  26.546  23.197  1.00  0.00     0.118 A 
ATOM     23  C   UNL A   1      28.546  27.184  23.400  1.00  0.00     0.037 A 
ATOM     24  C   UNL A   1      30.798  27.314  22.605  1.00  0.00     0.292 A 
ATOM     25  C   UNL A   1      28.348  28.562  23.163  1.00  0.00    -0.046 A 
ATOM     26  C   UNL A   1      30.618  28.685  22.338  1.00  0.00     0.091 A 
ATOM     27  C   UNL A   1      27.014  29.148  23.541  1.00  0.00     0.045 C 
ATOM     28  C   UNL A   1      29.413  29.330  22.661  1.00  0.00    -0.041 A 
ATOM     29  C   UNL A   1      29.313  30.818  22.460  1.00  0.00     0.045 C 
BRANCH  24  30
ATOM     30  N   UNL A   1      32.058  26.719  22.178  1.00  0.00     0.064 N 
ATOM     31  O   UNL A   1      31.990  25.804  21.343  1.00  0.00    -0.258 OA
ATOM     32  O   UNL A   1      33.093  27.108  22.734  1.00  0.00    -0.258 OA
ENDBRANCH  24  30
ENDBRANCH  20  22
ENDBRANCH   8  20
ENDBRANCH   5   8
ENDBRANCH   3   4
ENDBRANCH   2   3
ENDBRANCH   1   2
BRANCH   1  33
ATOM     33  C   UNL A   1      31.170  30.935  25.682  1.00  0.00     0.002 C 
BRANCH  33  34
ATOM     34  C   UNL A   1      31.195  32.252  26.448  1.00  0.00     0.021 C 
BRANCH  34  35
ATOM     35  C   UNL A   1      32.510  32.617  27.119  1.00  0.00     0.116 C 
BRANCH  35  36
ATOM     36  N   UNL A   1      32.562  33.996  27.565  1.00  0.00    -0.352 N 
ATOM     37  C   UNL A   1      33.400  34.588  28.475  1.00  0.00     0.251 C 
ATOM     38  H   UNL A   1      31.898  34.596  27.154  1.00  0.00     0.163 HD
ATOM     39  O   UNL A   1      33.202  35.758  28.814  1.00  0.00    -0.269 OA
BRANCH  37  40
ATOM     40  C   UNL A   1      34.524  33.836  29.079  1.00  0.00     0.039 A 
ATOM     41  C   UNL A   1      35.831  34.196  28.736  1.00  0.00     0.014 A 
ATOM     42  C   UNL A   1      34.308  32.761  29.947  1.00  0.00     0.014 A 
ATOM     43  C   UNL A   1      36.915  33.513  29.295  1.00  0.00     0.010 A 
ATOM     44  C   UNL A   1      35.389  32.132  30.563  1.00  0.00     0.010 A 
ATOM     45  C   UNL A   1      36.705  32.491  30.234  1.00  0.00    -0.014 A 
BRANCH  45  46
ATOM     46  C   UNL A   1      37.849  31.763  30.846  1.00  0.00     0.031 A 
ATOM     47  C   UNL A   1      38.282  32.084  32.251  1.00  0.00     0.074 A 
ATOM     48  C   UNL A   1      38.519  30.839  30.131  1.00  0.00     0.049 A 
ATOM     49  N   UNL A   1      39.289  31.606  32.939  1.00  0.00    -0.248 NA
ATOM     50  C   UNL A   1      37.491  33.094  32.974  1.00  0.00     0.031 C 
ATOM     51  C   UNL A   1      38.219  30.455  28.751  1.00  0.00     0.029 A 
ATOM     52  N   UNL A   1      39.596  30.056  30.465  1.00  0.00    -0.354 N 
ATOM     53  C   UNL A   1      39.250  32.254  34.167  1.00  0.00     0.074 A 
ATOM     54  C   UNL A   1      38.164  33.207  34.109  1.00  0.00     0.031 C 
ATOM     55  C   UNL A   1      39.077  29.496  28.364  1.00  0.00     0.029 A 
ATOM     56  C   UNL A   1      40.011  29.224  29.453  1.00  0.00     0.049 A 
ATOM     57  H   UNL A   1      40.031  30.087  31.348  1.00  0.00     0.167 HD
ATOM     58  C   UNL A   1      40.029  32.053  35.257  1.00  0.00     0.037 A 
ATOM     59  C   UNL A   1      41.032  28.347  29.408  1.00  0.00     0.037 A 
ATOM     60  C   UNL A   1      41.100  31.093  35.324  1.00  0.00     0.049 A 
ATOM     61  C   UNL A   1      41.901  28.165  30.625  1.00  0.00     0.074 A 
ATOM     62  C   UNL A   1      41.936  30.805  36.389  1.00  0.00     0.029 A 
ATOM     63  N   UNL A   1      41.478  30.260  34.283  1.00  0.00    -0.354 N 
ATOM     64  N   UNL A   1      41.825  28.754  31.793  1.00  0.00    -0.248 NA
ATOM     65  C   UNL A   1      42.994  27.187  30.518  1.00  0.00     0.031 C 
ATOM     66  C   UNL A   1      42.845  29.823  35.979  1.00  0.00     0.029 A 
ATOM     67  C   UNL A   1      42.542  29.464  34.677  1.00  0.00     0.049 A 
ATOM     68  H   UNL A   1      41.054  30.236  33.394  1.00  0.00     0.167 HD
ATOM     69  C   UNL A   1      42.830  28.192  32.570  1.00  0.00     0.074 A 
ATOM     70  C   UNL A   1      43.494  27.205  31.745  1.00  0.00     0.031 C 
ATOM     71  C   UNL A   1      43.175  28.468  33.851  1.00  0.00     0.037 A 
BRANCH  58  72
ATOM     72  C   UNL A   1      39.738  32.875  36.480  1.00  0.00     0.064 A 
ATOM     73  C   UNL A   1      40.414  34.079  36.729  1.00  0.00     0.173 A 
ATOM     74  C   UNL A   1      38.742  32.484  37.388  1.00  0.00     0.173 A 
ATOM     75  F   UNL A   1      41.384  34.493  35.898  1.00  0.00    -0.203 F 
ATOM     76  C   UNL A   1      40.123  34.847  37.852  1.00  0.00     0.198 A 
ATOM     77  C   UNL A   1      38.432  33.271  38.494  1.00  0.00     0.198 A 
ATOM     78  F   UNL A   1      38.061  31.344  37.195  1.00  0.00    -0.203 F 
ATOM     79  F   UNL A   1      40.816  35.969  38.093  1.00  0.00    -0.200 F 
ATOM     80  C   UNL A   1      39.126  34.447  38.730  1.00  0.00     0.200 A 
ATOM     81  F   UNL A   1      37.460  32.889  39.334  1.00  0.00    -0.200 F 
ATOM     82  F   UNL A   1      38.840  35.192  39.806  1.00  0.00    -0.200 F 
ENDBRANCH  58  72
BRANCH  59  83
ATOM     83  C   UNL A   1      41.291  27.558  28.173  1.00  0.00     0.064 A 
ATOM     84  C   UNL A   1      40.704  26.298  27.985  1.00  0.00     0.173 A 
ATOM     85  C   UNL A   1      42.161  28.025  27.178  1.00  0.00     0.173 A 
ATOM     86  F   UNL A   1      39.881  25.797  28.918  1.00  0.00    -0.203 F 
ATOM     87  C   UNL A   1      41.006  25.521  26.867  1.00  0.00     0.198 A 
ATOM     88  C   UNL A   1      42.436  27.263  26.044  1.00  0.00     0.198 A 
ATOM     89  F   UNL A   1      42.744  29.227  27.305  1.00  0.00    -0.203 F 
ATOM     90  F   UNL A   1      40.482  24.295  26.746  1.00  0.00    -0.200 F 
ATOM     91  C   UNL A   1      41.870  26.006  25.897  1.00  0.00     0.200 A 
ATOM     92  F   UNL A   1      43.260  27.741  25.103  1.00  0.00    -0.200 F 
ATOM     93  F   UNL A   1      42.166  25.257  24.825  1.00  0.00    -0.200 F 
ENDBRANCH  59  83
BRANCH  71  94
ATOM     94  C   UNL A   1      44.283  27.657  34.459  1.00  0.00     0.064 A 
ATOM     95  C   UNL A   1      45.610  28.109  34.472  1.00  0.00     0.173 A 
ATOM     96  C   UNL A   1      44.003  26.423  35.067  1.00  0.00     0.173 A 
ATOM     97  F   UNL A   1      45.932  29.275  33.890  1.00  0.00    -0.203 F 
ATOM     98  C   UNL A   1      46.622  27.343  35.045  1.00  0.00     0.198 A 
ATOM     99  C   UNL A   1      45.012  25.674  35.667  1.00  0.00     0.198 A 
ATOM    100  F   UNL A   1      42.748  25.949  35.090  1.00  0.00    -0.203 F 
ATOM    101  F   UNL A   1      47.891  27.770  34.998  1.00  0.00    -0.200 F 
ATOM    102  C   UNL A   1      46.321  26.130  35.647  1.00  0.00     0.200 A 
ATOM    103  F   UNL A   1      44.716  24.510  36.262  1.00  0.00    -0.200 F 
ATOM    104  F   UNL A   1      47.295  25.396  36.203  1.00  0.00    -0.200 F 
ENDBRANCH  71  94
ENDBRANCH  45  46
ENDBRANCH  37  40
ENDBRANCH  35  36
ENDBRANCH  34  35
ENDBRANCH  33  34
ENDBRANCH   1  33
TORSDOF 19
ENDMDL
MODEL 2
REMARK VINA RESULT:     -12.6      4.870      8.660
REMARK SMILES COc1cccc(C(=O)/C=C(/Nc2cc(C)c(C)cc2[N+](=O)[O-])C(=O)NCCCCCCNC(=O)c2ccc(-c3c4nc(c(-c5c(F)c(F)c(F)c(F)c5F)c5ccc([nH]5)c(-c5c(F)c(F)c(F)c(F)c5F)c5nc(c(-c6c(F)c(F)c(F)c(F)c6F)c6ccc3[nH]6)C=C5)C=C4)cc2)c1
REMARK SMILES IDX 29 1 28 2 27 3 26 4 24 5 25 6 11 8 10 9 8 10 9 11 7 12 3 13
REMARK SMILES IDX 4 14 99 15 5 16 6 17 2 18 1 19 12 20 13 22 14 23 20 24 15 25
REMARK SMILES IDX 19 26 16 27 17 28 18 29 21 30 22 31 23 32 30 33 31 34 32 35
REMARK SMILES IDX 33 36 34 37 35 39 36 40 37 41 98 42 38 43 97 44 39 45 40 46
REMARK SMILES IDX 41 47 91 48 42 49 96 50 90 51 92 52 43 53 95 54 89 55 88 56
REMARK SMILES IDX 44 58 76 59 56 60 75 61 57 62 60 63 74 64 93 65 58 66 59 67
REMARK SMILES IDX 73 69 94 70 61 71 45 72 46 73 54 74 47 75 48 76 52 77 55 78
REMARK SMILES IDX 49 79 50 80 53 81 51 82 77 83 78 84 86 85 79 86 80 87 84 88
REMARK SMILES IDX 87 89 81 90 82 91 85 92 83 93 62 94 63 95 71 96 64 97 65 98
REMARK SMILES IDX 69 99 72 100 66 101 67 102 70 103 68 104
REMARK H PARENT 26 7 12 21 33 38 92 57 60 68
REMARK Flexibility Score: inf
ROOT
ATOM      1  C   UNL A   1      36.828  21.965  25.526  1.00  0.00     0.002 C 
ENDROOT
BRANCH   1   2
ATOM      2  C   UNL A   1      36.725  23.312  24.803  1.00  0.00     0.021 C 
BRANCH   2   3
ATOM      3  C   UNL A   1      35.358  23.823  24.366  1.00  0.00     0.116 C 
BRANCH   3   4
ATOM      4  N   UNL A   1      34.748  23.211  23.207  1.00  0.00    -0.351 N 
ATOM      5  C   UNL A   1      33.412  23.021  22.950  1.00  0.00     0.267 C 
ATOM      6  O   UNL A   1      33.047  22.723  21.816  1.00  0.00    -0.268 OA
ATOM      7  H   UNL A   1      35.368  22.890  22.513  1.00  0.00     0.163 HD
BRANCH   5   8
ATOM      8  C   UNL A   1      32.408  23.153  24.058  1.00  0.00     0.108 C 
ATOM      9  C   UNL A   1      32.382  22.196  25.012  1.00  0.00     0.084 C 
BRANCH   9  10
ATOM     10  C   UNL A   1      33.087  20.911  25.321  1.00  0.00     0.188 C 
ATOM     11  O   UNL A   1      33.695  20.849  26.393  1.00  0.00    -0.289 OA
BRANCH  10  12
ATOM     12  C   UNL A   1      33.076  19.703  24.473  1.00  0.00     0.026 A 
ATOM     13  C   UNL A   1      33.817  17.476  23.901  1.00  0.00     0.119 A 
ATOM     14  C   UNL A   1      33.027  17.527  22.748  1.00  0.00     0.046 A 
ATOM     15  C   UNL A   1      33.795  18.547  24.796  1.00  0.00     0.058 A 
ATOM     16  C   UNL A   1      32.214  18.626  22.486  1.00  0.00     0.005 A 
ATOM     17  C   UNL A   1      32.242  19.719  23.346  1.00  0.00     0.012 A 
BRANCH  13  18
ATOM     18  O   UNL A   1      34.564  16.338  23.985  1.00  0.00    -0.497 OA
ATOM     19  C   UNL A   1      34.956  15.835  25.246  1.00  0.00     0.278 C 
ENDBRANCH  13  18
ENDBRANCH  10  12
ENDBRANCH   9  10
BRANCH   8  20
ATOM     20  N   UNL A   1      31.521  24.238  24.108  1.00  0.00    -0.345 N 
ATOM     21  H   UNL A   1      30.572  24.004  23.987  1.00  0.00     0.167 HD
BRANCH  20  22
ATOM     22  C   UNL A   1      31.771  25.612  24.303  1.00  0.00     0.118 A 
ATOM     23  C   UNL A   1      31.449  26.123  25.579  1.00  0.00     0.037 A 
ATOM     24  C   UNL A   1      32.480  26.464  23.447  1.00  0.00     0.292 A 
ATOM     25  C   UNL A   1      31.929  27.366  26.046  1.00  0.00    -0.046 A 
ATOM     26  C   UNL A   1      32.950  27.718  23.882  1.00  0.00     0.091 A 
ATOM     27  C   UNL A   1      31.621  27.739  27.471  1.00  0.00     0.045 C 
ATOM     28  C   UNL A   1      32.723  28.156  25.197  1.00  0.00    -0.041 A 
ATOM     29  C   UNL A   1      33.344  29.452  25.644  1.00  0.00     0.045 C 
BRANCH  24  30
ATOM     30  N   UNL A   1      32.709  26.122  22.049  1.00  0.00     0.064 N 
ATOM     31  O   UNL A   1      33.885  26.136  21.653  1.00  0.00    -0.258 OA
ATOM     32  O   UNL A   1      31.715  25.922  21.338  1.00  0.00    -0.258 OA
ENDBRANCH  24  30
ENDBRANCH  20  22
ENDBRANCH   8  20
ENDBRANCH   5   8
ENDBRANCH   3   4
ENDBRANCH   2   3
ENDBRANCH   1   2
BRANCH   1  33
ATOM     33  C   UNL A   1      36.774  20.675  24.712  1.00  0.00     0.002 C 
BRANCH  33  34
ATOM     34  C   UNL A   1      37.908  19.679  24.926  1.00  0.00     0.021 C 
BRANCH  34  35
ATOM     35  C   UNL A   1      39.066  20.152  25.792  1.00  0.00     0.116 C 
BRANCH  35  36
ATOM     36  N   UNL A   1      40.168  19.210  25.838  1.00  0.00    -0.352 N 
ATOM     37  C   UNL A   1      41.495  19.432  26.102  1.00  0.00     0.251 C 
ATOM     38  H   UNL A   1      39.928  18.273  25.653  1.00  0.00     0.163 HD
ATOM     39  O   UNL A   1      42.305  18.511  25.970  1.00  0.00    -0.269 OA
BRANCH  37  40
ATOM     40  C   UNL A   1      41.977  20.770  26.517  1.00  0.00     0.039 A 
ATOM     41  C   UNL A   1      42.283  21.708  25.526  1.00  0.00     0.014 A 
ATOM     42  C   UNL A   1      42.166  21.099  27.862  1.00  0.00     0.014 A 
ATOM     43  C   UNL A   1      42.731  22.983  25.883  1.00  0.00     0.010 A 
ATOM     44  C   UNL A   1      42.538  22.394  28.220  1.00  0.00     0.010 A 
ATOM     45  C   UNL A   1      42.839  23.347  27.234  1.00  0.00    -0.014 A 
BRANCH  45  46
ATOM     46  C   UNL A   1      43.304  24.703  27.630  1.00  0.00     0.031 A 
ATOM     47  C   UNL A   1      42.303  25.771  27.983  1.00  0.00     0.074 A 
ATOM     48  C   UNL A   1      44.621  24.987  27.640  1.00  0.00     0.049 A 
ATOM     49  N   UNL A   1      42.504  27.027  28.293  1.00  0.00    -0.248 NA
ATOM     50  C   UNL A   1      40.884  25.379  27.964  1.00  0.00     0.031 C 
ATOM     51  C   UNL A   1      45.692  24.052  27.292  1.00  0.00     0.029 A 
ATOM     52  N   UNL A   1      45.285  26.149  27.952  1.00  0.00    -0.354 N 
ATOM     53  C   UNL A   1      41.244  27.571  28.506  1.00  0.00     0.074 A 
ATOM     54  C   UNL A   1      40.281  26.530  28.224  1.00  0.00     0.031 C 
ATOM     55  C   UNL A   1      46.877  24.669  27.429  1.00  0.00     0.029 A 
ATOM     56  C   UNL A   1      46.650  26.053  27.838  1.00  0.00     0.049 A 
ATOM     57  H   UNL A   1      44.824  26.973  28.232  1.00  0.00     0.167 HD
ATOM     58  C   UNL A   1      40.917  28.817  28.927  1.00  0.00     0.037 A 
ATOM     59  C   UNL A   1      47.609  26.978  28.035  1.00  0.00     0.037 A 
ATOM     60  C   UNL A   1      41.874  29.850  29.224  1.00  0.00     0.049 A 
ATOM     61  C   UNL A   1      47.216  28.365  28.474  1.00  0.00     0.074 A 
ATOM     62  C   UNL A   1      41.642  31.139  29.672  1.00  0.00     0.029 A 
ATOM     63  N   UNL A   1      43.249  29.708  29.110  1.00  0.00    -0.354 N 
ATOM     64  N   UNL A   1      46.022  28.851  28.711  1.00  0.00    -0.248 NA
ATOM     65  C   UNL A   1      48.306  29.328  28.681  1.00  0.00     0.031 C 
ATOM     66  C   UNL A   1      42.875  31.790  29.792  1.00  0.00     0.029 A 
ATOM     67  C   UNL A   1      43.877  30.890  29.469  1.00  0.00     0.049 A 
ATOM     68  H   UNL A   1      43.711  28.890  28.817  1.00  0.00     0.167 HD
ATOM     69  C   UNL A   1      46.221  30.160  29.132  1.00  0.00     0.074 A 
ATOM     70  C   UNL A   1      47.650  30.388  29.131  1.00  0.00     0.031 C 
ATOM     71  C   UNL A   1      45.303  31.092  29.487  1.00  0.00     0.037 A 
BRANCH  58  72
ATOM     72  C   UNL A   1      39.459  29.127  29.112  1.00  0.00     0.064 A 
ATOM     73  C   UNL A   1      38.857  29.079  30.379  1.00  0.00     0.173 A 
ATOM     74  C   UNL A   1      38.666  29.522  28.024  1.00  0.00     0.173 A 
ATOM     75  F   UNL A   1      39.569  28.696  31.450  1.00  0.00    -0.203 F 
ATOM     76  C   UNL A   1      37.511  29.390  30.545  1.00  0.00     0.198 A 
ATOM     77  C   UNL A   1      37.327  29.862  28.200  1.00  0.00     0.198 A 
ATOM     78  F   UNL A   1      39.193  29.590  26.792  1.00  0.00    -0.203 F 
ATOM     79  F   UNL A   1      36.947  29.291  31.757  1.00  0.00    -0.200 F 
ATOM     80  C   UNL A   1      36.748  29.789  29.457  1.00  0.00     0.200 A 
ATOM     81  F   UNL A   1      36.596  30.260  27.150  1.00  0.00    -0.200 F 
ATOM     82  F   UNL A   1      35.455  30.097  29.621  1.00  0.00    -0.200 F 
ENDBRANCH  58  72
BRANCH  59  83
ATOM     83  C   UNL A   1      49.042  26.631  27.832  1.00  0.00     0.064 A 
ATOM     84  C   UNL A   1      49.586  26.535  26.543  1.00  0.00     0.173 A 
ATOM     85  C   UNL A   1      49.884  26.349  28.917  1.00  0.00     0.173 A 
ATOM     86  F   UNL A   1      48.816  26.774  25.472  1.00  0.00    -0.203 F 
ATOM     87  C   UNL A   1      50.907  26.133  26.346  1.00  0.00     0.198 A 
ATOM     88  C   UNL A   1      51.214  25.980  28.721  1.00  0.00     0.198 A 
ATOM     89  F   UNL A   1      49.416  26.433  30.171  1.00  0.00    -0.203 F 
ATOM     90  F   UNL A   1      51.381  25.986  25.102  1.00  0.00    -0.200 F 
ATOM     91  C   UNL A   1      51.720  25.859  27.436  1.00  0.00     0.200 A 
ATOM     92  F   UNL A   1      52.000  25.731  29.777  1.00  0.00    -0.200 F 
ATOM     93  F   UNL A   1      52.987  25.466  27.247  1.00  0.00    -0.200 F 
ENDBRANCH  59  83
BRANCH  71  94
ATOM     94  C   UNL A   1      45.815  32.423  29.956  1.00  0.00     0.064 A 
ATOM     95  C   UNL A   1      46.009  33.495  29.072  1.00  0.00     0.173 A 
ATOM     96  C   UNL A   1      46.083  32.638  31.317  1.00  0.00     0.173 A 
ATOM     97  F   UNL A   1      45.782  33.336  27.759  1.00  0.00    -0.203 F 
ATOM     98  C   UNL A   1      46.481  34.723  29.529  1.00  0.00     0.198 A 
ATOM     99  C   UNL A   1      46.525  33.876  31.774  1.00  0.00     0.198 A 
ATOM    100  F   UNL A   1      45.906  31.648  32.206  1.00  0.00    -0.203 F 
ATOM    101  F   UNL A   1      46.711  35.715  28.658  1.00  0.00    -0.200 F 
ATOM    102  C   UNL A   1      46.732  34.914  30.880  1.00  0.00     0.200 A 
ATOM    103  F   UNL A   1      46.751  34.063  33.083  1.00  0.00    -0.200 F 
ATOM    104  F   UNL A   1      47.181  36.098  31.318  1.00  0.00    -0.200 F 
ENDBRANCH  71  94
ENDBRANCH  45  46
ENDBRANCH  37  40
ENDBRANCH  35  36
ENDBRANCH  34  35
ENDBRANCH  33  34
ENDBRANCH   1  33
TORSDOF 19
ENDMDL
MODEL 3
REMARK VINA RESULT:     -12.6      1.162      4.558
REMARK SMILES COc1cccc(C(=O)/C=C(/Nc2cc(C)c(C)cc2[N+](=O)[O-])C(=O)NCCCCCCNC(=O)c2ccc(-c3c4nc(c(-c5c(F)c(F)c(F)c(F)c5F)c5ccc([nH]5)c(-c5c(F)c(F)c(F)c(F)c5F)c5nc(c(-c6c(F)c(F)c(F)c(F)c6F)c6ccc3[nH]6)C=C5)C=C4)cc2)c1
REMARK SMILES IDX 29 1 28 2 27 3 26 4 24 5 25 6 11 8 10 9 8 10 9 11 7 12 3 13
REMARK SMILES IDX 4 14 99 15 5 16 6 17 2 18 1 19 12 20 13 22 14 23 20 24 15 25
REMARK SMILES IDX 19 26 16 27 17 28 18 29 21 30 22 31 23 32 30 33 31 34 32 35
REMARK SMILES IDX 33 36 34 37 35 39 36 40 37 41 98 42 38 43 97 44 39 45 40 46
REMARK SMILES IDX 41 47 91 48 42 49 96 50 90 51 92 52 43 53 95 54 89 55 88 56
REMARK SMILES IDX 44 58 76 59 56 60 75 61 57 62 60 63 74 64 93 65 58 66 59 67
REMARK SMILES IDX 73 69 94 70 61 71 45 72 46 73 54 74 47 75 48 76 52 77 55 78
REMARK SMILES IDX 49 79 50 80 53 81 51 82 77 83 78 84 86 85 79 86 80 87 84 88
REMARK SMILES IDX 87 89 81 90 82 91 85 92 83 93 62 94 63 95 71 96 64 97 65 98
REMARK SMILES IDX 69 99 72 100 66 101 67 102 70 103 68 104
REMARK H PARENT 26 7 12 21 33 38 92 57 60 68
REMARK Flexibility Score: inf
ROOT
ATOM      1  C   UNL A   1      32.008  29.522  27.055  1.00  0.00     0.002 C 
ENDROOT
BRANCH   1   2
ATOM      2  C   UNL A   1      33.016  28.483  26.554  1.00  0.00     0.021 C 
BRANCH   2   3
ATOM      3  C   UNL A   1      32.578  27.033  26.396  1.00  0.00     0.116 C 
BRANCH   3   4
ATOM      4  N   UNL A   1      31.159  26.754  26.377  1.00  0.00    -0.351 N 
ATOM      5  C   UNL A   1      30.453  26.000  25.472  1.00  0.00     0.267 C 
ATOM      6  O   UNL A   1      29.306  25.650  25.737  1.00  0.00    -0.268 OA
ATOM      7  H   UNL A   1      30.632  27.155  27.105  1.00  0.00     0.163 HD
BRANCH   5   8
ATOM      8  C   UNL A   1      31.074  25.630  24.157  1.00  0.00     0.108 C 
ATOM      9  C   UNL A   1      31.308  26.616  23.263  1.00  0.00     0.084 C 
BRANCH   9  10
ATOM     10  C   UNL A   1      31.095  28.094  23.153  1.00  0.00     0.188 C 
ATOM     11  O   UNL A   1      32.101  28.809  23.177  1.00  0.00    -0.289 OA
BRANCH  10  12
ATOM     12  C   UNL A   1      29.791  28.760  22.972  1.00  0.00     0.026 A 
ATOM     13  C   UNL A   1      28.412  30.668  22.424  1.00  0.00     0.119 A 
ATOM     14  C   UNL A   1      27.277  29.920  22.753  1.00  0.00     0.046 A 
ATOM     15  C   UNL A   1      29.670  30.064  22.479  1.00  0.00     0.058 A 
ATOM     16  C   UNL A   1      27.383  28.583  23.125  1.00  0.00     0.005 A 
ATOM     17  C   UNL A   1      28.642  28.003  23.241  1.00  0.00     0.012 A 
BRANCH  13  18
ATOM     18  O   UNL A   1      28.125  31.962  22.105  1.00  0.00    -0.497 OA
ATOM     19  C   UNL A   1      28.028  32.356  20.752  1.00  0.00     0.278 C 
ENDBRANCH  13  18
ENDBRANCH  10  12
ENDBRANCH   9  10
BRANCH   8  20
ATOM     20  N   UNL A   1      31.405  24.300  23.860  1.00  0.00    -0.345 N 
ATOM     21  H   UNL A   1      30.823  23.867  23.194  1.00  0.00     0.167 HD
BRANCH  20  22
ATOM     22  C   UNL A   1      32.438  23.483  24.363  1.00  0.00     0.118 A 
ATOM     23  C   UNL A   1      33.592  23.382  23.558  1.00  0.00     0.037 A 
ATOM     24  C   UNL A   1      32.520  22.934  25.649  1.00  0.00     0.292 A 
ATOM     25  C   UNL A   1      34.822  22.889  24.047  1.00  0.00    -0.046 A 
ATOM     26  C   UNL A   1      33.729  22.416  26.151  1.00  0.00     0.091 A 
ATOM     27  C   UNL A   1      36.011  22.952  23.126  1.00  0.00     0.045 C 
ATOM     28  C   UNL A   1      34.899  22.436  25.375  1.00  0.00    -0.041 A 
ATOM     29  C   UNL A   1      36.188  21.975  26.000  1.00  0.00     0.045 C 
BRANCH  24  30
ATOM     30  N   UNL A   1      31.344  22.812  26.502  1.00  0.00     0.064 N 
ATOM     31  O   UNL A   1      31.411  23.335  27.626  1.00  0.00    -0.258 OA
ATOM     32  O   UNL A   1      30.399  22.132  26.082  1.00  0.00    -0.258 OA
ENDBRANCH  24  30
ENDBRANCH  20  22
ENDBRANCH   8  20
ENDBRANCH   5   8
ENDBRANCH   3   4
ENDBRANCH   2   3
ENDBRANCH   1   2
BRANCH   1  33
ATOM     33  C   UNL A   1      31.400  30.512  26.064  1.00  0.00     0.002 C 
BRANCH  33  34
ATOM     34  C   UNL A   1      31.360  31.975  26.490  1.00  0.00     0.021 C 
BRANCH  34  35
ATOM     35  C   UNL A   1      32.677  32.578  26.955  1.00  0.00     0.116 C 
BRANCH  35  36
ATOM     36  N   UNL A   1      32.529  33.901  27.531  1.00  0.00    -0.352 N 
ATOM     37  C   UNL A   1      33.221  34.488  28.558  1.00  0.00     0.251 C 
ATOM     38  H   UNL A   1      31.828  34.460  27.124  1.00  0.00     0.163 HD
ATOM     39  O   UNL A   1      32.860  35.586  28.988  1.00  0.00    -0.269 OA
BRANCH  37  40
ATOM     40  C   UNL A   1      34.383  33.811  29.180  1.00  0.00     0.039 A 
ATOM     41  C   UNL A   1      34.146  32.771  30.086  1.00  0.00     0.014 A 
ATOM     42  C   UNL A   1      35.696  34.208  28.914  1.00  0.00     0.014 A 
ATOM     43  C   UNL A   1      35.218  32.105  30.684  1.00  0.00     0.010 A 
ATOM     44  C   UNL A   1      36.766  33.494  29.451  1.00  0.00     0.010 A 
ATOM     45  C   UNL A   1      36.540  32.443  30.353  1.00  0.00    -0.014 A 
BRANCH  45  46
ATOM     46  C   UNL A   1      37.692  31.735  30.973  1.00  0.00     0.031 A 
ATOM     47  C   UNL A   1      38.112  32.067  32.380  1.00  0.00     0.074 A 
ATOM     48  C   UNL A   1      38.381  30.820  30.265  1.00  0.00     0.049 A 
ATOM     49  N   UNL A   1      39.123  31.607  33.075  1.00  0.00    -0.248 NA
ATOM     50  C   UNL A   1      37.300  33.066  33.095  1.00  0.00     0.031 C 
ATOM     51  C   UNL A   1      38.095  30.427  28.884  1.00  0.00     0.029 A 
ATOM     52  N   UNL A   1      39.469  30.055  30.607  1.00  0.00    -0.354 N 
ATOM     53  C   UNL A   1      39.067  32.258  34.301  1.00  0.00     0.074 A 
ATOM     54  C   UNL A   1      37.965  33.193  34.234  1.00  0.00     0.031 C 
ATOM     55  C   UNL A   1      38.970  29.481  28.505  1.00  0.00     0.029 A 
ATOM     56  C   UNL A   1      39.902  29.227  29.600  1.00  0.00     0.049 A 
ATOM     57  H   UNL A   1      39.898  30.096  31.493  1.00  0.00     0.167 HD
ATOM     58  C   UNL A   1      39.842  32.072  35.396  1.00  0.00     0.037 A 
ATOM     59  C   UNL A   1      40.938  28.367  29.563  1.00  0.00     0.037 A 
ATOM     60  C   UNL A   1      40.928  31.130  35.472  1.00  0.00     0.049 A 
ATOM     61  C   UNL A   1      41.803  28.202  30.785  1.00  0.00     0.074 A 
ATOM     62  C   UNL A   1      41.763  30.858  36.542  1.00  0.00     0.029 A 
ATOM     63  N   UNL A   1      41.326  30.300  34.435  1.00  0.00    -0.354 N 
ATOM     64  N   UNL A   1      41.711  28.794  31.952  1.00  0.00    -0.248 NA
ATOM     65  C   UNL A   1      42.912  27.242  30.687  1.00  0.00     0.031 C 
ATOM     66  C   UNL A   1      42.690  29.891  36.140  1.00  0.00     0.029 A 
ATOM     67  C   UNL A   1      42.400  29.523  34.837  1.00  0.00     0.049 A 
ATOM     68  H   UNL A   1      40.907  30.268  33.544  1.00  0.00     0.167 HD
ATOM     69  C   UNL A   1      42.721  28.250  32.735  1.00  0.00     0.074 A 
ATOM     70  C   UNL A   1      43.405  27.272  31.917  1.00  0.00     0.031 C 
ATOM     71  C   UNL A   1      43.054  28.535  34.018  1.00  0.00     0.037 A 
BRANCH  58  72
ATOM     72  C   UNL A   1      39.531  32.893  36.615  1.00  0.00     0.064 A 
ATOM     73  C   UNL A   1      38.563  32.482  37.545  1.00  0.00     0.173 A 
ATOM     74  C   UNL A   1      40.236  34.076  36.883  1.00  0.00     0.173 A 
ATOM     75  F   UNL A   1      37.851  31.365  37.329  1.00  0.00    -0.203 F 
ATOM     76  C   UNL A   1      38.296  33.238  38.683  1.00  0.00     0.198 A 
ATOM     77  C   UNL A   1      39.988  34.812  38.038  1.00  0.00     0.198 A 
ATOM     78  F   UNL A   1      41.176  34.511  36.030  1.00  0.00    -0.203 F 
ATOM     79  F   UNL A   1      37.334  32.849  39.532  1.00  0.00    -0.200 F 
ATOM     80  C   UNL A   1      39.014  34.397  38.933  1.00  0.00     0.200 A 
ATOM     81  F   UNL A   1      40.692  35.925  38.286  1.00  0.00    -0.200 F 
ATOM     82  F   UNL A   1      38.763  35.118  40.035  1.00  0.00    -0.200 F 
ENDBRANCH  58  72
BRANCH  59  83
ATOM     83  C   UNL A   1      41.217  27.579  28.332  1.00  0.00     0.064 A 
ATOM     84  C   UNL A   1      40.599  26.339  28.113  1.00  0.00     0.173 A 
ATOM     85  C   UNL A   1      42.136  28.027  27.372  1.00  0.00     0.173 A 
ATOM     86  F   UNL A   1      39.728  25.857  29.012  1.00  0.00    -0.203 F 
ATOM     87  C   UNL A   1      40.916  25.561  27.000  1.00  0.00     0.198 A 
ATOM     88  C   UNL A   1      42.428  27.263  26.243  1.00  0.00     0.198 A 
ATOM     89  F   UNL A   1      42.750  29.208  27.529  1.00  0.00    -0.203 F 
ATOM     90  F   UNL A   1      40.360  24.352  26.851  1.00  0.00    -0.200 F 
ATOM     91  C   UNL A   1      41.829  26.026  26.065  1.00  0.00     0.200 A 
ATOM     92  F   UNL A   1      43.299  27.723  25.335  1.00  0.00    -0.200 F 
ATOM     93  F   UNL A   1      42.140  25.275  24.999  1.00  0.00    -0.200 F 
ENDBRANCH  59  83
BRANCH  71  94
ATOM     94  C   UNL A   1      44.171  27.744  34.634  1.00  0.00     0.064 A 
ATOM     95  C   UNL A   1      45.499  28.194  34.608  1.00  0.00     0.173 A 
ATOM     96  C   UNL A   1      43.901  26.532  35.290  1.00  0.00     0.173 A 
ATOM     97  F   UNL A   1      45.812  29.339  33.981  1.00  0.00    -0.203 F 
ATOM     98  C   UNL A   1      46.520  27.446  35.189  1.00  0.00     0.198 A 
ATOM     99  C   UNL A   1      44.919  25.803  35.897  1.00  0.00     0.198 A 
ATOM    100  F   UNL A   1      42.646  26.061  35.350  1.00  0.00    -0.203 F 
ATOM    101  F   UNL A   1      47.788  27.869  35.106  1.00  0.00    -0.200 F 
ATOM    102  C   UNL A   1      46.228  26.255  35.839  1.00  0.00     0.200 A 
ATOM    103  F   UNL A   1      44.633  24.660  36.537  1.00  0.00    -0.200 F 
ATOM    104  F   UNL A   1      47.211  25.540  36.403  1.00  0.00    -0.200 F 
ENDBRANCH  71  94
ENDBRANCH  45  46
ENDBRANCH  37  40
ENDBRANCH  35  36
ENDBRANCH  34  35
ENDBRANCH  33  34
ENDBRANCH   1  33
TORSDOF 19
ENDMDL
