MODEL 1
REMARK VINA RESULT:     -11.7      0.000      0.000
REMARK SMILES Cn1cc(CNC(=O)Cn2ccc(C(=O)NCCCCCCNC(=O)c3ccc(-c4c5nc(c(-c6c(F)c(F)c(F)c(F)c6F)c6ccc([nH]6)c(-c6c(F)c(F)c(F)c(F)c6F)c6nc(c(-c7c(F)c(F)c(F)c(F)c7F)c7ccc4[nH]7)C=C6)C=C5)cc3)n2)cn1
REMARK SMILES IDX 18 1 17 2 16 3 14 4 15 5 13 7 10 8 11 9 89 10 12 11 9 12
REMARK SMILES IDX 7 13 6 14 8 16 5 17 4 18 1 19 2 20 3 21 91 22 90 23 19 24
REMARK SMILES IDX 20 25 21 26 22 27 23 28 24 29 25 31 26 32 27 33 88 34 28 35
REMARK SMILES IDX 87 36 29 37 30 38 31 39 81 40 32 41 86 42 80 43 82 44 33 45
REMARK SMILES IDX 85 46 79 47 78 48 34 50 66 51 46 52 65 53 47 54 50 55 64 56
REMARK SMILES IDX 83 57 48 58 49 59 63 61 84 62 51 63 35 64 36 65 44 66 37 67
REMARK SMILES IDX 38 68 42 69 45 70 39 71 40 72 43 73 41 74 67 75 68 76 76 77
REMARK SMILES IDX 69 78 70 79 74 80 77 81 71 82 72 83 75 84 73 85 52 86 53 87
REMARK SMILES IDX 61 88 54 89 55 90 59 91 62 92 56 93 57 94 60 95 58 96
REMARK H PARENT 16 6 6 15 23 30 82 49 50 60
REMARK Flexibility Score: inf
ROOT
ATOM      1  C   UNL A   1      39.674  22.436  26.186  1.00  0.00     0.021 C 
ENDROOT
BRANCH   1   2
ATOM      2  C   UNL A   1      38.198  22.079  25.998  1.00  0.00     0.116 C 
BRANCH   2   3
ATOM      3  N   UNL A   1      37.784  22.277  24.630  1.00  0.00    -0.351 N 
ATOM      4  C   UNL A   1      36.614  22.722  24.063  1.00  0.00     0.271 C 
ATOM      5  O   UNL A   1      36.634  22.831  22.833  1.00  0.00    -0.267 OA
ATOM      6  H   UNL A   1      38.479  22.047  23.970  1.00  0.00     0.163 HD
BRANCH   4   7
ATOM      7  C   UNL A   1      35.416  23.059  24.866  1.00  0.00     0.150 A 
ATOM      8  N   UNL A   1      33.342  22.998  25.420  1.00  0.00    -0.263 N 
ATOM      9  C   UNL A   1      33.920  23.790  26.363  1.00  0.00     0.110 A 
ATOM     10  N   UNL A   1      34.212  22.574  24.491  1.00  0.00    -0.167 NA
ATOM     11  C   UNL A   1      35.256  23.828  26.053  1.00  0.00     0.056 A 
BRANCH   8  12
ATOM     12  C   UNL A   1      31.948  22.611  25.302  1.00  0.00     0.243 C 
BRANCH  12  13
ATOM     13  C   UNL A   1      31.005  23.746  25.622  1.00  0.00     0.241 C 
ATOM     14  N   UNL A   1      30.474  24.492  24.610  1.00  0.00    -0.350 N 
ATOM     15  H   UNL A   1      29.886  25.231  24.888  1.00  0.00     0.163 HD
ATOM     16  O   UNL A   1      30.710  24.032  26.783  1.00  0.00    -0.273 OA
BRANCH  14  17
ATOM     17  C   UNL A   1      30.662  24.341  23.182  1.00  0.00     0.155 C 
BRANCH  17  18
ATOM     18  C   UNL A   1      31.780  25.222  22.780  1.00  0.00     0.009 A 
ATOM     19  C   UNL A   1      33.706  28.243  22.384  1.00  0.00     0.173 C 
ATOM     20  N   UNL A   1      33.119  26.927  22.434  1.00  0.00    -0.275 N 
ATOM     21  C   UNL A   1      31.939  26.572  23.019  1.00  0.00     0.113 A 
ATOM     22  N   UNL A   1      33.751  25.900  21.841  1.00  0.00    -0.181 NA
ATOM     23  C   UNL A   1      32.940  24.865  22.055  1.00  0.00     0.140 A 
ENDBRANCH  17  18
ENDBRANCH  14  17
ENDBRANCH  12  13
ENDBRANCH   8  12
ENDBRANCH   4   7
ENDBRANCH   2   3
ENDBRANCH   1   2
BRANCH   1  24
ATOM     24  C   UNL A   1      40.518  21.271  26.721  1.00  0.00     0.002 C 
BRANCH  24  25
ATOM     25  C   UNL A   1      40.362  19.936  25.969  1.00  0.00     0.002 C 
BRANCH  25  26
ATOM     26  C   UNL A   1      41.525  18.944  26.106  1.00  0.00     0.021 C 
BRANCH  26  27
ATOM     27  C   UNL A   1      42.805  19.580  26.619  1.00  0.00     0.116 C 
BRANCH  27  28
ATOM     28  N   UNL A   1      43.920  19.408  25.688  1.00  0.00    -0.352 N 
ATOM     29  C   UNL A   1      44.528  20.372  24.917  1.00  0.00     0.251 C 
ATOM     30  H   UNL A   1      44.276  18.495  25.601  1.00  0.00     0.163 HD
ATOM     31  O   UNL A   1      45.177  20.073  23.912  1.00  0.00    -0.269 OA
BRANCH  29  32
ATOM     32  C   UNL A   1      44.393  21.777  25.321  1.00  0.00     0.039 A 
ATOM     33  C   UNL A   1      43.446  22.618  24.735  1.00  0.00     0.014 A 
ATOM     34  C   UNL A   1      45.214  22.229  26.353  1.00  0.00     0.014 A 
ATOM     35  C   UNL A   1      43.279  23.896  25.260  1.00  0.00     0.010 A 
ATOM     36  C   UNL A   1      44.936  23.421  26.971  1.00  0.00     0.010 A 
ATOM     37  C   UNL A   1      44.011  24.283  26.400  1.00  0.00    -0.014 A 
BRANCH  37  38
ATOM     38  C   UNL A   1      43.728  25.546  27.072  1.00  0.00     0.031 A 
ATOM     39  C   UNL A   1      44.673  26.644  26.729  1.00  0.00     0.074 A 
ATOM     40  C   UNL A   1      42.623  25.773  27.813  1.00  0.00     0.049 A 
ATOM     41  N   UNL A   1      45.550  27.182  27.508  1.00  0.00    -0.248 NA
ATOM     42  C   UNL A   1      44.757  27.101  25.333  1.00  0.00     0.031 C 
ATOM     43  C   UNL A   1      41.454  24.910  28.023  1.00  0.00     0.029 A 
ATOM     44  N   UNL A   1      42.281  26.898  28.499  1.00  0.00    -0.354 N 
ATOM     45  C   UNL A   1      46.180  28.173  26.763  1.00  0.00     0.074 A 
ATOM     46  C   UNL A   1      45.763  27.978  25.398  1.00  0.00     0.031 C 
ATOM     47  C   UNL A   1      40.452  25.624  28.587  1.00  0.00     0.029 A 
ATOM     48  C   UNL A   1      40.964  26.934  28.944  1.00  0.00     0.049 A 
ATOM     49  H   UNL A   1      42.918  27.630  28.668  1.00  0.00     0.167 HD
ATOM     50  C   UNL A   1      46.822  29.202  27.383  1.00  0.00     0.037 A 
ATOM     51  C   UNL A   1      40.344  27.969  29.563  1.00  0.00     0.037 A 
ATOM     52  C   UNL A   1      47.066  28.897  28.770  1.00  0.00     0.049 A 
ATOM     53  C   UNL A   1      41.407  28.834  30.133  1.00  0.00     0.074 A 
ATOM     54  C   UNL A   1      47.789  27.924  29.434  1.00  0.00     0.029 A 
ATOM     55  N   UNL A   1      46.196  29.411  29.700  1.00  0.00    -0.354 N 
ATOM     56  N   UNL A   1      42.178  28.469  31.120  1.00  0.00    -0.248 NA
ATOM     57  C   UNL A   1      41.922  29.903  29.294  1.00  0.00     0.031 C 
ATOM     58  C   UNL A   1      46.980  27.565  30.553  1.00  0.00     0.029 A 
ATOM     59  C   UNL A   1      45.856  28.392  30.555  1.00  0.00     0.049 A 
ATOM     60  H   UNL A   1      45.875  30.340  29.746  1.00  0.00     0.167 HD
ATOM     61  C   UNL A   1      43.436  28.926  30.762  1.00  0.00     0.074 A 
ATOM     62  C   UNL A   1      43.204  29.870  29.669  1.00  0.00     0.031 C 
ATOM     63  C   UNL A   1      44.563  28.281  31.186  1.00  0.00     0.037 A 
BRANCH  50  64
ATOM     64  C   UNL A   1      46.891  30.614  26.856  1.00  0.00     0.064 A 
ATOM     65  C   UNL A   1      48.118  31.306  26.911  1.00  0.00     0.173 A 
ATOM     66  C   UNL A   1      45.753  31.408  26.601  1.00  0.00     0.173 A 
ATOM     67  F   UNL A   1      49.262  30.651  27.161  1.00  0.00    -0.203 F 
ATOM     68  C   UNL A   1      48.185  32.698  26.809  1.00  0.00     0.198 A 
ATOM     69  C   UNL A   1      45.831  32.792  26.450  1.00  0.00     0.198 A 
ATOM     70  F   UNL A   1      44.514  30.903  26.606  1.00  0.00    -0.203 F 
ATOM     71  F   UNL A   1      49.354  33.324  27.000  1.00  0.00    -0.200 F 
ATOM     72  C   UNL A   1      47.040  33.441  26.588  1.00  0.00     0.200 A 
ATOM     73  F   UNL A   1      44.707  33.496  26.255  1.00  0.00    -0.200 F 
ATOM     74  F   UNL A   1      47.091  34.778  26.557  1.00  0.00    -0.200 F 
ENDBRANCH  50  64
BRANCH  51  75
ATOM     75  C   UNL A   1      38.940  28.428  29.441  1.00  0.00     0.064 A 
ATOM     76  C   UNL A   1      38.137  28.619  30.579  1.00  0.00     0.173 A 
ATOM     77  C   UNL A   1      38.462  28.982  28.239  1.00  0.00     0.173 A 
ATOM     78  F   UNL A   1      38.540  28.161  31.773  1.00  0.00    -0.203 F 
ATOM     79  C   UNL A   1      36.947  29.353  30.525  1.00  0.00     0.198 A 
ATOM     80  C   UNL A   1      37.272  29.713  28.185  1.00  0.00     0.198 A 
ATOM     81  F   UNL A   1      39.191  28.914  27.115  1.00  0.00    -0.203 F 
ATOM     82  F   UNL A   1      36.245  29.573  31.645  1.00  0.00    -0.200 F 
ATOM     83  C   UNL A   1      36.523  29.912  29.330  1.00  0.00     0.200 A 
ATOM     84  F   UNL A   1      36.895  30.283  27.031  1.00  0.00    -0.200 F 
ATOM     85  F   UNL A   1      35.422  30.675  29.291  1.00  0.00    -0.200 F 
ENDBRANCH  51  75
BRANCH  63  86
ATOM     86  C   UNL A   1      44.409  27.225  32.248  1.00  0.00     0.064 A 
ATOM     87  C   UNL A   1      44.237  25.853  31.987  1.00  0.00     0.173 A 
ATOM     88  C   UNL A   1      44.576  27.606  33.585  1.00  0.00     0.173 A 
ATOM     89  F   UNL A   1      44.168  25.389  30.734  1.00  0.00    -0.203 F 
ATOM     90  C   UNL A   1      44.188  24.920  33.022  1.00  0.00     0.198 A 
ATOM     91  C   UNL A   1      44.565  26.669  34.614  1.00  0.00     0.198 A 
ATOM     92  F   UNL A   1      44.797  28.894  33.893  1.00  0.00    -0.203 F 
ATOM     93  F   UNL A   1      44.007  23.618  32.746  1.00  0.00    -0.200 F 
ATOM     94  C   UNL A   1      44.358  25.328  34.334  1.00  0.00     0.200 A 
ATOM     95  F   UNL A   1      44.780  27.063  35.875  1.00  0.00    -0.200 F 
ATOM     96  F   UNL A   1      44.350  24.427  35.326  1.00  0.00    -0.200 F 
ENDBRANCH  63  86
ENDBRANCH  37  38
ENDBRANCH  29  32
ENDBRANCH  27  28
ENDBRANCH  26  27
ENDBRANCH  25  26
ENDBRANCH  24  25
ENDBRANCH   1  24
TORSDOF 17
ENDMDL
MODEL 2
REMARK VINA RESULT:     -11.4      2.704      4.167
REMARK SMILES Cn1cc(CNC(=O)Cn2ccc(C(=O)NCCCCCCNC(=O)c3ccc(-c4c5nc(c(-c6c(F)c(F)c(F)c(F)c6F)c6ccc([nH]6)c(-c6c(F)c(F)c(F)c(F)c6F)c6nc(c(-c7c(F)c(F)c(F)c(F)c7F)c7ccc4[nH]7)C=C6)C=C5)cc3)n2)cn1
REMARK SMILES IDX 18 1 17 2 16 3 14 4 15 5 13 7 10 8 11 9 89 10 12 11 9 12
REMARK SMILES IDX 7 13 6 14 8 16 5 17 4 18 1 19 2 20 3 21 91 22 90 23 19 24
REMARK SMILES IDX 20 25 21 26 22 27 23 28 24 29 25 31 26 32 27 33 88 34 28 35
REMARK SMILES IDX 87 36 29 37 30 38 31 39 81 40 32 41 86 42 80 43 82 44 33 45
REMARK SMILES IDX 85 46 79 47 78 48 34 50 66 51 46 52 65 53 47 54 50 55 64 56
REMARK SMILES IDX 83 57 48 58 49 59 63 61 84 62 51 63 35 64 36 65 44 66 37 67
REMARK SMILES IDX 38 68 42 69 45 70 39 71 40 72 43 73 41 74 67 75 68 76 76 77
REMARK SMILES IDX 69 78 70 79 74 80 77 81 71 82 72 83 75 84 73 85 52 86 53 87
REMARK SMILES IDX 61 88 54 89 55 90 59 91 62 92 56 93 57 94 60 95 58 96
REMARK H PARENT 16 6 6 15 23 30 82 49 50 60
REMARK Flexibility Score: inf
ROOT
ATOM      1  C   UNL A   1      34.707  20.717  24.785  1.00  0.00     0.021 C 
ENDROOT
BRANCH   1   2
ATOM      2  C   UNL A   1      33.237  20.600  25.191  1.00  0.00     0.116 C 
BRANCH   2   3
ATOM      3  N   UNL A   1      32.986  21.277  26.441  1.00  0.00    -0.351 N 
ATOM      4  C   UNL A   1      32.569  22.550  26.746  1.00  0.00     0.271 C 
ATOM      5  O   UNL A   1      32.394  22.771  27.947  1.00  0.00    -0.267 OA
ATOM      6  H   UNL A   1      33.146  20.714  27.233  1.00  0.00     0.163 HD
BRANCH   4   7
ATOM      7  C   UNL A   1      32.336  23.584  25.710  1.00  0.00     0.150 A 
ATOM      8  N   UNL A   1      32.855  25.204  24.400  1.00  0.00    -0.263 N 
ATOM      9  C   UNL A   1      31.554  24.938  24.107  1.00  0.00     0.110 A 
ATOM     10  N   UNL A   1      33.338  24.427  25.383  1.00  0.00    -0.167 NA
ATOM     11  C   UNL A   1      31.197  23.883  24.911  1.00  0.00     0.056 A 
BRANCH   8  12
ATOM     12  C   UNL A   1      33.721  26.211  23.813  1.00  0.00     0.243 C 
BRANCH  12  13
ATOM     13  C   UNL A   1      33.334  26.549  22.394  1.00  0.00     0.241 C 
ATOM     14  N   UNL A   1      32.610  27.678  22.139  1.00  0.00    -0.350 N 
ATOM     15  H   UNL A   1      32.371  27.827  21.196  1.00  0.00     0.163 HD
ATOM     16  O   UNL A   1      33.641  25.819  21.450  1.00  0.00    -0.273 OA
BRANCH  14  17
ATOM     17  C   UNL A   1      32.149  28.684  23.072  1.00  0.00     0.155 C 
BRANCH  17  18
ATOM     18  C   UNL A   1      30.718  28.933  22.793  1.00  0.00     0.009 A 
ATOM     19  C   UNL A   1      27.137  28.680  23.107  1.00  0.00     0.173 C 
ATOM     20  N   UNL A   1      28.522  28.940  22.809  1.00  0.00    -0.275 N 
ATOM     21  C   UNL A   1      29.613  28.433  23.452  1.00  0.00     0.113 A 
ATOM     22  N   UNL A   1      28.836  29.749  21.783  1.00  0.00    -0.181 NA
ATOM     23  C   UNL A   1      30.169  29.748  21.777  1.00  0.00     0.140 A 
ENDBRANCH  17  18
ENDBRANCH  14  17
ENDBRANCH  12  13
ENDBRANCH   8  12
ENDBRANCH   4   7
ENDBRANCH   2   3
ENDBRANCH   1   2
BRANCH   1  24
ATOM     24  C   UNL A   1      35.568  21.447  25.825  1.00  0.00     0.002 C 
BRANCH  24  25
ATOM     25  C   UNL A   1      36.764  22.237  25.262  1.00  0.00     0.002 C 
BRANCH  25  26
ATOM     26  C   UNL A   1      38.133  21.549  25.355  1.00  0.00     0.021 C 
BRANCH  26  27
ATOM     27  C   UNL A   1      39.068  22.198  26.361  1.00  0.00     0.116 C 
BRANCH  27  28
ATOM     28  N   UNL A   1      40.475  22.002  26.014  1.00  0.00    -0.352 N 
ATOM     29  C   UNL A   1      41.483  22.939  26.031  1.00  0.00     0.251 C 
ATOM     30  H   UNL A   1      40.731  21.093  25.735  1.00  0.00     0.163 HD
ATOM     31  O   UNL A   1      42.515  22.780  25.374  1.00  0.00    -0.269 OA
BRANCH  29  32
ATOM     32  C   UNL A   1      41.308  24.139  26.856  1.00  0.00     0.039 A 
ATOM     33  C   UNL A   1      42.029  24.328  28.036  1.00  0.00     0.014 A 
ATOM     34  C   UNL A   1      40.427  25.114  26.390  1.00  0.00     0.014 A 
ATOM     35  C   UNL A   1      41.915  25.547  28.696  1.00  0.00     0.010 A 
ATOM     36  C   UNL A   1      40.442  26.367  26.947  1.00  0.00     0.010 A 
ATOM     37  C   UNL A   1      41.138  26.577  28.129  1.00  0.00    -0.014 A 
BRANCH  37  38
ATOM     38  C   UNL A   1      41.143  27.916  28.706  1.00  0.00     0.031 A 
ATOM     39  C   UNL A   1      42.281  28.767  28.262  1.00  0.00     0.074 A 
ATOM     40  C   UNL A   1      40.132  28.420  29.447  1.00  0.00     0.049 A 
ATOM     41  N   UNL A   1      43.275  29.167  28.982  1.00  0.00    -0.248 NA
ATOM     42  C   UNL A   1      42.410  29.094  26.834  1.00  0.00     0.031 C 
ATOM     43  C   UNL A   1      38.820  27.836  29.743  1.00  0.00     0.029 A 
ATOM     44  N   UNL A   1      40.052  29.638  30.049  1.00  0.00    -0.354 N 
ATOM     45  C   UNL A   1      44.070  29.949  28.151  1.00  0.00     0.074 A 
ATOM     46  C   UNL A   1      43.577  29.747  26.813  1.00  0.00     0.031 C 
ATOM     47  C   UNL A   1      38.005  28.780  30.268  1.00  0.00     0.029 A 
ATOM     48  C   UNL A   1      38.786  29.978  30.513  1.00  0.00     0.049 A 
ATOM     49  H   UNL A   1      40.831  30.232  30.149  1.00  0.00     0.167 HD
ATOM     50  C   UNL A   1      44.929  30.865  28.678  1.00  0.00     0.037 A 
ATOM     51  C   UNL A   1      38.412  31.161  31.061  1.00  0.00     0.037 A 
ATOM     52  C   UNL A   1      45.151  30.617  30.081  1.00  0.00     0.049 A 
ATOM     53  C   UNL A   1      39.648  31.826  31.544  1.00  0.00     0.074 A 
ATOM     54  C   UNL A   1      45.681  29.566  30.805  1.00  0.00     0.029 A 
ATOM     55  N   UNL A   1      44.437  31.365  30.983  1.00  0.00    -0.354 N 
ATOM     56  N   UNL A   1      40.360  31.381  32.541  1.00  0.00    -0.248 NA
ATOM     57  C   UNL A   1      40.343  32.701  30.615  1.00  0.00     0.031 C 
ATOM     58  C   UNL A   1      44.853  29.464  31.962  1.00  0.00     0.029 A 
ATOM     59  C   UNL A   1      43.923  30.504  31.920  1.00  0.00     0.049 A 
ATOM     60  H   UNL A   1      44.315  32.341  30.963  1.00  0.00     0.167 HD
ATOM     61  C   UNL A   1      41.673  31.540  32.128  1.00  0.00     0.074 A 
ATOM     62  C   UNL A   1      41.603  32.430  30.969  1.00  0.00     0.031 C 
ATOM     63  C   UNL A   1      42.657  30.708  32.580  1.00  0.00     0.037 A 
BRANCH  50  64
ATOM     64  C   UNL A   1      45.270  32.190  28.043  1.00  0.00     0.064 A 
ATOM     65  C   UNL A   1      44.238  33.122  27.808  1.00  0.00     0.173 A 
ATOM     66  C   UNL A   1      46.487  32.446  27.377  1.00  0.00     0.173 A 
ATOM     67  F   UNL A   1      43.035  32.968  28.380  1.00  0.00    -0.203 F 
ATOM     68  C   UNL A   1      44.390  34.177  26.905  1.00  0.00     0.198 A 
ATOM     69  C   UNL A   1      46.650  33.529  26.515  1.00  0.00     0.198 A 
ATOM     70  F   UNL A   1      47.524  31.602  27.437  1.00  0.00    -0.203 F 
ATOM     71  F   UNL A   1      43.342  34.959  26.613  1.00  0.00    -0.200 F 
ATOM     72  C   UNL A   1      45.593  34.374  26.251  1.00  0.00     0.200 A 
ATOM     73  F   UNL A   1      47.818  33.692  25.877  1.00  0.00    -0.200 F 
ATOM     74  F   UNL A   1      45.721  35.342  25.336  1.00  0.00    -0.200 F 
ENDBRANCH  50  64
BRANCH  51  75
ATOM     75  C   UNL A   1      37.129  31.891  30.928  1.00  0.00     0.064 A 
ATOM     76  C   UNL A   1      36.365  32.227  32.059  1.00  0.00     0.173 A 
ATOM     77  C   UNL A   1      36.787  32.540  29.727  1.00  0.00     0.173 A 
ATOM     78  F   UNL A   1      36.653  31.686  33.252  1.00  0.00    -0.203 F 
ATOM     79  C   UNL A   1      35.344  33.183  32.000  1.00  0.00     0.198 A 
ATOM     80  C   UNL A   1      35.766  33.493  29.668  1.00  0.00     0.198 A 
ATOM     81  F   UNL A   1      37.503  32.340  28.611  1.00  0.00    -0.203 F 
ATOM     82  F   UNL A   1      34.685  33.527  33.114  1.00  0.00    -0.200 F 
ATOM     83  C   UNL A   1      35.057  33.826  30.807  1.00  0.00     0.200 A 
ATOM     84  F   UNL A   1      35.526  34.138  28.517  1.00  0.00    -0.200 F 
ATOM     85  F   UNL A   1      34.130  34.793  30.764  1.00  0.00    -0.200 F 
ENDBRANCH  51  75
BRANCH  63  86
ATOM     86  C   UNL A   1      42.325  29.787  33.723  1.00  0.00     0.064 A 
ATOM     87  C   UNL A   1      41.828  28.479  33.573  1.00  0.00     0.173 A 
ATOM     88  C   UNL A   1      42.649  30.203  35.021  1.00  0.00     0.173 A 
ATOM     89  F   UNL A   1      41.584  27.966  32.362  1.00  0.00    -0.203 F 
ATOM     90  C   UNL A   1      41.624  27.650  34.675  1.00  0.00     0.198 A 
ATOM     91  C   UNL A   1      42.482  29.360  36.116  1.00  0.00     0.198 A 
ATOM     92  F   UNL A   1      43.178  31.421  35.222  1.00  0.00    -0.203 F 
ATOM     93  F   UNL A   1      41.134  26.412  34.505  1.00  0.00    -0.200 F 
ATOM     94  C   UNL A   1      41.957  28.089  35.946  1.00  0.00     0.200 A 
ATOM     95  F   UNL A   1      42.852  29.773  37.335  1.00  0.00    -0.200 F 
ATOM     96  F   UNL A   1      41.799  27.280  37.002  1.00  0.00    -0.200 F 
ENDBRANCH  63  86
ENDBRANCH  37  38
ENDBRANCH  29  32
ENDBRANCH  27  28
ENDBRANCH  26  27
ENDBRANCH  25  26
ENDBRANCH  24  25
ENDBRANCH   1  24
TORSDOF 17
ENDMDL
MODEL 3
REMARK VINA RESULT:     -11.3      2.805      8.704
REMARK SMILES Cn1cc(CNC(=O)Cn2ccc(C(=O)NCCCCCCNC(=O)c3ccc(-c4c5nc(c(-c6c(F)c(F)c(F)c(F)c6F)c6ccc([nH]6)c(-c6c(F)c(F)c(F)c(F)c6F)c6nc(c(-c7c(F)c(F)c(F)c(F)c7F)c7ccc4[nH]7)C=C6)C=C5)cc3)n2)cn1
REMARK SMILES IDX 18 1 17 2 16 3 14 4 15 5 13 7 10 8 11 9 89 10 12 11 9 12
REMARK SMILES IDX 7 13 6 14 8 16 5 17 4 18 1 19 2 20 3 21 91 22 90 23 19 24
REMARK SMILES IDX 20 25 21 26 22 27 23 28 24 29 25 31 26 32 27 33 88 34 28 35
REMARK SMILES IDX 87 36 29 37 30 38 31 39 81 40 32 41 86 42 80 43 82 44 33 45
REMARK SMILES IDX 85 46 79 47 78 48 34 50 66 51 46 52 65 53 47 54 50 55 64 56
REMARK SMILES IDX 83 57 48 58 49 59 63 61 84 62 51 63 35 64 36 65 44 66 37 67
REMARK SMILES IDX 38 68 42 69 45 70 39 71 40 72 43 73 41 74 67 75 68 76 76 77
REMARK SMILES IDX 69 78 70 79 74 80 77 81 71 82 72 83 75 84 73 85 52 86 53 87
REMARK SMILES IDX 61 88 54 89 55 90 59 91 62 92 56 93 57 94 60 95 58 96
REMARK H PARENT 16 6 6 15 23 30 82 49 50 60
REMARK Flexibility Score: inf
ROOT
ATOM      1  C   UNL A   1      34.171  28.543  23.852  1.00  0.00     0.021 C 
ENDROOT
BRANCH   1   2
ATOM      2  C   UNL A   1      33.254  28.635  22.632  1.00  0.00     0.116 C 
BRANCH   2   3
ATOM      3  N   UNL A   1      33.441  27.505  21.753  1.00  0.00    -0.351 N 
ATOM      4  C   UNL A   1      32.855  26.264  21.689  1.00  0.00     0.271 C 
ATOM      5  O   UNL A   1      33.221  25.558  20.745  1.00  0.00    -0.267 OA
ATOM      6  H   UNL A   1      34.126  27.653  21.061  1.00  0.00     0.163 HD
BRANCH   4   7
ATOM      7  C   UNL A   1      31.848  25.805  22.674  1.00  0.00     0.150 A 
ATOM      8  N   UNL A   1      31.034  24.542  24.208  1.00  0.00    -0.263 N 
ATOM      9  C   UNL A   1      30.099  25.515  24.042  1.00  0.00     0.110 A 
ATOM     10  N   UNL A   1      32.078  24.673  23.374  1.00  0.00    -0.167 NA
ATOM     11  C   UNL A   1      30.603  26.359  23.084  1.00  0.00     0.056 A 
BRANCH   8  12
ATOM     12  C   UNL A   1      31.006  23.414  25.122  1.00  0.00     0.243 C 
BRANCH  12  13
ATOM     13  C   UNL A   1      31.875  23.634  26.337  1.00  0.00     0.241 C 
ATOM     14  N   UNL A   1      33.138  23.116  26.371  1.00  0.00    -0.350 N 
ATOM     15  H   UNL A   1      33.642  23.275  27.201  1.00  0.00     0.163 HD
ATOM     16  O   UNL A   1      31.468  24.259  27.317  1.00  0.00    -0.273 OA
BRANCH  14  17
ATOM     17  C   UNL A   1      33.832  22.364  25.347  1.00  0.00     0.155 C 
BRANCH  17  18
ATOM     18  C   UNL A   1      35.284  22.564  25.549  1.00  0.00     0.009 A 
ATOM     19  C   UNL A   1      38.788  21.757  25.791  1.00  0.00     0.173 C 
ATOM     20  N   UNL A   1      37.456  22.304  25.739  1.00  0.00    -0.275 N 
ATOM     21  C   UNL A   1      36.304  21.640  25.438  1.00  0.00     0.113 A 
ATOM     22  N   UNL A   1      37.264  23.602  26.026  1.00  0.00    -0.181 NA
ATOM     23  C   UNL A   1      35.946  23.761  25.906  1.00  0.00     0.140 A 
ENDBRANCH  17  18
ENDBRANCH  14  17
ENDBRANCH  12  13
ENDBRANCH   8  12
ENDBRANCH   4   7
ENDBRANCH   2   3
ENDBRANCH   1   2
BRANCH   1  24
ATOM     24  C   UNL A   1      33.410  28.368  25.173  1.00  0.00     0.002 C 
BRANCH  24  25
ATOM     25  C   UNL A   1      32.373  29.460  25.493  1.00  0.00     0.002 C 
BRANCH  25  26
ATOM     26  C   UNL A   1      32.523  30.158  26.852  1.00  0.00     0.021 C 
BRANCH  26  27
ATOM     27  C   UNL A   1      33.967  30.297  27.302  1.00  0.00     0.116 C 
BRANCH  27  28
ATOM     28  N   UNL A   1      34.411  31.690  27.312  1.00  0.00    -0.352 N 
ATOM     29  C   UNL A   1      35.465  32.232  28.012  1.00  0.00     0.251 C 
ATOM     30  H   UNL A   1      33.896  32.315  26.752  1.00  0.00     0.163 HD
ATOM     31  O   UNL A   1      35.521  33.441  28.251  1.00  0.00    -0.269 OA
BRANCH  29  32
ATOM     32  C   UNL A   1      36.534  31.337  28.468  1.00  0.00     0.039 A 
ATOM     33  C   UNL A   1      36.457  29.955  28.291  1.00  0.00     0.014 A 
ATOM     34  C   UNL A   1      37.661  31.925  29.043  1.00  0.00     0.014 A 
ATOM     35  C   UNL A   1      37.564  29.180  28.623  1.00  0.00     0.010 A 
ATOM     36  C   UNL A   1      38.802  31.185  29.214  1.00  0.00     0.010 A 
ATOM     37  C   UNL A   1      38.748  29.807  29.059  1.00  0.00    -0.014 A 
BRANCH  37  38
ATOM     38  C   UNL A   1      39.973  29.037  29.244  1.00  0.00     0.031 A 
ATOM     39  C   UNL A   1      40.319  28.775  30.668  1.00  0.00     0.074 A 
ATOM     40  C   UNL A   1      40.659  28.461  28.234  1.00  0.00     0.049 A 
ATOM     41  N   UNL A   1      41.312  29.271  31.327  1.00  0.00    -0.248 NA
ATOM     42  C   UNL A   1      39.387  27.992  31.495  1.00  0.00     0.031 C 
ATOM     43  C   UNL A   1      40.313  28.372  26.811  1.00  0.00     0.029 A 
ATOM     44  N   UNL A   1      41.819  27.751  28.297  1.00  0.00    -0.354 N 
ATOM     45  C   UNL A   1      41.244  28.727  32.605  1.00  0.00     0.074 A 
ATOM     46  C   UNL A   1      39.964  28.072  32.698  1.00  0.00     0.031 C 
ATOM     47  C   UNL A   1      41.115  27.469  26.199  1.00  0.00     0.029 A 
ATOM     48  C   UNL A   1      42.142  27.055  27.137  1.00  0.00     0.049 A 
ATOM     49  H   UNL A   1      42.386  27.732  29.102  1.00  0.00     0.167 HD
ATOM     50  C   UNL A   1      42.351  28.683  33.398  1.00  0.00     0.037 A 
ATOM     51  C   UNL A   1      43.182  26.202  26.964  1.00  0.00     0.037 A 
ATOM     52  C   UNL A   1      43.374  29.571  32.905  1.00  0.00     0.049 A 
ATOM     53  C   UNL A   1      44.182  26.519  28.014  1.00  0.00     0.074 A 
ATOM     54  C   UNL A   1      43.456  30.936  32.706  1.00  0.00     0.029 A 
ATOM     55  N   UNL A   1      44.385  29.025  32.153  1.00  0.00    -0.354 N 
ATOM     56  N   UNL A   1      44.863  27.630  28.046  1.00  0.00    -0.248 NA
ATOM     57  C   UNL A   1      44.070  25.813  29.280  1.00  0.00     0.031 C 
ATOM     58  C   UNL A   1      44.166  31.085  31.477  1.00  0.00     0.029 A 
ATOM     59  C   UNL A   1      44.546  29.815  31.042  1.00  0.00     0.049 A 
ATOM     60  H   UNL A   1      44.901  28.216  32.372  1.00  0.00     0.167 HD
ATOM     61  C   UNL A   1      44.873  27.992  29.383  1.00  0.00     0.074 A 
ATOM     62  C   UNL A   1      44.439  26.796  30.106  1.00  0.00     0.031 C 
ATOM     63  C   UNL A   1      44.949  29.304  29.754  1.00  0.00     0.037 A 
BRANCH  50  64
ATOM     64  C   UNL A   1      42.661  27.583  34.382  1.00  0.00     0.064 A 
ATOM     65  C   UNL A   1      43.203  26.371  33.906  1.00  0.00     0.173 A 
ATOM     66  C   UNL A   1      42.160  27.551  35.701  1.00  0.00     0.173 A 
ATOM     67  F   UNL A   1      43.694  26.285  32.661  1.00  0.00    -0.203 F 
ATOM     68  C   UNL A   1      43.162  25.198  34.663  1.00  0.00     0.198 A 
ATOM     69  C   UNL A   1      42.167  26.390  36.471  1.00  0.00     0.198 A 
ATOM     70  F   UNL A   1      41.541  28.600  36.254  1.00  0.00    -0.203 F 
ATOM     71  F   UNL A   1      43.567  24.041  34.120  1.00  0.00    -0.200 F 
ATOM     72  C   UNL A   1      42.635  25.205  35.941  1.00  0.00     0.200 A 
ATOM     73  F   UNL A   1      41.635  26.414  37.701  1.00  0.00    -0.200 F 
ATOM     74  F   UNL A   1      42.532  24.070  36.644  1.00  0.00    -0.200 F 
ENDBRANCH  50  64
BRANCH  51  75
ATOM     75  C   UNL A   1      43.246  24.952  26.171  1.00  0.00     0.064 A 
ATOM     76  C   UNL A   1      44.246  24.758  25.203  1.00  0.00     0.173 A 
ATOM     77  C   UNL A   1      42.524  23.809  26.561  1.00  0.00     0.173 A 
ATOM     78  F   UNL A   1      45.009  25.787  24.806  1.00  0.00    -0.203 F 
ATOM     79  C   UNL A   1      44.532  23.489  24.684  1.00  0.00     0.198 A 
ATOM     80  C   UNL A   1      42.809  22.543  26.042  1.00  0.00     0.198 A 
ATOM     81  F   UNL A   1      41.599  23.880  27.530  1.00  0.00    -0.203 F 
ATOM     82  F   UNL A   1      45.540  23.334  23.815  1.00  0.00    -0.200 F 
ATOM     83  C   UNL A   1      43.823  22.381  25.117  1.00  0.00     0.200 A 
ATOM     84  F   UNL A   1      42.142  21.473  26.499  1.00  0.00    -0.200 F 
ATOM     85  F   UNL A   1      44.143  21.156  24.676  1.00  0.00    -0.200 F 
ENDBRANCH  51  75
BRANCH  63  86
ATOM     86  C   UNL A   1      45.276  30.316  28.689  1.00  0.00     0.064 A 
ATOM     87  C   UNL A   1      44.321  30.944  27.868  1.00  0.00     0.173 A 
ATOM     88  C   UNL A   1      46.600  30.764  28.589  1.00  0.00     0.173 A 
ATOM     89  F   UNL A   1      43.020  30.648  27.967  1.00  0.00    -0.203 F 
ATOM     90  C   UNL A   1      44.687  31.937  26.960  1.00  0.00     0.198 A 
ATOM     91  C   UNL A   1      46.957  31.781  27.709  1.00  0.00     0.198 A 
ATOM     92  F   UNL A   1      47.547  30.241  29.384  1.00  0.00    -0.203 F 
ATOM     93  F   UNL A   1      43.759  32.508  26.177  1.00  0.00    -0.200 F 
ATOM     94  C   UNL A   1      46.004  32.359  26.886  1.00  0.00     0.200 A 
ATOM     95  F   UNL A   1      48.222  32.220  27.678  1.00  0.00    -0.200 F 
ATOM     96  F   UNL A   1      46.351  33.340  26.041  1.00  0.00    -0.200 F 
ENDBRANCH  63  86
ENDBRANCH  37  38
ENDBRANCH  29  32
ENDBRANCH  27  28
ENDBRANCH  26  27
ENDBRANCH  25  26
ENDBRANCH  24  25
ENDBRANCH   1  24
TORSDOF 17
ENDMDL
