MODEL 1
REMARK VINA RESULT:     -11.8      0.000      0.000
REMARK SMILES Cc1nc2scc(-c3cccs3)c2c(=O)n1CC(=O)NCCCCCCNC(=O)c1ccc(-c2c3nc(c(-c4c(F)c(F)c(F)c(F)c4F)c4ccc([nH]4)c(-c4c(F)c(F)c(F)c(F)c4F)c4nc(c(-c5c(F)c(F)c(F)c(F)c5F)c5ccc2[nH]5)C=C4)C=C3)cc1
REMARK SMILES IDX 23 1 22 2 21 3 20 4 18 5 19 6 17 8 16 9 1 10 2 11 3 12 4 13
REMARK SMILES IDX 14 14 5 15 13 16 15 17 6 18 7 19 8 20 9 21 12 22 10 23 11 24
REMARK SMILES IDX 24 25 25 26 26 27 27 28 28 29 29 31 30 32 31 33 92 34 32 35
REMARK SMILES IDX 91 36 33 37 34 38 35 39 85 40 36 41 90 42 84 43 86 44 37 45
REMARK SMILES IDX 89 46 83 47 82 48 38 50 70 51 50 52 69 53 51 54 54 55 68 56
REMARK SMILES IDX 87 57 52 58 53 59 67 61 88 62 55 63 39 64 40 65 48 66 41 67
REMARK SMILES IDX 42 68 46 69 49 70 43 71 44 72 47 73 45 74 71 75 72 76 80 77
REMARK SMILES IDX 73 78 74 79 78 80 81 81 75 82 76 83 79 84 77 85 56 86 57 87
REMARK SMILES IDX 65 88 58 89 59 90 63 91 66 92 60 93 61 94 64 95 62 96
REMARK H PARENT 20 7 27 30 86 49 54 60
REMARK Flexibility Score: inf
ROOT
ATOM      1  C   UNL A   1      39.684  22.235  26.452  1.00  0.00     0.002 C 
ENDROOT
BRANCH   1   2
ATOM      2  C   UNL A   1      39.064  23.634  26.505  1.00  0.00     0.021 C 
BRANCH   2   3
ATOM      3  C   UNL A   1      37.589  23.670  26.125  1.00  0.00     0.116 C 
BRANCH   3   4
ATOM      4  N   UNL A   1      37.360  23.332  24.739  1.00  0.00    -0.355 N 
ATOM      5  C   UNL A   1      36.248  22.849  24.116  1.00  0.00     0.240 C 
ATOM      6  O   UNL A   1      36.213  22.955  22.885  1.00  0.00    -0.273 OA
ATOM      7  H   UNL A   1      38.134  23.473  24.148  1.00  0.00     0.163 HD
BRANCH   5   8
ATOM      8  C   UNL A   1      35.011  22.373  24.893  1.00  0.00     0.227 C 
BRANCH   8   9
ATOM      9  N   UNL A   1      33.755  23.004  24.485  1.00  0.00    -0.287 N 
ATOM     10  C   UNL A   1      32.842  20.875  23.500  1.00  0.00     0.088 C 
ATOM     11  C   UNL A   1      32.728  22.354  23.816  1.00  0.00     0.110 A 
ATOM     12  N   UNL A   1      31.627  22.929  23.441  1.00  0.00    -0.224 NA
ATOM     13  C   UNL A   1      31.492  24.228  23.793  1.00  0.00     0.131 A 
ATOM     14  C   UNL A   1      33.622  24.339  24.912  1.00  0.00     0.263 A 
ATOM     15  S   UNL A   1      30.063  25.080  23.426  1.00  0.00    -0.123 S 
ATOM     16  C   UNL A   1      32.394  24.993  24.499  1.00  0.00     0.085 A 
ATOM     17  O   UNL A   1      34.473  24.895  25.595  1.00  0.00    -0.268 OA
ATOM     18  C   UNL A   1      30.596  26.451  24.292  1.00  0.00     0.077 A 
ATOM     19  C   UNL A   1      31.881  26.305  24.780  1.00  0.00     0.017 A 
BRANCH  19  20
ATOM     20  C   UNL A   1      32.551  27.422  25.533  1.00  0.00     0.036 A 
ATOM     21  C   UNL A   1      32.387  27.688  26.875  1.00  0.00     0.020 A 
ATOM     22  S   UNL A   1      33.654  28.518  24.810  1.00  0.00    -0.144 S 
ATOM     23  C   UNL A   1      33.130  28.832  27.299  1.00  0.00     0.012 A 
ATOM     24  C   UNL A   1      33.823  29.408  26.259  1.00  0.00     0.065 A 
ENDBRANCH  19  20
ENDBRANCH   8   9
ENDBRANCH   5   8
ENDBRANCH   3   4
ENDBRANCH   2   3
ENDBRANCH   1   2
BRANCH   1  25
ATOM     25  C   UNL A   1      40.639  21.883  27.605  1.00  0.00     0.002 C 
BRANCH  25  26
ATOM     26  C   UNL A   1      41.537  20.652  27.405  1.00  0.00     0.021 C 
BRANCH  26  27
ATOM     27  C   UNL A   1      41.640  20.204  25.958  1.00  0.00     0.116 C 
BRANCH  27  28
ATOM     28  N   UNL A   1      43.027  19.985  25.538  1.00  0.00    -0.352 N 
ATOM     29  C   UNL A   1      43.990  20.920  25.196  1.00  0.00     0.251 C 
ATOM     30  H   UNL A   1      43.313  19.044  25.491  1.00  0.00     0.163 HD
ATOM     31  O   UNL A   1      44.964  20.615  24.531  1.00  0.00    -0.269 OA
BRANCH  29  32
ATOM     32  C   UNL A   1      43.820  22.298  25.685  1.00  0.00     0.039 A 
ATOM     33  C   UNL A   1      43.032  23.245  25.023  1.00  0.00     0.014 A 
ATOM     34  C   UNL A   1      44.474  22.618  26.867  1.00  0.00     0.014 A 
ATOM     35  C   UNL A   1      42.887  24.506  25.598  1.00  0.00     0.010 A 
ATOM     36  C   UNL A   1      44.123  23.741  27.548  1.00  0.00     0.010 A 
ATOM     37  C   UNL A   1      43.446  24.736  26.863  1.00  0.00    -0.014 A 
BRANCH  37  38
ATOM     38  C   UNL A   1      43.308  25.992  27.576  1.00  0.00     0.031 A 
ATOM     39  C   UNL A   1      44.290  27.021  27.159  1.00  0.00     0.074 A 
ATOM     40  C   UNL A   1      42.198  26.260  28.302  1.00  0.00     0.049 A 
ATOM     41  N   UNL A   1      45.253  27.523  27.855  1.00  0.00    -0.248 NA
ATOM     42  C   UNL A   1      44.307  27.422  25.740  1.00  0.00     0.031 C 
ATOM     43  C   UNL A   1      40.998  25.424  28.474  1.00  0.00     0.029 A 
ATOM     44  N   UNL A   1      41.854  27.397  28.961  1.00  0.00    -0.354 N 
ATOM     45  C   UNL A   1      45.856  28.467  27.029  1.00  0.00     0.074 A 
ATOM     46  C   UNL A   1      45.393  28.194  25.695  1.00  0.00     0.031 C 
ATOM     47  C   UNL A   1      39.993  26.163  28.995  1.00  0.00     0.029 A 
ATOM     48  C   UNL A   1      40.518  27.465  29.353  1.00  0.00     0.049 A 
ATOM     49  H   UNL A   1      42.499  28.117  29.147  1.00  0.00     0.167 HD
ATOM     50  C   UNL A   1      46.442  29.578  27.555  1.00  0.00     0.037 A 
ATOM     51  C   UNL A   1      39.901  28.540  29.908  1.00  0.00     0.037 A 
ATOM     52  C   UNL A   1      46.661  29.417  28.971  1.00  0.00     0.049 A 
ATOM     53  C   UNL A   1      40.976  29.425  30.420  1.00  0.00     0.074 A 
ATOM     54  C   UNL A   1      47.404  28.556  29.753  1.00  0.00     0.029 A 
ATOM     55  N   UNL A   1      45.723  29.973  29.805  1.00  0.00    -0.354 N 
ATOM     56  N   UNL A   1      41.768  29.109  31.406  1.00  0.00    -0.248 NA
ATOM     57  C   UNL A   1      41.457  30.474  29.538  1.00  0.00     0.031 C 
ATOM     58  C   UNL A   1      46.597  28.306  30.904  1.00  0.00     0.029 A 
ATOM     59  C   UNL A   1      45.440  29.081  30.806  1.00  0.00     0.049 A 
ATOM     60  H   UNL A   1      45.321  30.865  29.700  1.00  0.00     0.167 HD
ATOM     61  C   UNL A   1      43.009  29.603  31.031  1.00  0.00     0.074 A 
ATOM     62  C   UNL A   1      42.734  30.519  29.926  1.00  0.00     0.031 C 
ATOM     63  C   UNL A   1      44.152  28.990  31.457  1.00  0.00     0.037 A 
BRANCH  50  64
ATOM     64  C   UNL A   1      46.436  30.937  26.893  1.00  0.00     0.064 A 
ATOM     65  C   UNL A   1      47.627  31.688  26.865  1.00  0.00     0.173 A 
ATOM     66  C   UNL A   1      45.265  31.647  26.541  1.00  0.00     0.173 A 
ATOM     67  F   UNL A   1      48.795  31.131  27.217  1.00  0.00    -0.203 F 
ATOM     68  C   UNL A   1      47.634  33.053  26.560  1.00  0.00     0.198 A 
ATOM     69  C   UNL A   1      45.285  32.992  26.180  1.00  0.00     0.198 A 
ATOM     70  F   UNL A   1      44.044  31.111  26.642  1.00  0.00    -0.203 F 
ATOM     71  F   UNL A   1      48.772  33.752  26.664  1.00  0.00    -0.200 F 
ATOM     72  C   UNL A   1      46.462  33.704  26.216  1.00  0.00     0.200 A 
ATOM     73  F   UNL A   1      44.133  33.608  25.876  1.00  0.00    -0.200 F 
ATOM     74  F   UNL A   1      46.458  35.020  25.973  1.00  0.00    -0.200 F 
ENDBRANCH  50  64
BRANCH  51  75
ATOM     75  C   UNL A   1      38.508  29.026  29.754  1.00  0.00     0.064 A 
ATOM     76  C   UNL A   1      37.726  29.327  30.885  1.00  0.00     0.173 A 
ATOM     77  C   UNL A   1      38.032  29.511  28.522  1.00  0.00     0.173 A 
ATOM     78  F   UNL A   1      38.124  28.930  32.103  1.00  0.00    -0.203 F 
ATOM     79  C   UNL A   1      36.573  30.113  30.797  1.00  0.00     0.198 A 
ATOM     80  C   UNL A   1      36.876  30.291  28.435  1.00  0.00     0.198 A 
ATOM     81  F   UNL A   1      38.736  29.330  27.396  1.00  0.00    -0.203 F 
ATOM     82  F   UNL A   1      35.903  30.447  31.910  1.00  0.00    -0.200 F 
ATOM     83  C   UNL A   1      36.159  30.610  29.573  1.00  0.00     0.200 A 
ATOM     84  F   UNL A   1      36.501  30.793  27.251  1.00  0.00    -0.200 F 
ATOM     85  F   UNL A   1      35.101  31.430  29.496  1.00  0.00    -0.200 F 
ENDBRANCH  51  75
BRANCH  63  86
ATOM     86  C   UNL A   1      44.026  27.978  32.566  1.00  0.00     0.064 A 
ATOM     87  C   UNL A   1      43.900  26.591  32.368  1.00  0.00     0.173 A 
ATOM     88  C   UNL A   1      44.185  28.424  33.883  1.00  0.00     0.173 A 
ATOM     89  F   UNL A   1      43.828  26.072  31.138  1.00  0.00    -0.203 F 
ATOM     90  C   UNL A   1      43.905  25.700  33.443  1.00  0.00     0.198 A 
ATOM     91  C   UNL A   1      44.225  27.532  34.951  1.00  0.00     0.198 A 
ATOM     92  F   UNL A   1      44.355  29.732  34.131  1.00  0.00    -0.203 F 
ATOM     93  F   UNL A   1      43.776  24.382  33.226  1.00  0.00    -0.200 F 
ATOM     94  C   UNL A   1      44.077  26.172  34.731  1.00  0.00     0.200 A 
ATOM     95  F   UNL A   1      44.439  27.990  36.192  1.00  0.00    -0.200 F 
ATOM     96  F   UNL A   1      44.129  25.315  35.762  1.00  0.00    -0.200 F 
ENDBRANCH  63  86
ENDBRANCH  37  38
ENDBRANCH  29  32
ENDBRANCH  27  28
ENDBRANCH  26  27
ENDBRANCH  25  26
ENDBRANCH   1  25
TORSDOF 15
ENDMDL
MODEL 2
REMARK VINA RESULT:     -11.6      2.970      8.561
REMARK SMILES Cc1nc2scc(-c3cccs3)c2c(=O)n1CC(=O)NCCCCCCNC(=O)c1ccc(-c2c3nc(c(-c4c(F)c(F)c(F)c(F)c4F)c4ccc([nH]4)c(-c4c(F)c(F)c(F)c(F)c4F)c4nc(c(-c5c(F)c(F)c(F)c(F)c5F)c5ccc2[nH]5)C=C4)C=C3)cc1
REMARK SMILES IDX 23 1 22 2 21 3 20 4 18 5 19 6 17 8 16 9 1 10 2 11 3 12 4 13
REMARK SMILES IDX 14 14 5 15 13 16 15 17 6 18 7 19 8 20 9 21 12 22 10 23 11 24
REMARK SMILES IDX 24 25 25 26 26 27 27 28 28 29 29 31 30 32 31 33 92 34 32 35
REMARK SMILES IDX 91 36 33 37 34 38 35 39 85 40 36 41 90 42 84 43 86 44 37 45
REMARK SMILES IDX 89 46 83 47 82 48 38 50 70 51 50 52 69 53 51 54 54 55 68 56
REMARK SMILES IDX 87 57 52 58 53 59 67 61 88 62 55 63 39 64 40 65 48 66 41 67
REMARK SMILES IDX 42 68 46 69 49 70 43 71 44 72 47 73 45 74 71 75 72 76 80 77
REMARK SMILES IDX 73 78 74 79 78 80 81 81 75 82 76 83 79 84 77 85 56 86 57 87
REMARK SMILES IDX 65 88 58 89 59 90 63 91 66 92 60 93 61 94 64 95 62 96
REMARK H PARENT 20 7 27 30 86 49 54 60
REMARK Flexibility Score: inf
ROOT
ATOM      1  C   UNL A   1      33.510  28.086  26.301  1.00  0.00     0.002 C 
ENDROOT
BRANCH   1   2
ATOM      2  C   UNL A   1      32.503  28.863  25.446  1.00  0.00     0.021 C 
BRANCH   2   3
ATOM      3  C   UNL A   1      32.880  28.946  23.972  1.00  0.00     0.116 C 
BRANCH   3   4
ATOM      4  N   UNL A   1      31.769  29.328  23.131  1.00  0.00    -0.355 N 
ATOM      5  C   UNL A   1      30.923  28.568  22.379  1.00  0.00     0.240 C 
ATOM      6  O   UNL A   1      29.869  29.103  22.021  1.00  0.00    -0.273 OA
ATOM      7  H   UNL A   1      31.594  30.296  23.096  1.00  0.00     0.163 HD
BRANCH   5   8
ATOM      8  C   UNL A   1      31.157  27.068  22.141  1.00  0.00     0.227 C 
BRANCH   8   9
ATOM      9  N   UNL A   1      31.089  26.242  23.347  1.00  0.00    -0.287 N 
ATOM     10  C   UNL A   1      28.643  26.722  23.705  1.00  0.00     0.088 C 
ATOM     11  C   UNL A   1      29.949  26.070  24.119  1.00  0.00     0.110 A 
ATOM     12  N   UNL A   1      29.905  25.351  25.199  1.00  0.00    -0.224 NA
ATOM     13  C   UNL A   1      31.049  24.706  25.523  1.00  0.00     0.131 A 
ATOM     14  C   UNL A   1      32.277  25.542  23.629  1.00  0.00     0.263 A 
ATOM     15  S   UNL A   1      31.104  23.671  26.876  1.00  0.00    -0.123 S 
ATOM     16  C   UNL A   1      32.240  24.734  24.833  1.00  0.00     0.085 A 
ATOM     17  O   UNL A   1      33.259  25.601  22.898  1.00  0.00    -0.268 OA
ATOM     18  C   UNL A   1      32.693  23.177  26.498  1.00  0.00     0.077 A 
ATOM     19  C   UNL A   1      33.216  23.852  25.411  1.00  0.00     0.017 A 
BRANCH  19  20
ATOM     20  C   UNL A   1      34.623  23.592  24.945  1.00  0.00     0.036 A 
ATOM     21  C   UNL A   1      35.764  24.074  25.550  1.00  0.00     0.020 A 
ATOM     22  S   UNL A   1      35.001  22.617  23.587  1.00  0.00    -0.144 S 
ATOM     23  C   UNL A   1      36.952  23.683  24.861  1.00  0.00     0.012 A 
ATOM     24  C   UNL A   1      36.674  22.929  23.744  1.00  0.00     0.065 A 
ENDBRANCH  19  20
ENDBRANCH   8   9
ENDBRANCH   5   8
ENDBRANCH   3   4
ENDBRANCH   2   3
ENDBRANCH   1   2
BRANCH   1  25
ATOM     25  C   UNL A   1      34.424  28.940  27.197  1.00  0.00     0.002 C 
BRANCH  25  26
ATOM     26  C   UNL A   1      33.898  30.329  27.592  1.00  0.00     0.021 C 
BRANCH  26  27
ATOM     27  C   UNL A   1      34.975  31.399  27.626  1.00  0.00     0.116 C 
BRANCH  27  28
ATOM     28  N   UNL A   1      34.866  32.264  28.804  1.00  0.00    -0.352 N 
ATOM     29  C   UNL A   1      35.427  32.098  30.060  1.00  0.00     0.251 C 
ATOM     30  H   UNL A   1      34.318  33.073  28.687  1.00  0.00     0.163 HD
ATOM     31  O   UNL A   1      34.982  32.673  31.036  1.00  0.00    -0.269 OA
BRANCH  29  32
ATOM     32  C   UNL A   1      36.605  31.222  30.180  1.00  0.00     0.039 A 
ATOM     33  C   UNL A   1      36.505  29.835  30.323  1.00  0.00     0.014 A 
ATOM     34  C   UNL A   1      37.844  31.845  30.128  1.00  0.00     0.014 A 
ATOM     35  C   UNL A   1      37.679  29.087  30.370  1.00  0.00     0.010 A 
ATOM     36  C   UNL A   1      38.962  31.101  29.911  1.00  0.00     0.010 A 
ATOM     37  C   UNL A   1      38.902  29.742  30.166  1.00  0.00    -0.014 A 
BRANCH  37  38
ATOM     38  C   UNL A   1      40.179  29.052  30.140  1.00  0.00     0.031 A 
ATOM     39  C   UNL A   1      40.784  28.874  31.481  1.00  0.00     0.074 A 
ATOM     40  C   UNL A   1      40.583  28.383  29.036  1.00  0.00     0.049 A 
ATOM     41  N   UNL A   1      41.862  29.412  31.940  1.00  0.00    -0.248 NA
ATOM     42  C   UNL A   1      40.006  28.137  32.495  1.00  0.00     0.031 C 
ATOM     43  C   UNL A   1      39.865  28.205  27.763  1.00  0.00     0.029 A 
ATOM     44  N   UNL A   1      41.691  27.618  28.851  1.00  0.00    -0.354 N 
ATOM     45  C   UNL A   1      42.015  28.901  33.226  1.00  0.00     0.074 A 
ATOM     46  C   UNL A   1      40.748  28.326  33.587  1.00  0.00     0.031 C 
ATOM     47  C   UNL A   1      40.446  27.222  27.040  1.00  0.00     0.029 A 
ATOM     48  C   UNL A   1      41.667  26.820  27.708  1.00  0.00     0.049 A 
ATOM     49  H   UNL A   1      42.452  27.627  29.475  1.00  0.00     0.167 HD
ATOM     50  C   UNL A   1      43.254  28.726  33.761  1.00  0.00     0.037 A 
ATOM     51  C   UNL A   1      42.587  25.881  27.369  1.00  0.00     0.037 A 
ATOM     52  C   UNL A   1      44.243  29.458  33.009  1.00  0.00     0.049 A 
ATOM     53  C   UNL A   1      43.803  26.176  28.166  1.00  0.00     0.074 A 
ATOM     54  C   UNL A   1      44.466  30.789  32.726  1.00  0.00     0.029 A 
ATOM     55  N   UNL A   1      44.955  28.746  32.075  1.00  0.00    -0.354 N 
ATOM     56  N   UNL A   1      44.533  27.245  28.011  1.00  0.00    -0.248 NA
ATOM     57  C   UNL A   1      43.949  25.494  29.441  1.00  0.00     0.031 C 
ATOM     58  C   UNL A   1      44.935  30.811  31.377  1.00  0.00     0.029 A 
ATOM     59  C   UNL A   1      45.047  29.494  30.930  1.00  0.00     0.049 A 
ATOM     60  H   UNL A   1      45.335  27.848  32.207  1.00  0.00     0.167 HD
ATOM     61  C   UNL A   1      44.898  27.610  29.297  1.00  0.00     0.074 A 
ATOM     62  C   UNL A   1      44.598  26.442  30.123  1.00  0.00     0.031 C 
ATOM     63  C   UNL A   1      45.124  28.921  29.604  1.00  0.00     0.037 A 
BRANCH  50  64
ATOM     64  C   UNL A   1      43.628  27.589  34.686  1.00  0.00     0.064 A 
ATOM     65  C   UNL A   1      43.573  26.268  34.202  1.00  0.00     0.173 A 
ATOM     66  C   UNL A   1      43.764  27.714  36.087  1.00  0.00     0.173 A 
ATOM     67  F   UNL A   1      43.406  26.027  32.893  1.00  0.00    -0.203 F 
ATOM     68  C   UNL A   1      43.598  25.164  35.059  1.00  0.00     0.198 A 
ATOM     69  C   UNL A   1      43.849  26.610  36.933  1.00  0.00     0.198 A 
ATOM     70  F   UNL A   1      43.704  28.895  36.712  1.00  0.00    -0.203 F 
ATOM     71  F   UNL A   1      43.421  23.932  34.563  1.00  0.00    -0.200 F 
ATOM     72  C   UNL A   1      43.738  25.336  36.425  1.00  0.00     0.200 A 
ATOM     73  F   UNL A   1      43.958  26.802  38.256  1.00  0.00    -0.200 F 
ATOM     74  F   UNL A   1      43.711  24.284  37.253  1.00  0.00    -0.200 F 
ENDBRANCH  50  64
BRANCH  51  75
ATOM     75  C   UNL A   1      42.414  24.581  26.675  1.00  0.00     0.064 A 
ATOM     76  C   UNL A   1      43.209  24.253  25.562  1.00  0.00     0.173 A 
ATOM     77  C   UNL A   1      41.712  23.519  27.274  1.00  0.00     0.173 A 
ATOM     78  F   UNL A   1      43.936  25.200  24.951  1.00  0.00    -0.203 F 
ATOM     79  C   UNL A   1      43.340  22.935  25.111  1.00  0.00     0.198 A 
ATOM     80  C   UNL A   1      41.839  22.204  26.818  1.00  0.00     0.198 A 
ATOM     81  F   UNL A   1      40.976  23.717  28.376  1.00  0.00    -0.203 F 
ATOM     82  F   UNL A   1      44.173  22.653  24.099  1.00  0.00    -0.200 F 
ATOM     83  C   UNL A   1      42.668  21.909  25.752  1.00  0.00     0.200 A 
ATOM     84  F   UNL A   1      41.209  21.214  27.464  1.00  0.00    -0.200 F 
ATOM     85  F   UNL A   1      42.854  20.636  25.374  1.00  0.00    -0.200 F 
ENDBRANCH  51  75
BRANCH  63  86
ATOM     86  C   UNL A   1      45.261  29.889  28.458  1.00  0.00     0.064 A 
ATOM     87  C   UNL A   1      44.193  30.610  27.892  1.00  0.00     0.173 A 
ATOM     88  C   UNL A   1      46.551  30.203  28.013  1.00  0.00     0.173 A 
ATOM     89  F   UNL A   1      42.938  30.433  28.317  1.00  0.00    -0.203 F 
ATOM     90  C   UNL A   1      44.409  31.576  26.909  1.00  0.00     0.198 A 
ATOM     91  C   UNL A   1      46.768  31.193  27.059  1.00  0.00     0.198 A 
ATOM     92  F   UNL A   1      47.612  29.581  28.549  1.00  0.00    -0.203 F 
ATOM     93  F   UNL A   1      43.372  32.244  26.381  1.00  0.00    -0.200 F 
ATOM     94  C   UNL A   1      45.697  31.873  26.501  1.00  0.00     0.200 A 
ATOM     95  F   UNL A   1      48.020  31.508  26.702  1.00  0.00    -0.200 F 
ATOM     96  F   UNL A   1      45.912  32.834  25.591  1.00  0.00    -0.200 F 
ENDBRANCH  63  86
ENDBRANCH  37  38
ENDBRANCH  29  32
ENDBRANCH  27  28
ENDBRANCH  26  27
ENDBRANCH  25  26
ENDBRANCH   1  25
TORSDOF 15
ENDMDL
MODEL 3
REMARK VINA RESULT:     -11.5      2.295      2.995
REMARK SMILES Cc1nc2scc(-c3cccs3)c2c(=O)n1CC(=O)NCCCCCCNC(=O)c1ccc(-c2c3nc(c(-c4c(F)c(F)c(F)c(F)c4F)c4ccc([nH]4)c(-c4c(F)c(F)c(F)c(F)c4F)c4nc(c(-c5c(F)c(F)c(F)c(F)c5F)c5ccc2[nH]5)C=C4)C=C3)cc1
REMARK SMILES IDX 23 1 22 2 21 3 20 4 18 5 19 6 17 8 16 9 1 10 2 11 3 12 4 13
REMARK SMILES IDX 14 14 5 15 13 16 15 17 6 18 7 19 8 20 9 21 12 22 10 23 11 24
REMARK SMILES IDX 24 25 25 26 26 27 27 28 28 29 29 31 30 32 31 33 92 34 32 35
REMARK SMILES IDX 91 36 33 37 34 38 35 39 85 40 36 41 90 42 84 43 86 44 37 45
REMARK SMILES IDX 89 46 83 47 82 48 38 50 70 51 50 52 69 53 51 54 54 55 68 56
REMARK SMILES IDX 87 57 52 58 53 59 67 61 88 62 55 63 39 64 40 65 48 66 41 67
REMARK SMILES IDX 42 68 46 69 49 70 43 71 44 72 47 73 45 74 71 75 72 76 80 77
REMARK SMILES IDX 73 78 74 79 78 80 81 81 75 82 76 83 79 84 77 85 56 86 57 87
REMARK SMILES IDX 65 88 58 89 59 90 63 91 66 92 60 93 61 94 64 95 62 96
REMARK H PARENT 20 7 27 30 86 49 54 60
REMARK Flexibility Score: inf
ROOT
ATOM      1  C   UNL A   1      37.014  23.559  24.841  1.00  0.00     0.002 C 
ENDROOT
BRANCH   1   2
ATOM      2  C   UNL A   1      35.891  22.528  24.695  1.00  0.00     0.021 C 
BRANCH   2   3
ATOM      3  C   UNL A   1      35.206  22.172  26.009  1.00  0.00     0.116 C 
BRANCH   3   4
ATOM      4  N   UNL A   1      34.610  20.856  25.990  1.00  0.00    -0.355 N 
ATOM      5  C   UNL A   1      33.324  20.468  25.756  1.00  0.00     0.240 C 
ATOM      6  O   UNL A   1      33.148  19.277  25.477  1.00  0.00    -0.273 OA
ATOM      7  H   UNL A   1      35.235  20.119  26.177  1.00  0.00     0.163 HD
BRANCH   5   8
ATOM      8  C   UNL A   1      32.168  21.474  25.648  1.00  0.00     0.227 C 
BRANCH   8   9
ATOM      9  N   UNL A   1      32.350  22.503  24.624  1.00  0.00    -0.287 N 
ATOM     10  C   UNL A   1      32.235  20.841  22.736  1.00  0.00     0.088 C 
ATOM     11  C   UNL A   1      32.410  22.253  23.260  1.00  0.00     0.110 A 
ATOM     12  N   UNL A   1      32.592  23.172  22.361  1.00  0.00    -0.224 NA
ATOM     13  C   UNL A   1      32.668  24.441  22.823  1.00  0.00     0.131 A 
ATOM     14  C   UNL A   1      32.371  23.817  25.130  1.00  0.00     0.263 A 
ATOM     15  S   UNL A   1      32.832  25.746  21.741  1.00  0.00    -0.123 S 
ATOM     16  C   UNL A   1      32.574  24.852  24.134  1.00  0.00     0.085 A 
ATOM     17  O   UNL A   1      32.213  24.060  26.320  1.00  0.00    -0.268 OA
ATOM     18  C   UNL A   1      32.683  26.882  23.007  1.00  0.00     0.077 A 
ATOM     19  C   UNL A   1      32.600  26.283  24.250  1.00  0.00     0.017 A 
BRANCH  19  20
ATOM     20  C   UNL A   1      32.509  27.115  25.501  1.00  0.00     0.036 A 
ATOM     21  C   UNL A   1      31.345  27.411  26.178  1.00  0.00     0.020 A 
ATOM     22  S   UNL A   1      33.876  27.795  26.282  1.00  0.00    -0.144 S 
ATOM     23  C   UNL A   1      31.573  28.246  27.313  1.00  0.00     0.012 A 
ATOM     24  C   UNL A   1      32.903  28.571  27.454  1.00  0.00     0.065 A 
ENDBRANCH  19  20
ENDBRANCH   8   9
ENDBRANCH   5   8
ENDBRANCH   3   4
ENDBRANCH   2   3
ENDBRANCH   1   2
BRANCH   1  25
ATOM     25  C   UNL A   1      37.875  23.434  26.110  1.00  0.00     0.002 C 
BRANCH  25  26
ATOM     26  C   UNL A   1      38.886  22.278  26.145  1.00  0.00     0.021 C 
BRANCH  26  27
ATOM     27  C   UNL A   1      39.998  22.474  27.160  1.00  0.00     0.116 C 
BRANCH  27  28
ATOM     28  N   UNL A   1      41.330  22.324  26.566  1.00  0.00    -0.352 N 
ATOM     29  C   UNL A   1      42.188  23.304  26.098  1.00  0.00     0.251 C 
ATOM     30  H   UNL A   1      41.658  21.399  26.490  1.00  0.00     0.163 HD
ATOM     31  O   UNL A   1      43.084  23.044  25.315  1.00  0.00    -0.269 OA
BRANCH  29  32
ATOM     32  C   UNL A   1      42.006  24.678  26.595  1.00  0.00     0.039 A 
ATOM     33  C   UNL A   1      41.126  25.588  26.002  1.00  0.00     0.014 A 
ATOM     34  C   UNL A   1      42.748  25.032  27.714  1.00  0.00     0.014 A 
ATOM     35  C   UNL A   1      40.981  26.846  26.583  1.00  0.00     0.010 A 
ATOM     36  C   UNL A   1      42.413  26.145  28.419  1.00  0.00     0.010 A 
ATOM     37  C   UNL A   1      41.639  27.107  27.793  1.00  0.00    -0.014 A 
BRANCH  37  38
ATOM     38  C   UNL A   1      41.514  28.362  28.512  1.00  0.00     0.031 A 
ATOM     39  C   UNL A   1      42.570  29.345  28.175  1.00  0.00     0.074 A 
ATOM     40  C   UNL A   1      40.372  28.676  29.165  1.00  0.00     0.049 A 
ATOM     41  N   UNL A   1      43.508  29.793  28.939  1.00  0.00    -0.248 NA
ATOM     42  C   UNL A   1      42.701  29.759  26.765  1.00  0.00     0.031 C 
ATOM     43  C   UNL A   1      39.125  27.898  29.247  1.00  0.00     0.029 A 
ATOM     44  N   UNL A   1      40.040  29.822  29.815  1.00  0.00    -0.354 N 
ATOM     45  C   UNL A   1      44.208  30.715  28.167  1.00  0.00     0.074 A 
ATOM     46  C   UNL A   1      43.823  30.478  26.802  1.00  0.00     0.031 C 
ATOM     47  C   UNL A   1      38.124  28.680  29.710  1.00  0.00     0.029 A 
ATOM     48  C   UNL A   1      38.685  29.951  30.118  1.00  0.00     0.049 A 
ATOM     49  H   UNL A   1      40.704  30.509  30.053  1.00  0.00     0.167 HD
ATOM     50  C   UNL A   1      44.811  31.790  28.745  1.00  0.00     0.037 A 
ATOM     51  C   UNL A   1      38.085  31.049  30.644  1.00  0.00     0.037 A 
ATOM     52  C   UNL A   1      44.927  31.605  30.170  1.00  0.00     0.049 A 
ATOM     53  C   UNL A   1      39.164  31.876  31.238  1.00  0.00     0.074 A 
ATOM     54  C   UNL A   1      45.573  30.703  30.988  1.00  0.00     0.029 A 
ATOM     55  N   UNL A   1      43.962  32.199  30.947  1.00  0.00    -0.354 N 
ATOM     56  N   UNL A   1      39.872  31.513  32.271  1.00  0.00    -0.248 NA
ATOM     57  C   UNL A   1      39.753  32.909  30.403  1.00  0.00     0.031 C 
ATOM     58  C   UNL A   1      44.680  30.481  32.080  1.00  0.00     0.029 A 
ATOM     59  C   UNL A   1      43.571  31.312  31.916  1.00  0.00     0.049 A 
ATOM     60  H   UNL A   1      43.611  33.111  30.828  1.00  0.00     0.167 HD
ATOM     61  C   UNL A   1      41.157  31.949  31.986  1.00  0.00     0.074 A 
ATOM     62  C   UNL A   1      41.002  32.888  30.877  1.00  0.00     0.031 C 
ATOM     63  C   UNL A   1      42.239  31.277  32.478  1.00  0.00     0.037 A 
BRANCH  50  64
ATOM     64  C   UNL A   1      44.914  33.155  28.102  1.00  0.00     0.064 A 
ATOM     65  C   UNL A   1      46.183  33.641  27.730  1.00  0.00     0.173 A 
ATOM     66  C   UNL A   1      43.874  34.112  28.092  1.00  0.00     0.173 A 
ATOM     67  F   UNL A   1      47.253  32.833  27.740  1.00  0.00    -0.203 F 
ATOM     68  C   UNL A   1      46.399  34.989  27.425  1.00  0.00     0.198 A 
ATOM     69  C   UNL A   1      44.082  35.441  27.729  1.00  0.00     0.198 A 
ATOM     70  F   UNL A   1      42.644  33.839  28.539  1.00  0.00    -0.203 F 
ATOM     71  F   UNL A   1      47.644  35.426  27.195  1.00  0.00    -0.200 F 
ATOM     72  C   UNL A   1      45.347  35.887  27.424  1.00  0.00     0.200 A 
ATOM     73  F   UNL A   1      43.052  36.299  27.760  1.00  0.00    -0.200 F 
ATOM     74  F   UNL A   1      45.560  37.187  27.181  1.00  0.00    -0.200 F 
ENDBRANCH  50  64
BRANCH  51  75
ATOM     75  C   UNL A   1      36.729  31.604  30.405  1.00  0.00     0.064 A 
ATOM     76  C   UNL A   1      35.902  31.963  31.485  1.00  0.00     0.173 A 
ATOM     77  C   UNL A   1      36.351  32.094  29.141  1.00  0.00     0.173 A 
ATOM     78  F   UNL A   1      36.208  31.565  32.729  1.00  0.00    -0.203 F 
ATOM     79  C   UNL A   1      34.798  32.806  31.321  1.00  0.00     0.198 A 
ATOM     80  C   UNL A   1      35.244  32.930  28.978  1.00  0.00     0.198 A 
ATOM     81  F   UNL A   1      37.106  31.859  28.060  1.00  0.00    -0.203 F 
ATOM     82  F   UNL A   1      34.084  33.191  32.389  1.00  0.00    -0.200 F 
ATOM     83  C   UNL A   1      34.481  33.304  30.069  1.00  0.00     0.200 A 
ATOM     84  F   UNL A   1      34.963  33.432  27.768  1.00  0.00    -0.200 F 
ATOM     85  F   UNL A   1      33.473  34.176  29.921  1.00  0.00    -0.200 F 
ENDBRANCH  51  75
BRANCH  63  86
ATOM     86  C   UNL A   1      41.991  30.262  33.564  1.00  0.00     0.064 A 
ATOM     87  C   UNL A   1      41.718  28.901  33.334  1.00  0.00     0.173 A 
ATOM     88  C   UNL A   1      42.180  30.661  34.892  1.00  0.00     0.173 A 
ATOM     89  F   UNL A   1      41.605  28.419  32.092  1.00  0.00    -0.203 F 
ATOM     90  C   UNL A   1      41.613  27.993  34.388  1.00  0.00     0.198 A 
ATOM     91  C   UNL A   1      42.111  29.748  35.940  1.00  0.00     0.198 A 
ATOM     92  F   UNL A   1      42.488  31.937  35.170  1.00  0.00    -0.203 F 
ATOM     93  F   UNL A   1      41.346  26.702  34.141  1.00  0.00    -0.200 F 
ATOM     94  C   UNL A   1      41.820  28.416  35.689  1.00  0.00     0.200 A 
ATOM     95  F   UNL A   1      42.357  30.154  37.193  1.00  0.00    -0.200 F 
ATOM     96  F   UNL A   1      41.766  27.538  36.701  1.00  0.00    -0.200 F 
ENDBRANCH  63  86
ENDBRANCH  37  38
ENDBRANCH  29  32
ENDBRANCH  27  28
ENDBRANCH  26  27
ENDBRANCH  25  26
ENDBRANCH   1  25
TORSDOF 15
ENDMDL
