MODEL 1
REMARK VINA RESULT:     -14.3      0.000      0.000
REMARK SMILES O=C(CCc1cncc([C@@H]2CN(c3ccccc3)CCO2)n1)NCCCCCCNC(=O)c1ccc(-c2c3nc(c(-c4c(F)c(F)c(F)c(F)c4F)c4ccc([nH]4)c(-c4c(F)c(F)c(F)c(F)c4F)c4nc(c(-c5c(F)c(F)c(F)c(F)c5F)c5ccc2[nH]5)C=C4)C=C3)cc1
REMARK SMILES IDX 25 1 24 2 23 3 1 4 2 5 3 7 4 8 5 9 6 10 22 11 7 12 9 13 8 14
REMARK SMILES IDX 10 15 11 16 21 17 12 18 20 19 19 20 13 21 14 22 18 23 15 24
REMARK SMILES IDX 17 25 16 26 26 27 27 28 28 29 29 30 30 31 31 32 32 34 33 35
REMARK SMILES IDX 34 36 95 37 35 38 94 39 36 40 37 41 38 42 88 43 39 44 93 45
REMARK SMILES IDX 87 46 89 47 40 48 92 49 86 50 85 51 41 53 73 54 53 55 72 56
REMARK SMILES IDX 54 57 57 58 71 59 90 60 55 61 56 62 70 64 91 65 58 66 42 67
REMARK SMILES IDX 43 68 51 69 44 70 45 71 49 72 52 73 46 74 47 75 50 76 48 77
REMARK SMILES IDX 74 78 75 79 83 80 76 81 77 82 81 83 84 84 78 85 79 86 82 87
REMARK SMILES IDX 80 88 59 89 60 90 68 91 61 92 62 93 66 94 69 95 63 96 64 97
REMARK SMILES IDX 67 98 65 99
REMARK H PARENT 23 6 30 33 89 52 57 63
REMARK Flexibility Score: inf
ROOT
ATOM      1  C   UNL A   1      33.972  27.543  24.963  1.00  0.00     0.021 C 
ENDROOT
BRANCH   1   2
ATOM      2  C   UNL A   1      33.729  28.350  23.667  1.00  0.00     0.116 C 
BRANCH   2   3
ATOM      3  N   UNL A   1      32.506  27.945  23.036  1.00  0.00    -0.356 N 
ATOM      4  O   UNL A   1      31.029  29.309  24.112  1.00  0.00    -0.275 OA
ATOM      5  C   UNL A   1      31.252  28.382  23.338  1.00  0.00     0.220 C 
ATOM      6  H   UNL A   1      32.581  27.284  22.310  1.00  0.00     0.163 HD
BRANCH   5   7
ATOM      7  C   UNL A   1      30.120  27.544  22.751  1.00  0.00     0.106 C 
BRANCH   7   8
ATOM      8  C   UNL A   1      29.464  26.513  23.678  1.00  0.00     0.068 C 
BRANCH   8   9
ATOM      9  C   UNL A   1      30.408  25.829  24.637  1.00  0.00     0.060 A 
ATOM     10  C   UNL A   1      30.272  25.927  26.012  1.00  0.00     0.134 A 
ATOM     11  N   UNL A   1      31.340  25.003  24.104  1.00  0.00    -0.252 NA
ATOM     12  N   UNL A   1      31.066  25.247  26.875  1.00  0.00    -0.261 NA
ATOM     13  C   UNL A   1      32.116  24.277  24.938  1.00  0.00     0.090 A 
ATOM     14  C   UNL A   1      31.980  24.421  26.311  1.00  0.00     0.137 A 
BRANCH  13  15
ATOM     15  C   UNL A   1      33.062  23.244  24.338  1.00  0.00     0.188 C 
ATOM     16  C   UNL A   1      32.577  21.403  24.695  1.00  0.00     0.155 C 
ATOM     17  O   UNL A   1      34.793  23.741  24.613  1.00  0.00    -0.368 OA
ATOM     18  N   UNL A   1      33.923  20.132  24.676  1.00  0.00    -0.366 N 
ATOM     19  C   UNL A   1      36.151  22.513  24.609  1.00  0.00     0.182 C 
ATOM     20  C   UNL A   1      35.702  20.623  24.924  1.00  0.00     0.145 C 
BRANCH  18  21
ATOM     21  C   UNL A   1      33.535  18.797  24.671  1.00  0.00     0.037 A 
ATOM     22  C   UNL A   1      32.893  18.200  25.761  1.00  0.00     0.026 A 
ATOM     23  C   UNL A   1      33.866  17.958  23.594  1.00  0.00     0.026 A 
ATOM     24  C   UNL A   1      32.620  16.825  25.787  1.00  0.00     0.002 A 
ATOM     25  C   UNL A   1      33.617  16.582  23.621  1.00  0.00     0.002 A 
ATOM     26  C   UNL A   1      32.995  16.013  24.722  1.00  0.00     0.000 A 
ENDBRANCH  18  21
ENDBRANCH  13  15
ENDBRANCH   8   9
ENDBRANCH   7   8
ENDBRANCH   5   7
ENDBRANCH   2   3
ENDBRANCH   1   2
BRANCH   1  27
ATOM     27  C   UNL A   1      33.445  28.134  26.503  1.00  0.00     0.002 C 
BRANCH  27  28
ATOM     28  C   UNL A   1      32.401  29.831  27.244  1.00  0.00     0.002 C 
BRANCH  28  29
ATOM     29  C   UNL A   1      32.233  31.476  26.904  1.00  0.00     0.021 C 
BRANCH  29  30
ATOM     30  C   UNL A   1      33.125  32.597  27.424  1.00  0.00     0.116 C 
BRANCH  30  31
ATOM     31  N   UNL A   1      32.524  33.888  27.680  1.00  0.00    -0.352 N 
ATOM     32  C   UNL A   1      33.015  34.846  28.548  1.00  0.00     0.251 C 
ATOM     33  H   UNL A   1      31.695  34.103  27.194  1.00  0.00     0.163 HD
ATOM     34  O   UNL A   1      32.483  35.944  28.662  1.00  0.00    -0.269 OA
BRANCH  32  35
ATOM     35  C   UNL A   1      34.166  34.480  29.416  1.00  0.00     0.039 A 
ATOM     36  C   UNL A   1      33.905  33.892  30.654  1.00  0.00     0.014 A 
ATOM     37  C   UNL A   1      35.477  34.556  28.934  1.00  0.00     0.014 A 
ATOM     38  C   UNL A   1      34.950  33.298  31.369  1.00  0.00     0.010 A 
ATOM     39  C   UNL A   1      36.494  33.870  29.597  1.00  0.00     0.010 A 
ATOM     40  C   UNL A   1      36.245  33.238  30.825  1.00  0.00    -0.014 A 
BRANCH  40  41
ATOM     41  C   UNL A   1      37.343  32.542  31.551  1.00  0.00     0.031 A 
ATOM     42  C   UNL A   1      38.060  31.389  30.904  1.00  0.00     0.074 A 
ATOM     43  C   UNL A   1      37.681  32.917  32.802  1.00  0.00     0.049 A 
ATOM     44  N   UNL A   1      39.063  30.677  31.356  1.00  0.00    -0.248 NA
ATOM     45  C   UNL A   1      37.564  30.955  29.589  1.00  0.00     0.031 C 
ATOM     46  C   UNL A   1      37.013  33.958  33.586  1.00  0.00     0.029 A 
ATOM     47  N   UNL A   1      38.676  32.463  33.635  1.00  0.00    -0.354 N 
ATOM     48  C   UNL A   1      39.306  29.713  30.386  1.00  0.00     0.074 A 
ATOM     49  C   UNL A   1      38.300  29.879  29.361  1.00  0.00     0.031 C 
ATOM     50  C   UNL A   1      37.637  34.088  34.768  1.00  0.00     0.029 A 
ATOM     51  C   UNL A   1      38.740  33.132  34.834  1.00  0.00     0.049 A 
ATOM     52  H   UNL A   1      39.285  31.728  33.395  1.00  0.00     0.167 HD
ATOM     53  C   UNL A   1      40.303  28.799  30.327  1.00  0.00     0.037 A 
ATOM     54  C   UNL A   1      39.602  33.001  35.862  1.00  0.00     0.037 A 
ATOM     55  C   UNL A   1      41.329  28.654  31.322  1.00  0.00     0.049 A 
ATOM     56  C   UNL A   1      40.727  32.006  35.763  1.00  0.00     0.074 A 
ATOM     57  C   UNL A   1      42.428  27.815  31.315  1.00  0.00     0.029 A 
ATOM     58  N   UNL A   1      41.377  29.370  32.509  1.00  0.00    -0.354 N 
ATOM     59  N   UNL A   1      41.008  31.172  34.791  1.00  0.00    -0.248 NA
ATOM     60  C   UNL A   1      41.661  31.943  36.896  1.00  0.00     0.031 C 
ATOM     61  C   UNL A   1      43.125  28.000  32.515  1.00  0.00     0.029 A 
ATOM     62  C   UNL A   1      42.478  28.978  33.252  1.00  0.00     0.049 A 
ATOM     63  H   UNL A   1      40.726  30.057  32.782  1.00  0.00     0.167 HD
ATOM     64  C   UNL A   1      42.155  30.496  35.187  1.00  0.00     0.074 A 
ATOM     65  C   UNL A   1      42.530  31.032  36.480  1.00  0.00     0.031 C 
ATOM     66  C   UNL A   1      42.833  29.517  34.540  1.00  0.00     0.037 A 
BRANCH  53  67
ATOM     67  C   UNL A   1      40.332  27.903  29.125  1.00  0.00     0.064 A 
ATOM     68  C   UNL A   1      41.085  28.232  27.986  1.00  0.00     0.173 A 
ATOM     69  C   UNL A   1      39.593  26.712  29.101  1.00  0.00     0.173 A 
ATOM     70  F   UNL A   1      41.797  29.369  27.953  1.00  0.00    -0.203 F 
ATOM     71  C   UNL A   1      41.061  27.425  26.853  1.00  0.00     0.198 A 
ATOM     72  C   UNL A   1      39.595  25.891  27.976  1.00  0.00     0.198 A 
ATOM     73  F   UNL A   1      38.859  26.351  30.165  1.00  0.00    -0.203 F 
ATOM     74  F   UNL A   1      41.734  27.795  25.754  1.00  0.00    -0.200 F 
ATOM     75  C   UNL A   1      40.318  26.254  26.849  1.00  0.00     0.200 A 
ATOM     76  F   UNL A   1      38.884  24.756  27.976  1.00  0.00    -0.200 F 
ATOM     77  F   UNL A   1      40.290  25.481  25.755  1.00  0.00    -0.200 F 
ENDBRANCH  53  67
BRANCH  54  78
ATOM     78  C   UNL A   1      39.462  33.873  37.057  1.00  0.00     0.064 A 
ATOM     79  C   UNL A   1      40.023  35.158  37.082  1.00  0.00     0.173 A 
ATOM     80  C   UNL A   1      38.761  33.445  38.194  1.00  0.00     0.173 A 
ATOM     81  F   UNL A   1      40.721  35.603  36.028  1.00  0.00    -0.203 F 
ATOM     82  C   UNL A   1      39.894  35.978  38.201  1.00  0.00     0.198 A 
ATOM     83  C   UNL A   1      38.615  34.274  39.304  1.00  0.00     0.198 A 
ATOM     84  F   UNL A   1      38.207  32.224  38.218  1.00  0.00    -0.203 F 
ATOM     85  F   UNL A   1      40.466  37.191  38.210  1.00  0.00    -0.200 F 
ATOM     86  C   UNL A   1      39.185  35.538  39.309  1.00  0.00     0.200 A 
ATOM     87  F   UNL A   1      37.922  33.849  40.369  1.00  0.00    -0.200 F 
ATOM     88  F   UNL A   1      39.056  36.330  40.383  1.00  0.00    -0.200 F 
ENDBRANCH  54  78
BRANCH  66  89
ATOM     89  C   UNL A   1      44.048  28.958  35.217  1.00  0.00     0.064 A 
ATOM     90  C   UNL A   1      43.961  27.853  36.076  1.00  0.00     0.173 A 
ATOM     91  C   UNL A   1      45.319  29.494  34.960  1.00  0.00     0.173 A 
ATOM     92  F   UNL A   1      42.765  27.314  36.362  1.00  0.00    -0.203 F 
ATOM     93  C   UNL A   1      45.101  27.315  36.666  1.00  0.00     0.198 A 
ATOM     94  C   UNL A   1      46.459  28.939  35.534  1.00  0.00     0.198 A 
ATOM     95  F   UNL A   1      45.455  30.547  34.140  1.00  0.00    -0.203 F 
ATOM     96  F   UNL A   1      44.991  26.280  37.510  1.00  0.00    -0.200 F 
ATOM     97  C   UNL A   1      46.349  27.852  36.389  1.00  0.00     0.200 A 
ATOM     98  F   UNL A   1      47.665  29.453  35.257  1.00  0.00    -0.200 F 
ATOM     99  F   UNL A   1      47.446  27.326  36.950  1.00  0.00    -0.200 F 
ENDBRANCH  66  89
ENDBRANCH  40  41
ENDBRANCH  32  35
ENDBRANCH  30  31
ENDBRANCH  29  30
ENDBRANCH  28  29
ENDBRANCH  27  28
ENDBRANCH   1  27
TORSDOF 17
ENDMDL
MODEL 2
REMARK VINA RESULT:     -14.2      0.767      7.265
REMARK SMILES O=C(CCc1cncc([C@@H]2CN(c3ccccc3)CCO2)n1)NCCCCCCNC(=O)c1ccc(-c2c3nc(c(-c4c(F)c(F)c(F)c(F)c4F)c4ccc([nH]4)c(-c4c(F)c(F)c(F)c(F)c4F)c4nc(c(-c5c(F)c(F)c(F)c(F)c5F)c5ccc2[nH]5)C=C4)C=C3)cc1
REMARK SMILES IDX 25 1 24 2 23 3 1 4 2 5 3 7 4 8 5 9 6 10 22 11 7 12 9 13 8 14
REMARK SMILES IDX 10 15 11 16 21 17 12 18 20 19 19 20 13 21 14 22 18 23 15 24
REMARK SMILES IDX 17 25 16 26 26 27 27 28 28 29 29 30 30 31 31 32 32 34 33 35
REMARK SMILES IDX 34 36 95 37 35 38 94 39 36 40 37 41 38 42 88 43 39 44 93 45
REMARK SMILES IDX 87 46 89 47 40 48 92 49 86 50 85 51 41 53 73 54 53 55 72 56
REMARK SMILES IDX 54 57 57 58 71 59 90 60 55 61 56 62 70 64 91 65 58 66 42 67
REMARK SMILES IDX 43 68 51 69 44 70 45 71 49 72 52 73 46 74 47 75 50 76 48 77
REMARK SMILES IDX 74 78 75 79 83 80 76 81 77 82 81 83 84 84 78 85 79 86 82 87
REMARK SMILES IDX 80 88 59 89 60 90 68 91 61 92 62 93 66 94 69 95 63 96 64 97
REMARK SMILES IDX 67 98 65 99
REMARK H PARENT 23 6 30 33 89 52 57 63
REMARK Flexibility Score: inf
ROOT
ATOM      1  C   UNL A   1      34.027  27.757  24.720  1.00  0.00     0.021 C 
ENDROOT
BRANCH   1   2
ATOM      2  C   UNL A   1      33.646  28.558  23.454  1.00  0.00     0.116 C 
BRANCH   2   3
ATOM      3  N   UNL A   1      32.442  28.045  22.868  1.00  0.00    -0.356 N 
ATOM      4  O   UNL A   1      30.893  29.321  23.952  1.00  0.00    -0.275 OA
ATOM      5  C   UNL A   1      31.166  28.393  23.195  1.00  0.00     0.220 C 
ATOM      6  H   UNL A   1      32.548  27.373  22.156  1.00  0.00     0.163 HD
BRANCH   5   7
ATOM      7  C   UNL A   1      30.087  27.456  22.660  1.00  0.00     0.106 C 
BRANCH   7   8
ATOM      8  C   UNL A   1      29.442  26.492  23.665  1.00  0.00     0.068 C 
BRANCH   8   9
ATOM      9  C   UNL A   1      30.404  25.843  24.630  1.00  0.00     0.060 A 
ATOM     10  C   UNL A   1      30.275  25.966  26.004  1.00  0.00     0.134 A 
ATOM     11  N   UNL A   1      31.348  25.024  24.107  1.00  0.00    -0.252 NA
ATOM     12  N   UNL A   1      31.086  25.316  26.875  1.00  0.00    -0.261 NA
ATOM     13  C   UNL A   1      32.142  24.327  24.950  1.00  0.00     0.090 A 
ATOM     14  C   UNL A   1      32.012  24.495  26.321  1.00  0.00     0.137 A 
BRANCH  13  15
ATOM     15  C   UNL A   1      33.102  23.299  24.365  1.00  0.00     0.188 C 
ATOM     16  C   UNL A   1      32.606  21.455  24.689  1.00  0.00     0.155 C 
ATOM     17  O   UNL A   1      34.825  23.791  24.689  1.00  0.00    -0.368 OA
ATOM     18  N   UNL A   1      33.951  20.184  24.693  1.00  0.00    -0.366 N 
ATOM     19  C   UNL A   1      36.182  22.562  24.708  1.00  0.00     0.182 C 
ATOM     20  C   UNL A   1      35.724  20.670  24.991  1.00  0.00     0.145 C 
BRANCH  18  21
ATOM     21  C   UNL A   1      33.562  18.849  24.664  1.00  0.00     0.037 A 
ATOM     22  C   UNL A   1      32.901  18.239  25.734  1.00  0.00     0.026 A 
ATOM     23  C   UNL A   1      33.911  18.024  23.582  1.00  0.00     0.026 A 
ATOM     24  C   UNL A   1      32.626  16.864  25.737  1.00  0.00     0.002 A 
ATOM     25  C   UNL A   1      33.661  16.647  23.586  1.00  0.00     0.002 A 
ATOM     26  C   UNL A   1      33.019  16.065  24.668  1.00  0.00     0.000 A 
ENDBRANCH  18  21
ENDBRANCH  13  15
ENDBRANCH   8   9
ENDBRANCH   7   8
ENDBRANCH   5   7
ENDBRANCH   2   3
ENDBRANCH   1   2
BRANCH   1  27
ATOM     27  C   UNL A   1      33.353  28.146  26.267  1.00  0.00     0.002 C 
BRANCH  27  28
ATOM     28  C   UNL A   1      32.379  29.807  27.167  1.00  0.00     0.002 C 
BRANCH  28  29
ATOM     29  C   UNL A   1      32.127  31.451  26.877  1.00  0.00     0.021 C 
BRANCH  29  30
ATOM     30  C   UNL A   1      33.063  32.587  27.273  1.00  0.00     0.116 C 
BRANCH  30  31
ATOM     31  N   UNL A   1      32.478  33.857  27.646  1.00  0.00    -0.352 N 
ATOM     32  C   UNL A   1      33.027  34.765  28.533  1.00  0.00     0.251 C 
ATOM     33  H   UNL A   1      31.617  34.095  27.233  1.00  0.00     0.163 HD
ATOM     34  O   UNL A   1      32.502  35.851  28.750  1.00  0.00    -0.269 OA
BRANCH  32  35
ATOM     35  C   UNL A   1      34.237  34.355  29.295  1.00  0.00     0.039 A 
ATOM     36  C   UNL A   1      34.068  33.607  30.460  1.00  0.00     0.014 A 
ATOM     37  C   UNL A   1      35.517  34.558  28.767  1.00  0.00     0.014 A 
ATOM     38  C   UNL A   1      35.175  32.985  31.047  1.00  0.00     0.010 A 
ATOM     39  C   UNL A   1      36.598  33.848  29.291  1.00  0.00     0.010 A 
ATOM     40  C   UNL A   1      36.441  33.059  30.441  1.00  0.00    -0.014 A 
BRANCH  40  41
ATOM     41  C   UNL A   1      37.606  32.337  31.023  1.00  0.00     0.031 A 
ATOM     42  C   UNL A   1      38.089  32.677  32.406  1.00  0.00     0.074 A 
ATOM     43  C   UNL A   1      38.258  31.399  30.304  1.00  0.00     0.049 A 
ATOM     44  N   UNL A   1      39.061  32.141  33.101  1.00  0.00    -0.248 NA
ATOM     45  C   UNL A   1      37.410  33.790  33.088  1.00  0.00     0.031 C 
ATOM     46  C   UNL A   1      37.957  31.030  28.920  1.00  0.00     0.029 A 
ATOM     47  N   UNL A   1      39.309  30.581  30.643  1.00  0.00    -0.354 N 
ATOM     48  C   UNL A   1      39.112  32.857  34.290  1.00  0.00     0.074 A 
ATOM     49  C   UNL A   1      38.130  33.913  34.192  1.00  0.00     0.031 C 
ATOM     50  C   UNL A   1      38.779  30.038  28.540  1.00  0.00     0.029 A 
ATOM     51  C   UNL A   1      39.674  29.707  29.646  1.00  0.00     0.049 A 
ATOM     52  H   UNL A   1      39.759  30.618  31.518  1.00  0.00     0.167 HD
ATOM     53  C   UNL A   1      39.874  32.631  35.386  1.00  0.00     0.037 A 
ATOM     54  C   UNL A   1      40.610  28.739  29.633  1.00  0.00     0.037 A 
ATOM     55  C   UNL A   1      40.824  31.560  35.505  1.00  0.00     0.049 A 
ATOM     56  C   UNL A   1      41.423  28.477  30.874  1.00  0.00     0.074 A 
ATOM     57  C   UNL A   1      41.585  31.198  36.602  1.00  0.00     0.029 A 
ATOM     58  N   UNL A   1      41.144  30.678  34.485  1.00  0.00    -0.354 N 
ATOM     59  N   UNL A   1      41.386  29.095  32.029  1.00  0.00    -0.248 NA
ATOM     60  C   UNL A   1      42.395  27.377  30.812  1.00  0.00     0.031 C 
ATOM     61  C   UNL A   1      42.392  30.114  36.234  1.00  0.00     0.029 A 
ATOM     62  C   UNL A   1      42.107  29.782  34.919  1.00  0.00     0.049 A 
ATOM     63  H   UNL A   1      40.745  30.686  33.585  1.00  0.00     0.167 HD
ATOM     64  C   UNL A   1      42.318  28.453  32.835  1.00  0.00     0.074 A 
ATOM     65  C   UNL A   1      42.889  27.384  32.043  1.00  0.00     0.031 C 
ATOM     66  C   UNL A   1      42.670  28.728  34.115  1.00  0.00     0.037 A 
BRANCH  53  67
ATOM     67  C   UNL A   1      39.683  33.559  36.549  1.00  0.00     0.064 A 
ATOM     68  C   UNL A   1      38.796  33.250  37.592  1.00  0.00     0.173 A 
ATOM     69  C   UNL A   1      40.380  34.774  36.617  1.00  0.00     0.173 A 
ATOM     70  F   UNL A   1      38.094  32.108  37.565  1.00  0.00    -0.203 F 
ATOM     71  C   UNL A   1      38.581  34.144  38.638  1.00  0.00     0.198 A 
ATOM     72  C   UNL A   1      40.184  35.652  37.680  1.00  0.00     0.198 A 
ATOM     73  F   UNL A   1      41.241  35.115  35.647  1.00  0.00    -0.203 F 
ATOM     74  F   UNL A   1      37.679  33.856  39.587  1.00  0.00    -0.200 F 
ATOM     75  C   UNL A   1      39.277  35.342  38.683  1.00  0.00     0.200 A 
ATOM     76  F   UNL A   1      40.863  36.806  37.728  1.00  0.00    -0.200 F 
ATOM     77  F   UNL A   1      39.063  36.204  39.686  1.00  0.00    -0.200 F 
ENDBRANCH  53  67
BRANCH  54  78
ATOM     78  C   UNL A   1      40.796  27.909  28.415  1.00  0.00     0.064 A 
ATOM     79  C   UNL A   1      40.106  26.699  28.254  1.00  0.00     0.173 A 
ATOM     80  C   UNL A   1      41.658  28.310  27.384  1.00  0.00     0.173 A 
ATOM     81  F   UNL A   1      39.288  26.262  29.222  1.00  0.00    -0.203 F 
ATOM     82  C   UNL A   1      40.279  25.917  27.113  1.00  0.00     0.198 A 
ATOM     83  C   UNL A   1      41.813  27.538  26.234  1.00  0.00     0.198 A 
ATOM     84  F   UNL A   1      42.340  29.460  27.491  1.00  0.00    -0.203 F 
ATOM     85  F   UNL A   1      39.630  24.750  26.999  1.00  0.00    -0.200 F 
ATOM     86  C   UNL A   1      41.127  26.341  26.102  1.00  0.00     0.200 A 
ATOM     87  F   UNL A   1      42.627  27.956  25.255  1.00  0.00    -0.200 F 
ATOM     88  F   UNL A   1      41.287  25.593  25.001  1.00  0.00    -0.200 F 
ENDBRANCH  54  78
BRANCH  66  89
ATOM     89  C   UNL A   1      43.723  27.863  34.740  1.00  0.00     0.064 A 
ATOM     90  C   UNL A   1      45.071  28.250  34.752  1.00  0.00     0.173 A 
ATOM     91  C   UNL A   1      43.374  26.666  35.383  1.00  0.00     0.173 A 
ATOM     92  F   UNL A   1      45.454  29.380  34.138  1.00  0.00    -0.203 F 
ATOM     93  C   UNL A   1      46.035  27.460  35.372  1.00  0.00     0.198 A 
ATOM     94  C   UNL A   1      44.338  25.891  36.022  1.00  0.00     0.198 A 
ATOM     95  F   UNL A   1      42.097  26.257  35.404  1.00  0.00    -0.203 F 
ATOM     96  F   UNL A   1      47.322  27.831  35.343  1.00  0.00    -0.200 F 
ATOM     97  C   UNL A   1      45.667  26.286  36.013  1.00  0.00     0.200 A 
ATOM     98  F   UNL A   1      43.980  24.763  36.651  1.00  0.00    -0.200 F 
ATOM     99  F   UNL A   1      46.596  25.533  36.618  1.00  0.00    -0.200 F 
ENDBRANCH  66  89
ENDBRANCH  40  41
ENDBRANCH  32  35
ENDBRANCH  30  31
ENDBRANCH  29  30
ENDBRANCH  28  29
ENDBRANCH  27  28
ENDBRANCH   1  27
TORSDOF 17
ENDMDL
MODEL 3
REMARK VINA RESULT:     -13.9      0.793      7.041
REMARK SMILES O=C(CCc1cncc([C@@H]2CN(c3ccccc3)CCO2)n1)NCCCCCCNC(=O)c1ccc(-c2c3nc(c(-c4c(F)c(F)c(F)c(F)c4F)c4ccc([nH]4)c(-c4c(F)c(F)c(F)c(F)c4F)c4nc(c(-c5c(F)c(F)c(F)c(F)c5F)c5ccc2[nH]5)C=C4)C=C3)cc1
REMARK SMILES IDX 25 1 24 2 23 3 1 4 2 5 3 7 4 8 5 9 6 10 22 11 7 12 9 13 8 14
REMARK SMILES IDX 10 15 11 16 21 17 12 18 20 19 19 20 13 21 14 22 18 23 15 24
REMARK SMILES IDX 17 25 16 26 26 27 27 28 28 29 29 30 30 31 31 32 32 34 33 35
REMARK SMILES IDX 34 36 95 37 35 38 94 39 36 40 37 41 38 42 88 43 39 44 93 45
REMARK SMILES IDX 87 46 89 47 40 48 92 49 86 50 85 51 41 53 73 54 53 55 72 56
REMARK SMILES IDX 54 57 57 58 71 59 90 60 55 61 56 62 70 64 91 65 58 66 42 67
REMARK SMILES IDX 43 68 51 69 44 70 45 71 49 72 52 73 46 74 47 75 50 76 48 77
REMARK SMILES IDX 74 78 75 79 83 80 76 81 77 82 81 83 84 84 78 85 79 86 82 87
REMARK SMILES IDX 80 88 59 89 60 90 68 91 61 92 62 93 66 94 69 95 63 96 64 97
REMARK SMILES IDX 67 98 65 99
REMARK H PARENT 23 6 30 33 89 52 57 63
REMARK Flexibility Score: inf
ROOT
ATOM      1  C   UNL A   1      33.755  27.788  25.460  1.00  0.00     0.021 C 
ENDROOT
BRANCH   1   2
ATOM      2  C   UNL A   1      33.558  28.585  24.150  1.00  0.00     0.116 C 
BRANCH   2   3
ATOM      3  N   UNL A   1      32.482  28.037  23.376  1.00  0.00    -0.356 N 
ATOM      4  O   UNL A   1      30.783  29.420  24.013  1.00  0.00    -0.275 OA
ATOM      5  C   UNL A   1      31.177  28.427  23.407  1.00  0.00     0.220 C 
ATOM      6  H   UNL A   1      32.710  27.305  22.759  1.00  0.00     0.163 HD
BRANCH   5   7
ATOM      7  C   UNL A   1      30.201  27.460  22.743  1.00  0.00     0.106 C 
BRANCH   7   8
ATOM      8  C   UNL A   1      29.531  26.418  23.648  1.00  0.00     0.068 C 
BRANCH   8   9
ATOM      9  C   UNL A   1      30.456  25.737  24.627  1.00  0.00     0.060 A 
ATOM     10  C   UNL A   1      30.271  25.808  25.998  1.00  0.00     0.134 A 
ATOM     11  N   UNL A   1      31.424  24.941  24.113  1.00  0.00    -0.252 NA
ATOM     12  N   UNL A   1      31.049  25.129  26.877  1.00  0.00    -0.261 NA
ATOM     13  C   UNL A   1      32.187  24.217  24.962  1.00  0.00     0.090 A 
ATOM     14  C   UNL A   1      32.000  24.333  26.331  1.00  0.00     0.137 A 
BRANCH  13  15
ATOM     15  C   UNL A   1      33.176  23.215  24.378  1.00  0.00     0.188 C 
ATOM     16  C   UNL A   1      32.779  21.362  24.779  1.00  0.00     0.155 C 
ATOM     17  O   UNL A   1      34.883  23.798  24.627  1.00  0.00    -0.368 OA
ATOM     18  N   UNL A   1      34.183  20.155  24.779  1.00  0.00    -0.366 N 
ATOM     19  C   UNL A   1      36.296  22.635  24.640  1.00  0.00     0.182 C 
ATOM     20  C   UNL A   1      35.939  20.734  25.001  1.00  0.00     0.145 C 
BRANCH  18  21
ATOM     21  C   UNL A   1      33.857  18.804  24.808  1.00  0.00     0.037 A 
ATOM     22  C   UNL A   1      34.358  17.893  23.872  1.00  0.00     0.026 A 
ATOM     23  C   UNL A   1      32.920  18.311  25.731  1.00  0.00     0.026 A 
ATOM     24  C   UNL A   1      33.923  16.561  23.841  1.00  0.00     0.002 A 
ATOM     25  C   UNL A   1      32.465  16.989  25.694  1.00  0.00     0.002 A 
ATOM     26  C   UNL A   1      32.965  16.112  24.744  1.00  0.00     0.000 A 
ENDBRANCH  18  21
ENDBRANCH  13  15
ENDBRANCH   8   9
ENDBRANCH   7   8
ENDBRANCH   5   7
ENDBRANCH   2   3
ENDBRANCH   1   2
BRANCH   1  27
ATOM     27  C   UNL A   1      34.230  28.573  26.928  1.00  0.00     0.002 C 
BRANCH  27  28
ATOM     28  C   UNL A   1      34.340  30.565  27.663  1.00  0.00     0.002 C 
BRANCH  28  29
ATOM     29  C   UNL A   1      33.314  31.865  27.987  1.00  0.00     0.021 C 
BRANCH  29  30
ATOM     30  C   UNL A   1      33.293  33.199  27.251  1.00  0.00     0.116 C 
BRANCH  30  31
ATOM     31  N   UNL A   1      32.568  34.300  27.847  1.00  0.00    -0.352 N 
ATOM     32  C   UNL A   1      33.001  35.060  28.919  1.00  0.00     0.251 C 
ATOM     33  H   UNL A   1      31.693  34.527  27.458  1.00  0.00     0.163 HD
ATOM     34  O   UNL A   1      32.357  36.020  29.328  1.00  0.00    -0.269 OA
BRANCH  32  35
ATOM     35  C   UNL A   1      34.235  34.631  29.629  1.00  0.00     0.039 A 
ATOM     36  C   UNL A   1      34.103  33.909  30.816  1.00  0.00     0.014 A 
ATOM     37  C   UNL A   1      35.492  34.787  29.036  1.00  0.00     0.014 A 
ATOM     38  C   UNL A   1      35.219  33.268  31.361  1.00  0.00     0.010 A 
ATOM     39  C   UNL A   1      36.577  34.057  29.521  1.00  0.00     0.010 A 
ATOM     40  C   UNL A   1      36.456  33.294  30.693  1.00  0.00    -0.014 A 
BRANCH  40  41
ATOM     41  C   UNL A   1      37.628  32.551  31.232  1.00  0.00     0.031 A 
ATOM     42  C   UNL A   1      38.187  32.903  32.583  1.00  0.00     0.074 A 
ATOM     43  C   UNL A   1      38.217  31.580  30.502  1.00  0.00     0.049 A 
ATOM     44  N   UNL A   1      39.178  32.353  33.240  1.00  0.00    -0.248 NA
ATOM     45  C   UNL A   1      37.574  34.048  33.274  1.00  0.00     0.031 C 
ATOM     46  C   UNL A   1      37.838  31.194  29.141  1.00  0.00     0.029 A 
ATOM     47  N   UNL A   1      39.261  30.739  30.806  1.00  0.00    -0.354 N 
ATOM     48  C   UNL A   1      39.307  33.089  34.410  1.00  0.00     0.074 A 
ATOM     49  C   UNL A   1      38.351  34.171  34.338  1.00  0.00     0.031 C 
ATOM     50  C   UNL A   1      38.612  30.171  28.742  1.00  0.00     0.029 A 
ATOM     51  C   UNL A   1      39.551  29.837  29.810  1.00  0.00     0.049 A 
ATOM     52  H   UNL A   1      39.754  30.780  31.656  1.00  0.00     0.167 HD
ATOM     53  C   UNL A   1      40.116  32.863  35.472  1.00  0.00     0.037 A 
ATOM     54  C   UNL A   1      40.459  28.842  29.772  1.00  0.00     0.037 A 
ATOM     55  C   UNL A   1      41.041  31.768  35.567  1.00  0.00     0.049 A 
ATOM     56  C   UNL A   1      41.324  28.581  30.976  1.00  0.00     0.074 A 
ATOM     57  C   UNL A   1      41.844  31.405  36.632  1.00  0.00     0.029 A 
ATOM     58  N   UNL A   1      41.285  30.857  34.550  1.00  0.00    -0.354 N 
ATOM     59  N   UNL A   1      41.362  29.221  32.119  1.00  0.00    -0.248 NA
ATOM     60  C   UNL A   1      42.262  27.452  30.889  1.00  0.00     0.031 C 
ATOM     61  C   UNL A   1      42.602  30.292  36.247  1.00  0.00     0.029 A 
ATOM     62  C   UNL A   1      42.243  29.943  34.955  1.00  0.00     0.049 A 
ATOM     63  H   UNL A   1      40.842  30.860  33.671  1.00  0.00     0.167 HD
ATOM     64  C   UNL A   1      42.314  28.569  32.892  1.00  0.00     0.074 A 
ATOM     65  C   UNL A   1      42.816  27.468  32.094  1.00  0.00     0.031 C 
ATOM     66  C   UNL A   1      42.736  28.858  34.146  1.00  0.00     0.037 A 
BRANCH  53  67
ATOM     67  C   UNL A   1      40.009  33.819  36.623  1.00  0.00     0.064 A 
ATOM     68  C   UNL A   1      40.814  34.967  36.698  1.00  0.00     0.173 A 
ATOM     69  C   UNL A   1      39.106  33.581  37.669  1.00  0.00     0.173 A 
ATOM     70  F   UNL A   1      41.705  35.230  35.731  1.00  0.00    -0.203 F 
ATOM     71  C   UNL A   1      40.749  35.817  37.798  1.00  0.00     0.198 A 
ATOM     72  C   UNL A   1      39.023  34.450  38.754  1.00  0.00     0.198 A 
ATOM     73  F   UNL A   1      38.312  32.500  37.644  1.00  0.00    -0.203 F 
ATOM     74  F   UNL A   1      41.576  36.869  37.878  1.00  0.00    -0.200 F 
ATOM     75  C   UNL A   1      39.852  35.560  38.823  1.00  0.00     0.200 A 
ATOM     76  F   UNL A   1      38.150  34.206  39.741  1.00  0.00    -0.200 F 
ATOM     77  F   UNL A   1      39.797  36.375  39.886  1.00  0.00    -0.200 F 
ENDBRANCH  53  67
BRANCH  54  78
ATOM     78  C   UNL A   1      40.561  27.984  28.563  1.00  0.00     0.064 A 
ATOM     79  C   UNL A   1      41.348  28.371  27.468  1.00  0.00     0.173 A 
ATOM     80  C   UNL A   1      39.885  26.758  28.479  1.00  0.00     0.173 A 
ATOM     81  F   UNL A   1      41.995  29.545  27.493  1.00  0.00    -0.203 F 
ATOM     82  C   UNL A   1      41.446  27.570  26.333  1.00  0.00     0.198 A 
ATOM     83  C   UNL A   1      40.002  25.947  27.351  1.00  0.00     0.198 A 
ATOM     84  F   UNL A   1      39.121  26.343  29.500  1.00  0.00    -0.203 F 
ATOM     85  F   UNL A   1      42.180  27.978  25.288  1.00  0.00    -0.200 F 
ATOM     86  C   UNL A   1      40.778  26.356  26.278  1.00  0.00     0.200 A 
ATOM     87  F   UNL A   1      39.362  24.771  27.306  1.00  0.00    -0.200 F 
ATOM     88  F   UNL A   1      40.879  25.582  25.188  1.00  0.00    -0.200 F 
ENDBRANCH  54  78
BRANCH  66  89
ATOM     89  C   UNL A   1      43.795  27.975  34.737  1.00  0.00     0.064 A 
ATOM     90  C   UNL A   1      43.463  26.795  35.417  1.00  0.00     0.173 A 
ATOM     91  C   UNL A   1      45.153  28.281  34.571  1.00  0.00     0.173 A 
ATOM     92  F   UNL A   1      42.175  26.468  35.612  1.00  0.00    -0.203 F 
ATOM     93  C   UNL A   1      44.453  25.960  35.925  1.00  0.00     0.198 A 
ATOM     94  C   UNL A   1      46.142  27.431  35.060  1.00  0.00     0.198 A 
ATOM     95  F   UNL A   1      45.522  29.395  33.922  1.00  0.00    -0.203 F 
ATOM     96  F   UNL A   1      44.113  24.854  36.602  1.00  0.00    -0.200 F 
ATOM     97  C   UNL A   1      45.791  26.274  35.740  1.00  0.00     0.200 A 
ATOM     98  F   UNL A   1      47.435  27.730  34.871  1.00  0.00    -0.200 F 
ATOM     99  F   UNL A   1      46.744  25.463  36.220  1.00  0.00    -0.200 F 
ENDBRANCH  66  89
ENDBRANCH  40  41
ENDBRANCH  32  35
ENDBRANCH  30  31
ENDBRANCH  29  30
ENDBRANCH  28  29
ENDBRANCH  27  28
ENDBRANCH   1  27
TORSDOF 17
ENDMDL
