MODEL 1
REMARK VINA RESULT:     -14.3      0.000      0.000
REMARK SMILES Cc1ccc([C@@H]2[C@H](C(=O)NCCCCCCNC(=O)c3ccc(-c4c5nc(c(-c6c(F)c(F)c(F)c(F)c6F)c6ccc([nH]6)c(-c6c(F)c(F)c(F)c(F)c6F)c6nc(c(-c7c(F)c(F)c(F)c(F)c7F)c7ccc4[nH]7)C=C6)C=C5)cc3)c3ccccc3C(=O)N2c2ccccc2)cc1
REMARK SMILES IDX 14 1 13 2 12 3 11 4 10 5 8 6 9 7 7 9 6 10 91 11 83 12 89 13
REMARK SMILES IDX 84 14 88 15 90 16 85 17 87 18 86 19 5 20 1 21 2 22 3 23
REMARK SMILES IDX 99 24 4 25 98 26 92 27 93 28 97 29 94 30 96 31 95 32 15 33
REMARK SMILES IDX 16 34 17 35 18 36 19 38 20 39 21 40 82 41 22 42 81 43 23 44
REMARK SMILES IDX 24 45 25 46 75 47 26 48 80 49 74 50 76 51 27 52 79 53 73 54
REMARK SMILES IDX 72 55 28 57 60 58 40 59 59 60 41 61 44 62 58 63 77 64 42 65
REMARK SMILES IDX 43 66 57 68 78 69 45 70 29 71 30 72 38 73 31 74 32 75 36 76
REMARK SMILES IDX 39 77 33 78 34 79 37 80 35 81 61 82 62 83 70 84 63 85 64 86
REMARK SMILES IDX 68 87 71 88 65 89 66 90 69 91 67 92 46 93 47 94 55 95 48 96
REMARK SMILES IDX 49 97 53 98 56 99 50 100 51 101 54 102 52 103
REMARK H PARENT 10 8 17 37 76 56 44 67
REMARK Flexibility Score: inf
ROOT
ATOM      1  C   UNL A   1      33.353  28.167  25.165  1.00  0.00     0.002 C 
ENDROOT
BRANCH   1   2
ATOM      2  C   UNL A   1      33.869  26.977  24.336  1.00  0.00     0.002 C 
BRANCH   2   3
ATOM      3  C   UNL A   1      33.115  26.663  23.037  1.00  0.00     0.021 C 
BRANCH   3   4
ATOM      4  C   UNL A   1      33.643  25.460  22.254  1.00  0.00     0.116 C 
BRANCH   4   5
ATOM      5  N   UNL A   1      33.676  24.273  23.075  1.00  0.00    -0.355 N 
ATOM      6  C   UNL A   1      32.933  23.168  22.722  1.00  0.00     0.230 C 
ATOM      7  O   UNL A   1      33.140  22.590  21.656  1.00  0.00    -0.274 OA
ATOM      8  H   UNL A   1      34.229  24.253  23.889  1.00  0.00     0.163 HD
BRANCH   6   9
ATOM      9  C   UNL A   1      31.843  22.719  23.702  1.00  0.00     0.137 C 
ATOM     10  C   UNL A   1      32.329  21.636  24.711  1.00  0.00     0.138 C 
ATOM     11  N   UNL A   1      33.024  22.293  25.831  1.00  0.00    -0.300 N 
ATOM     12  C   UNL A   1      31.160  23.861  24.470  1.00  0.00    -0.020 A 
ATOM     13  C   UNL A   1      32.103  22.974  26.649  1.00  0.00     0.259 C 
ATOM     14  C   UNL A   1      30.441  24.853  23.786  1.00  0.00     0.005 A 
ATOM     15  C   UNL A   1      31.243  23.937  25.879  1.00  0.00     0.044 A 
ATOM     16  O   UNL A   1      32.067  22.916  27.870  1.00  0.00    -0.269 OA
ATOM     17  C   UNL A   1      29.865  25.918  24.481  1.00  0.00     0.000 A 
ATOM     18  C   UNL A   1      30.624  24.980  26.574  1.00  0.00     0.014 A 
ATOM     19  C   UNL A   1      29.950  25.978  25.872  1.00  0.00     0.001 A 
BRANCH  10  20
ATOM     20  C   UNL A   1      32.753  20.273  24.174  1.00  0.00    -0.024 A 
ATOM     21  C   UNL A   1      33.879  16.212  23.171  1.00  0.00     0.044 C 
ATOM     22  C   UNL A   1      33.568  17.657  23.423  1.00  0.00    -0.051 A 
ATOM     23  C   UNL A   1      32.519  18.300  22.762  1.00  0.00     0.004 A 
ATOM     24  C   UNL A   1      34.282  18.366  24.388  1.00  0.00     0.004 A 
ATOM     25  C   UNL A   1      32.157  19.613  23.095  1.00  0.00     0.006 A 
ATOM     26  C   UNL A   1      33.877  19.650  24.757  1.00  0.00     0.006 A 
ENDBRANCH  10  20
BRANCH  11  27
ATOM     27  C   UNL A   1      34.343  22.889  25.727  1.00  0.00     0.045 A 
ATOM     28  C   UNL A   1      35.433  22.096  25.309  1.00  0.00     0.026 A 
ATOM     29  C   UNL A   1      34.642  24.192  26.141  1.00  0.00     0.026 A 
ATOM     30  C   UNL A   1      36.754  22.550  25.380  1.00  0.00     0.002 A 
ATOM     31  C   UNL A   1      35.961  24.669  26.171  1.00  0.00     0.002 A 
ATOM     32  C   UNL A   1      37.018  23.840  25.814  1.00  0.00     0.000 A 
ENDBRANCH  11  27
ENDBRANCH   6   9
ENDBRANCH   4   5
ENDBRANCH   3   4
ENDBRANCH   2   3
ENDBRANCH   1   2
BRANCH   1  33
ATOM     33  C   UNL A   1      34.385  28.890  26.033  1.00  0.00     0.021 C 
BRANCH  33  34
ATOM     34  C   UNL A   1      33.837  29.418  27.355  1.00  0.00     0.116 C 
BRANCH  34  35
ATOM     35  N   UNL A   1      34.474  30.649  27.806  1.00  0.00    -0.352 N 
ATOM     36  C   UNL A   1      35.737  30.872  28.327  1.00  0.00     0.251 C 
ATOM     37  H   UNL A   1      33.915  31.455  27.724  1.00  0.00     0.163 HD
ATOM     38  O   UNL A   1      36.035  31.983  28.733  1.00  0.00    -0.269 OA
BRANCH  36  39
ATOM     39  C   UNL A   1      36.775  29.809  28.262  1.00  0.00     0.039 A 
ATOM     40  C   UNL A   1      36.930  28.979  29.383  1.00  0.00     0.014 A 
ATOM     41  C   UNL A   1      37.694  29.743  27.223  1.00  0.00     0.014 A 
ATOM     42  C   UNL A   1      38.124  28.285  29.568  1.00  0.00     0.010 A 
ATOM     43  C   UNL A   1      38.916  29.146  27.447  1.00  0.00     0.010 A 
ATOM     44  C   UNL A   1      39.154  28.478  28.650  1.00  0.00    -0.014 A 
BRANCH  44  45
ATOM     45  C   UNL A   1      40.545  28.140  28.912  1.00  0.00     0.031 A 
ATOM     46  C   UNL A   1      41.152  26.927  28.331  1.00  0.00     0.074 A 
ATOM     47  C   UNL A   1      41.314  29.044  29.559  1.00  0.00     0.049 A 
ATOM     48  N   UNL A   1      42.221  26.367  28.787  1.00  0.00    -0.248 NA
ATOM     49  C   UNL A   1      40.583  26.226  27.188  1.00  0.00     0.031 C 
ATOM     50  C   UNL A   1      42.772  29.082  29.622  1.00  0.00     0.029 A 
ATOM     51  N   UNL A   1      40.899  30.046  30.452  1.00  0.00    -0.354 N 
ATOM     52  C   UNL A   1      42.631  25.428  27.870  1.00  0.00     0.074 A 
ATOM     53  C   UNL A   1      41.545  25.336  26.921  1.00  0.00     0.031 C 
ATOM     54  C   UNL A   1      43.141  29.822  30.680  1.00  0.00     0.029 A 
ATOM     55  C   UNL A   1      41.932  30.149  31.412  1.00  0.00     0.049 A 
ATOM     56  H   UNL A   1      40.064  30.567  30.416  1.00  0.00     0.167 HD
ATOM     57  C   UNL A   1      43.903  24.937  27.947  1.00  0.00     0.037 A 
ATOM     58  C   UNL A   1      41.716  29.846  32.725  1.00  0.00     0.037 A 
ATOM     59  C   UNL A   1      44.614  25.502  29.091  1.00  0.00     0.049 A 
ATOM     60  C   UNL A   1      42.597  28.741  33.247  1.00  0.00     0.074 A 
ATOM     61  C   UNL A   1      45.511  26.554  29.201  1.00  0.00     0.029 A 
ATOM     62  N   UNL A   1      44.206  25.194  30.384  1.00  0.00    -0.354 N 
ATOM     63  N   UNL A   1      43.165  27.846  32.488  1.00  0.00    -0.248 NA
ATOM     64  C   UNL A   1      42.894  28.546  34.663  1.00  0.00     0.031 C 
ATOM     65  C   UNL A   1      45.621  26.896  30.569  1.00  0.00     0.029 A 
ATOM     66  C   UNL A   1      44.803  26.045  31.292  1.00  0.00     0.049 A 
ATOM     67  H   UNL A   1      43.578  24.472  30.617  1.00  0.00     0.167 HD
ATOM     68  C   UNL A   1      43.879  26.971  33.267  1.00  0.00     0.074 A 
ATOM     69  C   UNL A   1      43.689  27.461  34.620  1.00  0.00     0.031 C 
ATOM     70  C   UNL A   1      44.561  25.920  32.721  1.00  0.00     0.037 A 
BRANCH  57  71
ATOM     71  C   UNL A   1      44.596  24.183  26.831  1.00  0.00     0.064 A 
ATOM     72  C   UNL A   1      44.335  22.812  26.607  1.00  0.00     0.173 A 
ATOM     73  C   UNL A   1      45.563  24.741  25.974  1.00  0.00     0.173 A 
ATOM     74  F   UNL A   1      43.360  22.166  27.259  1.00  0.00    -0.203 F 
ATOM     75  C   UNL A   1      45.071  22.041  25.703  1.00  0.00     0.198 A 
ATOM     76  C   UNL A   1      46.337  23.960  25.107  1.00  0.00     0.198 A 
ATOM     77  F   UNL A   1      45.752  26.064  25.907  1.00  0.00    -0.203 F 
ATOM     78  F   UNL A   1      44.783  20.742  25.549  1.00  0.00    -0.200 F 
ATOM     79  C   UNL A   1      46.100  22.607  24.982  1.00  0.00     0.200 A 
ATOM     80  F   UNL A   1      47.315  24.534  24.392  1.00  0.00    -0.200 F 
ATOM     81  F   UNL A   1      46.839  21.860  24.150  1.00  0.00    -0.200 F 
ENDBRANCH  57  71
BRANCH  58  82
ATOM     82  C   UNL A   1      40.320  30.107  33.163  1.00  0.00     0.064 A 
ATOM     83  C   UNL A   1      39.916  31.445  33.326  1.00  0.00     0.173 A 
ATOM     84  C   UNL A   1      39.319  29.139  33.025  1.00  0.00     0.173 A 
ATOM     85  F   UNL A   1      40.838  32.411  33.459  1.00  0.00    -0.203 F 
ATOM     86  C   UNL A   1      38.575  31.813  33.232  1.00  0.00     0.198 A 
ATOM     87  C   UNL A   1      37.975  29.510  32.941  1.00  0.00     0.198 A 
ATOM     88  F   UNL A   1      39.641  27.849  32.848  1.00  0.00    -0.203 F 
ATOM     89  F   UNL A   1      38.233  33.109  33.276  1.00  0.00    -0.200 F 
ATOM     90  C   UNL A   1      37.608  30.848  33.009  1.00  0.00     0.200 A 
ATOM     91  F   UNL A   1      37.040  28.581  32.699  1.00  0.00    -0.200 F 
ATOM     92  F   UNL A   1      36.332  31.207  32.818  1.00  0.00    -0.200 F 
ENDBRANCH  58  82
BRANCH  70  93
ATOM     93  C   UNL A   1      45.167  24.746  33.460  1.00  0.00     0.064 A 
ATOM     94  C   UNL A   1      44.479  23.558  33.760  1.00  0.00     0.173 A 
ATOM     95  C   UNL A   1      46.552  24.730  33.771  1.00  0.00     0.173 A 
ATOM     96  F   UNL A   1      43.200  23.381  33.406  1.00  0.00    -0.203 F 
ATOM     97  C   UNL A   1      45.104  22.474  34.384  1.00  0.00     0.198 A 
ATOM     98  C   UNL A   1      47.186  23.624  34.335  1.00  0.00     0.198 A 
ATOM     99  F   UNL A   1      47.345  25.779  33.508  1.00  0.00    -0.203 F 
ATOM    100  F   UNL A   1      44.387  21.383  34.689  1.00  0.00    -0.200 F 
ATOM    101  C   UNL A   1      46.458  22.501  34.660  1.00  0.00     0.200 A 
ATOM    102  F   UNL A   1      48.510  23.649  34.540  1.00  0.00    -0.200 F 
ATOM    103  F   UNL A   1      47.062  21.440  35.212  1.00  0.00    -0.200 F 
ENDBRANCH  70  93
ENDBRANCH  44  45
ENDBRANCH  36  39
ENDBRANCH  34  35
ENDBRANCH  33  34
ENDBRANCH   1  33
TORSDOF 15
ENDMDL
MODEL 2
REMARK VINA RESULT:     -14.1      1.495      2.252
REMARK SMILES Cc1ccc([C@@H]2[C@H](C(=O)NCCCCCCNC(=O)c3ccc(-c4c5nc(c(-c6c(F)c(F)c(F)c(F)c6F)c6ccc([nH]6)c(-c6c(F)c(F)c(F)c(F)c6F)c6nc(c(-c7c(F)c(F)c(F)c(F)c7F)c7ccc4[nH]7)C=C6)C=C5)cc3)c3ccccc3C(=O)N2c2ccccc2)cc1
REMARK SMILES IDX 14 1 13 2 12 3 11 4 10 5 8 6 9 7 7 9 6 10 91 11 83 12 89 13
REMARK SMILES IDX 84 14 88 15 90 16 85 17 87 18 86 19 5 20 1 21 2 22 3 23
REMARK SMILES IDX 99 24 4 25 98 26 92 27 93 28 97 29 94 30 96 31 95 32 15 33
REMARK SMILES IDX 16 34 17 35 18 36 19 38 20 39 21 40 82 41 22 42 81 43 23 44
REMARK SMILES IDX 24 45 25 46 75 47 26 48 80 49 74 50 76 51 27 52 79 53 73 54
REMARK SMILES IDX 72 55 28 57 60 58 40 59 59 60 41 61 44 62 58 63 77 64 42 65
REMARK SMILES IDX 43 66 57 68 78 69 45 70 29 71 30 72 38 73 31 74 32 75 36 76
REMARK SMILES IDX 39 77 33 78 34 79 37 80 35 81 61 82 62 83 70 84 63 85 64 86
REMARK SMILES IDX 68 87 71 88 65 89 66 90 69 91 67 92 46 93 47 94 55 95 48 96
REMARK SMILES IDX 49 97 53 98 56 99 50 100 51 101 54 102 52 103
REMARK H PARENT 10 8 17 37 76 56 44 67
REMARK Flexibility Score: inf
ROOT
ATOM      1  C   UNL A   1      33.711  28.062  24.844  1.00  0.00     0.002 C 
ENDROOT
BRANCH   1   2
ATOM      2  C   UNL A   1      33.474  26.721  24.126  1.00  0.00     0.002 C 
BRANCH   2   3
ATOM      3  C   UNL A   1      33.249  26.782  22.609  1.00  0.00     0.021 C 
BRANCH   3   4
ATOM      4  C   UNL A   1      33.357  25.440  21.882  1.00  0.00     0.116 C 
BRANCH   4   5
ATOM      5  N   UNL A   1      33.477  24.346  22.817  1.00  0.00    -0.355 N 
ATOM      6  C   UNL A   1      32.828  23.155  22.575  1.00  0.00     0.230 C 
ATOM      7  O   UNL A   1      33.088  22.494  21.572  1.00  0.00    -0.274 OA
ATOM      8  H   UNL A   1      34.023  24.450  23.629  1.00  0.00     0.163 HD
BRANCH   6   9
ATOM      9  C   UNL A   1      31.768  22.720  23.594  1.00  0.00     0.137 C 
ATOM     10  C   UNL A   1      32.296  21.676  24.623  1.00  0.00     0.138 C 
ATOM     11  N   UNL A   1      33.006  22.377  25.706  1.00  0.00    -0.300 N 
ATOM     12  C   UNL A   1      31.085  23.874  24.344  1.00  0.00    -0.020 A 
ATOM     13  C   UNL A   1      32.094  23.068  26.525  1.00  0.00     0.259 C 
ATOM     14  C   UNL A   1      30.334  24.833  23.648  1.00  0.00     0.005 A 
ATOM     15  C   UNL A   1      31.200  23.994  25.748  1.00  0.00     0.044 A 
ATOM     16  O   UNL A   1      32.088  23.047  27.748  1.00  0.00    -0.269 OA
ATOM     17  C   UNL A   1      29.757  25.910  24.325  1.00  0.00     0.000 A 
ATOM     18  C   UNL A   1      30.582  25.048  26.426  1.00  0.00     0.014 A 
ATOM     19  C   UNL A   1      29.874  26.013  25.711  1.00  0.00     0.001 A 
BRANCH  10  20
ATOM     20  C   UNL A   1      32.729  20.304  24.117  1.00  0.00    -0.024 A 
ATOM     21  C   UNL A   1      33.873  16.227  23.204  1.00  0.00     0.044 C 
ATOM     22  C   UNL A   1      33.557  17.676  23.425  1.00  0.00    -0.051 A 
ATOM     23  C   UNL A   1      32.518  18.306  22.737  1.00  0.00     0.004 A 
ATOM     24  C   UNL A   1      34.256  18.402  24.388  1.00  0.00     0.004 A 
ATOM     25  C   UNL A   1      32.149  19.624  23.041  1.00  0.00     0.006 A 
ATOM     26  C   UNL A   1      33.845  19.692  24.728  1.00  0.00     0.006 A 
ENDBRANCH  10  20
BRANCH  11  27
ATOM     27  C   UNL A   1      34.312  22.990  25.552  1.00  0.00     0.045 A 
ATOM     28  C   UNL A   1      35.348  22.270  24.918  1.00  0.00     0.026 A 
ATOM     29  C   UNL A   1      34.663  24.225  26.112  1.00  0.00     0.026 A 
ATOM     30  C   UNL A   1      36.673  22.718  24.917  1.00  0.00     0.002 A 
ATOM     31  C   UNL A   1      35.982  24.701  26.072  1.00  0.00     0.002 A 
ATOM     32  C   UNL A   1      36.990  23.936  25.497  1.00  0.00     0.000 A 
ENDBRANCH  11  27
ENDBRANCH   6   9
ENDBRANCH   4   5
ENDBRANCH   3   4
ENDBRANCH   2   3
ENDBRANCH   1   2
BRANCH   1  33
ATOM     33  C   UNL A   1      33.847  28.003  26.367  1.00  0.00     0.021 C 
BRANCH  33  34
ATOM     34  C   UNL A   1      34.756  29.074  26.960  1.00  0.00     0.116 C 
BRANCH  34  35
ATOM     35  N   UNL A   1      34.124  30.382  27.080  1.00  0.00    -0.352 N 
ATOM     36  C   UNL A   1      34.389  31.436  27.940  1.00  0.00     0.251 C 
ATOM     37  H   UNL A   1      33.390  30.545  26.445  1.00  0.00     0.163 HD
ATOM     38  O   UNL A   1      33.665  32.417  27.931  1.00  0.00    -0.269 OA
BRANCH  36  39
ATOM     39  C   UNL A   1      35.627  31.440  28.764  1.00  0.00     0.039 A 
ATOM     40  C   UNL A   1      36.632  32.359  28.427  1.00  0.00     0.014 A 
ATOM     41  C   UNL A   1      35.881  30.456  29.711  1.00  0.00     0.014 A 
ATOM     42  C   UNL A   1      37.942  32.132  28.844  1.00  0.00     0.010 A 
ATOM     43  C   UNL A   1      37.188  30.166  30.041  1.00  0.00     0.010 A 
ATOM     44  C   UNL A   1      38.223  30.964  29.549  1.00  0.00    -0.014 A 
BRANCH  44  45
ATOM     45  C   UNL A   1      39.562  30.418  29.707  1.00  0.00     0.031 A 
ATOM     46  C   UNL A   1      39.972  29.195  28.989  1.00  0.00     0.074 A 
ATOM     47  C   UNL A   1      40.474  31.143  30.391  1.00  0.00     0.049 A 
ATOM     48  N   UNL A   1      40.969  28.456  29.336  1.00  0.00    -0.248 NA
ATOM     49  C   UNL A   1      39.266  28.691  27.818  1.00  0.00     0.031 C 
ATOM     50  C   UNL A   1      41.925  30.978  30.381  1.00  0.00     0.029 A 
ATOM     51  N   UNL A   1      40.239  32.102  31.391  1.00  0.00    -0.354 N 
ATOM     52  C   UNL A   1      41.208  27.562  28.318  1.00  0.00     0.074 A 
ATOM     53  C   UNL A   1      40.083  27.709  27.423  1.00  0.00     0.031 C 
ATOM     54  C   UNL A   1      42.434  31.556  31.481  1.00  0.00     0.029 A 
ATOM     55  C   UNL A   1      41.312  31.972  32.302  1.00  0.00     0.049 A 
ATOM     56  H   UNL A   1      39.484  32.732  31.446  1.00  0.00     0.167 HD
ATOM     57  C   UNL A   1      42.401  26.899  28.284  1.00  0.00     0.037 A 
ATOM     58  C   UNL A   1      41.108  31.576  33.591  1.00  0.00     0.037 A 
ATOM     59  C   UNL A   1      43.229  27.250  29.436  1.00  0.00     0.049 A 
ATOM     60  C   UNL A   1      41.846  30.317  33.966  1.00  0.00     0.074 A 
ATOM     61  C   UNL A   1      44.267  28.155  29.594  1.00  0.00     0.029 A 
ATOM     62  N   UNL A   1      42.832  26.878  30.715  1.00  0.00    -0.354 N 
ATOM     63  N   UNL A   1      42.254  29.431  33.101  1.00  0.00    -0.248 NA
ATOM     64  C   UNL A   1      42.169  29.948  35.341  1.00  0.00     0.031 C 
ATOM     65  C   UNL A   1      44.477  28.347  30.979  1.00  0.00     0.029 A 
ATOM     66  C   UNL A   1      43.577  27.549  31.665  1.00  0.00     0.049 A 
ATOM     67  H   UNL A   1      42.120  26.228  30.916  1.00  0.00     0.167 HD
ATOM     68  C   UNL A   1      42.869  28.397  33.760  1.00  0.00     0.074 A 
ATOM     69  C   UNL A   1      42.802  28.775  35.159  1.00  0.00     0.031 C 
ATOM     70  C   UNL A   1      43.376  27.320  33.087  1.00  0.00     0.037 A 
BRANCH  57  71
ATOM     71  C   UNL A   1      42.938  26.169  27.071  1.00  0.00     0.064 A 
ATOM     72  C   UNL A   1      42.424  24.908  26.693  1.00  0.00     0.173 A 
ATOM     73  C   UNL A   1      43.991  26.636  26.263  1.00  0.00     0.173 A 
ATOM     74  F   UNL A   1      41.346  24.381  27.287  1.00  0.00    -0.203 F 
ATOM     75  C   UNL A   1      43.000  24.128  25.686  1.00  0.00     0.198 A 
ATOM     76  C   UNL A   1      44.603  25.835  25.291  1.00  0.00     0.198 A 
ATOM     77  F   UNL A   1      44.425  27.899  26.348  1.00  0.00    -0.203 F 
ATOM     78  F   UNL A   1      42.472  22.933  25.387  1.00  0.00    -0.200 F 
ATOM     79  C   UNL A   1      44.116  24.575  25.012  1.00  0.00     0.200 A 
ATOM     80  F   UNL A   1      45.671  26.298  24.625  1.00  0.00    -0.200 F 
ATOM     81  F   UNL A   1      44.700  23.809  24.081  1.00  0.00    -0.200 F 
ENDBRANCH  57  71
BRANCH  58  82
ATOM     82  C   UNL A   1      39.780  31.979  34.123  1.00  0.00     0.064 A 
ATOM     83  C   UNL A   1      39.653  33.264  34.683  1.00  0.00     0.173 A 
ATOM     84  C   UNL A   1      38.607  31.323  33.732  1.00  0.00     0.173 A 
ATOM     85  F   UNL A   1      40.749  33.936  35.071  1.00  0.00    -0.203 F 
ATOM     86  C   UNL A   1      38.421  33.912  34.737  1.00  0.00     0.198 A 
ATOM     87  C   UNL A   1      37.372  31.973  33.797  1.00  0.00     0.198 A 
ATOM     88  F   UNL A   1      38.664  30.105  33.175  1.00  0.00    -0.203 F 
ATOM     89  F   UNL A   1      38.351  35.180  35.170  1.00  0.00    -0.200 F 
ATOM     90  C   UNL A   1      37.286  33.277  34.265  1.00  0.00     0.200 A 
ATOM     91  F   UNL A   1      36.276  31.369  33.316  1.00  0.00    -0.200 F 
ATOM     92  F   UNL A   1      36.118  33.932  34.222  1.00  0.00    -0.200 F 
ENDBRANCH  58  82
BRANCH  70  93
ATOM     93  C   UNL A   1      43.841  26.010  33.685  1.00  0.00     0.064 A 
ATOM     94  C   UNL A   1      45.156  25.523  33.601  1.00  0.00     0.173 A 
ATOM     95  C   UNL A   1      42.972  25.248  34.510  1.00  0.00     0.173 A 
ATOM     96  F   UNL A   1      46.116  26.205  32.965  1.00  0.00    -0.203 F 
ATOM     97  C   UNL A   1      45.552  24.338  34.230  1.00  0.00     0.198 A 
ATOM     98  C   UNL A   1      43.386  24.102  35.186  1.00  0.00     0.198 A 
ATOM     99  F   UNL A   1      41.697  25.610  34.714  1.00  0.00    -0.203 F 
ATOM    100  F   UNL A   1      46.809  23.896  34.078  1.00  0.00    -0.200 F 
ATOM    101  C   UNL A   1      44.673  23.635  35.032  1.00  0.00     0.200 A 
ATOM    102  F   UNL A   1      42.535  23.468  36.005  1.00  0.00    -0.200 F 
ATOM    103  F   UNL A   1      45.072  22.528  35.671  1.00  0.00    -0.200 F 
ENDBRANCH  70  93
ENDBRANCH  44  45
ENDBRANCH  36  39
ENDBRANCH  34  35
ENDBRANCH  33  34
ENDBRANCH   1  33
TORSDOF 15
ENDMDL
MODEL 3
REMARK VINA RESULT:     -13.9      3.613      9.831
REMARK SMILES Cc1ccc([C@@H]2[C@H](C(=O)NCCCCCCNC(=O)c3ccc(-c4c5nc(c(-c6c(F)c(F)c(F)c(F)c6F)c6ccc([nH]6)c(-c6c(F)c(F)c(F)c(F)c6F)c6nc(c(-c7c(F)c(F)c(F)c(F)c7F)c7ccc4[nH]7)C=C6)C=C5)cc3)c3ccccc3C(=O)N2c2ccccc2)cc1
REMARK SMILES IDX 14 1 13 2 12 3 11 4 10 5 8 6 9 7 7 9 6 10 91 11 83 12 89 13
REMARK SMILES IDX 84 14 88 15 90 16 85 17 87 18 86 19 5 20 1 21 2 22 3 23
REMARK SMILES IDX 99 24 4 25 98 26 92 27 93 28 97 29 94 30 96 31 95 32 15 33
REMARK SMILES IDX 16 34 17 35 18 36 19 38 20 39 21 40 82 41 22 42 81 43 23 44
REMARK SMILES IDX 24 45 25 46 75 47 26 48 80 49 74 50 76 51 27 52 79 53 73 54
REMARK SMILES IDX 72 55 28 57 60 58 40 59 59 60 41 61 44 62 58 63 77 64 42 65
REMARK SMILES IDX 43 66 57 68 78 69 45 70 29 71 30 72 38 73 31 74 32 75 36 76
REMARK SMILES IDX 39 77 33 78 34 79 37 80 35 81 61 82 62 83 70 84 63 85 64 86
REMARK SMILES IDX 68 87 71 88 65 89 66 90 69 91 67 92 46 93 47 94 55 95 48 96
REMARK SMILES IDX 49 97 53 98 56 99 50 100 51 101 54 102 52 103
REMARK H PARENT 10 8 17 37 76 56 44 67
REMARK Flexibility Score: inf
ROOT
ATOM      1  C   UNL A   1      35.221  23.712  26.174  1.00  0.00     0.002 C 
ENDROOT
BRANCH   1   2
ATOM      2  C   UNL A   1      33.758  23.247  26.064  1.00  0.00     0.002 C 
BRANCH   2   3
ATOM      3  C   UNL A   1      32.819  23.648  27.209  1.00  0.00     0.021 C 
BRANCH   3   4
ATOM      4  C   UNL A   1      31.406  24.048  26.782  1.00  0.00     0.116 C 
BRANCH   4   5
ATOM      5  N   UNL A   1      31.427  25.213  25.928  1.00  0.00    -0.355 N 
ATOM      6  C   UNL A   1      30.314  25.548  25.188  1.00  0.00     0.230 C 
ATOM      7  O   UNL A   1      29.252  25.818  25.745  1.00  0.00    -0.274 OA
ATOM      8  H   UNL A   1      32.238  25.768  25.873  1.00  0.00     0.163 HD
BRANCH   6   9
ATOM      9  C   UNL A   1      30.465  25.544  23.662  1.00  0.00     0.137 C 
ATOM     10  C   UNL A   1      30.805  26.945  23.074  1.00  0.00     0.138 C 
ATOM     11  N   UNL A   1      32.255  27.180  23.186  1.00  0.00    -0.300 N 
ATOM     12  C   UNL A   1      31.459  24.507  23.117  1.00  0.00    -0.020 A 
ATOM     13  C   UNL A   1      32.956  26.370  22.274  1.00  0.00     0.259 C 
ATOM     14  C   UNL A   1      31.241  23.135  23.316  1.00  0.00     0.005 A 
ATOM     15  C   UNL A   1      32.611  24.913  22.406  1.00  0.00     0.044 A 
ATOM     16  O   UNL A   1      33.852  26.753  21.534  1.00  0.00    -0.269 OA
ATOM     17  C   UNL A   1      32.172  22.197  22.865  1.00  0.00     0.000 A 
ATOM     18  C   UNL A   1      33.516  23.966  21.916  1.00  0.00     0.014 A 
ATOM     19  C   UNL A   1      33.302  22.610  22.160  1.00  0.00     0.001 A 
BRANCH  10  20
ATOM     20  C   UNL A   1      29.783  28.068  23.217  1.00  0.00    -0.024 A 
ATOM     21  C   UNL A   1      27.153  31.510  23.207  1.00  0.00     0.044 C 
ATOM     22  C   UNL A   1      28.037  30.306  23.336  1.00  0.00    -0.051 A 
ATOM     23  C   UNL A   1      27.538  29.015  23.148  1.00  0.00     0.004 A 
ATOM     24  C   UNL A   1      29.401  30.465  23.576  1.00  0.00     0.004 A 
ATOM     25  C   UNL A   1      28.396  27.906  23.147  1.00  0.00     0.006 A 
ATOM     26  C   UNL A   1      30.257  29.364  23.514  1.00  0.00     0.006 A 
ENDBRANCH  10  20
BRANCH  11  27
ATOM     27  C   UNL A   1      32.934  27.462  24.437  1.00  0.00     0.045 A 
ATOM     28  C   UNL A   1      32.598  28.625  25.164  1.00  0.00     0.026 A 
ATOM     29  C   UNL A   1      34.012  26.713  24.923  1.00  0.00     0.026 A 
ATOM     30  C   UNL A   1      33.347  29.058  26.262  1.00  0.00     0.002 A 
ATOM     31  C   UNL A   1      34.738  27.119  26.053  1.00  0.00     0.002 A 
ATOM     32  C   UNL A   1      34.421  28.303  26.707  1.00  0.00     0.000 A 
ENDBRANCH  11  27
ENDBRANCH   6   9
ENDBRANCH   4   5
ENDBRANCH   3   4
ENDBRANCH   2   3
ENDBRANCH   1   2
BRANCH   1  33
ATOM     33  C   UNL A   1      36.293  22.645  25.942  1.00  0.00     0.021 C 
BRANCH  33  34
ATOM     34  C   UNL A   1      37.625  23.190  25.437  1.00  0.00     0.116 C 
BRANCH  34  35
ATOM     35  N   UNL A   1      38.777  22.729  26.201  1.00  0.00    -0.352 N 
ATOM     36  C   UNL A   1      39.678  23.430  26.985  1.00  0.00     0.251 C 
ATOM     37  H   UNL A   1      38.941  21.759  26.155  1.00  0.00     0.163 HD
ATOM     38  O   UNL A   1      40.638  22.850  27.466  1.00  0.00    -0.269 OA
BRANCH  36  39
ATOM     39  C   UNL A   1      39.406  24.842  27.362  1.00  0.00     0.039 A 
ATOM     40  C   UNL A   1      40.025  25.850  26.607  1.00  0.00     0.014 A 
ATOM     41  C   UNL A   1      38.725  25.173  28.527  1.00  0.00     0.014 A 
ATOM     42  C   UNL A   1      40.175  27.125  27.148  1.00  0.00     0.010 A 
ATOM     43  C   UNL A   1      38.959  26.398  29.113  1.00  0.00     0.010 A 
ATOM     44  C   UNL A   1      39.743  27.347  28.454  1.00  0.00    -0.014 A 
BRANCH  44  45
ATOM     45  C   UNL A   1      40.170  28.477  29.265  1.00  0.00     0.031 A 
ATOM     46  C   UNL A   1      39.215  29.531  29.659  1.00  0.00     0.074 A 
ATOM     47  C   UNL A   1      41.416  28.456  29.789  1.00  0.00     0.049 A 
ATOM     48  N   UNL A   1      39.564  30.712  30.044  1.00  0.00    -0.248 NA
ATOM     49  C   UNL A   1      37.771  29.343  29.628  1.00  0.00     0.031 C 
ATOM     50  C   UNL A   1      41.929  29.274  30.885  1.00  0.00     0.029 A 
ATOM     51  N   UNL A   1      42.545  27.777  29.302  1.00  0.00    -0.354 N 
ATOM     52  C   UNL A   1      38.451  31.333  30.562  1.00  0.00     0.074 A 
ATOM     53  C   UNL A   1      37.348  30.463  30.225  1.00  0.00     0.031 C 
ATOM     54  C   UNL A   1      43.270  29.291  30.821  1.00  0.00     0.029 A 
ATOM     55  C   UNL A   1      43.646  28.613  29.594  1.00  0.00     0.049 A 
ATOM     56  H   UNL A   1      42.564  26.902  28.851  1.00  0.00     0.167 HD
ATOM     57  C   UNL A   1      38.613  32.447  31.335  1.00  0.00     0.037 A 
ATOM     58  C   UNL A   1      44.402  29.168  28.603  1.00  0.00     0.037 A 
ATOM     59  C   UNL A   1      40.023  32.818  31.430  1.00  0.00     0.049 A 
ATOM     60  C   UNL A   1      44.429  30.675  28.631  1.00  0.00     0.074 A 
ATOM     61  C   UNL A   1      40.986  32.575  32.397  1.00  0.00     0.029 A 
ATOM     62  N   UNL A   1      40.702  33.262  30.300  1.00  0.00    -0.354 N 
ATOM     63  N   UNL A   1      43.510  31.407  29.196  1.00  0.00    -0.248 NA
ATOM     64  C   UNL A   1      45.480  31.476  28.011  1.00  0.00     0.031 C 
ATOM     65  C   UNL A   1      42.254  32.850  31.835  1.00  0.00     0.029 A 
ATOM     66  C   UNL A   1      42.063  33.273  30.531  1.00  0.00     0.049 A 
ATOM     67  H   UNL A   1      40.272  33.528  29.455  1.00  0.00     0.167 HD
ATOM     68  C   UNL A   1      43.814  32.734  29.028  1.00  0.00     0.074 A 
ATOM     69  C   UNL A   1      45.064  32.724  28.292  1.00  0.00     0.031 C 
ATOM     70  C   UNL A   1      43.001  33.721  29.513  1.00  0.00     0.037 A 
BRANCH  57  71
ATOM     71  C   UNL A   1      37.543  33.021  32.240  1.00  0.00     0.064 A 
ATOM     72  C   UNL A   1      36.516  33.843  31.723  1.00  0.00     0.173 A 
ATOM     73  C   UNL A   1      37.498  32.839  33.634  1.00  0.00     0.173 A 
ATOM     74  F   UNL A   1      36.352  34.018  30.406  1.00  0.00    -0.203 F 
ATOM     75  C   UNL A   1      35.611  34.526  32.540  1.00  0.00     0.198 A 
ATOM     76  C   UNL A   1      36.628  33.563  34.458  1.00  0.00     0.198 A 
ATOM     77  F   UNL A   1      38.253  31.914  34.239  1.00  0.00    -0.203 F 
ATOM     78  F   UNL A   1      34.670  35.302  31.986  1.00  0.00    -0.200 F 
ATOM     79  C   UNL A   1      35.694  34.418  33.911  1.00  0.00     0.200 A 
ATOM     80  F   UNL A   1      36.703  33.423  35.790  1.00  0.00    -0.200 F 
ATOM     81  F   UNL A   1      34.859  35.110  34.699  1.00  0.00    -0.200 F 
ENDBRANCH  57  71
BRANCH  58  82
ATOM     82  C   UNL A   1      44.459  28.334  27.375  1.00  0.00     0.064 A 
ATOM     83  C   UNL A   1      45.217  27.148  27.415  1.00  0.00     0.173 A 
ATOM     84  C   UNL A   1      43.501  28.459  26.362  1.00  0.00     0.173 A 
ATOM     85  F   UNL A   1      46.146  26.980  28.369  1.00  0.00    -0.203 F 
ATOM     86  C   UNL A   1      44.944  26.086  26.556  1.00  0.00     0.198 A 
ATOM     87  C   UNL A   1      43.238  27.395  25.496  1.00  0.00     0.198 A 
ATOM     88  F   UNL A   1      42.736  29.557  26.283  1.00  0.00    -0.203 F 
ATOM     89  F   UNL A   1      45.606  24.928  26.694  1.00  0.00    -0.200 F 
ATOM     90  C   UNL A   1      43.933  26.199  25.617  1.00  0.00     0.200 A 
ATOM     91  F   UNL A   1      42.242  27.493  24.604  1.00  0.00    -0.200 F 
ATOM     92  F   UNL A   1      43.601  25.147  24.857  1.00  0.00    -0.200 F 
ENDBRANCH  58  82
BRANCH  70  93
ATOM     93  C   UNL A   1      43.068  35.197  29.187  1.00  0.00     0.064 A 
ATOM     94  C   UNL A   1      42.361  35.811  28.140  1.00  0.00     0.173 A 
ATOM     95  C   UNL A   1      43.765  36.091  30.043  1.00  0.00     0.173 A 
ATOM     96  F   UNL A   1      41.557  35.109  27.332  1.00  0.00    -0.203 F 
ATOM     97  C   UNL A   1      42.403  37.192  27.923  1.00  0.00     0.198 A 
ATOM     98  C   UNL A   1      43.753  37.473  29.861  1.00  0.00     0.198 A 
ATOM     99  F   UNL A   1      44.455  35.654  31.106  1.00  0.00    -0.203 F 
ATOM    100  F   UNL A   1      41.745  37.718  26.880  1.00  0.00    -0.200 F 
ATOM    101  C   UNL A   1      43.087  38.023  28.789  1.00  0.00     0.200 A 
ATOM    102  F   UNL A   1      44.374  38.265  30.745  1.00  0.00    -0.200 F 
ATOM    103  F   UNL A   1      43.083  39.350  28.604  1.00  0.00    -0.200 F 
ENDBRANCH  70  93
ENDBRANCH  44  45
ENDBRANCH  36  39
ENDBRANCH  34  35
ENDBRANCH  33  34
ENDBRANCH   1  33
TORSDOF 15
ENDMDL
