MODEL 1
REMARK VINA RESULT:     -11.6      0.000      0.000
REMARK SMILES O=C(/C=C/c1cc(F)cc(C[N@@H+]2CCC[C@H]2CO)c1)NCCCCCCNC(=O)c1ccc(-c2c3nc(c(-c4c(F)c(F)c(F)c(F)c4F)c4ccc([nH]4)c(-c4c(F)c(F)c(F)c(F)c4F)c4nc(c(-c5c(F)c(F)c(F)c(F)c5F)c5ccc2[nH]5)C=C4)C=C3)cc1
REMARK SMILES IDX 22 1 21 2 20 3 1 4 2 5 3 7 4 8 5 9 6 10 19 11 7 12 10 13
REMARK SMILES IDX 8 14 9 15 11 16 12 17 13 18 16 19 14 21 15 22 17 23 18 24
REMARK SMILES IDX 23 26 24 27 25 28 26 29 27 30 28 31 29 33 30 34 31 35 92 36
REMARK SMILES IDX 32 37 91 38 33 39 34 40 35 41 85 42 36 43 90 44 84 45 86 46
REMARK SMILES IDX 37 47 89 48 83 49 82 50 38 52 70 53 50 54 69 55 51 56 54 57
REMARK SMILES IDX 68 58 87 59 52 60 53 61 67 63 88 64 55 65 39 66 40 67 48 68
REMARK SMILES IDX 41 69 42 70 46 71 49 72 43 73 44 74 47 75 45 76 71 77 72 78
REMARK SMILES IDX 80 79 73 80 74 81 78 82 81 83 75 84 76 85 79 86 77 87 56 88
REMARK SMILES IDX 57 89 65 90 58 91 59 92 63 93 66 94 60 95 61 96 64 97 62 98
REMARK H PARENT 20 6 12 20 18 25 27 32 86 51 54 62
REMARK Flexibility Score: inf
ROOT
ATOM      1  C   UNL A   1      33.266  20.497  25.553  1.00  0.00     0.021 C 
ENDROOT
BRANCH   1   2
ATOM      2  C   UNL A   1      31.902  21.182  25.475  1.00  0.00     0.116 C 
BRANCH   2   3
ATOM      3  N   UNL A   1      32.032  22.616  25.339  1.00  0.00    -0.353 N 
ATOM      4  O   UNL A   1      31.689  23.132  27.554  1.00  0.00    -0.270 OA
ATOM      5  C   UNL A   1      31.862  23.477  26.394  1.00  0.00     0.243 C 
ATOM      6  H   UNL A   1      32.251  22.990  24.455  1.00  0.00     0.163 HD
BRANCH   5   7
ATOM      7  C   UNL A   1      31.973  24.919  26.057  1.00  0.00     0.072 C 
ATOM      8  C   UNL A   1      30.934  25.769  26.074  1.00  0.00     0.014 C 
BRANCH   8   9
ATOM      9  C   UNL A   1      31.035  27.194  25.738  1.00  0.00    -0.022 A 
ATOM     10  C   UNL A   1      31.464  28.146  26.668  1.00  0.00     0.047 A 
ATOM     11  C   UNL A   1      30.779  27.598  24.419  1.00  0.00     0.018 A 
ATOM     12  C   UNL A   1      31.670  29.458  26.263  1.00  0.00     0.124 A 
ATOM     13  C   UNL A   1      30.952  28.933  24.015  1.00  0.00     0.010 A 
ATOM     14  F   UNL A   1      32.087  30.365  27.156  1.00  0.00    -0.207 F 
ATOM     15  C   UNL A   1      31.451  29.850  24.948  1.00  0.00     0.048 A 
BRANCH  13  16
ATOM     16  C   UNL A   1      30.610  29.357  22.604  1.00  0.00     0.299 C 
BRANCH  16  17
ATOM     17  N   UNL A   1      29.191  29.534  22.268  1.00  0.00    -0.327 N 
ATOM     18  C   UNL A   1      28.895  30.660  21.382  1.00  0.00     0.263 C 
ATOM     19  C   UNL A   1      28.257  29.620  23.411  1.00  0.00     0.210 C 
ATOM     20  H   UNL A   1      29.026  28.655  21.777  1.00  0.00     0.348 HD
ATOM     21  C   UNL A   1      28.373  31.776  22.264  1.00  0.00     0.068 C 
ATOM     22  C   UNL A   1      27.772  31.073  23.465  1.00  0.00     0.073 C 
BRANCH  19  23
ATOM     23  C   UNL A   1      27.079  28.642  23.193  1.00  0.00     0.220 C 
BRANCH  23  24
ATOM     24  O   UNL A   1      27.463  27.315  23.550  1.00  0.00    -0.390 OA
ATOM     25  H   UNL A   1      28.164  27.009  22.954  1.00  0.00     0.210 HD
ENDBRANCH  23  24
ENDBRANCH  19  23
ENDBRANCH  16  17
ENDBRANCH  13  16
ENDBRANCH   8   9
ENDBRANCH   5   7
ENDBRANCH   2   3
ENDBRANCH   1   2
BRANCH   1  26
ATOM     26  C   UNL A   1      34.442  21.348  25.051  1.00  0.00     0.002 C 
BRANCH  26  27
ATOM     27  C   UNL A   1      35.378  21.888  26.137  1.00  0.00     0.002 C 
BRANCH  27  28
ATOM     28  C   UNL A   1      35.805  23.347  25.968  1.00  0.00     0.021 C 
BRANCH  28  29
ATOM     29  C   UNL A   1      37.075  23.556  25.148  1.00  0.00     0.116 C 
BRANCH  29  30
ATOM     30  N   UNL A   1      38.146  22.651  25.535  1.00  0.00    -0.352 N 
ATOM     31  C   UNL A   1      39.312  22.909  26.216  1.00  0.00     0.251 C 
ATOM     32  H   UNL A   1      38.016  21.712  25.269  1.00  0.00     0.163 HD
ATOM     33  O   UNL A   1      40.178  22.048  26.306  1.00  0.00    -0.269 OA
BRANCH  31  34
ATOM     34  C   UNL A   1      39.536  24.242  26.817  1.00  0.00     0.039 A 
ATOM     35  C   UNL A   1      39.101  24.473  28.125  1.00  0.00     0.014 A 
ATOM     36  C   UNL A   1      40.180  25.256  26.102  1.00  0.00     0.014 A 
ATOM     37  C   UNL A   1      39.389  25.691  28.746  1.00  0.00     0.010 A 
ATOM     38  C   UNL A   1      40.529  26.441  26.746  1.00  0.00     0.010 A 
ATOM     39  C   UNL A   1      40.149  26.665  28.078  1.00  0.00    -0.014 A 
BRANCH  39  40
ATOM     40  C   UNL A   1      40.603  27.897  28.774  1.00  0.00     0.031 A 
ATOM     41  C   UNL A   1      42.017  28.027  29.260  1.00  0.00     0.074 A 
ATOM     42  C   UNL A   1      39.710  28.871  29.036  1.00  0.00     0.049 A 
ATOM     43  N   UNL A   1      42.568  28.995  29.948  1.00  0.00    -0.248 NA
ATOM     44  C   UNL A   1      42.926  26.912  28.956  1.00  0.00     0.031 C 
ATOM     45  C   UNL A   1      38.298  28.843  28.653  1.00  0.00     0.029 A 
ATOM     46  N   UNL A   1      39.851  30.067  29.695  1.00  0.00    -0.354 N 
ATOM     47  C   UNL A   1      43.880  28.603  30.167  1.00  0.00     0.074 A 
ATOM     48  C   UNL A   1      44.033  27.288  29.583  1.00  0.00     0.031 C 
ATOM     49  C   UNL A   1      37.710  29.977  29.057  1.00  0.00     0.029 A 
ATOM     50  C   UNL A   1      38.687  30.794  29.771  1.00  0.00     0.049 A 
ATOM     51  H   UNL A   1      40.705  30.376  30.076  1.00  0.00     0.167 HD
ATOM     52  C   UNL A   1      44.872  29.290  30.784  1.00  0.00     0.037 A 
ATOM     53  C   UNL A   1      38.429  31.977  30.361  1.00  0.00     0.037 A 
ATOM     54  C   UNL A   1      44.718  30.607  31.346  1.00  0.00     0.049 A 
ATOM     55  C   UNL A   1      39.538  32.709  31.064  1.00  0.00     0.074 A 
ATOM     56  C   UNL A   1      45.683  31.414  31.919  1.00  0.00     0.029 A 
ATOM     57  N   UNL A   1      43.520  31.304  31.418  1.00  0.00    -0.354 N 
ATOM     58  N   UNL A   1      40.794  32.363  31.203  1.00  0.00    -0.248 NA
ATOM     59  C   UNL A   1      39.196  33.991  31.695  1.00  0.00     0.031 C 
ATOM     60  C   UNL A   1      45.059  32.568  32.399  1.00  0.00     0.029 A 
ATOM     61  C   UNL A   1      43.715  32.514  32.066  1.00  0.00     0.049 A 
ATOM     62  H   UNL A   1      42.659  30.986  31.061  1.00  0.00     0.167 HD
ATOM     63  C   UNL A   1      41.397  33.386  31.921  1.00  0.00     0.074 A 
ATOM     64  C   UNL A   1      40.371  34.374  32.179  1.00  0.00     0.031 C 
ATOM     65  C   UNL A   1      42.686  33.490  32.328  1.00  0.00     0.037 A 
BRANCH  52  66
ATOM     66  C   UNL A   1      46.220  28.633  30.889  1.00  0.00     0.064 A 
ATOM     67  C   UNL A   1      46.523  27.808  31.983  1.00  0.00     0.173 A 
ATOM     68  C   UNL A   1      47.232  28.870  29.947  1.00  0.00     0.173 A 
ATOM     69  F   UNL A   1      45.595  27.555  32.919  1.00  0.00    -0.203 F 
ATOM     70  C   UNL A   1      47.790  27.251  32.132  1.00  0.00     0.198 A 
ATOM     71  C   UNL A   1      48.488  28.284  30.082  1.00  0.00     0.198 A 
ATOM     72  F   UNL A   1      46.993  29.645  28.879  1.00  0.00    -0.203 F 
ATOM     73  F   UNL A   1      48.066  26.493  33.203  1.00  0.00    -0.200 F 
ATOM     74  C   UNL A   1      48.770  27.484  31.179  1.00  0.00     0.200 A 
ATOM     75  F   UNL A   1      49.425  28.489  29.145  1.00  0.00    -0.200 F 
ATOM     76  F   UNL A   1      49.984  26.935  31.315  1.00  0.00    -0.200 F 
ENDBRANCH  52  66
BRANCH  53  77
ATOM     77  C   UNL A   1      37.059  32.544  30.272  1.00  0.00     0.064 A 
ATOM     78  C   UNL A   1      36.666  33.341  29.187  1.00  0.00     0.173 A 
ATOM     79  C   UNL A   1      36.139  32.358  31.313  1.00  0.00     0.173 A 
ATOM     80  F   UNL A   1      37.513  33.554  28.169  1.00  0.00    -0.203 F 
ATOM     81  C   UNL A   1      35.419  33.962  29.164  1.00  0.00     0.198 A 
ATOM     82  C   UNL A   1      34.882  32.957  31.276  1.00  0.00     0.198 A 
ATOM     83  F   UNL A   1      36.462  31.588  32.362  1.00  0.00    -0.203 F 
ATOM     84  F   UNL A   1      35.090  34.761  28.140  1.00  0.00    -0.200 F 
ATOM     85  C   UNL A   1      34.528  33.769  30.208  1.00  0.00     0.200 A 
ATOM     86  F   UNL A   1      34.015  32.754  32.278  1.00  0.00    -0.200 F 
ATOM     87  F   UNL A   1      33.330  34.369  30.188  1.00  0.00    -0.200 F 
ENDBRANCH  53  77
BRANCH  65  88
ATOM     88  C   UNL A   1      43.081  34.717  33.098  1.00  0.00     0.064 A 
ATOM     89  C   UNL A   1      43.537  35.862  32.427  1.00  0.00     0.173 A 
ATOM     90  C   UNL A   1      43.109  34.722  34.500  1.00  0.00     0.173 A 
ATOM     91  F   UNL A   1      43.537  35.906  31.086  1.00  0.00    -0.203 F 
ATOM     92  C   UNL A   1      44.030  36.957  33.131  1.00  0.00     0.198 A 
ATOM     93  C   UNL A   1      43.575  35.831  35.201  1.00  0.00     0.198 A 
ATOM     94  F   UNL A   1      42.671  33.657  35.188  1.00  0.00    -0.203 F 
ATOM     95  F   UNL A   1      44.504  38.021  32.468  1.00  0.00    -0.200 F 
ATOM     96  C   UNL A   1      44.048  36.941  34.518  1.00  0.00     0.200 A 
ATOM     97  F   UNL A   1      43.569  35.824  36.542  1.00  0.00    -0.200 F 
ATOM     98  F   UNL A   1      44.521  37.996  35.194  1.00  0.00    -0.200 F 
ENDBRANCH  65  88
ENDBRANCH  39  40
ENDBRANCH  31  34
ENDBRANCH  29  30
ENDBRANCH  28  29
ENDBRANCH  27  28
ENDBRANCH  26  27
ENDBRANCH   1  26
TORSDOF 18
ENDMDL
MODEL 2
REMARK VINA RESULT:     -11.4      2.765      7.673
REMARK SMILES O=C(/C=C/c1cc(F)cc(C[N@@H+]2CCC[C@H]2CO)c1)NCCCCCCNC(=O)c1ccc(-c2c3nc(c(-c4c(F)c(F)c(F)c(F)c4F)c4ccc([nH]4)c(-c4c(F)c(F)c(F)c(F)c4F)c4nc(c(-c5c(F)c(F)c(F)c(F)c5F)c5ccc2[nH]5)C=C4)C=C3)cc1
REMARK SMILES IDX 22 1 21 2 20 3 1 4 2 5 3 7 4 8 5 9 6 10 19 11 7 12 10 13
REMARK SMILES IDX 8 14 9 15 11 16 12 17 13 18 16 19 14 21 15 22 17 23 18 24
REMARK SMILES IDX 23 26 24 27 25 28 26 29 27 30 28 31 29 33 30 34 31 35 92 36
REMARK SMILES IDX 32 37 91 38 33 39 34 40 35 41 85 42 36 43 90 44 84 45 86 46
REMARK SMILES IDX 37 47 89 48 83 49 82 50 38 52 70 53 50 54 69 55 51 56 54 57
REMARK SMILES IDX 68 58 87 59 52 60 53 61 67 63 88 64 55 65 39 66 40 67 48 68
REMARK SMILES IDX 41 69 42 70 46 71 49 72 43 73 44 74 47 75 45 76 71 77 72 78
REMARK SMILES IDX 80 79 73 80 74 81 78 82 81 83 75 84 76 85 79 86 77 87 56 88
REMARK SMILES IDX 57 89 65 90 58 91 59 92 63 93 66 94 60 95 61 96 64 97 62 98
REMARK H PARENT 20 6 12 20 18 25 27 32 86 51 54 62
REMARK Flexibility Score: inf
ROOT
ATOM      1  C   UNL A   1      32.539  20.992  24.373  1.00  0.00     0.021 C 
ENDROOT
BRANCH   1   2
ATOM      2  C   UNL A   1      31.815  21.552  25.598  1.00  0.00     0.116 C 
BRANCH   2   3
ATOM      3  N   UNL A   1      31.660  22.988  25.515  1.00  0.00    -0.353 N 
ATOM      4  O   UNL A   1      30.160  23.200  27.245  1.00  0.00    -0.270 OA
ATOM      5  C   UNL A   1      30.799  23.686  26.322  1.00  0.00     0.243 C 
ATOM      6  H   UNL A   1      32.195  23.484  24.853  1.00  0.00     0.163 HD
BRANCH   5   7
ATOM      7  C   UNL A   1      30.725  25.145  26.056  1.00  0.00     0.072 C 
ATOM      8  C   UNL A   1      31.690  26.013  26.395  1.00  0.00     0.014 C 
BRANCH   8   9
ATOM      9  C   UNL A   1      31.622  27.457  26.139  1.00  0.00    -0.022 A 
ATOM     10  C   UNL A   1      32.098  28.396  27.059  1.00  0.00     0.047 A 
ATOM     11  C   UNL A   1      31.145  27.903  24.896  1.00  0.00     0.018 A 
ATOM     12  C   UNL A   1      32.133  29.740  26.713  1.00  0.00     0.124 A 
ATOM     13  C   UNL A   1      31.145  29.267  24.558  1.00  0.00     0.010 A 
ATOM     14  F   UNL A   1      32.597  30.635  27.595  1.00  0.00    -0.207 F 
ATOM     15  C   UNL A   1      31.695  30.177  25.469  1.00  0.00     0.048 A 
BRANCH  13  16
ATOM     16  C   UNL A   1      30.569  29.728  23.238  1.00  0.00     0.299 C 
BRANCH  16  17
ATOM     17  N   UNL A   1      29.319  30.498  23.270  1.00  0.00    -0.327 N 
ATOM     18  C   UNL A   1      28.098  29.714  23.077  1.00  0.00     0.263 C 
ATOM     19  C   UNL A   1      29.244  31.656  22.353  1.00  0.00     0.210 C 
ATOM     20  H   UNL A   1      29.360  30.844  24.229  1.00  0.00     0.348 HD
ATOM     21  C   UNL A   1      27.676  29.922  21.637  1.00  0.00     0.068 C 
ATOM     22  C   UNL A   1      28.241  31.277  21.258  1.00  0.00     0.073 C 
BRANCH  19  23
ATOM     23  C   UNL A   1      28.776  32.906  23.134  1.00  0.00     0.220 C 
BRANCH  23  24
ATOM     24  O   UNL A   1      29.895  33.721  23.484  1.00  0.00    -0.390 OA
ATOM     25  H   UNL A   1      30.560  33.676  22.780  1.00  0.00     0.210 HD
ENDBRANCH  23  24
ENDBRANCH  19  23
ENDBRANCH  16  17
ENDBRANCH  13  16
ENDBRANCH   8   9
ENDBRANCH   5   7
ENDBRANCH   2   3
ENDBRANCH   1   2
BRANCH   1  26
ATOM     26  C   UNL A   1      33.999  20.587  24.620  1.00  0.00     0.002 C 
BRANCH  26  27
ATOM     27  C   UNL A   1      35.003  21.741  24.694  1.00  0.00     0.002 C 
BRANCH  27  28
ATOM     28  C   UNL A   1      36.113  21.577  25.734  1.00  0.00     0.021 C 
BRANCH  28  29
ATOM     29  C   UNL A   1      37.527  21.811  25.210  1.00  0.00     0.116 C 
BRANCH  29  30
ATOM     30  N   UNL A   1      38.469  20.805  25.676  1.00  0.00    -0.352 N 
ATOM     31  C   UNL A   1      39.673  20.961  26.322  1.00  0.00     0.251 C 
ATOM     32  H   UNL A   1      38.205  19.872  25.502  1.00  0.00     0.163 HD
ATOM     33  O   UNL A   1      40.413  19.999  26.489  1.00  0.00    -0.269 OA
BRANCH  31  34
ATOM     34  C   UNL A   1      40.092  22.300  26.790  1.00  0.00     0.039 A 
ATOM     35  C   UNL A   1      41.031  22.389  27.821  1.00  0.00     0.014 A 
ATOM     36  C   UNL A   1      39.572  23.461  26.212  1.00  0.00     0.014 A 
ATOM     37  C   UNL A   1      41.515  23.640  28.212  1.00  0.00     0.010 A 
ATOM     38  C   UNL A   1      40.107  24.702  26.552  1.00  0.00     0.010 A 
ATOM     39  C   UNL A   1      41.092  24.803  27.545  1.00  0.00    -0.014 A 
BRANCH  39  40
ATOM     40  C   UNL A   1      41.710  26.123  27.835  1.00  0.00     0.031 A 
ATOM     41  C   UNL A   1      40.923  27.205  28.514  1.00  0.00     0.074 A 
ATOM     42  C   UNL A   1      42.964  26.369  27.411  1.00  0.00     0.049 A 
ATOM     43  N   UNL A   1      41.274  28.438  28.780  1.00  0.00    -0.248 NA
ATOM     44  C   UNL A   1      39.552  26.868  28.926  1.00  0.00     0.031 C 
ATOM     45  C   UNL A   1      43.816  25.413  26.703  1.00  0.00     0.029 A 
ATOM     46  N   UNL A   1      43.740  27.498  27.503  1.00  0.00    -0.354 N 
ATOM     47  C   UNL A   1      40.169  29.025  29.380  1.00  0.00     0.074 A 
ATOM     48  C   UNL A   1      39.118  28.030  29.394  1.00  0.00     0.031 C 
ATOM     49  C   UNL A   1      45.002  25.984  26.449  1.00  0.00     0.029 A 
ATOM     50  C   UNL A   1      44.982  27.362  26.931  1.00  0.00     0.049 A 
ATOM     51  H   UNL A   1      43.436  28.328  27.939  1.00  0.00     0.167 HD
ATOM     52  C   UNL A   1      40.051  30.275  29.889  1.00  0.00     0.037 A 
ATOM     53  C   UNL A   1      45.987  28.247  26.795  1.00  0.00     0.037 A 
ATOM     54  C   UNL A   1      41.109  31.252  29.888  1.00  0.00     0.049 A 
ATOM     55  C   UNL A   1      45.825  29.638  27.342  1.00  0.00     0.074 A 
ATOM     56  C   UNL A   1      41.110  32.516  30.451  1.00  0.00     0.029 A 
ATOM     57  N   UNL A   1      42.347  31.082  29.285  1.00  0.00    -0.354 N 
ATOM     58  N   UNL A   1      44.801  30.160  27.972  1.00  0.00    -0.248 NA
ATOM     59  C   UNL A   1      46.951  30.563  27.158  1.00  0.00     0.031 C 
ATOM     60  C   UNL A   1      42.320  33.136  30.130  1.00  0.00     0.029 A 
ATOM     61  C   UNL A   1      43.104  32.236  29.425  1.00  0.00     0.049 A 
ATOM     62  H   UNL A   1      42.645  30.263  28.826  1.00  0.00     0.167 HD
ATOM     63  C   UNL A   1      45.162  31.466  28.274  1.00  0.00     0.074 A 
ATOM     64  C   UNL A   1      46.506  31.654  27.769  1.00  0.00     0.031 C 
ATOM     65  C   UNL A   1      44.439  32.419  28.911  1.00  0.00     0.037 A 
BRANCH  52  66
ATOM     66  C   UNL A   1      38.732  30.665  30.492  1.00  0.00     0.064 A 
ATOM     67  C   UNL A   1      37.695  31.146  29.677  1.00  0.00     0.173 A 
ATOM     68  C   UNL A   1      38.512  30.629  31.876  1.00  0.00     0.173 A 
ATOM     69  F   UNL A   1      37.853  31.212  28.346  1.00  0.00    -0.203 F 
ATOM     70  C   UNL A   1      36.492  31.581  30.228  1.00  0.00     0.198 A 
ATOM     71  C   UNL A   1      37.296  31.033  32.421  1.00  0.00     0.198 A 
ATOM     72  F   UNL A   1      39.468  30.171  32.700  1.00  0.00    -0.203 F 
ATOM     73  F   UNL A   1      35.529  32.067  29.432  1.00  0.00    -0.200 F 
ATOM     74  C   UNL A   1      36.291  31.518  31.598  1.00  0.00     0.200 A 
ATOM     75  F   UNL A   1      37.094  30.945  33.743  1.00  0.00    -0.200 F 
ATOM     76  F   UNL A   1      35.128  31.921  32.125  1.00  0.00    -0.200 F 
ENDBRANCH  52  66
BRANCH  53  77
ATOM     77  C   UNL A   1      47.245  27.815  26.134  1.00  0.00     0.064 A 
ATOM     78  C   UNL A   1      47.391  27.863  24.740  1.00  0.00     0.173 A 
ATOM     79  C   UNL A   1      48.298  27.272  26.884  1.00  0.00     0.173 A 
ATOM     80  F   UNL A   1      46.409  28.367  23.979  1.00  0.00    -0.203 F 
ATOM     81  C   UNL A   1      48.528  27.350  24.118  1.00  0.00     0.198 A 
ATOM     82  C   UNL A   1      49.446  26.785  26.262  1.00  0.00     0.198 A 
ATOM     83  F   UNL A   1      48.212  27.223  28.220  1.00  0.00    -0.203 F 
ATOM     84  F   UNL A   1      48.619  27.361  22.781  1.00  0.00    -0.200 F 
ATOM     85  C   UNL A   1      49.554  26.813  24.879  1.00  0.00     0.200 A 
ATOM     86  F   UNL A   1      50.444  26.283  27.002  1.00  0.00    -0.200 F 
ATOM     87  F   UNL A   1      50.646  26.316  24.280  1.00  0.00    -0.200 F 
ENDBRANCH  53  77
BRANCH  65  88
ATOM     88  C   UNL A   1      45.075  33.764  29.112  1.00  0.00     0.064 A 
ATOM     89  C   UNL A   1      45.796  34.043  30.283  1.00  0.00     0.173 A 
ATOM     90  C   UNL A   1      44.881  34.808  28.196  1.00  0.00     0.173 A 
ATOM     91  F   UNL A   1      46.004  33.081  31.195  1.00  0.00    -0.203 F 
ATOM     92  C   UNL A   1      46.278  35.324  30.541  1.00  0.00     0.198 A 
ATOM     93  C   UNL A   1      45.390  36.080  28.444  1.00  0.00     0.198 A 
ATOM     94  F   UNL A   1      44.210  34.589  27.055  1.00  0.00    -0.203 F 
ATOM     95  F   UNL A   1      46.923  35.577  31.689  1.00  0.00    -0.200 F 
ATOM     96  C   UNL A   1      46.075  36.341  29.621  1.00  0.00     0.200 A 
ATOM     97  F   UNL A   1      45.215  37.057  27.542  1.00  0.00    -0.200 F 
ATOM     98  F   UNL A   1      46.540  37.572  29.870  1.00  0.00    -0.200 F 
ENDBRANCH  65  88
ENDBRANCH  39  40
ENDBRANCH  31  34
ENDBRANCH  29  30
ENDBRANCH  28  29
ENDBRANCH  27  28
ENDBRANCH  26  27
ENDBRANCH   1  26
TORSDOF 18
ENDMDL
MODEL 3
REMARK VINA RESULT:     -11.4      3.369      8.528
REMARK SMILES O=C(/C=C/c1cc(F)cc(C[N@@H+]2CCC[C@H]2CO)c1)NCCCCCCNC(=O)c1ccc(-c2c3nc(c(-c4c(F)c(F)c(F)c(F)c4F)c4ccc([nH]4)c(-c4c(F)c(F)c(F)c(F)c4F)c4nc(c(-c5c(F)c(F)c(F)c(F)c5F)c5ccc2[nH]5)C=C4)C=C3)cc1
REMARK SMILES IDX 22 1 21 2 20 3 1 4 2 5 3 7 4 8 5 9 6 10 19 11 7 12 10 13
REMARK SMILES IDX 8 14 9 15 11 16 12 17 13 18 16 19 14 21 15 22 17 23 18 24
REMARK SMILES IDX 23 26 24 27 25 28 26 29 27 30 28 31 29 33 30 34 31 35 92 36
REMARK SMILES IDX 32 37 91 38 33 39 34 40 35 41 85 42 36 43 90 44 84 45 86 46
REMARK SMILES IDX 37 47 89 48 83 49 82 50 38 52 70 53 50 54 69 55 51 56 54 57
REMARK SMILES IDX 68 58 87 59 52 60 53 61 67 63 88 64 55 65 39 66 40 67 48 68
REMARK SMILES IDX 41 69 42 70 46 71 49 72 43 73 44 74 47 75 45 76 71 77 72 78
REMARK SMILES IDX 80 79 73 80 74 81 78 82 81 83 75 84 76 85 79 86 77 87 56 88
REMARK SMILES IDX 57 89 65 90 58 91 59 92 63 93 66 94 60 95 61 96 64 97 62 98
REMARK H PARENT 20 6 12 20 18 25 27 32 86 51 54 62
REMARK Flexibility Score: inf
ROOT
ATOM      1  C   UNL A   1      37.363  22.904  25.124  1.00  0.00     0.021 C 
ENDROOT
BRANCH   1   2
ATOM      2  C   UNL A   1      35.901  22.811  25.560  1.00  0.00     0.116 C 
BRANCH   2   3
ATOM      3  N   UNL A   1      35.269  24.112  25.585  1.00  0.00    -0.353 N 
ATOM      4  O   UNL A   1      34.306  23.989  23.501  1.00  0.00    -0.270 OA
ATOM      5  C   UNL A   1      34.562  24.611  24.522  1.00  0.00     0.243 C 
ATOM      6  H   UNL A   1      35.350  24.661  26.399  1.00  0.00     0.163 HD
BRANCH   5   7
ATOM      7  C   UNL A   1      34.035  25.988  24.703  1.00  0.00     0.072 C 
ATOM      8  C   UNL A   1      33.680  26.498  25.892  1.00  0.00     0.014 C 
BRANCH   8   9
ATOM      9  C   UNL A   1      33.154  27.856  26.078  1.00  0.00    -0.022 A 
ATOM     10  C   UNL A   1      33.675  28.727  27.039  1.00  0.00     0.047 A 
ATOM     11  C   UNL A   1      32.159  28.322  25.205  1.00  0.00     0.018 A 
ATOM     12  C   UNL A   1      33.235  30.043  27.085  1.00  0.00     0.124 A 
ATOM     13  C   UNL A   1      31.685  29.643  25.273  1.00  0.00     0.010 A 
ATOM     14  F   UNL A   1      33.742  30.876  28.002  1.00  0.00    -0.207 F 
ATOM     15  C   UNL A   1      32.275  30.514  26.196  1.00  0.00     0.048 A 
BRANCH  13  16
ATOM     16  C   UNL A   1      30.568  30.104  24.363  1.00  0.00     0.299 C 
BRANCH  16  17
ATOM     17  N   UNL A   1      30.053  29.148  23.374  1.00  0.00    -0.327 N 
ATOM     18  C   UNL A   1      29.940  29.663  22.008  1.00  0.00     0.263 C 
ATOM     19  C   UNL A   1      28.767  28.498  23.704  1.00  0.00     0.210 C 
ATOM     20  H   UNL A   1      30.794  28.448  23.418  1.00  0.00     0.348 HD
ATOM     21  C   UNL A   1      28.478  29.999  21.796  1.00  0.00     0.068 C 
ATOM     22  C   UNL A   1      27.727  29.084  22.742  1.00  0.00     0.073 C 
BRANCH  19  23
ATOM     23  C   UNL A   1      28.898  26.968  23.526  1.00  0.00     0.220 C 
BRANCH  23  24
ATOM     24  O   UNL A   1      27.675  26.321  23.874  1.00  0.00    -0.390 OA
ATOM     25  H   UNL A   1      27.831  25.707  24.608  1.00  0.00     0.210 HD
ENDBRANCH  23  24
ENDBRANCH  19  23
ENDBRANCH  16  17
ENDBRANCH  13  16
ENDBRANCH   8   9
ENDBRANCH   5   7
ENDBRANCH   2   3
ENDBRANCH   1   2
BRANCH   1  26
ATOM     26  C   UNL A   1      38.320  23.450  26.194  1.00  0.00     0.002 C 
BRANCH  26  27
ATOM     27  C   UNL A   1      39.540  22.576  26.498  1.00  0.00     0.002 C 
BRANCH  27  28
ATOM     28  C   UNL A   1      39.503  21.168  25.900  1.00  0.00     0.021 C 
BRANCH  28  29
ATOM     29  C   UNL A   1      40.031  20.065  26.812  1.00  0.00     0.116 C 
BRANCH  29  30
ATOM     30  N   UNL A   1      41.042  19.242  26.166  1.00  0.00    -0.352 N 
ATOM     31  C   UNL A   1      42.312  19.571  25.754  1.00  0.00     0.251 C 
ATOM     32  H   UNL A   1      40.777  18.308  25.999  1.00  0.00     0.163 HD
ATOM     33  O   UNL A   1      42.963  18.787  25.075  1.00  0.00    -0.269 OA
BRANCH  31  34
ATOM     34  C   UNL A   1      42.884  20.889  26.106  1.00  0.00     0.039 A 
ATOM     35  C   UNL A   1      43.219  21.774  25.078  1.00  0.00     0.014 A 
ATOM     36  C   UNL A   1      43.080  21.257  27.440  1.00  0.00     0.014 A 
ATOM     37  C   UNL A   1      43.668  23.060  25.388  1.00  0.00     0.010 A 
ATOM     38  C   UNL A   1      43.459  22.562  27.749  1.00  0.00     0.010 A 
ATOM     39  C   UNL A   1      43.743  23.480  26.727  1.00  0.00    -0.014 A 
BRANCH  39  40
ATOM     40  C   UNL A   1      44.064  24.889  27.074  1.00  0.00     0.031 A 
ATOM     41  C   UNL A   1      42.988  25.828  27.537  1.00  0.00     0.074 A 
ATOM     42  C   UNL A   1      45.319  25.342  26.893  1.00  0.00     0.049 A 
ATOM     43  N   UNL A   1      43.070  27.105  27.813  1.00  0.00    -0.248 NA
ATOM     44  C   UNL A   1      41.638  25.265  27.688  1.00  0.00     0.031 C 
ATOM     45  C   UNL A   1      46.441  24.538  26.407  1.00  0.00     0.029 A 
ATOM     46  N   UNL A   1      45.863  26.588  27.085  1.00  0.00    -0.354 N 
ATOM     47  C   UNL A   1      41.786  27.500  28.159  1.00  0.00     0.074 A 
ATOM     48  C   UNL A   1      40.933  26.341  28.011  1.00  0.00     0.031 C 
ATOM     49  C   UNL A   1      47.543  25.301  26.365  1.00  0.00     0.029 A 
ATOM     50  C   UNL A   1      47.199  26.660  26.773  1.00  0.00     0.049 A 
ATOM     51  H   UNL A   1      45.344  27.357  27.415  1.00  0.00     0.167 HD
ATOM     52  C   UNL A   1      41.363  28.716  28.579  1.00  0.00     0.037 A 
ATOM     53  C   UNL A   1      48.050  27.703  26.797  1.00  0.00     0.037 A 
ATOM     54  C   UNL A   1      42.223  29.861  28.742  1.00  0.00     0.049 A 
ATOM     55  C   UNL A   1      47.553  29.051  27.240  1.00  0.00     0.074 A 
ATOM     56  C   UNL A   1      41.903  31.111  29.238  1.00  0.00     0.029 A 
ATOM     57  N   UNL A   1      43.567  29.899  28.401  1.00  0.00    -0.354 N 
ATOM     58  N   UNL A   1      46.353  29.397  27.634  1.00  0.00    -0.248 NA
ATOM     59  C   UNL A   1      48.525  30.153  27.239  1.00  0.00     0.031 C 
ATOM     60  C   UNL A   1      43.032  31.926  29.133  1.00  0.00     0.029 A 
ATOM     61  C   UNL A   1      44.079  31.166  28.635  1.00  0.00     0.049 A 
ATOM     62  H   UNL A   1      44.082  29.138  28.045  1.00  0.00     0.167 HD
ATOM     63  C   UNL A   1      46.424  30.748  27.943  1.00  0.00     0.074 A 
ATOM     64  C   UNL A   1      47.792  31.158  27.703  1.00  0.00     0.031 C 
ATOM     65  C   UNL A   1      45.441  31.570  28.384  1.00  0.00     0.037 A 
BRANCH  52  66
ATOM     66  C   UNL A   1      39.904  28.882  28.894  1.00  0.00     0.064 A 
ATOM     67  C   UNL A   1      39.010  29.321  27.906  1.00  0.00     0.173 A 
ATOM     68  C   UNL A   1      39.399  28.671  30.186  1.00  0.00     0.173 A 
ATOM     69  F   UNL A   1      39.441  29.547  26.655  1.00  0.00    -0.203 F 
ATOM     70  C   UNL A   1      37.669  29.549  28.200  1.00  0.00     0.198 A 
ATOM     71  C   UNL A   1      38.049  28.868  30.470  1.00  0.00     0.198 A 
ATOM     72  F   UNL A   1      40.208  28.244  31.167  1.00  0.00    -0.203 F 
ATOM     73  F   UNL A   1      36.841  30.000  27.246  1.00  0.00    -0.200 F 
ATOM     74  C   UNL A   1      37.188  29.316  29.480  1.00  0.00     0.200 A 
ATOM     75  F   UNL A   1      37.582  28.617  31.700  1.00  0.00    -0.200 F 
ATOM     76  F   UNL A   1      35.894  29.521  29.759  1.00  0.00    -0.200 F 
ENDBRANCH  52  66
BRANCH  53  77
ATOM     77  C   UNL A   1      49.469  27.485  26.414  1.00  0.00     0.064 A 
ATOM     78  C   UNL A   1      50.466  27.297  27.383  1.00  0.00     0.173 A 
ATOM     79  C   UNL A   1      49.864  27.538  25.071  1.00  0.00     0.173 A 
ATOM     80  F   UNL A   1      50.139  27.246  28.682  1.00  0.00    -0.203 F 
ATOM     81  C   UNL A   1      51.810  27.207  27.024  1.00  0.00     0.198 A 
ATOM     82  C   UNL A   1      51.205  27.420  24.712  1.00  0.00     0.198 A 
ATOM     83  F   UNL A   1      48.944  27.697  24.108  1.00  0.00    -0.203 F 
ATOM     84  F   UNL A   1      52.747  27.080  27.973  1.00  0.00    -0.200 F 
ATOM     85  C   UNL A   1      52.177  27.267  25.689  1.00  0.00     0.200 A 
ATOM     86  F   UNL A   1      51.556  27.461  23.418  1.00  0.00    -0.200 F 
ATOM     87  F   UNL A   1      53.470  27.185  25.344  1.00  0.00    -0.200 F 
ENDBRANCH  53  77
BRANCH  65  88
ATOM     88  C   UNL A   1      45.792  33.006  28.646  1.00  0.00     0.064 A 
ATOM     89  C   UNL A   1      46.180  33.422  29.929  1.00  0.00     0.173 A 
ATOM     90  C   UNL A   1      45.642  33.987  27.655  1.00  0.00     0.173 A 
ATOM     91  F   UNL A   1      46.330  32.524  30.914  1.00  0.00    -0.203 F 
ATOM     92  C   UNL A   1      46.380  34.769  30.217  1.00  0.00     0.198 A 
ATOM     93  C   UNL A   1      45.873  35.330  27.939  1.00  0.00     0.198 A 
ATOM     94  F   UNL A   1      45.287  33.640  26.409  1.00  0.00    -0.203 F 
ATOM     95  F   UNL A   1      46.704  35.146  31.462  1.00  0.00    -0.200 F 
ATOM     96  C   UNL A   1      46.227  35.722  29.222  1.00  0.00     0.200 A 
ATOM     97  F   UNL A   1      45.749  36.249  26.970  1.00  0.00    -0.200 F 
ATOM     98  F   UNL A   1      46.422  37.018  29.499  1.00  0.00    -0.200 F 
ENDBRANCH  65  88
ENDBRANCH  39  40
ENDBRANCH  31  34
ENDBRANCH  29  30
ENDBRANCH  28  29
ENDBRANCH  27  28
ENDBRANCH  26  27
ENDBRANCH   1  26
TORSDOF 18
ENDMDL
