MODEL 1
REMARK VINA RESULT:     -12.5      0.000      0.000
REMARK SMILES CC(=O)Oc1ccc([C@H]2Nc3c(C(=O)NCCCCCCNC(=O)c4ccc(-c5c6nc(c(-c7c(F)c(F)c(F)c(F)c7F)c7ccc([nH]7)c(-c7c(F)c(F)c(F)c(F)c7F)c7nc(c(-c8c(F)c(F)c(F)c(F)c8F)c8ccc5[nH]8)C=C7)C=C6)cc4)ccc([N+](=O)[O-])c3[C@H]3C=CC[C@@H]32)cc1
REMARK SMILES IDX 18 1 17 2 16 3 15 4 13 5 14 6 12 8 9 9 10 10 99 11 11 12
REMARK SMILES IDX 95 14 98 15 94 16 96 17 97 18 88 19 90 20 89 21 8 22 5 23
REMARK SMILES IDX 6 24 101 25 7 26 100 27 4 28 2 29 1 30 3 31 91 32 92 33
REMARK SMILES IDX 93 34 19 35 20 36 21 37 22 38 23 39 24 41 25 42 26 43 87 44
REMARK SMILES IDX 27 45 86 46 28 47 29 48 30 49 80 50 31 51 85 52 79 53 81 54
REMARK SMILES IDX 32 55 84 56 78 57 77 58 33 60 65 61 45 62 64 63 46 64 49 65
REMARK SMILES IDX 63 66 82 67 47 68 48 69 62 71 83 72 50 73 34 74 35 75 43 76
REMARK SMILES IDX 36 77 37 78 41 79 44 80 38 81 39 82 42 83 40 84 66 85 67 86
REMARK SMILES IDX 75 87 68 88 69 89 73 90 76 91 70 92 71 93 74 94 72 95 51 96
REMARK SMILES IDX 52 97 60 98 53 99 54 100 58 101 61 102 55 103 56 104 59 105
REMARK SMILES IDX 57 106
REMARK H PARENT 15 7 10 13 22 40 81 59 49 70
REMARK Flexibility Score: inf
ROOT
ATOM      1  C   UNL A   1      39.959  21.885  26.994  1.00  0.00     0.002 C 
ENDROOT
BRANCH   1   2
ATOM      2  C   UNL A   1      39.472  23.280  26.599  1.00  0.00     0.021 C 
BRANCH   2   3
ATOM      3  C   UNL A   1      38.003  23.362  26.198  1.00  0.00     0.116 C 
BRANCH   3   4
ATOM      4  N   UNL A   1      37.806  23.645  24.778  1.00  0.00    -0.352 N 
ATOM      5  C   UNL A   1      36.851  23.145  23.907  1.00  0.00     0.253 C 
ATOM      6  O   UNL A   1      36.926  23.376  22.705  1.00  0.00    -0.269 OA
ATOM      7  H   UNL A   1      38.445  24.281  24.382  1.00  0.00     0.163 HD
BRANCH   5   8
ATOM      8  C   UNL A   1      35.739  22.323  24.452  1.00  0.00     0.063 A 
ATOM      9  C   UNL A   1      32.820  24.741  25.031  1.00  0.00     0.114 C 
ATOM     10  N   UNL A   1      34.142  24.214  24.602  1.00  0.00    -0.377 N 
ATOM     11  C   UNL A   1      32.198  23.669  25.942  1.00  0.00     0.031 C 
ATOM     12  C   UNL A   1      34.431  22.831  24.623  1.00  0.00     0.058 A 
ATOM     13  H   UNL A   1      34.833  24.845  24.296  1.00  0.00     0.161 HD
ATOM     14  C   UNL A   1      31.997  22.470  24.985  1.00  0.00     0.056 C 
ATOM     15  C   UNL A   1      30.879  23.844  26.688  1.00  0.00     0.034 C 
ATOM     16  C   UNL A   1      33.379  21.883  24.851  1.00  0.00     0.061 A 
ATOM     17  C   UNL A   1      30.842  21.760  25.602  1.00  0.00    -0.022 C 
ATOM     18  C   UNL A   1      30.220  22.516  26.511  1.00  0.00    -0.030 C 
ATOM     19  C   UNL A   1      36.035  20.982  24.764  1.00  0.00     0.023 A 
ATOM     20  C   UNL A   1      33.698  20.520  24.970  1.00  0.00     0.275 A 
ATOM     21  C   UNL A   1      35.017  20.070  24.998  1.00  0.00     0.087 A 
BRANCH   9  22
ATOM     22  C   UNL A   1      32.846  26.197  25.484  1.00  0.00    -0.025 A 
ATOM     23  C   UNL A   1      32.830  28.664  26.870  1.00  0.00     0.130 A 
ATOM     24  C   UNL A   1      31.632  28.002  26.617  1.00  0.00     0.047 A 
ATOM     25  C   UNL A   1      34.030  28.131  26.412  1.00  0.00     0.047 A 
ATOM     26  C   UNL A   1      31.642  26.783  25.926  1.00  0.00     0.010 A 
ATOM     27  C   UNL A   1      34.029  26.925  25.694  1.00  0.00     0.010 A 
BRANCH  23  28
ATOM     28  O   UNL A   1      32.752  29.811  27.688  1.00  0.00    -0.427 OA
BRANCH  28  29
ATOM     29  C   UNL A   1      33.014  31.085  27.183  1.00  0.00     0.308 C 
ATOM     30  C   UNL A   1      31.778  31.610  26.512  1.00  0.00     0.139 C 
ATOM     31  O   UNL A   1      34.070  31.699  27.251  1.00  0.00    -0.252 OA
ENDBRANCH  28  29
ENDBRANCH  23  28
ENDBRANCH   9  22
BRANCH  20  32
ATOM     32  N   UNL A   1      32.679  19.496  25.036  1.00  0.00     0.063 N 
ATOM     33  O   UNL A   1      32.002  19.306  24.018  1.00  0.00    -0.258 OA
ATOM     34  O   UNL A   1      32.532  18.929  26.127  1.00  0.00    -0.258 OA
ENDBRANCH  20  32
ENDBRANCH   5   8
ENDBRANCH   3   4
ENDBRANCH   2   3
ENDBRANCH   1   2
BRANCH   1  35
ATOM     35  C   UNL A   1      41.161  21.353  26.203  1.00  0.00     0.002 C 
BRANCH  35  36
ATOM     36  C   UNL A   1      41.250  19.831  26.066  1.00  0.00     0.021 C 
BRANCH  36  37
ATOM     37  C   UNL A   1      42.574  19.210  26.503  1.00  0.00     0.116 C 
BRANCH  37  38
ATOM     38  N   UNL A   1      43.398  18.793  25.379  1.00  0.00    -0.352 N 
ATOM     39  C   UNL A   1      44.256  19.526  24.594  1.00  0.00     0.251 C 
ATOM     40  H   UNL A   1      43.330  17.839  25.144  1.00  0.00     0.163 HD
ATOM     41  O   UNL A   1      44.744  19.029  23.588  1.00  0.00    -0.269 OA
BRANCH  39  42
ATOM     42  C   UNL A   1      44.572  20.929  24.947  1.00  0.00     0.039 A 
ATOM     43  C   UNL A   1      44.190  21.945  24.066  1.00  0.00     0.014 A 
ATOM     44  C   UNL A   1      45.249  21.246  26.126  1.00  0.00     0.014 A 
ATOM     45  C   UNL A   1      44.427  23.280  24.402  1.00  0.00     0.010 A 
ATOM     46  C   UNL A   1      45.416  22.579  26.495  1.00  0.00     0.010 A 
ATOM     47  C   UNL A   1      45.007  23.612  25.638  1.00  0.00    -0.014 A 
BRANCH  47  48
ATOM     48  C   UNL A   1      45.181  25.028  26.052  1.00  0.00     0.031 A 
ATOM     49  C   UNL A   1      46.532  25.684  25.970  1.00  0.00     0.074 A 
ATOM     50  C   UNL A   1      44.135  25.707  26.562  1.00  0.00     0.049 A 
ATOM     51  N   UNL A   1      46.895  26.885  26.347  1.00  0.00    -0.248 NA
ATOM     52  C   UNL A   1      47.627  24.875  25.414  1.00  0.00     0.031 C 
ATOM     53  C   UNL A   1      42.784  25.171  26.734  1.00  0.00     0.029 A 
ATOM     54  N   UNL A   1      44.045  26.990  27.041  1.00  0.00    -0.354 N 
ATOM     55  C   UNL A   1      48.256  26.969  26.085  1.00  0.00     0.074 A 
ATOM     56  C   UNL A   1      48.667  25.680  25.570  1.00  0.00     0.031 C 
ATOM     57  C   UNL A   1      41.995  26.122  27.258  1.00  0.00     0.029 A 
ATOM     58  C   UNL A   1      42.792  27.320  27.501  1.00  0.00     0.049 A 
ATOM     59  H   UNL A   1      44.805  27.615  27.055  1.00  0.00     0.167 HD
ATOM     60  C   UNL A   1      49.083  28.031  26.238  1.00  0.00     0.037 A 
ATOM     61  C   UNL A   1      42.341  28.456  28.068  1.00  0.00     0.037 A 
ATOM     62  C   UNL A   1      48.667  29.316  26.737  1.00  0.00     0.049 A 
ATOM     63  C   UNL A   1      43.287  29.613  28.250  1.00  0.00     0.074 A 
ATOM     64  C   UNL A   1      49.417  30.472  26.876  1.00  0.00     0.029 A 
ATOM     65  N   UNL A   1      47.389  29.615  27.187  1.00  0.00    -0.354 N 
ATOM     66  N   UNL A   1      44.555  29.704  27.932  1.00  0.00    -0.248 NA
ATOM     67  C   UNL A   1      42.736  30.828  28.866  1.00  0.00     0.031 C 
ATOM     68  C   UNL A   1      48.610  31.450  27.465  1.00  0.00     0.029 A 
ATOM     69  C   UNL A   1      47.338  30.926  27.632  1.00  0.00     0.049 A 
ATOM     70  H   UNL A   1      46.630  28.987  27.189  1.00  0.00     0.167 HD
ATOM     71  C   UNL A   1      44.944  30.992  28.277  1.00  0.00     0.074 A 
ATOM     72  C   UNL A   1      43.773  31.651  28.815  1.00  0.00     0.031 C 
ATOM     73  C   UNL A   1      46.163  31.575  28.158  1.00  0.00     0.037 A 
BRANCH  60  74
ATOM     74  C   UNL A   1      50.528  27.849  25.865  1.00  0.00     0.064 A 
ATOM     75  C   UNL A   1      51.509  27.560  26.827  1.00  0.00     0.173 A 
ATOM     76  C   UNL A   1      50.932  27.926  24.523  1.00  0.00     0.173 A 
ATOM     77  F   UNL A   1      51.179  27.484  28.126  1.00  0.00    -0.203 F 
ATOM     78  C   UNL A   1      52.842  27.387  26.464  1.00  0.00     0.198 A 
ATOM     79  C   UNL A   1      52.260  27.717  24.159  1.00  0.00     0.198 A 
ATOM     80  F   UNL A   1      50.037  28.192  23.560  1.00  0.00    -0.203 F 
ATOM     81  F   UNL A   1      53.767  27.165  27.408  1.00  0.00    -0.200 F 
ATOM     82  C   UNL A   1      53.215  27.457  25.131  1.00  0.00     0.200 A 
ATOM     83  F   UNL A   1      52.616  27.769  22.870  1.00  0.00    -0.200 F 
ATOM     84  F   UNL A   1      54.497  27.280  24.782  1.00  0.00    -0.200 F 
ENDBRANCH  60  74
BRANCH  61  85
ATOM     85  C   UNL A   1      40.919  28.562  28.491  1.00  0.00     0.064 A 
ATOM     86  C   UNL A   1      39.930  28.995  27.594  1.00  0.00     0.173 A 
ATOM     87  C   UNL A   1      40.519  28.247  29.797  1.00  0.00     0.173 A 
ATOM     88  F   UNL A   1      40.265  29.328  26.339  1.00  0.00    -0.203 F 
ATOM     89  C   UNL A   1      38.604  29.132  27.997  1.00  0.00     0.198 A 
ATOM     90  C   UNL A   1      39.186  28.352  30.189  1.00  0.00     0.198 A 
ATOM     91  F   UNL A   1      41.423  27.823  30.693  1.00  0.00    -0.203 F 
ATOM     92  F   UNL A   1      37.690  29.598  27.134  1.00  0.00    -0.200 F 
ATOM     93  C   UNL A   1      38.231  28.805  29.291  1.00  0.00     0.200 A 
ATOM     94  F   UNL A   1      38.828  28.018  31.436  1.00  0.00    -0.200 F 
ATOM     95  F   UNL A   1      36.954  28.933  29.676  1.00  0.00    -0.200 F 
ENDBRANCH  61  85
BRANCH  73  96
ATOM     96  C   UNL A   1      46.286  33.013  28.578  1.00  0.00     0.064 A 
ATOM     97  C   UNL A   1      46.684  33.374  29.874  1.00  0.00     0.173 A 
ATOM     98  C   UNL A   1      46.039  34.043  27.657  1.00  0.00     0.173 A 
ATOM     99  F   UNL A   1      46.918  32.428  30.797  1.00  0.00    -0.203 F 
ATOM    100  C   UNL A   1      46.803  34.712  30.239  1.00  0.00     0.198 A 
ATOM    101  C   UNL A   1      46.194  35.378  28.016  1.00  0.00     0.198 A 
ATOM    102  F   UNL A   1      45.663  33.752  26.403  1.00  0.00    -0.203 F 
ATOM    103  F   UNL A   1      47.133  35.034  31.497  1.00  0.00    -0.200 F 
ATOM    104  C   UNL A   1      46.567  35.712  29.308  1.00  0.00     0.200 A 
ATOM    105  F   UNL A   1      45.982  36.342  27.110  1.00  0.00    -0.200 F 
ATOM    106  F   UNL A   1      46.691  37.000  29.659  1.00  0.00    -0.200 F 
ENDBRANCH  73  96
ENDBRANCH  47  48
ENDBRANCH  39  42
ENDBRANCH  37  38
ENDBRANCH  36  37
ENDBRANCH  35  36
ENDBRANCH   1  35
TORSDOF 17
ENDMDL
MODEL 2
REMARK VINA RESULT:     -11.2      2.027      2.883
REMARK SMILES CC(=O)Oc1ccc([C@H]2Nc3c(C(=O)NCCCCCCNC(=O)c4ccc(-c5c6nc(c(-c7c(F)c(F)c(F)c(F)c7F)c7ccc([nH]7)c(-c7c(F)c(F)c(F)c(F)c7F)c7nc(c(-c8c(F)c(F)c(F)c(F)c8F)c8ccc5[nH]8)C=C7)C=C6)cc4)ccc([N+](=O)[O-])c3[C@H]3C=CC[C@@H]32)cc1
REMARK SMILES IDX 18 1 17 2 16 3 15 4 13 5 14 6 12 8 9 9 10 10 99 11 11 12
REMARK SMILES IDX 95 14 98 15 94 16 96 17 97 18 88 19 90 20 89 21 8 22 5 23
REMARK SMILES IDX 6 24 101 25 7 26 100 27 4 28 2 29 1 30 3 31 91 32 92 33
REMARK SMILES IDX 93 34 19 35 20 36 21 37 22 38 23 39 24 41 25 42 26 43 87 44
REMARK SMILES IDX 27 45 86 46 28 47 29 48 30 49 80 50 31 51 85 52 79 53 81 54
REMARK SMILES IDX 32 55 84 56 78 57 77 58 33 60 65 61 45 62 64 63 46 64 49 65
REMARK SMILES IDX 63 66 82 67 47 68 48 69 62 71 83 72 50 73 34 74 35 75 43 76
REMARK SMILES IDX 36 77 37 78 41 79 44 80 38 81 39 82 42 83 40 84 66 85 67 86
REMARK SMILES IDX 75 87 68 88 69 89 73 90 76 91 70 92 71 93 74 94 72 95 51 96
REMARK SMILES IDX 52 97 60 98 53 99 54 100 58 101 61 102 55 103 56 104 59 105
REMARK SMILES IDX 57 106
REMARK H PARENT 15 7 10 13 22 40 81 59 49 70
REMARK Flexibility Score: inf
ROOT
ATOM      1  C   UNL A   1      40.181  22.445  27.004  1.00  0.00     0.002 C 
ENDROOT
BRANCH   1   2
ATOM      2  C   UNL A   1      39.353  23.686  26.666  1.00  0.00     0.021 C 
BRANCH   2   3
ATOM      3  C   UNL A   1      37.928  23.406  26.199  1.00  0.00     0.116 C 
BRANCH   3   4
ATOM      4  N   UNL A   1      37.717  23.689  24.781  1.00  0.00    -0.352 N 
ATOM      5  C   UNL A   1      36.769  23.171  23.915  1.00  0.00     0.253 C 
ATOM      6  O   UNL A   1      36.832  23.408  22.713  1.00  0.00    -0.269 OA
ATOM      7  H   UNL A   1      38.339  24.341  24.385  1.00  0.00     0.163 HD
BRANCH   5   8
ATOM      8  C   UNL A   1      35.679  22.322  24.462  1.00  0.00     0.063 A 
ATOM      9  C   UNL A   1      32.696  24.665  25.027  1.00  0.00     0.114 C 
ATOM     10  N   UNL A   1      34.032  24.171  24.602  1.00  0.00    -0.377 N 
ATOM     11  C   UNL A   1      32.102  23.581  25.943  1.00  0.00     0.031 C 
ATOM     12  C   UNL A   1      34.358  22.796  24.630  1.00  0.00     0.058 A 
ATOM     13  H   UNL A   1      34.707  24.819  24.293  1.00  0.00     0.161 HD
ATOM     14  C   UNL A   1      31.934  22.373  24.992  1.00  0.00     0.056 C 
ATOM     15  C   UNL A   1      30.778  23.725  26.687  1.00  0.00     0.034 C 
ATOM     16  C   UNL A   1      33.331  21.822  24.862  1.00  0.00     0.061 A 
ATOM     17  C   UNL A   1      30.797  21.636  25.611  1.00  0.00    -0.022 C 
ATOM     18  C   UNL A   1      30.154  22.380  26.516  1.00  0.00    -0.030 C 
ATOM     19  C   UNL A   1      36.009  20.991  24.782  1.00  0.00     0.023 A 
ATOM     20  C   UNL A   1      33.686  20.469  24.989  1.00  0.00     0.275 A 
ATOM     21  C   UNL A   1      35.016  20.054  25.019  1.00  0.00     0.087 A 
BRANCH   9  22
ATOM     22  C   UNL A   1      32.684  26.124  25.473  1.00  0.00    -0.025 A 
ATOM     23  C   UNL A   1      32.876  28.932  25.755  1.00  0.00     0.130 A 
ATOM     24  C   UNL A   1      34.015  28.142  25.884  1.00  0.00     0.047 A 
ATOM     25  C   UNL A   1      31.640  28.339  25.522  1.00  0.00     0.047 A 
ATOM     26  C   UNL A   1      33.916  26.750  25.749  1.00  0.00     0.010 A 
ATOM     27  C   UNL A   1      31.544  26.943  25.419  1.00  0.00     0.010 A 
BRANCH  23  28
ATOM     28  O   UNL A   1      33.078  30.329  25.765  1.00  0.00    -0.427 OA
BRANCH  28  29
ATOM     29  C   UNL A   1      32.852  31.088  26.913  1.00  0.00     0.308 C 
ATOM     30  C   UNL A   1      31.560  31.838  26.758  1.00  0.00     0.139 C 
ATOM     31  O   UNL A   1      33.573  31.161  27.899  1.00  0.00    -0.252 OA
ENDBRANCH  28  29
ENDBRANCH  23  28
ENDBRANCH   9  22
BRANCH  20  32
ATOM     32  N   UNL A   1      32.694  19.418  25.058  1.00  0.00     0.063 N 
ATOM     33  O   UNL A   1      32.071  19.159  24.022  1.00  0.00    -0.258 OA
ATOM     34  O   UNL A   1      32.513  18.899  26.168  1.00  0.00    -0.258 OA
ENDBRANCH  20  32
ENDBRANCH   5   8
ENDBRANCH   3   4
ENDBRANCH   2   3
ENDBRANCH   1   2
BRANCH   1  35
ATOM     35  C   UNL A   1      41.686  22.559  26.737  1.00  0.00     0.002 C 
BRANCH  35  36
ATOM     36  C   UNL A   1      42.268  21.548  25.745  1.00  0.00     0.021 C 
BRANCH  36  37
ATOM     37  C   UNL A   1      43.192  20.494  26.349  1.00  0.00     0.116 C 
BRANCH  37  38
ATOM     38  N   UNL A   1      44.501  20.466  25.718  1.00  0.00    -0.352 N 
ATOM     39  C   UNL A   1      45.389  21.489  25.482  1.00  0.00     0.251 C 
ATOM     40  H   UNL A   1      44.798  19.577  25.414  1.00  0.00     0.163 HD
ATOM     41  O   UNL A   1      46.381  21.294  24.792  1.00  0.00    -0.269 OA
BRANCH  39  42
ATOM     42  C   UNL A   1      45.135  22.837  26.038  1.00  0.00     0.039 A 
ATOM     43  C   UNL A   1      45.241  23.026  27.418  1.00  0.00     0.014 A 
ATOM     44  C   UNL A   1      44.781  23.907  25.212  1.00  0.00     0.014 A 
ATOM     45  C   UNL A   1      45.060  24.300  27.961  1.00  0.00     0.010 A 
ATOM     46  C   UNL A   1      44.675  25.190  25.744  1.00  0.00     0.010 A 
ATOM     47  C   UNL A   1      44.814  25.402  27.124  1.00  0.00    -0.014 A 
BRANCH  47  48
ATOM     48  C   UNL A   1      44.712  26.779  27.674  1.00  0.00     0.031 A 
ATOM     49  C   UNL A   1      45.953  27.583  27.948  1.00  0.00     0.074 A 
ATOM     50  C   UNL A   1      43.503  27.284  27.986  1.00  0.00     0.049 A 
ATOM     51  N   UNL A   1      46.070  28.771  28.487  1.00  0.00    -0.248 NA
ATOM     52  C   UNL A   1      47.237  26.959  27.592  1.00  0.00     0.031 C 
ATOM     53  C   UNL A   1      42.226  26.589  27.808  1.00  0.00     0.029 A 
ATOM     54  N   UNL A   1      43.147  28.494  28.529  1.00  0.00    -0.354 N 
ATOM     55  C   UNL A   1      47.433  29.029  28.545  1.00  0.00     0.074 A 
ATOM     56  C   UNL A   1      48.107  27.852  28.039  1.00  0.00     0.031 C 
ATOM     57  C   UNL A   1      41.228  27.390  28.212  1.00  0.00     0.029 A 
ATOM     58  C   UNL A   1      41.794  28.637  28.719  1.00  0.00     0.049 A 
ATOM     59  H   UNL A   1      43.800  29.193  28.761  1.00  0.00     0.167 HD
ATOM     60  C   UNL A   1      48.064  30.153  28.961  1.00  0.00     0.037 A 
ATOM     61  C   UNL A   1      41.089  29.653  29.254  1.00  0.00     0.037 A 
ATOM     62  C   UNL A   1      47.389  31.328  29.450  1.00  0.00     0.049 A 
ATOM     63  C   UNL A   1      41.817  30.881  29.732  1.00  0.00     0.074 A 
ATOM     64  C   UNL A   1      47.937  32.537  29.842  1.00  0.00     0.029 A 
ATOM     65  N   UNL A   1      46.017  31.438  29.622  1.00  0.00    -0.354 N 
ATOM     66  N   UNL A   1      43.102  31.141  29.715  1.00  0.00    -0.248 NA
ATOM     67  C   UNL A   1      40.996  31.959  30.300  1.00  0.00     0.031 C 
ATOM     68  C   UNL A   1      46.903  33.356  30.307  1.00  0.00     0.029 A 
ATOM     69  C   UNL A   1      45.703  32.683  30.143  1.00  0.00     0.049 A 
ATOM     70  H   UNL A   1      45.362  30.734  29.406  1.00  0.00     0.167 HD
ATOM     71  C   UNL A   1      43.239  32.421  30.236  1.00  0.00     0.074 A 
ATOM     72  C   UNL A   1      41.905  32.890  30.546  1.00  0.00     0.031 C 
ATOM     73  C   UNL A   1      44.369  33.142  30.439  1.00  0.00     0.037 A 
BRANCH  60  74
ATOM     74  C   UNL A   1      49.566  30.169  28.909  1.00  0.00     0.064 A 
ATOM     75  C   UNL A   1      50.347  29.696  29.976  1.00  0.00     0.173 A 
ATOM     76  C   UNL A   1      50.234  30.626  27.764  1.00  0.00     0.173 A 
ATOM     77  F   UNL A   1      49.759  29.255  31.099  1.00  0.00    -0.203 F 
ATOM     78  C   UNL A   1      51.738  29.710  29.910  1.00  0.00     0.198 A 
ATOM     79  C   UNL A   1      51.625  30.606  27.686  1.00  0.00     0.198 A 
ATOM     80  F   UNL A   1      49.540  31.084  26.711  1.00  0.00    -0.203 F 
ATOM     81  F   UNL A   1      52.461  29.302  30.962  1.00  0.00    -0.200 F 
ATOM     82  C   UNL A   1      52.375  30.157  28.763  1.00  0.00     0.200 A 
ATOM     83  F   UNL A   1      52.239  31.024  26.572  1.00  0.00    -0.200 F 
ATOM     84  F   UNL A   1      53.714  30.161  28.696  1.00  0.00    -0.200 F 
ENDBRANCH  60  74
BRANCH  61  85
ATOM     85  C   UNL A   1      39.608  29.559  29.354  1.00  0.00     0.064 A 
ATOM     86  C   UNL A   1      38.800  29.681  28.213  1.00  0.00     0.173 A 
ATOM     87  C   UNL A   1      38.969  29.360  30.586  1.00  0.00     0.173 A 
ATOM     88  F   UNL A   1      39.362  29.892  27.014  1.00  0.00    -0.203 F 
ATOM     89  C   UNL A   1      37.411  29.632  28.307  1.00  0.00     0.198 A 
ATOM     90  C   UNL A   1      37.581  29.278  30.673  1.00  0.00     0.198 A 
ATOM     91  F   UNL A   1      39.694  29.233  31.707  1.00  0.00    -0.203 F 
ATOM     92  F   UNL A   1      36.662  29.803  27.208  1.00  0.00    -0.200 F 
ATOM     93  C   UNL A   1      36.802  29.424  29.535  1.00  0.00     0.200 A 
ATOM     94  F   UNL A   1      36.997  29.060  31.859  1.00  0.00    -0.200 F 
ATOM     95  F   UNL A   1      35.466  29.373  29.623  1.00  0.00    -0.200 F 
ENDBRANCH  61  85
BRANCH  73  96
ATOM     96  C   UNL A   1      44.213  34.534  30.985  1.00  0.00     0.064 A 
ATOM     97  C   UNL A   1      44.018  35.641  30.145  1.00  0.00     0.173 A 
ATOM     98  C   UNL A   1      44.220  34.756  32.371  1.00  0.00     0.173 A 
ATOM     99  F   UNL A   1      44.020  35.487  28.812  1.00  0.00    -0.203 F 
ATOM    100  C   UNL A   1      43.865  36.921  30.672  1.00  0.00     0.198 A 
ATOM    101  C   UNL A   1      44.029  36.031  32.895  1.00  0.00     0.198 A 
ATOM    102  F   UNL A   1      44.394  33.731  33.219  1.00  0.00    -0.203 F 
ATOM    103  F   UNL A   1      43.733  37.970  29.850  1.00  0.00    -0.200 F 
ATOM    104  C   UNL A   1      43.860  37.113  32.046  1.00  0.00     0.200 A 
ATOM    105  F   UNL A   1      44.009  36.212  34.222  1.00  0.00    -0.200 F 
ATOM    106  F   UNL A   1      43.702  38.344  32.551  1.00  0.00    -0.200 F 
ENDBRANCH  73  96
ENDBRANCH  47  48
ENDBRANCH  39  42
ENDBRANCH  37  38
ENDBRANCH  36  37
ENDBRANCH  35  36
ENDBRANCH   1  35
TORSDOF 17
ENDMDL
MODEL 3
REMARK VINA RESULT:     -11.2      4.997      9.282
REMARK SMILES CC(=O)Oc1ccc([C@H]2Nc3c(C(=O)NCCCCCCNC(=O)c4ccc(-c5c6nc(c(-c7c(F)c(F)c(F)c(F)c7F)c7ccc([nH]7)c(-c7c(F)c(F)c(F)c(F)c7F)c7nc(c(-c8c(F)c(F)c(F)c(F)c8F)c8ccc5[nH]8)C=C7)C=C6)cc4)ccc([N+](=O)[O-])c3[C@H]3C=CC[C@@H]32)cc1
REMARK SMILES IDX 18 1 17 2 16 3 15 4 13 5 14 6 12 8 9 9 10 10 99 11 11 12
REMARK SMILES IDX 95 14 98 15 94 16 96 17 97 18 88 19 90 20 89 21 8 22 5 23
REMARK SMILES IDX 6 24 101 25 7 26 100 27 4 28 2 29 1 30 3 31 91 32 92 33
REMARK SMILES IDX 93 34 19 35 20 36 21 37 22 38 23 39 24 41 25 42 26 43 87 44
REMARK SMILES IDX 27 45 86 46 28 47 29 48 30 49 80 50 31 51 85 52 79 53 81 54
REMARK SMILES IDX 32 55 84 56 78 57 77 58 33 60 65 61 45 62 64 63 46 64 49 65
REMARK SMILES IDX 63 66 82 67 47 68 48 69 62 71 83 72 50 73 34 74 35 75 43 76
REMARK SMILES IDX 36 77 37 78 41 79 44 80 38 81 39 82 42 83 40 84 66 85 67 86
REMARK SMILES IDX 75 87 68 88 69 89 73 90 76 91 70 92 71 93 74 94 72 95 51 96
REMARK SMILES IDX 52 97 60 98 53 99 54 100 58 101 61 102 55 103 56 104 59 105
REMARK SMILES IDX 57 106
REMARK H PARENT 15 7 10 13 22 40 81 59 49 70
REMARK Flexibility Score: inf
ROOT
ATOM      1  C   UNL A   1      49.554  27.643  24.774  1.00  0.00     0.002 C 
ENDROOT
BRANCH   1   2
ATOM      2  C   UNL A   1      49.084  27.548  23.321  1.00  0.00     0.021 C 
BRANCH   2   3
ATOM      3  C   UNL A   1      47.578  27.386  23.138  1.00  0.00     0.116 C 
BRANCH   3   4
ATOM      4  N   UNL A   1      46.792  28.169  24.090  1.00  0.00    -0.352 N 
ATOM      5  C   UNL A   1      45.869  27.738  25.030  1.00  0.00     0.253 C 
ATOM      6  O   UNL A   1      45.187  28.550  25.646  1.00  0.00    -0.269 OA
ATOM      7  H   UNL A   1      46.938  29.142  24.058  1.00  0.00     0.163 HD
BRANCH   5   8
ATOM      8  C   UNL A   1      45.716  26.280  25.275  1.00  0.00     0.063 A 
ATOM      9  C   UNL A   1      42.107  25.782  26.469  1.00  0.00     0.114 C 
ATOM     10  N   UNL A   1      43.332  26.435  25.938  1.00  0.00    -0.377 N 
ATOM     11  C   UNL A   1      42.542  24.408  27.004  1.00  0.00     0.031 C 
ATOM     12  C   UNL A   1      44.466  25.684  25.556  1.00  0.00     0.058 A 
ATOM     13  H   UNL A   1      43.353  27.416  25.852  1.00  0.00     0.161 HD
ATOM     14  C   UNL A   1      43.017  23.670  25.730  1.00  0.00     0.056 C 
ATOM     15  C   UNL A   1      41.613  23.442  27.733  1.00  0.00     0.034 C 
ATOM     16  C   UNL A   1      44.380  24.255  25.464  1.00  0.00     0.061 A 
ATOM     17  C   UNL A   1      42.771  22.243  26.077  1.00  0.00    -0.022 C 
ATOM     18  C   UNL A   1      41.988  22.119  27.153  1.00  0.00    -0.030 C 
ATOM     19  C   UNL A   1      46.882  25.495  25.184  1.00  0.00     0.023 A 
ATOM     20  C   UNL A   1      45.541  23.516  25.182  1.00  0.00     0.275 A 
ATOM     21  C   UNL A   1      46.798  24.113  25.109  1.00  0.00     0.087 A 
BRANCH   9  22
ATOM     22  C   UNL A   1      41.240  26.692  27.334  1.00  0.00    -0.025 A 
ATOM     23  C   UNL A   1      39.570  28.692  28.437  1.00  0.00     0.130 A 
ATOM     24  C   UNL A   1      40.924  28.949  28.241  1.00  0.00     0.047 A 
ATOM     25  C   UNL A   1      39.046  27.443  28.124  1.00  0.00     0.047 A 
ATOM     26  C   UNL A   1      41.751  27.955  27.699  1.00  0.00     0.010 A 
ATOM     27  C   UNL A   1      39.886  26.442  27.611  1.00  0.00     0.010 A 
BRANCH  23  28
ATOM     28  O   UNL A   1      38.780  29.784  28.855  1.00  0.00    -0.427 OA
BRANCH  28  29
ATOM     29  C   UNL A   1      37.433  29.884  28.504  1.00  0.00     0.308 C 
ATOM     30  C   UNL A   1      36.592  29.704  29.734  1.00  0.00     0.139 C 
ATOM     31  O   UNL A   1      36.979  30.079  27.385  1.00  0.00    -0.252 OA
ENDBRANCH  28  29
ENDBRANCH  23  28
ENDBRANCH   9  22
BRANCH  20  32
ATOM     32  N   UNL A   1      45.500  22.095  24.913  1.00  0.00     0.063 N 
ATOM     33  O   UNL A   1      46.027  21.347  25.745  1.00  0.00    -0.258 OA
ATOM     34  O   UNL A   1      44.986  21.748  23.841  1.00  0.00    -0.258 OA
ENDBRANCH  20  32
ENDBRANCH   5   8
ENDBRANCH   3   4
ENDBRANCH   2   3
ENDBRANCH   1   2
BRANCH   1  35
ATOM     35  C   UNL A   1      50.825  28.469  25.007  1.00  0.00     0.002 C 
BRANCH  35  36
ATOM     36  C   UNL A   1      52.135  27.824  24.547  1.00  0.00     0.021 C 
BRANCH  36  37
ATOM     37  C   UNL A   1      52.198  26.304  24.676  1.00  0.00     0.116 C 
BRANCH  37  38
ATOM     38  N   UNL A   1      53.184  25.863  25.650  1.00  0.00    -0.352 N 
ATOM     39  C   UNL A   1      53.124  25.852  27.023  1.00  0.00     0.251 C 
ATOM     40  H   UNL A   1      54.023  25.519  25.266  1.00  0.00     0.163 HD
ATOM     41  O   UNL A   1      54.123  25.589  27.679  1.00  0.00    -0.269 OA
BRANCH  39  42
ATOM     42  C   UNL A   1      51.859  26.187  27.715  1.00  0.00     0.039 A 
ATOM     43  C   UNL A   1      51.848  27.253  28.617  1.00  0.00     0.014 A 
ATOM     44  C   UNL A   1      50.693  25.450  27.491  1.00  0.00     0.014 A 
ATOM     45  C   UNL A   1      50.654  27.624  29.241  1.00  0.00     0.010 A 
ATOM     46  C   UNL A   1      49.489  25.867  28.054  1.00  0.00     0.010 A 
ATOM     47  C   UNL A   1      49.455  26.959  28.935  1.00  0.00    -0.014 A 
BRANCH  47  48
ATOM     48  C   UNL A   1      48.160  27.399  29.517  1.00  0.00     0.031 A 
ATOM     49  C   UNL A   1      47.456  28.612  28.976  1.00  0.00     0.074 A 
ATOM     50  C   UNL A   1      47.648  26.742  30.575  1.00  0.00     0.049 A 
ATOM     51  N   UNL A   1      46.357  29.189  29.394  1.00  0.00    -0.248 NA
ATOM     52  C   UNL A   1      48.084  29.284  27.827  1.00  0.00     0.031 C 
ATOM     53  C   UNL A   1      48.255  25.576  31.220  1.00  0.00     0.029 A 
ATOM     54  N   UNL A   1      46.506  26.965  31.305  1.00  0.00    -0.354 N 
ATOM     55  C   UNL A   1      46.170  30.291  28.571  1.00  0.00     0.074 A 
ATOM     56  C   UNL A   1      47.298  30.337  27.664  1.00  0.00     0.031 C 
ATOM     57  C   UNL A   1      47.471  25.173  32.233  1.00  0.00     0.029 A 
ATOM     58  C   UNL A   1      46.330  26.077  32.339  1.00  0.00     0.049 A 
ATOM     59  H   UNL A   1      45.874  27.693  31.106  1.00  0.00     0.167 HD
ATOM     60  C   UNL A   1      45.140  31.171  28.556  1.00  0.00     0.037 A 
ATOM     61  C   UNL A   1      45.363  26.007  33.276  1.00  0.00     0.037 A 
ATOM     62  C   UNL A   1      44.012  31.113  29.449  1.00  0.00     0.049 A 
ATOM     63  C   UNL A   1      44.244  27.013  33.253  1.00  0.00     0.074 A 
ATOM     64  C   UNL A   1      42.891  31.925  29.478  1.00  0.00     0.029 A 
ATOM     65  N   UNL A   1      43.865  30.195  30.480  1.00  0.00    -0.354 N 
ATOM     66  N   UNL A   1      44.041  28.008  32.423  1.00  0.00    -0.248 NA
ATOM     67  C   UNL A   1      43.215  26.883  34.293  1.00  0.00     0.031 C 
ATOM     68  C   UNL A   1      42.096  31.537  30.560  1.00  0.00     0.029 A 
ATOM     69  C   UNL A   1      42.687  30.440  31.168  1.00  0.00     0.049 A 
ATOM     70  H   UNL A   1      44.504  29.476  30.691  1.00  0.00     0.167 HD
ATOM     71  C   UNL A   1      42.849  28.599  32.821  1.00  0.00     0.074 A 
ATOM     72  C   UNL A   1      42.366  27.842  33.956  1.00  0.00     0.031 C 
ATOM     73  C   UNL A   1      42.212  29.674  32.292  1.00  0.00     0.037 A 
BRANCH  60  74
ATOM     74  C   UNL A   1      45.184  32.280  27.542  1.00  0.00     0.064 A 
ATOM     75  C   UNL A   1      44.401  32.247  26.377  1.00  0.00     0.173 A 
ATOM     76  C   UNL A   1      45.990  33.408  27.755  1.00  0.00     0.173 A 
ATOM     77  F   UNL A   1      43.619  31.187  26.119  1.00  0.00    -0.203 F 
ATOM     78  C   UNL A   1      44.447  33.286  25.451  1.00  0.00     0.198 A 
ATOM     79  C   UNL A   1      46.007  34.462  26.844  1.00  0.00     0.198 A 
ATOM     80  F   UNL A   1      46.754  33.498  28.854  1.00  0.00    -0.203 F 
ATOM     81  F   UNL A   1      43.731  33.205  24.321  1.00  0.00    -0.200 F 
ATOM     82  C   UNL A   1      45.244  34.395  25.689  1.00  0.00     0.200 A 
ATOM     83  F   UNL A   1      46.765  35.540  27.083  1.00  0.00    -0.200 F 
ATOM     84  F   UNL A   1      45.280  35.399  24.801  1.00  0.00    -0.200 F 
ENDBRANCH  60  74
BRANCH  61  85
ATOM     85  C   UNL A   1      45.403  24.936  34.306  1.00  0.00     0.064 A 
ATOM     86  C   UNL A   1      44.903  23.653  34.033  1.00  0.00     0.173 A 
ATOM     87  C   UNL A   1      45.927  25.171  35.586  1.00  0.00     0.173 A 
ATOM     88  F   UNL A   1      44.374  23.384  32.831  1.00  0.00    -0.203 F 
ATOM     89  C   UNL A   1      44.904  22.658  35.008  1.00  0.00     0.198 A 
ATOM     90  C   UNL A   1      45.957  24.165  36.549  1.00  0.00     0.198 A 
ATOM     91  F   UNL A   1      46.422  26.378  35.898  1.00  0.00    -0.203 F 
ATOM     92  F   UNL A   1      44.372  21.458  34.736  1.00  0.00    -0.200 F 
ATOM     93  C   UNL A   1      45.436  22.912  36.263  1.00  0.00     0.200 A 
ATOM     94  F   UNL A   1      46.488  24.409  37.754  1.00  0.00    -0.200 F 
ATOM     95  F   UNL A   1      45.440  21.953  37.198  1.00  0.00    -0.200 F 
ENDBRANCH  61  85
BRANCH  73  96
ATOM     96  C   UNL A   1      40.899  30.072  32.907  1.00  0.00     0.064 A 
ATOM     97  C   UNL A   1      40.795  31.154  33.793  1.00  0.00     0.173 A 
ATOM     98  C   UNL A   1      39.723  29.383  32.571  1.00  0.00     0.173 A 
ATOM     99  F   UNL A   1      41.892  31.836  34.159  1.00  0.00    -0.203 F 
ATOM    100  C   UNL A   1      39.567  31.513  34.343  1.00  0.00     0.198 A 
ATOM    101  C   UNL A   1      38.492  29.768  33.094  1.00  0.00     0.198 A 
ATOM    102  F   UNL A   1      39.766  28.346  31.722  1.00  0.00    -0.203 F 
ATOM    103  F   UNL A   1      39.500  32.516  35.229  1.00  0.00    -0.200 F 
ATOM    104  C   UNL A   1      38.416  30.826  33.986  1.00  0.00     0.200 A 
ATOM    105  F   UNL A   1      37.380  29.114  32.735  1.00  0.00    -0.200 F 
ATOM    106  F   UNL A   1      37.234  31.180  34.508  1.00  0.00    -0.200 F 
ENDBRANCH  73  96
ENDBRANCH  47  48
ENDBRANCH  39  42
ENDBRANCH  37  38
ENDBRANCH  36  37
ENDBRANCH  35  36
ENDBRANCH   1  35
TORSDOF 17
ENDMDL
