MODEL 1
REMARK VINA RESULT:     -10.7      0.000      0.000
REMARK SMILES C[C@H]([NH2+]CC(C)(C)C(=O)NCCCCCCNC(=O)c1ccc(-c2c3nc(c(-c4c(F)c(F)c(F)c(F)c4F)c4ccc([nH]4)c(-c4c(F)c(F)c(F)c(F)c4F)c4nc(c(-c5c(F)c(F)c(F)c(F)c5F)c5ccc2[nH]5)C=C4)C=C3)cc1)c1nccs1
REMARK SMILES IDX 12 1 11 2 10 3 8 4 9 5 5 7 6 8 7 9 4 10 3 11 2 14 1 15 83 16
REMARK SMILES IDX 84 17 87 18 85 19 86 20 13 21 14 22 15 23 16 24 17 25 18 26
REMARK SMILES IDX 19 28 20 29 21 30 82 31 22 32 81 33 23 34 24 35 25 36 75 37
REMARK SMILES IDX 26 38 80 39 74 40 76 41 27 42 79 43 73 44 72 45 28 47 60 48
REMARK SMILES IDX 40 49 59 50 41 51 44 52 58 53 77 54 42 55 43 56 57 58 78 59
REMARK SMILES IDX 45 60 29 61 30 62 38 63 31 64 32 65 36 66 39 67 33 68 34 69
REMARK SMILES IDX 37 70 35 71 61 72 62 73 70 74 63 75 64 76 68 77 71 78 65 79
REMARK SMILES IDX 66 80 69 81 67 82 46 83 47 84 55 85 48 86 49 87 53 88 56 89
REMARK SMILES IDX 50 90 51 91 54 92 52 93
REMARK H PARENT 10 6 3 12 3 13 17 27 76 46 44 57
REMARK Flexibility Score: inf
ROOT
ATOM      1  C   UNL A   1      33.504  31.470  27.654  1.00  0.00     0.021 C 
ENDROOT
BRANCH   1   2
ATOM      2  C   UNL A   1      33.949  30.086  27.180  1.00  0.00     0.116 C 
BRANCH   2   3
ATOM      3  N   UNL A   1      33.001  29.088  27.620  1.00  0.00    -0.355 N 
ATOM      4  C   UNL A   1      32.367  28.091  26.950  1.00  0.00     0.231 C 
ATOM      5  O   UNL A   1      31.313  27.708  27.468  1.00  0.00    -0.274 OA
ATOM      6  H   UNL A   1      32.773  29.140  28.577  1.00  0.00     0.163 HD
BRANCH   4   7
ATOM      7  C   UNL A   1      32.917  27.505  25.628  1.00  0.00     0.092 C 
ATOM      8  C   UNL A   1      33.978  26.424  25.887  1.00  0.00     0.027 C 
ATOM      9  C   UNL A   1      33.478  28.633  24.737  1.00  0.00     0.027 C 
BRANCH   7  10
ATOM     10  C   UNL A   1      31.730  26.890  24.819  1.00  0.00     0.277 C 
BRANCH  10  11
ATOM     11  N   UNL A   1      30.571  27.763  24.643  1.00  0.00    -0.337 N 
ATOM     12  H   UNL A   1      30.042  27.758  25.515  1.00  0.00     0.346 HD
ATOM     13  H   UNL A   1      30.954  28.673  24.386  1.00  0.00     0.346 HD
BRANCH  11  14
ATOM     14  C   UNL A   1      29.637  27.406  23.547  1.00  0.00     0.239 C 
ATOM     15  C   UNL A   1      28.413  26.562  23.938  1.00  0.00     0.083 C 
BRANCH  14  16
ATOM     16  C   UNL A   1      29.202  28.653  22.783  1.00  0.00     0.150 A 
ATOM     17  N   UNL A   1      29.996  29.378  22.014  1.00  0.00    -0.243 NA
ATOM     18  S   UNL A   1      27.557  29.178  22.837  1.00  0.00    -0.121 S 
ATOM     19  C   UNL A   1      29.279  30.420  21.458  1.00  0.00     0.123 A 
ATOM     20  C   UNL A   1      27.950  30.488  21.811  1.00  0.00     0.087 A 
ENDBRANCH  14  16
ENDBRANCH  11  14
ENDBRANCH  10  11
ENDBRANCH   7  10
ENDBRANCH   4   7
ENDBRANCH   2   3
ENDBRANCH   1   2
BRANCH   1  21
ATOM     21  C   UNL A   1      34.669  32.411  27.991  1.00  0.00     0.002 C 
BRANCH  21  22
ATOM     22  C   UNL A   1      34.376  33.421  29.106  1.00  0.00     0.002 C 
BRANCH  22  23
ATOM     23  C   UNL A   1      33.201  34.359  28.828  1.00  0.00     0.021 C 
BRANCH  23  24
ATOM     24  C   UNL A   1      33.441  35.801  29.254  1.00  0.00     0.116 C 
BRANCH  24  25
ATOM     25  N   UNL A   1      32.596  36.180  30.374  1.00  0.00    -0.352 N 
ATOM     26  C   UNL A   1      32.670  35.781  31.684  1.00  0.00     0.251 C 
ATOM     27  H   UNL A   1      31.870  36.812  30.163  1.00  0.00     0.163 HD
ATOM     28  O   UNL A   1      31.758  36.025  32.464  1.00  0.00    -0.269 OA
BRANCH  26  29
ATOM     29  C   UNL A   1      33.859  35.035  32.145  1.00  0.00     0.039 A 
ATOM     30  C   UNL A   1      33.696  33.738  32.636  1.00  0.00     0.014 A 
ATOM     31  C   UNL A   1      35.129  35.616  32.091  1.00  0.00     0.014 A 
ATOM     32  C   UNL A   1      34.816  33.005  33.030  1.00  0.00     0.010 A 
ATOM     33  C   UNL A   1      36.249  34.859  32.410  1.00  0.00     0.010 A 
ATOM     34  C   UNL A   1      36.103  33.550  32.895  1.00  0.00    -0.014 A 
BRANCH  34  35
ATOM     35  C   UNL A   1      37.313  32.780  33.279  1.00  0.00     0.031 A 
ATOM     36  C   UNL A   1      38.020  33.093  34.568  1.00  0.00     0.074 A 
ATOM     37  C   UNL A   1      37.809  31.850  32.442  1.00  0.00     0.049 A 
ATOM     38  N   UNL A   1      39.136  32.602  35.043  1.00  0.00    -0.248 NA
ATOM     39  C   UNL A   1      37.404  34.119  35.426  1.00  0.00     0.031 C 
ATOM     40  C   UNL A   1      37.234  31.484  31.147  1.00  0.00     0.029 A 
ATOM     41  N   UNL A   1      38.919  31.050  32.550  1.00  0.00    -0.354 N 
ATOM     42  C   UNL A   1      39.362  33.268  36.240  1.00  0.00     0.074 A 
ATOM     43  C   UNL A   1      38.301  34.238  36.393  1.00  0.00     0.031 C 
ATOM     44  C   UNL A   1      37.982  30.519  30.590  1.00  0.00     0.029 A 
ATOM     45  C   UNL A   1      39.113  30.228  31.466  1.00  0.00     0.049 A 
ATOM     46  H   UNL A   1      39.519  31.064  33.330  1.00  0.00     0.167 HD
ATOM     47  C   UNL A   1      40.352  33.070  37.143  1.00  0.00     0.037 A 
ATOM     48  C   UNL A   1      40.100  29.349  31.206  1.00  0.00     0.037 A 
ATOM     49  C   UNL A   1      41.392  32.087  36.995  1.00  0.00     0.049 A 
ATOM     50  C   UNL A   1      41.198  29.161  32.218  1.00  0.00     0.074 A 
ATOM     51  C   UNL A   1      42.412  31.771  37.876  1.00  0.00     0.029 A 
ATOM     52  N   UNL A   1      41.546  31.260  35.891  1.00  0.00    -0.354 N 
ATOM     53  N   UNL A   1      41.368  29.751  33.377  1.00  0.00    -0.248 NA
ATOM     54  C   UNL A   1      42.239  28.177  31.890  1.00  0.00     0.031 C 
ATOM     55  C   UNL A   1      43.213  30.790  37.283  1.00  0.00     0.029 A 
ATOM     56  C   UNL A   1      42.658  30.450  36.060  1.00  0.00     0.049 A 
ATOM     57  H   UNL A   1      40.954  31.250  35.106  1.00  0.00     0.167 HD
ATOM     58  C   UNL A   1      42.510  29.187  33.929  1.00  0.00     0.074 A 
ATOM     59  C   UNL A   1      42.987  28.199  32.984  1.00  0.00     0.031 C 
ATOM     60  C   UNL A   1      43.109  29.460  35.115  1.00  0.00     0.037 A 
BRANCH  47  61
ATOM     61  C   UNL A   1      40.357  33.936  38.370  1.00  0.00     0.064 A 
ATOM     62  C   UNL A   1      41.078  35.139  38.422  1.00  0.00     0.173 A 
ATOM     63  C   UNL A   1      39.603  33.576  39.498  1.00  0.00     0.173 A 
ATOM     64  F   UNL A   1      41.824  35.524  37.375  1.00  0.00    -0.203 F 
ATOM     65  C   UNL A   1      41.072  35.931  39.566  1.00  0.00     0.198 A 
ATOM     66  C   UNL A   1      39.570  34.389  40.629  1.00  0.00     0.198 A 
ATOM     67  F   UNL A   1      38.889  32.441  39.501  1.00  0.00    -0.203 F 
ATOM     68  F   UNL A   1      41.813  37.046  39.612  1.00  0.00    -0.200 F 
ATOM     69  C   UNL A   1      40.312  35.560  40.666  1.00  0.00     0.200 A 
ATOM     70  F   UNL A   1      38.825  34.036  41.684  1.00  0.00    -0.200 F 
ATOM     71  F   UNL A   1      40.301  36.327  41.765  1.00  0.00    -0.200 F 
ENDBRANCH  47  61
BRANCH  48  72
ATOM     72  C   UNL A   1      40.084  28.565  29.943  1.00  0.00     0.064 A 
ATOM     73  C   UNL A   1      39.459  27.311  29.883  1.00  0.00     0.173 A 
ATOM     74  C   UNL A   1      40.699  29.043  28.777  1.00  0.00     0.173 A 
ATOM     75  F   UNL A   1      38.875  26.801  30.977  1.00  0.00    -0.203 F 
ATOM     76  C   UNL A   1      39.470  26.556  28.713  1.00  0.00     0.198 A 
ATOM     77  C   UNL A   1      40.682  28.301  27.598  1.00  0.00     0.198 A 
ATOM     78  F   UNL A   1      41.305  30.240  28.779  1.00  0.00    -0.203 F 
ATOM     79  F   UNL A   1      38.910  25.339  28.697  1.00  0.00    -0.200 F 
ATOM     80  C   UNL A   1      40.077  27.053  27.569  1.00  0.00     0.200 A 
ATOM     81  F   UNL A   1      41.255  28.793  26.491  1.00  0.00    -0.200 F 
ATOM     82  F   UNL A   1      40.086  26.329  26.442  1.00  0.00    -0.200 F 
ENDBRANCH  48  72
BRANCH  60  83
ATOM     83  C   UNL A   1      44.316  28.646  35.484  1.00  0.00     0.064 A 
ATOM     84  C   UNL A   1      45.614  29.052  35.146  1.00  0.00     0.173 A 
ATOM     85  C   UNL A   1      44.169  27.467  36.233  1.00  0.00     0.173 A 
ATOM     86  F   UNL A   1      45.807  30.163  34.420  1.00  0.00    -0.203 F 
ATOM     87  C   UNL A   1      46.721  28.294  35.522  1.00  0.00     0.198 A 
ATOM     88  C   UNL A   1      45.279  26.730  36.635  1.00  0.00     0.198 A 
ATOM     89  F   UNL A   1      42.949  27.039  36.588  1.00  0.00    -0.203 F 
ATOM     90  F   UNL A   1      47.950  28.675  35.147  1.00  0.00    -0.200 F 
ATOM     91  C   UNL A   1      46.553  27.140  36.273  1.00  0.00     0.200 A 
ATOM     92  F   UNL A   1      45.115  25.625  37.375  1.00  0.00    -0.200 F 
ATOM     93  F   UNL A   1      47.620  26.418  36.643  1.00  0.00    -0.200 F 
ENDBRANCH  60  83
ENDBRANCH  34  35
ENDBRANCH  26  29
ENDBRANCH  24  25
ENDBRANCH  23  24
ENDBRANCH  22  23
ENDBRANCH  21  22
ENDBRANCH   1  21
TORSDOF 17
ENDMDL
MODEL 2
REMARK VINA RESULT:     -10.7      6.995     11.514
REMARK SMILES C[C@H]([NH2+]CC(C)(C)C(=O)NCCCCCCNC(=O)c1ccc(-c2c3nc(c(-c4c(F)c(F)c(F)c(F)c4F)c4ccc([nH]4)c(-c4c(F)c(F)c(F)c(F)c4F)c4nc(c(-c5c(F)c(F)c(F)c(F)c5F)c5ccc2[nH]5)C=C4)C=C3)cc1)c1nccs1
REMARK SMILES IDX 12 1 11 2 10 3 8 4 9 5 5 7 6 8 7 9 4 10 3 11 2 14 1 15 83 16
REMARK SMILES IDX 84 17 87 18 85 19 86 20 13 21 14 22 15 23 16 24 17 25 18 26
REMARK SMILES IDX 19 28 20 29 21 30 82 31 22 32 81 33 23 34 24 35 25 36 75 37
REMARK SMILES IDX 26 38 80 39 74 40 76 41 27 42 79 43 73 44 72 45 28 47 60 48
REMARK SMILES IDX 40 49 59 50 41 51 44 52 58 53 77 54 42 55 43 56 57 58 78 59
REMARK SMILES IDX 45 60 29 61 30 62 38 63 31 64 32 65 36 66 39 67 33 68 34 69
REMARK SMILES IDX 37 70 35 71 61 72 62 73 70 74 63 75 64 76 68 77 71 78 65 79
REMARK SMILES IDX 66 80 69 81 67 82 46 83 47 84 55 85 48 86 49 87 53 88 56 89
REMARK SMILES IDX 50 90 51 91 54 92 52 93
REMARK H PARENT 10 6 3 12 3 13 17 27 76 46 44 57
REMARK Flexibility Score: inf
ROOT
ATOM      1  C   UNL A   1      37.506  22.948  25.685  1.00  0.00     0.021 C 
ENDROOT
BRANCH   1   2
ATOM      2  C   UNL A   1      36.174  23.601  26.059  1.00  0.00     0.116 C 
BRANCH   2   3
ATOM      3  N   UNL A   1      35.390  22.691  26.863  1.00  0.00    -0.355 N 
ATOM      4  C   UNL A   1      34.066  22.385  26.846  1.00  0.00     0.231 C 
ATOM      5  O   UNL A   1      33.626  21.934  27.908  1.00  0.00    -0.274 OA
ATOM      6  H   UNL A   1      35.908  22.204  27.545  1.00  0.00     0.163 HD
BRANCH   4   7
ATOM      7  C   UNL A   1      33.182  22.612  25.597  1.00  0.00     0.092 C 
ATOM      8  C   UNL A   1      34.027  22.706  24.316  1.00  0.00     0.027 C 
ATOM      9  C   UNL A   1      32.311  23.872  25.782  1.00  0.00     0.027 C 
BRANCH   7  10
ATOM     10  C   UNL A   1      32.174  21.426  25.472  1.00  0.00     0.277 C 
BRANCH  10  11
ATOM     11  N   UNL A   1      32.751  20.092  25.631  1.00  0.00    -0.337 N 
ATOM     12  H   UNL A   1      33.764  20.179  25.543  1.00  0.00     0.346 HD
ATOM     13  H   UNL A   1      32.433  19.767  26.545  1.00  0.00     0.346 HD
BRANCH  11  14
ATOM     14  C   UNL A   1      32.301  19.059  24.667  1.00  0.00     0.239 C 
ATOM     15  C   UNL A   1      32.347  19.446  23.179  1.00  0.00     0.083 C 
BRANCH  14  16
ATOM     16  C   UNL A   1      33.044  17.747  24.898  1.00  0.00     0.150 A 
ATOM     17  N   UNL A   1      32.497  16.653  25.402  1.00  0.00    -0.243 NA
ATOM     18  S   UNL A   1      34.702  17.590  24.440  1.00  0.00    -0.121 S 
ATOM     19  C   UNL A   1      33.440  15.646  25.457  1.00  0.00     0.123 A 
ATOM     20  C   UNL A   1      34.697  15.976  25.005  1.00  0.00     0.087 A 
ENDBRANCH  14  16
ENDBRANCH  11  14
ENDBRANCH  10  11
ENDBRANCH   7  10
ENDBRANCH   4   7
ENDBRANCH   2   3
ENDBRANCH   1   2
BRANCH   1  21
ATOM     21  C   UNL A   1      37.402  21.961  24.516  1.00  0.00     0.002 C 
BRANCH  21  22
ATOM     22  C   UNL A   1      37.088  20.516  24.921  1.00  0.00     0.002 C 
BRANCH  22  23
ATOM     23  C   UNL A   1      38.294  19.576  24.925  1.00  0.00     0.021 C 
BRANCH  23  24
ATOM     24  C   UNL A   1      39.408  19.996  25.874  1.00  0.00     0.116 C 
BRANCH  24  25
ATOM     25  N   UNL A   1      40.448  18.986  25.965  1.00  0.00    -0.352 N 
ATOM     26  C   UNL A   1      41.803  19.154  26.101  1.00  0.00     0.251 C 
ATOM     27  H   UNL A   1      40.138  18.052  25.927  1.00  0.00     0.163 HD
ATOM     28  O   UNL A   1      42.567  18.209  25.952  1.00  0.00    -0.269 OA
BRANCH  26  29
ATOM     29  C   UNL A   1      42.336  20.496  26.411  1.00  0.00     0.039 A 
ATOM     30  C   UNL A   1      42.728  21.329  25.361  1.00  0.00     0.014 A 
ATOM     31  C   UNL A   1      42.448  20.928  27.736  1.00  0.00     0.014 A 
ATOM     32  C   UNL A   1      43.189  22.617  25.639  1.00  0.00     0.010 A 
ATOM     33  C   UNL A   1      42.834  22.235  28.006  1.00  0.00     0.010 A 
ATOM     34  C   UNL A   1      43.219  23.089  26.961  1.00  0.00    -0.014 A 
BRANCH  34  35
ATOM     35  C   UNL A   1      43.677  24.464  27.280  1.00  0.00     0.031 A 
ATOM     36  C   UNL A   1      42.691  25.483  27.781  1.00  0.00     0.074 A 
ATOM     37  C   UNL A   1      44.958  24.813  27.057  1.00  0.00     0.049 A 
ATOM     38  N   UNL A   1      42.867  26.755  28.031  1.00  0.00    -0.248 NA
ATOM     39  C   UNL A   1      41.314  25.013  28.004  1.00  0.00     0.031 C 
ATOM     40  C   UNL A   1      45.998  23.924  26.537  1.00  0.00     0.029 A 
ATOM     41  N   UNL A   1      45.602  26.013  27.228  1.00  0.00    -0.354 N 
ATOM     42  C   UNL A   1      41.626  27.238  28.422  1.00  0.00     0.074 A 
ATOM     43  C   UNL A   1      40.692  26.138  28.322  1.00  0.00     0.031 C 
ATOM     44  C   UNL A   1      47.154  24.603  26.451  1.00  0.00     0.029 A 
ATOM     45  C   UNL A   1      46.926  25.984  26.867  1.00  0.00     0.049 A 
ATOM     46  H   UNL A   1      45.155  26.819  27.576  1.00  0.00     0.167 HD
ATOM     47  C   UNL A   1      41.299  28.481  28.851  1.00  0.00     0.037 A 
ATOM     48  C   UNL A   1      47.849  26.966  26.861  1.00  0.00     0.037 A 
ATOM     49  C   UNL A   1      42.238  29.564  28.970  1.00  0.00     0.049 A 
ATOM     50  C   UNL A   1      47.456  28.343  27.326  1.00  0.00     0.074 A 
ATOM     51  C   UNL A   1      42.020  30.847  29.442  1.00  0.00     0.029 A 
ATOM     52  N   UNL A   1      43.577  29.492  28.611  1.00  0.00    -0.354 N 
ATOM     53  N   UNL A   1      46.293  28.773  27.753  1.00  0.00    -0.248 NA
ATOM     54  C   UNL A   1      48.506  29.370  27.315  1.00  0.00     0.031 C 
ATOM     55  C   UNL A   1      43.214  31.565  29.321  1.00  0.00     0.029 A 
ATOM     56  C   UNL A   1      44.191  30.714  28.831  1.00  0.00     0.049 A 
ATOM     57  H   UNL A   1      44.023  28.691  28.254  1.00  0.00     0.167 HD
ATOM     58  C   UNL A   1      46.481  30.106  28.094  1.00  0.00     0.074 A 
ATOM     59  C   UNL A   1      47.872  30.411  27.834  1.00  0.00     0.031 C 
ATOM     60  C   UNL A   1      45.582  30.996  28.581  1.00  0.00     0.037 A 
BRANCH  47  61
ATOM     61  C   UNL A   1      39.865  28.734  29.220  1.00  0.00     0.064 A 
ATOM     62  C   UNL A   1      38.934  29.208  28.283  1.00  0.00     0.173 A 
ATOM     63  C   UNL A   1      39.408  28.468  30.521  1.00  0.00     0.173 A 
ATOM     64  F   UNL A   1      39.321  29.489  27.030  1.00  0.00    -0.203 F 
ATOM     65  C   UNL A   1      37.609  29.437  28.642  1.00  0.00     0.198 A 
ATOM     66  C   UNL A   1      38.073  28.664  30.866  1.00  0.00     0.198 A 
ATOM     67  F   UNL A   1      40.253  28.007  31.455  1.00  0.00    -0.203 F 
ATOM     68  F   UNL A   1      36.752  29.942  27.744  1.00  0.00    -0.200 F 
ATOM     69  C   UNL A   1      37.177  29.158  29.930  1.00  0.00     0.200 A 
ATOM     70  F   UNL A   1      37.655  28.381  32.107  1.00  0.00    -0.200 F 
ATOM     71  F   UNL A   1      35.899  29.372  30.272  1.00  0.00    -0.200 F 
ENDBRANCH  47  61
BRANCH  48  72
ATOM     72  C   UNL A   1      49.239  26.677  26.421  1.00  0.00     0.064 A 
ATOM     73  C   UNL A   1      49.628  26.875  25.088  1.00  0.00     0.173 A 
ATOM     74  C   UNL A   1      50.203  26.188  27.314  1.00  0.00     0.173 A 
ATOM     75  F   UNL A   1      48.737  27.322  24.191  1.00  0.00    -0.203 F 
ATOM     76  C   UNL A   1      50.919  26.574  24.661  1.00  0.00     0.198 A 
ATOM     77  C   UNL A   1      51.504  25.917  26.893  1.00  0.00     0.198 A 
ATOM     78  F   UNL A   1      49.885  25.987  28.602  1.00  0.00    -0.203 F 
ATOM     79  F   UNL A   1      51.248  26.725  23.372  1.00  0.00    -0.200 F 
ATOM     80  C   UNL A   1      51.858  26.099  25.565  1.00  0.00     0.200 A 
ATOM     81  F   UNL A   1      52.411  25.473  27.774  1.00  0.00    -0.200 F 
ATOM     82  F   UNL A   1      53.100  25.811  25.156  1.00  0.00    -0.200 F 
ENDBRANCH  48  72
BRANCH  60  83
ATOM     83  C   UNL A   1      46.083  32.372  28.917  1.00  0.00     0.064 A 
ATOM     84  C   UNL A   1      46.024  33.426  27.994  1.00  0.00     0.173 A 
ATOM     85  C   UNL A   1      46.584  32.647  30.199  1.00  0.00     0.173 A 
ATOM     86  F   UNL A   1      45.567  33.212  26.751  1.00  0.00    -0.203 F 
ATOM     87  C   UNL A   1      46.471  34.701  28.336  1.00  0.00     0.198 A 
ATOM     88  C   UNL A   1      46.998  33.929  30.547  1.00  0.00     0.198 A 
ATOM     89  F   UNL A   1      46.655  31.675  31.120  1.00  0.00    -0.203 F 
ATOM     90  F   UNL A   1      46.449  35.683  27.424  1.00  0.00    -0.200 F 
ATOM     91  C   UNL A   1      46.949  34.953  29.613  1.00  0.00     0.200 A 
ATOM     92  F   UNL A   1      47.444  34.174  31.787  1.00  0.00    -0.200 F 
ATOM     93  F   UNL A   1      47.367  36.183  29.943  1.00  0.00    -0.200 F 
ENDBRANCH  60  83
ENDBRANCH  34  35
ENDBRANCH  26  29
ENDBRANCH  24  25
ENDBRANCH  23  24
ENDBRANCH  22  23
ENDBRANCH  21  22
ENDBRANCH   1  21
TORSDOF 17
ENDMDL
MODEL 3
REMARK VINA RESULT:     -10.6      2.514      8.142
REMARK SMILES C[C@H]([NH2+]CC(C)(C)C(=O)NCCCCCCNC(=O)c1ccc(-c2c3nc(c(-c4c(F)c(F)c(F)c(F)c4F)c4ccc([nH]4)c(-c4c(F)c(F)c(F)c(F)c4F)c4nc(c(-c5c(F)c(F)c(F)c(F)c5F)c5ccc2[nH]5)C=C4)C=C3)cc1)c1nccs1
REMARK SMILES IDX 12 1 11 2 10 3 8 4 9 5 5 7 6 8 7 9 4 10 3 11 2 14 1 15 83 16
REMARK SMILES IDX 84 17 87 18 85 19 86 20 13 21 14 22 15 23 16 24 17 25 18 26
REMARK SMILES IDX 19 28 20 29 21 30 82 31 22 32 81 33 23 34 24 35 25 36 75 37
REMARK SMILES IDX 26 38 80 39 74 40 76 41 27 42 79 43 73 44 72 45 28 47 60 48
REMARK SMILES IDX 40 49 59 50 41 51 44 52 58 53 77 54 42 55 43 56 57 58 78 59
REMARK SMILES IDX 45 60 29 61 30 62 38 63 31 64 32 65 36 66 39 67 33 68 34 69
REMARK SMILES IDX 37 70 35 71 61 72 62 73 70 74 63 75 64 76 68 77 71 78 65 79
REMARK SMILES IDX 66 80 69 81 67 82 46 83 47 84 55 85 48 86 49 87 53 88 56 89
REMARK SMILES IDX 50 90 51 91 54 92 52 93
REMARK H PARENT 10 6 3 12 3 13 17 27 76 46 44 57
REMARK Flexibility Score: inf
ROOT
ATOM      1  C   UNL A   1      31.842  28.807  27.316  1.00  0.00     0.021 C 
ENDROOT
BRANCH   1   2
ATOM      2  C   UNL A   1      31.277  27.742  26.375  1.00  0.00     0.116 C 
BRANCH   2   3
ATOM      3  N   UNL A   1      31.257  26.460  27.042  1.00  0.00    -0.355 N 
ATOM      4  C   UNL A   1      31.737  25.244  26.671  1.00  0.00     0.231 C 
ATOM      5  O   UNL A   1      31.189  24.283  27.219  1.00  0.00    -0.274 OA
ATOM      6  H   UNL A   1      30.816  26.469  27.923  1.00  0.00     0.163 HD
BRANCH   4   7
ATOM      7  C   UNL A   1      32.865  25.086  25.624  1.00  0.00     0.092 C 
ATOM      8  C   UNL A   1      33.898  26.220  25.731  1.00  0.00     0.027 C 
ATOM      9  C   UNL A   1      32.268  25.009  24.204  1.00  0.00     0.027 C 
BRANCH   7  10
ATOM     10  C   UNL A   1      33.572  23.712  25.851  1.00  0.00     0.277 C 
BRANCH  10  11
ATOM     11  N   UNL A   1      32.766  22.532  25.543  1.00  0.00    -0.337 N 
ATOM     12  H   UNL A   1      32.673  21.987  26.400  1.00  0.00     0.346 HD
ATOM     13  H   UNL A   1      31.886  22.895  25.175  1.00  0.00     0.346 HD
BRANCH  11  14
ATOM     14  C   UNL A   1      33.292  21.631  24.489  1.00  0.00     0.239 C 
ATOM     15  C   UNL A   1      32.526  21.616  23.156  1.00  0.00     0.083 C 
BRANCH  14  16
ATOM     16  C   UNL A   1      34.775  21.895  24.247  1.00  0.00     0.150 A 
ATOM     17  N   UNL A   1      35.252  22.713  23.324  1.00  0.00    -0.243 NA
ATOM     18  S   UNL A   1      35.969  21.151  25.250  1.00  0.00    -0.121 S 
ATOM     19  C   UNL A   1      36.631  22.734  23.389  1.00  0.00     0.123 A 
ATOM     20  C   UNL A   1      37.198  21.931  24.353  1.00  0.00     0.087 A 
ENDBRANCH  14  16
ENDBRANCH  11  14
ENDBRANCH  10  11
ENDBRANCH   7  10
ENDBRANCH   4   7
ENDBRANCH   2   3
ENDBRANCH   1   2
BRANCH   1  21
ATOM     21  C   UNL A   1      32.525  29.973  26.589  1.00  0.00     0.002 C 
BRANCH  21  22
ATOM     22  C   UNL A   1      31.564  30.980  25.946  1.00  0.00     0.002 C 
BRANCH  22  23
ATOM     23  C   UNL A   1      31.324  32.248  26.767  1.00  0.00     0.021 C 
BRANCH  23  24
ATOM     24  C   UNL A   1      32.592  32.878  27.326  1.00  0.00     0.116 C 
BRANCH  24  25
ATOM     25  N   UNL A   1      32.396  34.278  27.663  1.00  0.00    -0.352 N 
ATOM     26  C   UNL A   1      33.006  35.021  28.641  1.00  0.00     0.251 C 
ATOM     27  H   UNL A   1      31.737  34.759  27.112  1.00  0.00     0.163 HD
ATOM     28  O   UNL A   1      32.581  36.132  28.937  1.00  0.00    -0.269 OA
BRANCH  26  29
ATOM     29  C   UNL A   1      34.174  34.462  29.351  1.00  0.00     0.039 A 
ATOM     30  C   UNL A   1      33.976  33.803  30.567  1.00  0.00     0.014 A 
ATOM     31  C   UNL A   1      35.459  34.590  28.817  1.00  0.00     0.014 A 
ATOM     32  C   UNL A   1      35.065  33.229  31.224  1.00  0.00     0.010 A 
ATOM     33  C   UNL A   1      36.529  33.952  29.432  1.00  0.00     0.010 A 
ATOM     34  C   UNL A   1      36.345  33.276  30.648  1.00  0.00    -0.014 A 
BRANCH  34  35
ATOM     35  C   UNL A   1      37.514  32.647  31.312  1.00  0.00     0.031 A 
ATOM     36  C   UNL A   1      38.238  31.516  30.638  1.00  0.00     0.074 A 
ATOM     37  C   UNL A   1      37.881  33.049  32.544  1.00  0.00     0.049 A 
ATOM     38  N   UNL A   1      39.221  30.775  31.084  1.00  0.00    -0.248 NA
ATOM     39  C   UNL A   1      37.775  31.147  29.289  1.00  0.00     0.031 C 
ATOM     40  C   UNL A   1      37.233  34.109  33.316  1.00  0.00     0.029 A 
ATOM     41  N   UNL A   1      38.883  32.601  33.369  1.00  0.00    -0.354 N 
ATOM     42  C   UNL A   1      39.480  29.849  30.083  1.00  0.00     0.074 A 
ATOM     43  C   UNL A   1      38.516  30.081  29.030  1.00  0.00     0.031 C 
ATOM     44  C   UNL A   1      37.865  34.245  34.493  1.00  0.00     0.029 A 
ATOM     45  C   UNL A   1      38.933  33.254  34.577  1.00  0.00     0.049 A 
ATOM     46  H   UNL A   1      39.505  31.880  33.119  1.00  0.00     0.167 HD
ATOM     47  C   UNL A   1      40.452  28.906  30.035  1.00  0.00     0.037 A 
ATOM     48  C   UNL A   1      39.744  33.063  35.636  1.00  0.00     0.037 A 
ATOM     49  C   UNL A   1      41.422  28.696  31.077  1.00  0.00     0.049 A 
ATOM     50  C   UNL A   1      40.804  31.997  35.564  1.00  0.00     0.074 A 
ATOM     51  C   UNL A   1      42.478  27.802  31.104  1.00  0.00     0.029 A 
ATOM     52  N   UNL A   1      41.453  29.389  32.278  1.00  0.00    -0.354 N 
ATOM     53  N   UNL A   1      41.081  31.168  34.587  1.00  0.00    -0.248 NA
ATOM     54  C   UNL A   1      41.670  31.845  36.741  1.00  0.00     0.031 C 
ATOM     55  C   UNL A   1      43.117  27.919  32.343  1.00  0.00     0.029 A 
ATOM     56  C   UNL A   1      42.497  28.927  33.063  1.00  0.00     0.049 A 
ATOM     57  H   UNL A   1      40.826  30.103  32.535  1.00  0.00     0.167 HD
ATOM     58  C   UNL A   1      42.172  30.423  35.015  1.00  0.00     0.074 A 
ATOM     59  C   UNL A   1      42.513  30.905  36.337  1.00  0.00     0.031 C 
ATOM     60  C   UNL A   1      42.833  29.430  34.371  1.00  0.00     0.037 A 
BRANCH  47  61
ATOM     61  C   UNL A   1      40.510  28.030  28.817  1.00  0.00     0.064 A 
ATOM     62  C   UNL A   1      41.262  28.386  27.687  1.00  0.00     0.173 A 
ATOM     63  C   UNL A   1      39.832  26.801  28.790  1.00  0.00     0.173 A 
ATOM     64  F   UNL A   1      41.920  29.555  27.655  1.00  0.00    -0.203 F 
ATOM     65  C   UNL A   1      41.305  27.563  26.565  1.00  0.00     0.198 A 
ATOM     66  C   UNL A   1      39.906  25.964  27.680  1.00  0.00     0.198 A 
ATOM     67  F   UNL A   1      39.103  26.407  29.846  1.00  0.00    -0.203 F 
ATOM     68  F   UNL A   1      41.985  27.951  25.477  1.00  0.00    -0.200 F 
ATOM     69  C   UNL A   1      40.634  26.349  26.565  1.00  0.00     0.200 A 
ATOM     70  F   UNL A   1      39.269  24.785  27.688  1.00  0.00    -0.200 F 
ATOM     71  F   UNL A   1      40.684  25.554  25.488  1.00  0.00    -0.200 F 
ENDBRANCH  47  61
BRANCH  48  72
ATOM     72  C   UNL A   1      39.599  33.915  36.846  1.00  0.00     0.064 A 
ATOM     73  C   UNL A   1      38.832  33.487  37.939  1.00  0.00     0.173 A 
ATOM     74  C   UNL A   1      40.211  35.174  36.932  1.00  0.00     0.173 A 
ATOM     75  F   UNL A   1      38.211  32.300  37.897  1.00  0.00    -0.203 F 
ATOM     76  C   UNL A   1      38.664  34.295  39.061  1.00  0.00     0.198 A 
ATOM     77  C   UNL A   1      40.068  35.969  38.068  1.00  0.00     0.198 A 
ATOM     78  F   UNL A   1      40.960  35.628  35.916  1.00  0.00    -0.203 F 
ATOM     79  F   UNL A   1      37.885  33.884  40.070  1.00  0.00    -0.200 F 
ATOM     80  C   UNL A   1      39.286  35.534  39.128  1.00  0.00     0.200 A 
ATOM     81  F   UNL A   1      40.683  37.157  38.133  1.00  0.00    -0.200 F 
ATOM     82  F   UNL A   1      39.126  36.310  40.207  1.00  0.00    -0.200 F 
ENDBRANCH  48  72
BRANCH  60  83
ATOM     83  C   UNL A   1      44.026  28.832  35.061  1.00  0.00     0.064 A 
ATOM     84  C   UNL A   1      43.914  27.710  35.892  1.00  0.00     0.173 A 
ATOM     85  C   UNL A   1      45.307  29.365  34.842  1.00  0.00     0.173 A 
ATOM     86  F   UNL A   1      42.711  27.172  36.144  1.00  0.00    -0.203 F 
ATOM     87  C   UNL A   1      45.039  27.156  36.501  1.00  0.00     0.198 A 
ATOM     88  C   UNL A   1      46.431  28.789  35.425  1.00  0.00     0.198 A 
ATOM     89  F   UNL A   1      45.469  30.434  34.049  1.00  0.00    -0.203 F 
ATOM     90  F   UNL A   1      44.903  26.112  37.330  1.00  0.00    -0.200 F 
ATOM     91  C   UNL A   1      46.296  27.690  36.260  1.00  0.00     0.200 A 
ATOM     92  F   UNL A   1      47.646  29.296  35.177  1.00  0.00    -0.200 F 
ATOM     93  F   UNL A   1      47.377  27.149  36.837  1.00  0.00    -0.200 F 
ENDBRANCH  60  83
ENDBRANCH  34  35
ENDBRANCH  26  29
ENDBRANCH  24  25
ENDBRANCH  23  24
ENDBRANCH  22  23
ENDBRANCH  21  22
ENDBRANCH   1  21
TORSDOF 17
ENDMDL
