MODEL 1
REMARK VINA RESULT:     -11.3      0.000      0.000
REMARK SMILES CC1=C(C(=O)NCCCCCCNC(=O)c2ccc(-c3c4nc(c(-c5c(F)c(F)c(F)c(F)c5F)c5ccc([nH]5)c(-c5c(F)c(F)c(F)c(F)c5F)c5nc(c(-c6c(F)c(F)c(F)c(F)c6F)c6ccc3[nH]6)C=C5)C=C4)cc2)C(C)(C)CCC1
REMARK SMILES IDX 10 1 9 2 8 3 7 4 6 5 4 6 5 7 3 9 1 10 2 11 84 12 79 13 83 14
REMARK SMILES IDX 80 15 81 16 82 17 11 18 12 19 13 20 14 21 15 23 16 24 17 25
REMARK SMILES IDX 78 26 18 27 77 28 19 29 20 30 21 31 71 32 22 33 76 34 70 35
REMARK SMILES IDX 72 36 23 37 75 38 69 39 68 40 24 42 56 43 36 44 55 45 37 46
REMARK SMILES IDX 40 47 54 48 73 49 38 50 39 51 53 53 74 54 41 55 25 56 26 57
REMARK SMILES IDX 34 58 27 59 28 60 32 61 35 62 29 63 30 64 33 65 31 66 57 67
REMARK SMILES IDX 58 68 66 69 59 70 60 71 64 72 67 73 61 74 62 75 65 76 63 77
REMARK SMILES IDX 42 78 43 79 51 80 44 81 45 82 49 83 52 84 46 85 47 86 50 87
REMARK SMILES IDX 48 88
REMARK H PARENT 6 8 13 22 72 41 40 52
REMARK Flexibility Score: inf
ROOT
ATOM      1  C   UNL A   1      36.831  20.898  24.896  1.00  0.00     0.002 C 
ENDROOT
BRANCH   1   2
ATOM      2  C   UNL A   1      37.004  22.014  23.861  1.00  0.00     0.002 C 
BRANCH   2   3
ATOM      3  C   UNL A   1      36.935  23.465  24.355  1.00  0.00     0.021 C 
BRANCH   3   4
ATOM      4  C   UNL A   1      36.338  23.691  25.743  1.00  0.00     0.116 C 
BRANCH   4   5
ATOM      5  N   UNL A   1      35.122  24.473  25.775  1.00  0.00    -0.352 N 
ATOM      6  C   UNL A   1      33.808  24.098  25.725  1.00  0.00     0.247 C 
ATOM      7  O   UNL A   1      32.978  24.979  25.945  1.00  0.00    -0.270 OA
ATOM      8  H   UNL A   1      35.265  25.444  25.845  1.00  0.00     0.163 HD
BRANCH   6   9
ATOM      9  C   UNL A   1      33.380  22.709  25.296  1.00  0.00     0.021 C 
ATOM     10  C   UNL A   1      33.651  21.633  27.591  1.00  0.00     0.040 C 
ATOM     11  C   UNL A   1      33.464  21.615  26.097  1.00  0.00    -0.064 C 
ATOM     12  C   UNL A   1      33.291  20.202  25.575  1.00  0.00     0.031 C 
ATOM     13  C   UNL A   1      32.705  22.615  23.893  1.00  0.00    -0.005 C 
ATOM     14  C   UNL A   1      33.081  20.101  24.073  1.00  0.00     0.005 C 
ATOM     15  C   UNL A   1      31.485  23.563  23.761  1.00  0.00     0.016 C 
ATOM     16  C   UNL A   1      33.711  22.953  22.776  1.00  0.00     0.016 C 
ATOM     17  C   UNL A   1      32.124  21.192  23.637  1.00  0.00     0.012 C 
ENDBRANCH   6   9
ENDBRANCH   4   5
ENDBRANCH   3   4
ENDBRANCH   2   3
ENDBRANCH   1   2
BRANCH   1  18
ATOM     18  C   UNL A   1      37.953  19.863  25.002  1.00  0.00     0.021 C 
BRANCH  18  19
ATOM     19  C   UNL A   1      39.111  20.213  25.928  1.00  0.00     0.116 C 
BRANCH  19  20
ATOM     20  N   UNL A   1      40.153  19.203  25.955  1.00  0.00    -0.352 N 
ATOM     21  C   UNL A   1      41.510  19.341  26.127  1.00  0.00     0.251 C 
ATOM     22  H   UNL A   1      39.841  18.277  25.831  1.00  0.00     0.163 HD
ATOM     23  O   UNL A   1      42.247  18.370  26.007  1.00  0.00    -0.269 OA
BRANCH  21  24
ATOM     24  C   UNL A   1      42.094  20.669  26.426  1.00  0.00     0.039 A 
ATOM     25  C   UNL A   1      42.410  21.515  25.359  1.00  0.00     0.014 A 
ATOM     26  C   UNL A   1      42.343  21.080  27.737  1.00  0.00     0.014 A 
ATOM     27  C   UNL A   1      42.912  22.795  25.610  1.00  0.00     0.010 A 
ATOM     28  C   UNL A   1      42.770  22.382  27.990  1.00  0.00     0.010 A 
ATOM     29  C   UNL A   1      43.062  23.253  26.928  1.00  0.00    -0.014 A 
BRANCH  29  30
ATOM     30  C   UNL A   1      43.518  24.639  27.213  1.00  0.00     0.031 A 
ATOM     31  C   UNL A   1      42.557  25.658  27.760  1.00  0.00     0.074 A 
ATOM     32  C   UNL A   1      44.786  24.997  26.925  1.00  0.00     0.049 A 
ATOM     33  N   UNL A   1      42.749  26.928  28.015  1.00  0.00    -0.248 NA
ATOM     34  C   UNL A   1      41.188  25.194  28.034  1.00  0.00     0.031 C 
ATOM     35  C   UNL A   1      45.802  24.112  26.352  1.00  0.00     0.029 A 
ATOM     36  N   UNL A   1      45.432  26.199  27.065  1.00  0.00    -0.354 N 
ATOM     37  C   UNL A   1      41.529  27.413  28.467  1.00  0.00     0.074 A 
ATOM     38  C   UNL A   1      40.588  26.317  28.396  1.00  0.00     0.031 C 
ATOM     39  C   UNL A   1      46.950  24.796  26.212  1.00  0.00     0.029 A 
ATOM     40  C   UNL A   1      46.739  26.174  26.643  1.00  0.00     0.049 A 
ATOM     41  H   UNL A   1      45.001  27.003  27.434  1.00  0.00     0.167 HD
ATOM     42  C   UNL A   1      41.228  28.653  28.921  1.00  0.00     0.037 A 
ATOM     43  C   UNL A   1      47.661  27.155  26.598  1.00  0.00     0.037 A 
ATOM     44  C   UNL A   1      42.174  29.736  29.005  1.00  0.00     0.049 A 
ATOM     45  C   UNL A   1      47.295  28.530  27.087  1.00  0.00     0.074 A 
ATOM     46  C   UNL A   1      41.981  31.014  29.501  1.00  0.00     0.029 A 
ATOM     47  N   UNL A   1      43.491  29.671  28.573  1.00  0.00    -0.354 N 
ATOM     48  N   UNL A   1      46.157  28.960  27.576  1.00  0.00    -0.248 NA
ATOM     49  C   UNL A   1      48.343  29.559  27.022  1.00  0.00     0.031 C 
ATOM     50  C   UNL A   1      43.162  31.738  29.315  1.00  0.00     0.029 A 
ATOM     51  C   UNL A   1      44.114  30.895  28.765  1.00  0.00     0.049 A 
ATOM     52  H   UNL A   1      43.920  28.874  28.188  1.00  0.00     0.167 HD
ATOM     53  C   UNL A   1      46.361  30.293  27.908  1.00  0.00     0.074 A 
ATOM     54  C   UNL A   1      47.737  30.598  27.577  1.00  0.00     0.031 C 
ATOM     55  C   UNL A   1      45.487  31.184  28.438  1.00  0.00     0.037 A 
BRANCH  42  56
ATOM     56  C   UNL A   1      39.815  28.910  29.363  1.00  0.00     0.064 A 
ATOM     57  C   UNL A   1      38.840  29.392  28.475  1.00  0.00     0.173 A 
ATOM     58  C   UNL A   1      39.420  28.636  30.681  1.00  0.00     0.173 A 
ATOM     59  F   UNL A   1      39.165  29.680  27.205  1.00  0.00    -0.203 F 
ATOM     60  C   UNL A   1      37.532  29.619  28.898  1.00  0.00     0.198 A 
ATOM     61  C   UNL A   1      38.103  28.832  31.092  1.00  0.00     0.198 A 
ATOM     62  F   UNL A   1      40.308  28.167  31.570  1.00  0.00    -0.203 F 
ATOM     63  F   UNL A   1      36.633  30.131  28.047  1.00  0.00    -0.200 F 
ATOM     64  C   UNL A   1      37.163  29.331  30.204  1.00  0.00     0.200 A 
ATOM     65  F   UNL A   1      37.745  28.537  32.350  1.00  0.00    -0.200 F 
ATOM     66  F   UNL A   1      35.903  29.542  30.607  1.00  0.00    -0.200 F 
ENDBRANCH  42  56
BRANCH  43  67
ATOM     67  C   UNL A   1      49.028  26.869  26.085  1.00  0.00     0.064 A 
ATOM     68  C   UNL A   1      49.348  27.063  24.733  1.00  0.00     0.173 A 
ATOM     69  C   UNL A   1      50.039  26.387  26.929  1.00  0.00     0.173 A 
ATOM     70  F   UNL A   1      48.410  27.503  23.881  1.00  0.00    -0.203 F 
ATOM     71  C   UNL A   1      50.616  26.761  24.241  1.00  0.00     0.198 A 
ATOM     72  C   UNL A   1      51.318  26.117  26.443  1.00  0.00     0.198 A 
ATOM     73  F   UNL A   1      49.790  26.189  28.232  1.00  0.00    -0.203 F 
ATOM     74  F   UNL A   1      50.876  26.905  22.935  1.00  0.00    -0.200 F 
ATOM     75  C   UNL A   1      51.601  26.295  25.098  1.00  0.00     0.200 A 
ATOM     76  F   UNL A   1      52.271  25.682  27.277  1.00  0.00    -0.200 F 
ATOM     77  F   UNL A   1      52.821  26.007  24.625  1.00  0.00    -0.200 F 
ENDBRANCH  43  67
BRANCH  55  78
ATOM     78  C   UNL A   1      46.002  32.564  28.735  1.00  0.00     0.064 A 
ATOM     79  C   UNL A   1      45.910  33.605  27.798  1.00  0.00     0.173 A 
ATOM     80  C   UNL A   1      46.559  32.857  29.989  1.00  0.00     0.173 A 
ATOM     81  F   UNL A   1      45.399  33.375  26.579  1.00  0.00    -0.203 F 
ATOM     82  C   UNL A   1      46.384  34.879  28.096  1.00  0.00     0.198 A 
ATOM     83  C   UNL A   1      47.001  34.142  30.295  1.00  0.00     0.198 A 
ATOM     84  F   UNL A   1      46.664  31.901  30.924  1.00  0.00    -0.203 F 
ATOM     85  F   UNL A   1      46.336  35.844  27.167  1.00  0.00    -0.200 F 
ATOM     86  C   UNL A   1      46.921  35.149  29.347  1.00  0.00     0.200 A 
ATOM     87  F   UNL A   1      47.502  34.403  31.511  1.00  0.00    -0.200 F 
ATOM     88  F   UNL A   1      47.368  36.379  29.635  1.00  0.00    -0.200 F 
ENDBRANCH  55  78
ENDBRANCH  29  30
ENDBRANCH  21  24
ENDBRANCH  19  20
ENDBRANCH  18  19
ENDBRANCH   1  18
TORSDOF 13
ENDMDL
MODEL 2
REMARK VINA RESULT:     -11.3      5.774     11.252
REMARK SMILES CC1=C(C(=O)NCCCCCCNC(=O)c2ccc(-c3c4nc(c(-c5c(F)c(F)c(F)c(F)c5F)c5ccc([nH]5)c(-c5c(F)c(F)c(F)c(F)c5F)c5nc(c(-c6c(F)c(F)c(F)c(F)c6F)c6ccc3[nH]6)C=C5)C=C4)cc2)C(C)(C)CCC1
REMARK SMILES IDX 10 1 9 2 8 3 7 4 6 5 4 6 5 7 3 9 1 10 2 11 84 12 79 13 83 14
REMARK SMILES IDX 80 15 81 16 82 17 11 18 12 19 13 20 14 21 15 23 16 24 17 25
REMARK SMILES IDX 78 26 18 27 77 28 19 29 20 30 21 31 71 32 22 33 76 34 70 35
REMARK SMILES IDX 72 36 23 37 75 38 69 39 68 40 24 42 56 43 36 44 55 45 37 46
REMARK SMILES IDX 40 47 54 48 73 49 38 50 39 51 53 53 74 54 41 55 25 56 26 57
REMARK SMILES IDX 34 58 27 59 28 60 32 61 35 62 29 63 30 64 33 65 31 66 57 67
REMARK SMILES IDX 58 68 66 69 59 70 60 71 64 72 67 73 61 74 62 75 65 76 63 77
REMARK SMILES IDX 42 78 43 79 51 80 44 81 45 82 49 83 52 84 46 85 47 86 50 87
REMARK SMILES IDX 48 88
REMARK H PARENT 6 8 13 22 72 41 40 52
REMARK Flexibility Score: inf
ROOT
ATOM      1  C   UNL A   1      31.606  30.760  25.941  1.00  0.00     0.002 C 
ENDROOT
BRANCH   1   2
ATOM      2  C   UNL A   1      32.402  29.747  26.771  1.00  0.00     0.002 C 
BRANCH   2   3
ATOM      3  C   UNL A   1      31.664  28.500  27.276  1.00  0.00     0.021 C 
BRANCH   3   4
ATOM      4  C   UNL A   1      31.325  27.433  26.238  1.00  0.00     0.116 C 
BRANCH   4   5
ATOM      5  N   UNL A   1      30.979  26.135  26.773  1.00  0.00    -0.352 N 
ATOM      6  C   UNL A   1      31.441  24.884  26.471  1.00  0.00     0.247 C 
ATOM      7  O   UNL A   1      31.081  23.973  27.215  1.00  0.00    -0.270 OA
ATOM      8  H   UNL A   1      30.290  26.155  27.476  1.00  0.00     0.163 HD
BRANCH   6   9
ATOM      9  C   UNL A   1      32.246  24.600  25.218  1.00  0.00     0.021 C 
ATOM     10  C   UNL A   1      30.278  24.763  23.605  1.00  0.00     0.040 C 
ATOM     11  C   UNL A   1      31.687  24.404  23.995  1.00  0.00    -0.064 C 
ATOM     12  C   UNL A   1      32.469  23.859  22.816  1.00  0.00     0.031 C 
ATOM     13  C   UNL A   1      33.794  24.667  25.382  1.00  0.00    -0.005 C 
ATOM     14  C   UNL A   1      33.910  23.486  23.127  1.00  0.00     0.005 C 
ATOM     15  C   UNL A   1      34.269  26.023  25.967  1.00  0.00     0.016 C 
ATOM     16  C   UNL A   1      34.299  23.536  26.299  1.00  0.00     0.016 C 
ATOM     17  C   UNL A   1      34.517  24.562  24.005  1.00  0.00     0.012 C 
ENDBRANCH   6   9
ENDBRANCH   4   5
ENDBRANCH   3   4
ENDBRANCH   2   3
ENDBRANCH   1   2
BRANCH   1  18
ATOM     18  C   UNL A   1      31.370  32.139  26.561  1.00  0.00     0.021 C 
BRANCH  18  19
ATOM     19  C   UNL A   1      32.568  32.787  27.245  1.00  0.00     0.116 C 
BRANCH  19  20
ATOM     20  N   UNL A   1      32.339  34.171  27.619  1.00  0.00    -0.352 N 
ATOM     21  C   UNL A   1      32.979  34.947  28.554  1.00  0.00     0.251 C 
ATOM     22  H   UNL A   1      31.614  34.622  27.128  1.00  0.00     0.163 HD
ATOM     23  O   UNL A   1      32.565  36.073  28.807  1.00  0.00    -0.269 OA
BRANCH  21  24
ATOM     24  C   UNL A   1      34.154  34.420  29.287  1.00  0.00     0.039 A 
ATOM     25  C   UNL A   1      33.946  33.799  30.522  1.00  0.00     0.014 A 
ATOM     26  C   UNL A   1      35.448  34.542  28.777  1.00  0.00     0.014 A 
ATOM     27  C   UNL A   1      35.028  33.243  31.212  1.00  0.00     0.010 A 
ATOM     28  C   UNL A   1      36.513  33.922  29.427  1.00  0.00     0.010 A 
ATOM     29  C   UNL A   1      36.315  33.268  30.653  1.00  0.00    -0.014 A 
BRANCH  29  30
ATOM     30  C   UNL A   1      37.461  32.611  31.336  1.00  0.00     0.031 A 
ATOM     31  C   UNL A   1      38.167  31.451  30.689  1.00  0.00     0.074 A 
ATOM     32  C   UNL A   1      37.831  33.023  32.565  1.00  0.00     0.049 A 
ATOM     33  N   UNL A   1      39.144  30.712  31.151  1.00  0.00    -0.248 NA
ATOM     34  C   UNL A   1      37.695  31.052  29.354  1.00  0.00     0.031 C 
ATOM     35  C   UNL A   1      37.199  34.109  33.316  1.00  0.00     0.029 A 
ATOM     36  N   UNL A   1      38.820  32.571  33.402  1.00  0.00    -0.354 N 
ATOM     37  C   UNL A   1      39.393  29.759  30.173  1.00  0.00     0.074 A 
ATOM     38  C   UNL A   1      38.429  29.975  29.117  1.00  0.00     0.031 C 
ATOM     39  C   UNL A   1      37.831  34.255  34.491  1.00  0.00     0.029 A 
ATOM     40  C   UNL A   1      38.882  33.248  34.596  1.00  0.00     0.049 A 
ATOM     41  H   UNL A   1      39.428  31.834  33.169  1.00  0.00     0.167 HD
ATOM     42  C   UNL A   1      40.356  28.805  30.147  1.00  0.00     0.037 A 
ATOM     43  C   UNL A   1      39.687  33.068  35.661  1.00  0.00     0.037 A 
ATOM     44  C   UNL A   1      41.325  28.604  31.193  1.00  0.00     0.049 A 
ATOM     45  C   UNL A   1      40.732  31.986  35.617  1.00  0.00     0.074 A 
ATOM     46  C   UNL A   1      42.373  27.702  31.237  1.00  0.00     0.029 A 
ATOM     47  N   UNL A   1      41.359  29.313  32.386  1.00  0.00    -0.354 N 
ATOM     48  N   UNL A   1      41.004  31.135  34.657  1.00  0.00    -0.248 NA
ATOM     49  C   UNL A   1      41.588  31.841  36.803  1.00  0.00     0.031 C 
ATOM     50  C   UNL A   1      43.004  27.823  32.478  1.00  0.00     0.029 A 
ATOM     51  C   UNL A   1      42.392  28.848  33.184  1.00  0.00     0.049 A 
ATOM     52  H   UNL A   1      40.741  30.040  32.629  1.00  0.00     0.167 HD
ATOM     53  C   UNL A   1      42.079  30.380  35.107  1.00  0.00     0.074 A 
ATOM     54  C   UNL A   1      42.419  30.883  36.422  1.00  0.00     0.031 C 
ATOM     55  C   UNL A   1      42.726  29.362  34.488  1.00  0.00     0.037 A 
BRANCH  42  56
ATOM     56  C   UNL A   1      40.409  27.901  28.948  1.00  0.00     0.064 A 
ATOM     57  C   UNL A   1      41.165  28.226  27.811  1.00  0.00     0.173 A 
ATOM     58  C   UNL A   1      39.725  26.676  28.949  1.00  0.00     0.173 A 
ATOM     59  F   UNL A   1      41.832  29.389  27.752  1.00  0.00    -0.203 F 
ATOM     60  C   UNL A   1      41.209  27.375  26.709  1.00  0.00     0.198 A 
ATOM     61  C   UNL A   1      39.798  25.811  27.859  1.00  0.00     0.198 A 
ATOM     62  F   UNL A   1      38.991  26.311  30.011  1.00  0.00    -0.203 F 
ATOM     63  F   UNL A   1      41.893  27.732  25.614  1.00  0.00    -0.200 F 
ATOM     64  C   UNL A   1      40.532  26.164  26.738  1.00  0.00     0.200 A 
ATOM     65  F   UNL A   1      39.156  24.635  27.896  1.00  0.00    -0.200 F 
ATOM     66  F   UNL A   1      40.581  25.342  25.681  1.00  0.00    -0.200 F 
ENDBRANCH  42  56
BRANCH  43  67
ATOM     67  C   UNL A   1      39.549  33.943  36.856  1.00  0.00     0.064 A 
ATOM     68  C   UNL A   1      38.760  33.555  37.949  1.00  0.00     0.173 A 
ATOM     69  C   UNL A   1      40.190  35.189  36.927  1.00  0.00     0.173 A 
ATOM     70  F   UNL A   1      38.109  32.383  37.920  1.00  0.00    -0.203 F 
ATOM     71  C   UNL A   1      38.597  34.389  39.053  1.00  0.00     0.198 A 
ATOM     72  C   UNL A   1      40.055  36.007  38.047  1.00  0.00     0.198 A 
ATOM     73  F   UNL A   1      40.961  35.607  35.912  1.00  0.00    -0.203 F 
ATOM     74  F   UNL A   1      37.795  34.015  40.059  1.00  0.00    -0.200 F 
ATOM     75  C   UNL A   1      39.250  35.611  39.104  1.00  0.00     0.200 A 
ATOM     76  F   UNL A   1      40.699  37.181  38.099  1.00  0.00    -0.200 F 
ATOM     77  F   UNL A   1      39.096  36.411  40.168  1.00  0.00    -0.200 F 
ENDBRANCH  43  67
BRANCH  55  78
ATOM     78  C   UNL A   1      43.895  28.749  35.205  1.00  0.00     0.064 A 
ATOM     79  C   UNL A   1      43.744  27.648  36.062  1.00  0.00     0.173 A 
ATOM     80  C   UNL A   1      45.192  29.246  35.000  1.00  0.00     0.173 A 
ATOM     81  F   UNL A   1      42.524  27.143  36.304  1.00  0.00    -0.203 F 
ATOM     82  C   UNL A   1      44.842  27.088  36.709  1.00  0.00     0.198 A 
ATOM     83  C   UNL A   1      46.291  28.662  35.621  1.00  0.00     0.198 A 
ATOM     84  F   UNL A   1      45.394  30.293  34.185  1.00  0.00    -0.203 F 
ATOM     85  F   UNL A   1      44.667  26.072  37.565  1.00  0.00    -0.200 F 
ATOM     86  C   UNL A   1      46.115  27.590  36.482  1.00  0.00     0.200 A 
ATOM     87  F   UNL A   1      47.522  29.137  35.385  1.00  0.00    -0.200 F 
ATOM     88  F   UNL A   1      47.173  27.043  37.098  1.00  0.00    -0.200 F 
ENDBRANCH  55  78
ENDBRANCH  29  30
ENDBRANCH  21  24
ENDBRANCH  19  20
ENDBRANCH  18  19
ENDBRANCH   1  18
TORSDOF 13
ENDMDL
MODEL 3
REMARK VINA RESULT:     -11.2      5.990     11.387
REMARK SMILES CC1=C(C(=O)NCCCCCCNC(=O)c2ccc(-c3c4nc(c(-c5c(F)c(F)c(F)c(F)c5F)c5ccc([nH]5)c(-c5c(F)c(F)c(F)c(F)c5F)c5nc(c(-c6c(F)c(F)c(F)c(F)c6F)c6ccc3[nH]6)C=C5)C=C4)cc2)C(C)(C)CCC1
REMARK SMILES IDX 10 1 9 2 8 3 7 4 6 5 4 6 5 7 3 9 1 10 2 11 84 12 79 13 83 14
REMARK SMILES IDX 80 15 81 16 82 17 11 18 12 19 13 20 14 21 15 23 16 24 17 25
REMARK SMILES IDX 78 26 18 27 77 28 19 29 20 30 21 31 71 32 22 33 76 34 70 35
REMARK SMILES IDX 72 36 23 37 75 38 69 39 68 40 24 42 56 43 36 44 55 45 37 46
REMARK SMILES IDX 40 47 54 48 73 49 38 50 39 51 53 53 74 54 41 55 25 56 26 57
REMARK SMILES IDX 34 58 27 59 28 60 32 61 35 62 29 63 30 64 33 65 31 66 57 67
REMARK SMILES IDX 58 68 66 69 59 70 60 71 64 72 67 73 61 74 62 75 65 76 63 77
REMARK SMILES IDX 42 78 43 79 51 80 44 81 45 82 49 83 52 84 46 85 47 86 50 87
REMARK SMILES IDX 48 88
REMARK H PARENT 6 8 13 22 72 41 40 52
REMARK Flexibility Score: inf
ROOT
ATOM      1  C   UNL A   1      31.578  30.781  26.221  1.00  0.00     0.002 C 
ENDROOT
BRANCH   1   2
ATOM      2  C   UNL A   1      32.335  29.886  27.207  1.00  0.00     0.002 C 
BRANCH   2   3
ATOM      3  C   UNL A   1      33.757  29.450  26.830  1.00  0.00     0.021 C 
BRANCH   3   4
ATOM      4  C   UNL A   1      33.883  28.283  25.853  1.00  0.00     0.116 C 
BRANCH   4   5
ATOM      5  N   UNL A   1      34.007  28.651  24.460  1.00  0.00    -0.352 N 
ATOM      6  C   UNL A   1      33.185  28.424  23.392  1.00  0.00     0.247 C 
ATOM      7  O   UNL A   1      33.471  29.006  22.346  1.00  0.00    -0.270 OA
ATOM      8  H   UNL A   1      34.827  29.150  24.242  1.00  0.00     0.163 HD
BRANCH   6   9
ATOM      9  C   UNL A   1      32.057  27.412  23.440  1.00  0.00     0.021 C 
ATOM     10  C   UNL A   1      30.181  29.127  23.643  1.00  0.00     0.040 C 
ATOM     11  C   UNL A   1      30.764  27.740  23.702  1.00  0.00    -0.064 C 
ATOM     12  C   UNL A   1      29.703  26.703  24.013  1.00  0.00     0.031 C 
ATOM     13  C   UNL A   1      32.441  25.954  23.044  1.00  0.00    -0.005 C 
ATOM     14  C   UNL A   1      30.213  25.272  24.075  1.00  0.00     0.005 C 
ATOM     15  C   UNL A   1      33.103  25.878  21.644  1.00  0.00     0.016 C 
ATOM     16  C   UNL A   1      33.408  25.342  24.075  1.00  0.00     0.016 C 
ATOM     17  C   UNL A   1      31.180  25.045  22.931  1.00  0.00     0.012 C 
ENDBRANCH   6   9
ENDBRANCH   4   5
ENDBRANCH   3   4
ENDBRANCH   2   3
ENDBRANCH   1   2
BRANCH   1  18
ATOM     18  C   UNL A   1      31.416  32.255  26.599  1.00  0.00     0.021 C 
BRANCH  18  19
ATOM     19  C   UNL A   1      32.617  32.919  27.261  1.00  0.00     0.116 C 
BRANCH  19  20
ATOM     20  N   UNL A   1      32.364  34.289  27.671  1.00  0.00    -0.352 N 
ATOM     21  C   UNL A   1      32.987  35.050  28.632  1.00  0.00     0.251 C 
ATOM     22  H   UNL A   1      31.636  34.743  27.187  1.00  0.00     0.163 HD
ATOM     23  O   UNL A   1      32.554  36.161  28.911  1.00  0.00    -0.269 OA
BRANCH  21  24
ATOM     24  C   UNL A   1      34.163  34.520  29.359  1.00  0.00     0.039 A 
ATOM     25  C   UNL A   1      33.964  33.916  30.603  1.00  0.00     0.014 A 
ATOM     26  C   UNL A   1      35.454  34.623  28.833  1.00  0.00     0.014 A 
ATOM     27  C   UNL A   1      35.047  33.359  31.289  1.00  0.00     0.010 A 
ATOM     28  C   UNL A   1      36.520  34.001  29.480  1.00  0.00     0.010 A 
ATOM     29  C   UNL A   1      36.328  33.364  30.716  1.00  0.00    -0.014 A 
BRANCH  29  30
ATOM     30  C   UNL A   1      37.475  32.705  31.395  1.00  0.00     0.031 A 
ATOM     31  C   UNL A   1      38.188  31.555  30.737  1.00  0.00     0.074 A 
ATOM     32  C   UNL A   1      37.840  33.105  32.629  1.00  0.00     0.049 A 
ATOM     33  N   UNL A   1      39.167  30.815  31.194  1.00  0.00    -0.248 NA
ATOM     34  C   UNL A   1      37.721  31.168  29.397  1.00  0.00     0.031 C 
ATOM     35  C   UNL A   1      37.202  34.180  33.390  1.00  0.00     0.029 A 
ATOM     36  N   UNL A   1      38.829  32.648  33.464  1.00  0.00    -0.354 N 
ATOM     37  C   UNL A   1      39.423  29.874  30.206  1.00  0.00     0.074 A 
ATOM     38  C   UNL A   1      38.460  30.097  29.150  1.00  0.00     0.031 C 
ATOM     39  C   UNL A   1      37.830  34.317  34.569  1.00  0.00     0.029 A 
ATOM     40  C   UNL A   1      38.885  33.313  34.666  1.00  0.00     0.049 A 
ATOM     41  H   UNL A   1      39.441  31.916  33.225  1.00  0.00     0.167 HD
ATOM     42  C   UNL A   1      40.389  28.924  30.172  1.00  0.00     0.037 A 
ATOM     43  C   UNL A   1      39.688  33.125  35.731  1.00  0.00     0.037 A 
ATOM     44  C   UNL A   1      41.357  28.717  31.220  1.00  0.00     0.049 A 
ATOM     45  C   UNL A   1      40.738  32.048  35.677  1.00  0.00     0.074 A 
ATOM     46  C   UNL A   1      42.408  27.818  31.257  1.00  0.00     0.029 A 
ATOM     47  N   UNL A   1      41.384  29.413  32.420  1.00  0.00    -0.354 N 
ATOM     48  N   UNL A   1      41.016  31.209  34.709  1.00  0.00    -0.248 NA
ATOM     49  C   UNL A   1      41.591  31.894  36.864  1.00  0.00     0.031 C 
ATOM     50  C   UNL A   1      43.035  27.929  32.501  1.00  0.00     0.029 A 
ATOM     51  C   UNL A   1      42.418  28.943  33.215  1.00  0.00     0.049 A 
ATOM     52  H   UNL A   1      40.763  30.134  32.669  1.00  0.00     0.167 HD
ATOM     53  C   UNL A   1      42.093  30.453  35.154  1.00  0.00     0.074 A 
ATOM     54  C   UNL A   1      42.427  30.944  36.475  1.00  0.00     0.031 C 
ATOM     55  C   UNL A   1      42.745  29.445  34.526  1.00  0.00     0.037 A 
BRANCH  42  56
ATOM     56  C   UNL A   1      40.449  28.033  28.964  1.00  0.00     0.064 A 
ATOM     57  C   UNL A   1      39.729  26.830  28.897  1.00  0.00     0.173 A 
ATOM     58  C   UNL A   1      41.207  28.404  27.843  1.00  0.00     0.173 A 
ATOM     59  F   UNL A   1      38.995  26.422  29.944  1.00  0.00    -0.203 F 
ATOM     60  C   UNL A   1      39.791  26.018  27.768  1.00  0.00     0.198 A 
ATOM     61  C   UNL A   1      41.239  27.606  26.701  1.00  0.00     0.198 A 
ATOM     62  F   UNL A   1      41.911  29.546  27.848  1.00  0.00    -0.203 F 
ATOM     63  F   UNL A   1      39.138  24.848  27.749  1.00  0.00    -0.200 F 
ATOM     64  C   UNL A   1      40.539  26.410  26.667  1.00  0.00     0.200 A 
ATOM     65  F   UNL A   1      41.951  27.995  25.634  1.00  0.00    -0.200 F 
ATOM     66  F   UNL A   1      40.591  25.632  25.578  1.00  0.00    -0.200 F 
ENDBRANCH  42  56
BRANCH  43  67
ATOM     67  C   UNL A   1      39.543  33.987  36.934  1.00  0.00     0.064 A 
ATOM     68  C   UNL A   1      40.177  35.236  37.009  1.00  0.00     0.173 A 
ATOM     69  C   UNL A   1      38.779  33.579  38.038  1.00  0.00     0.173 A 
ATOM     70  F   UNL A   1      40.936  35.662  35.988  1.00  0.00    -0.203 F 
ATOM     71  C   UNL A   1      40.075  36.029  38.149  1.00  0.00     0.198 A 
ATOM     72  C   UNL A   1      38.649  34.389  39.165  1.00  0.00     0.198 A 
ATOM     73  F   UNL A   1      38.147  32.396  38.017  1.00  0.00    -0.203 F 
ATOM     74  F   UNL A   1      40.735  37.193  38.213  1.00  0.00    -0.200 F 
ATOM     75  C   UNL A   1      39.306  35.608  39.223  1.00  0.00     0.200 A 
ATOM     76  F   UNL A   1      37.892  33.985  40.194  1.00  0.00    -0.200 F 
ATOM     77  F   UNL A   1      39.205  36.374  40.318  1.00  0.00    -0.200 F 
ENDBRANCH  43  67
BRANCH  55  78
ATOM     78  C   UNL A   1      43.916  28.829  35.239  1.00  0.00     0.064 A 
ATOM     79  C   UNL A   1      43.757  27.764  36.140  1.00  0.00     0.173 A 
ATOM     80  C   UNL A   1      45.219  29.286  34.987  1.00  0.00     0.173 A 
ATOM     81  F   UNL A   1      42.532  27.299  36.427  1.00  0.00    -0.203 F 
ATOM     82  C   UNL A   1      44.856  27.201  36.782  1.00  0.00     0.198 A 
ATOM     83  C   UNL A   1      46.318  28.696  35.606  1.00  0.00     0.198 A 
ATOM     84  F   UNL A   1      45.428  30.296  34.130  1.00  0.00    -0.203 F 
ATOM     85  F   UNL A   1      44.675  26.221  37.680  1.00  0.00    -0.200 F 
ATOM     86  C   UNL A   1      46.136  27.661  36.509  1.00  0.00     0.200 A 
ATOM     87  F   UNL A   1      47.555  29.132  35.326  1.00  0.00    -0.200 F 
ATOM     88  F   UNL A   1      47.193  27.111  37.122  1.00  0.00    -0.200 F 
ENDBRANCH  55  78
ENDBRANCH  29  30
ENDBRANCH  21  24
ENDBRANCH  19  20
ENDBRANCH  18  19
ENDBRANCH   1  18
TORSDOF 13
ENDMDL
